/media/chris/experiments/cd1a-new-docking/inputs/ligands/1xz0_ligand.pdb


 65 67  0  0  0  0  0  0  0  0999 V2000
  -41.8947   58.1225   62.9550 C   0  0  0  0  0  0  0  0  0  0  0  0
  -40.9475   58.4565   64.0205 N   0  0  0  0  0  0  0  0  0  0  0  0
  -40.6814   60.7029   63.7841 O   0  0  0  0  0  0  0  0  0  0  0  0
  -40.4271   59.6502   64.3545 C   0  0  0  0  0  0  0  0  0  0  0  0
  -40.6487   57.6975   64.5718 H   0  0  0  0  0  0  0  0  0  0  0  0
  -38.6413   60.9677   65.4749 N   0  0  0  0  0  0  0  0  0  0  0  0
  -36.9972   59.4552   65.4390 O   0  0  0  0  0  0  0  0  0  0  0  0
  -38.1881   58.6698   65.4026 C   0  0  0  0  0  0  0  0  0  0  0  0
  -37.3835   60.8437   65.4656 C   0  0  0  0  0  0  0  0  0  0  0  0
  -39.3656   59.6828   65.4446 C   0  0  0  0  0  0  0  0  0  0  0  0
  -36.9751   62.7941   63.3617 O   0  0  0  0  0  0  0  0  0  0  0  0
  -36.2614   62.9022   64.4890 C   0  0  0  0  0  0  0  0  0  0  0  0
  -35.3509   63.9572   64.6340 C   0  0  0  0  0  0  0  0  0  0  0  0
  -34.5832   64.0873   65.8036 C   0  0  0  0  0  0  0  0  0  0  0  0
  -34.7246   63.1694   66.8458 C   0  0  0  0  0  0  0  0  0  0  0  0
  -35.6362   62.1188   66.7086 C   0  0  0  0  0  0  0  0  0  0  0  0
  -36.4006   61.9809   65.5342 C   0  0  0  0  0  0  0  0  0  0  0  0
  -36.8652   63.4227   62.6756 H   0  0  0  0  0  0  0  0  0  0  0  0
  -41.7454   59.3589   60.9094 O   0  0  0  0  0  0  0  0  0  0  0  0
  -41.2363   58.5362   61.6526 C   0  0  0  0  0  0  0  0  0  0  0  0
  -39.9892   57.8913   61.2282 O   0  0  0  0  0  0  0  0  0  0  0  0
  -38.9446   58.6370   60.5752 C   0  0  0  0  0  0  0  0  0  0  0  0
  -38.7461   58.2925   59.1043 C   0  0  0  0  0  0  0  0  0  0  0  0
  -37.6565   58.4474   61.3620 C   0  0  0  0  0  0  0  0  0  0  0  0
  -35.9209   59.7316   62.5173 N   0  0  0  0  0  0  0  0  0  0  0  0
  -37.8874   60.6832   61.9316 O   0  0  0  0  0  0  0  0  0  0  0  0
  -37.1588   59.7200   62.0015 C   0  0  0  0  0  0  0  0  0  0  0  0
  -35.5822   60.5842   62.8748 H   0  0  0  0  0  0  0  0  0  0  0  0
  -33.7765   58.9400   64.6689 N   0  0  0  0  0  0  0  0  0  0  0  0
  -35.0112   57.0750   64.4185 O   0  0  0  0  0  0  0  0  0  0  0  0
  -33.4531   60.3369   64.3430 C   0  0  0  0  0  0  0  0  0  0  0  0
  -32.6202   60.4158   63.0495 C   0  0  0  0  0  0  0  0  0  0  0  0
  -32.4658   59.1050   62.2961 C   0  0  0  0  0  0  0  0  0  0  0  0
  -33.7813   58.6000   61.6976 C   0  0  0  0  0  0  0  0  0  0  0  0
  -35.0358   58.5634   62.5863 C   0  0  0  0  0  0  0  0  0  0  0  0
  -34.6112   58.1451   63.9805 C   0  0  0  0  0  0  0  0  0  0  0  0
  -32.7759   59.4445   67.1726 Si  0  0  0  0  0  0  0  0  0  0  0  0
  -33.1831   58.4082   65.7739 O   0  0  0  0  0  0  0  0  0  0  0  0
  -32.1709   58.6553   68.1862 H   0  0  0  0  0  0  0  0  0  0  0  0
  -33.9604   60.0406   67.6806 H   0  0  0  0  0  0  0  0  0  0  0  0
  -31.8732   60.4608   66.7619 H   0  0  0  0  0  0  0  0  0  0  0  0
  -43.9732   58.5437   64.5031 C   0  0  0  0  0  0  0  0  0  0  0  0
  -43.3473   58.6356   63.1059 C   0  0  0  0  0  0  0  0  0  0  0  0
  -45.5067   58.6297   64.5844 C   0  0  0  0  0  0  0  0  0  0  0  0
  -46.2057   57.8323   65.7046 C   0  0  0  0  0  0  0  0  0  0  0  0
  -47.2359   58.6868   66.3034 N   0  0  0  0  0  0  0  0  0  0  0  0
  -48.4983   58.9390   65.8673 C   0  0  0  0  0  0  0  0  0  0  0  0
  -46.8332   59.3165   67.4894 O   0  0  0  0  0  0  0  0  0  0  0  0
  -49.2498   59.6883   66.4910 O   0  0  0  0  0  0  0  0  0  0  0  0
  -47.5599   59.8626   67.8283 H   0  0  0  0  0  0  0  0  0  0  0  0
  -48.9860   58.2686   64.5788 C   0  0  0  0  0  0  0  0  0  0  0  0
  -50.5126   58.2022   64.4352 C   0  0  0  0  0  0  0  0  0  0  0  0
  -50.9511   58.8910   63.1285 C   0  0  0  0  0  0  0  0  0  0  0  0
  -50.3972   60.3200   62.9708 C   0  0  0  0  0  0  0  0  0  0  0  0
  -49.2168   60.4456   61.9895 C   0  0  0  0  0  0  0  0  0  0  0  0
  -49.6677   60.5303   60.5162 C   0  0  0  0  0  0  0  0  0  0  0  0
  -49.2372   59.3286   59.6431 C   0  0  0  0  0  0  0  0  0  0  0  0
  -50.3634   58.3176   59.3988 C   0  0  0  0  0  0  0  0  0  0  0  0
  -50.2514   57.0084   60.1864 C   0  0  0  0  0  0  0  0  0  0  0  0
  -48.7930   56.7160   60.5842 C   0  0  0  0  0  0  0  0  0  0  0  0
  -48.0781   55.7299   59.6481 C   0  0  0  0  0  0  0  0  0  0  0  0
  -47.2374   56.3608   58.5333 C   0  0  0  0  0  0  0  0  0  0  0  0
  -47.7543   56.0666   57.1029 C   0  0  0  0  0  0  0  0  0  0  0  0
  -48.0096   57.3678   56.3155 C   0  0  0  0  0  0  0  0  0  0  0  0
  -47.1338   58.5781   56.6610 C   0  0  0  0  0  0  0  0  0  0  0  0
 46 47  1  0  0  0
 46 48  1  0  0  0
 46 45  1  0  0  0
 47 49  2  0  0  0
 47 51  1  0  0  0
 19 20  2  0  0  0
 37 38  1  0  0  0
 37 39  1  0  0  0
 37 40  1  0  0  0
 37 41  1  0  0  0
 48 50  1  0  0  0
 38 29  1  0  0  0
 45 44  1  0  0  0
 25 27  1  0  0  0
 25 35  1  0  0  0
 25 28  1  0  0  0
 21 20  1  0  0  0
 21 22  1  0  0  0
 44 42  1  0  0  0
  2  1  1  0  0  0
  2  4  1  0  0  0
  2  5  1  0  0  0
 26 27  2  0  0  0
 42 43  2  0  0  0
 29 31  1  0  0  0
 29 36  1  0  0  0
  3  4  2  0  0  0
 43  1  1  0  0  0
  6  9  2  0  0  0
  6 10  1  0  0  0
  1 20  1  0  0  0
 30 36  2  0  0  0
  7  8  1  0  0  0
  7  9  1  0  0  0
 22 24  1  0  0  0
 22 23  1  0  0  0
 11 12  1  0  0  0
 11 18  1  0  0  0
 24 27  1  0  0  0
  4 10  1  0  0  0
 51 52  1  0  0  0
 52 53  1  0  0  0
 53 54  1  0  0  0
 54 55  1  0  0  0
 55 56  1  0  0  0
 56 57  1  0  0  0
 57 58  1  0  0  0
 58 59  1  0  0  0
 59 60  1  0  0  0
 60 61  1  0  0  0
 61 62  1  0  0  0
 62 63  1  0  0  0
 63 64  1  0  0  0
 64 65  1  0  0  0
 31 32  1  0  0  0
 32 33  1  0  0  0
 33 34  1  0  0  0
 34 35  1  0  0  0
 35 36  1  0  0  0
  8 10  1  0  0  0
  9 17  1  0  0  0
 12 13  2  0  0  0
 12 17  1  0  0  0
 13 14  1  0  0  0
 14 15  2  0  0  0
 15 16  1  0  0  0
 16 17  2  0  0  0
M  END
> <minimizedAffinity>
-10.14535

> <CNNscore>
0.1943844259

> <CNNaffinity>
7.4000611305

> <CNN_VS>
1.4384566545

> <CNNaffinity_variance>
0.7347120047

$$$$
/media/chris/experiments/cd1a-new-docking/inputs/ligands/1xz0_ligand.pdb


 65 67  0  0  0  0  0  0  0  0999 V2000
  -42.5420   59.1177   63.9504 C   0  0  0  0  0  0  0  0  0  0  0  0
  -41.3543   59.2195   64.8008 N   0  0  0  0  0  0  0  0  0  0  0  0
  -40.1219   60.8290   63.7695 O   0  0  0  0  0  0  0  0  0  0  0  0
  -40.2800   60.0173   64.6719 C   0  0  0  0  0  0  0  0  0  0  0  0
  -41.3406   58.6168   65.5792 H   0  0  0  0  0  0  0  0  0  0  0  0
  -38.1530   60.9277   65.5815 N   0  0  0  0  0  0  0  0  0  0  0  0
  -36.8755   59.1024   65.4139 O   0  0  0  0  0  0  0  0  0  0  0  0
  -38.2021   58.5859   65.5125 C   0  0  0  0  0  0  0  0  0  0  0  0
  -36.9569   60.5412   65.4498 C   0  0  0  0  0  0  0  0  0  0  0  0
  -39.1302   59.8246   65.6502 C   0  0  0  0  0  0  0  0  0  0  0  0
  -37.0280   63.4004   65.9155 O   0  0  0  0  0  0  0  0  0  0  0  0
  -35.8521   62.8193   65.6481 C   0  0  0  0  0  0  0  0  0  0  0  0
  -34.6869   63.5967   65.6154 C   0  0  0  0  0  0  0  0  0  0  0  0
  -33.4419   63.0122   65.3279 C   0  0  0  0  0  0  0  0  0  0  0  0
  -33.3465   61.6419   65.0796 C   0  0  0  0  0  0  0  0  0  0  0  0
  -34.5051   60.8610   65.1173 C   0  0  0  0  0  0  0  0  0  0  0  0
  -35.7554   61.4453   65.3966 C   0  0  0  0  0  0  0  0  0  0  0  0
  -37.0684   64.3218   66.0807 H   0  0  0  0  0  0  0  0  0  0  0  0
  -42.9624   57.0173   65.0214 O   0  0  0  0  0  0  0  0  0  0  0  0
  -43.4250   58.0542   64.5749 C   0  0  0  0  0  0  0  0  0  0  0  0
  -44.8809   58.2311   64.5900 O   0  0  0  0  0  0  0  0  0  0  0  0
  -45.5938   58.4712   65.8180 C   0  0  0  0  0  0  0  0  0  0  0  0
  -46.3919   57.2785   66.3298 C   0  0  0  0  0  0  0  0  0  0  0  0
  -46.4874   59.6869   65.6236 C   0  0  0  0  0  0  0  0  0  0  0  0
  -47.6270   60.2349   63.5266 N   0  0  0  0  0  0  0  0  0  0  0  0
  -45.4250   60.6665   63.8103 O   0  0  0  0  0  0  0  0  0  0  0  0
  -46.4733   60.2141   64.2100 C   0  0  0  0  0  0  0  0  0  0  0  0
  -47.6198   60.6392   62.6290 H   0  0  0  0  0  0  0  0  0  0  0  0
  -49.6258   58.2113   62.1982 N   0  0  0  0  0  0  0  0  0  0  0  0
  -49.3105   57.3861   64.2682 O   0  0  0  0  0  0  0  0  0  0  0  0
  -49.3820   59.2106   61.1475 C   0  0  0  0  0  0  0  0  0  0  0  0
  -50.2598   60.4573   61.3668 C   0  0  0  0  0  0  0  0  0  0  0  0
  -51.0318   60.4852   62.6756 C   0  0  0  0  0  0  0  0  0  0  0  0
  -50.1256   60.6176   63.9024 C   0  0  0  0  0  0  0  0  0  0  0  0
  -48.8992   59.6975   64.0225 C   0  0  0  0  0  0  0  0  0  0  0  0
  -49.2841   58.3307   63.4911 C   0  0  0  0  0  0  0  0  0  0  0  0
  -49.2966   55.6856   61.1801 Si  0  0  0  0  0  0  0  0  0  0  0  0
  -50.2454   57.0572   61.8240 O   0  0  0  0  0  0  0  0  0  0  0  0
  -50.1706   54.6112   60.8667 H   0  0  0  0  0  0  0  0  0  0  0  0
  -48.3560   55.2616   62.1556 H   0  0  0  0  0  0  0  0  0  0  0  0
  -48.6098   56.0948   60.0066 H   0  0  0  0  0  0  0  0  0  0  0  0
  -41.7500   57.5701   61.9826 C   0  0  0  0  0  0  0  0  0  0  0  0
  -42.3163   58.9229   62.4314 C   0  0  0  0  0  0  0  0  0  0  0  0
  -41.1220   57.5106   60.5799 C   0  0  0  0  0  0  0  0  0  0  0  0
  -39.5822   57.4938   60.4898 C   0  0  0  0  0  0  0  0  0  0  0  0
  -39.0954   58.8639   60.6795 N   0  0  0  0  0  0  0  0  0  0  0  0
  -38.0064   59.2977   61.3675 C   0  0  0  0  0  0  0  0  0  0  0  0
  -39.8831   59.8391   60.0517 O   0  0  0  0  0  0  0  0  0  0  0  0
  -37.7296   60.4953   61.4325 O   0  0  0  0  0  0  0  0  0  0  0  0
  -39.5046   60.7166   60.2181 H   0  0  0  0  0  0  0  0  0  0  0  0
  -37.1113   58.2684   62.0653 C   0  0  0  0  0  0  0  0  0  0  0  0
  -35.6947   58.7679   62.3808 C   0  0  0  0  0  0  0  0  0  0  0  0
  -34.8949   57.6672   63.1039 C   0  0  0  0  0  0  0  0  0  0  0  0
  -33.3952   57.6645   62.7514 C   0  0  0  0  0  0  0  0  0  0  0  0
  -32.8983   58.9441   62.0528 C   0  0  0  0  0  0  0  0  0  0  0  0
  -31.5602   59.4585   62.6238 C   0  0  0  0  0  0  0  0  0  0  0  0
  -30.9293   60.6253   61.8285 C   0  0  0  0  0  0  0  0  0  0  0  0
  -31.1427   61.9952   62.4828 C   0  0  0  0  0  0  0  0  0  0  0  0
  -31.5480   63.1220   61.5274 C   0  0  0  0  0  0  0  0  0  0  0  0
  -31.4696   64.4968   62.2160 C   0  0  0  0  0  0  0  0  0  0  0  0
  -32.8395   65.1407   62.4784 C   0  0  0  0  0  0  0  0  0  0  0  0
  -33.5183   65.7800   61.2627 C   0  0  0  0  0  0  0  0  0  0  0  0
  -35.0502   65.9571   61.4096 C   0  0  0  0  0  0  0  0  0  0  0  0
  -35.8031   64.6484   61.0954 C   0  0  0  0  0  0  0  0  0  0  0  0
  -36.1780   63.7543   62.2835 C   0  0  0  0  0  0  0  0  0  0  0  0
 46 47  1  0  0  0
 46 48  1  0  0  0
 46 45  1  0  0  0
 47 49  2  0  0  0
 47 51  1  0  0  0
 19 20  2  0  0  0
 37 38  1  0  0  0
 37 39  1  0  0  0
 37 40  1  0  0  0
 37 41  1  0  0  0
 48 50  1  0  0  0
 38 29  1  0  0  0
 45 44  1  0  0  0
 25 27  1  0  0  0
 25 35  1  0  0  0
 25 28  1  0  0  0
 21 20  1  0  0  0
 21 22  1  0  0  0
 44 42  1  0  0  0
  2  1  1  0  0  0
  2  4  1  0  0  0
  2  5  1  0  0  0
 26 27  2  0  0  0
 42 43  2  0  0  0
 29 31  1  0  0  0
 29 36  1  0  0  0
  3  4  2  0  0  0
 43  1  1  0  0  0
  6  9  2  0  0  0
  6 10  1  0  0  0
  1 20  1  0  0  0
 30 36  2  0  0  0
  7  8  1  0  0  0
  7  9  1  0  0  0
 22 24  1  0  0  0
 22 23  1  0  0  0
 11 12  1  0  0  0
 11 18  1  0  0  0
 24 27  1  0  0  0
  4 10  1  0  0  0
 51 52  1  0  0  0
 52 53  1  0  0  0
 53 54  1  0  0  0
 54 55  1  0  0  0
 55 56  1  0  0  0
 56 57  1  0  0  0
 57 58  1  0  0  0
 58 59  1  0  0  0
 59 60  1  0  0  0
 60 61  1  0  0  0
 61 62  1  0  0  0
 62 63  1  0  0  0
 63 64  1  0  0  0
 64 65  1  0  0  0
 31 32  1  0  0  0
 32 33  1  0  0  0
 33 34  1  0  0  0
 34 35  1  0  0  0
 35 36  1  0  0  0
  8 10  1  0  0  0
  9 17  1  0  0  0
 12 13  2  0  0  0
 12 17  1  0  0  0
 13 14  1  0  0  0
 14 15  2  0  0  0
 15 16  1  0  0  0
 16 17  2  0  0  0
M  END
> <minimizedAffinity>
-9.19030

> <CNNscore>
0.1796286851

> <CNNaffinity>
7.3505606651

> <CNN_VS>
1.3203715086

> <CNNaffinity_variance>
1.3361631632

$$$$
/media/chris/experiments/cd1a-new-docking/inputs/ligands/1xz0_ligand.pdb


 65 67  0  0  0  0  0  0  0  0999 V2000
  -36.0027   60.6411   65.5976 C   0  0  0  0  0  0  0  0  0  0  0  0
  -35.3949   61.9725   65.5522 N   0  0  0  0  0  0  0  0  0  0  0  0
  -36.1230   62.9344   67.4802 O   0  0  0  0  0  0  0  0  0  0  0  0
  -35.4828   62.9799   66.4380 C   0  0  0  0  0  0  0  0  0  0  0  0
  -34.8421   62.1564   64.7585 H   0  0  0  0  0  0  0  0  0  0  0  0
  -34.5168   64.3908   64.6335 N   0  0  0  0  0  0  0  0  0  0  0  0
  -32.5947   64.9696   65.6146 O   0  0  0  0  0  0  0  0  0  0  0  0
  -33.4708   64.6981   66.7078 C   0  0  0  0  0  0  0  0  0  0  0  0
  -33.3251   64.7371   64.3938 C   0  0  0  0  0  0  0  0  0  0  0  0
  -34.8336   64.3068   66.0719 C   0  0  0  0  0  0  0  0  0  0  0  0
  -33.7386   62.9567   62.1451 O   0  0  0  0  0  0  0  0  0  0  0  0
  -32.9936   64.0550   61.9700 C   0  0  0  0  0  0  0  0  0  0  0  0
  -32.4470   64.3273   60.7090 C   0  0  0  0  0  0  0  0  0  0  0  0
  -31.6538   65.4684   60.5017 C   0  0  0  0  0  0  0  0  0  0  0  0
  -31.4062   66.3554   61.5508 C   0  0  0  0  0  0  0  0  0  0  0  0
  -31.9545   66.0915   62.8091 C   0  0  0  0  0  0  0  0  0  0  0  0
  -32.7426   64.9442   63.0220 C   0  0  0  0  0  0  0  0  0  0  0  0
  -33.8932   62.3759   61.4263 H   0  0  0  0  0  0  0  0  0  0  0  0
  -33.7620   59.9335   65.1354 O   0  0  0  0  0  0  0  0  0  0  0  0
  -34.9530   59.6742   65.0837 C   0  0  0  0  0  0  0  0  0  0  0  0
  -35.3662   58.4207   64.4442 O   0  0  0  0  0  0  0  0  0  0  0  0
  -35.1830   58.2039   63.0324 C   0  0  0  0  0  0  0  0  0  0  0  0
  -34.0402   58.9992   62.4133 C   0  0  0  0  0  0  0  0  0  0  0  0
  -36.4994   58.4954   62.3278 C   0  0  0  0  0  0  0  0  0  0  0  0
  -38.7517   57.5827   62.0271 N   0  0  0  0  0  0  0  0  0  0  0  0
  -37.3559   56.7603   63.6055 O   0  0  0  0  0  0  0  0  0  0  0  0
  -37.6071   57.5513   62.7252 C   0  0  0  0  0  0  0  0  0  0  0  0
  -39.4437   56.9199   62.2531 H   0  0  0  0  0  0  0  0  0  0  0  0
  -41.3427   59.2616   61.4593 N   0  0  0  0  0  0  0  0  0  0  0  0
  -39.6792   60.7736   61.3509 O   0  0  0  0  0  0  0  0  0  0  0  0
  -41.8428   57.8929   61.6553 C   0  0  0  0  0  0  0  0  0  0  0  0
  -41.6871   57.0658   60.3651 C   0  0  0  0  0  0  0  0  0  0  0  0
  -40.9068   57.7429   59.2505 C   0  0  0  0  0  0  0  0  0  0  0  0
  -39.4255   57.9336   59.5872 C   0  0  0  0  0  0  0  0  0  0  0  0
  -39.0453   58.5353   60.9503 C   0  0  0  0  0  0  0  0  0  0  0  0
  -40.0582   59.6121   61.2870 C   0  0  0  0  0  0  0  0  0  0  0  0
  -41.8860   61.8429   62.2116 Si  0  0  0  0  0  0  0  0  0  0  0  0
  -42.2647   60.2646   61.4623 O   0  0  0  0  0  0  0  0  0  0  0  0
  -43.0044   62.7084   62.0830 H   0  0  0  0  0  0  0  0  0  0  0  0
  -40.7639   62.4192   61.5596 H   0  0  0  0  0  0  0  0  0  0  0  0
  -41.5889   61.6546   63.5873 H   0  0  0  0  0  0  0  0  0  0  0  0
  -38.5099   59.8874   65.7982 C   0  0  0  0  0  0  0  0  0  0  0  0
  -37.3875   60.4665   64.9282 C   0  0  0  0  0  0  0  0  0  0  0  0
  -39.7310   59.3095   65.0629 C   0  0  0  0  0  0  0  0  0  0  0  0
  -41.0548   59.2129   65.8488 C   0  0  0  0  0  0  0  0  0  0  0  0
  -42.1317   59.7350   65.0017 N   0  0  0  0  0  0  0  0  0  0  0  0
  -43.4066   59.2844   64.8632 C   0  0  0  0  0  0  0  0  0  0  0  0
  -41.7652   60.8548   64.2420 O   0  0  0  0  0  0  0  0  0  0  0  0
  -44.1992   59.8396   64.1026 O   0  0  0  0  0  0  0  0  0  0  0  0
  -42.5216   61.1453   63.7086 H   0  0  0  0  0  0  0  0  0  0  0  0
  -43.8557   58.0669   65.6779 C   0  0  0  0  0  0  0  0  0  0  0  0
  -45.3679   57.8061   65.6501 C   0  0  0  0  0  0  0  0  0  0  0  0
  -46.0821   58.7293   66.6560 C   0  0  0  0  0  0  0  0  0  0  0  0
  -47.4283   59.2742   66.1421 C   0  0  0  0  0  0  0  0  0  0  0  0
  -47.8506   58.7410   64.7603 C   0  0  0  0  0  0  0  0  0  0  0  0
  -49.2194   58.0292   64.7844 C   0  0  0  0  0  0  0  0  0  0  0  0
  -50.4382   58.9813   64.7762 C   0  0  0  0  0  0  0  0  0  0  0  0
  -50.2598   60.1924   63.8533 C   0  0  0  0  0  0  0  0  0  0  0  0
  -50.9755   60.0981   62.5022 C   0  0  0  0  0  0  0  0  0  0  0  0
  -49.9702   60.0442   61.3373 C   0  0  0  0  0  0  0  0  0  0  0  0
  -49.2977   58.6747   61.1582 C   0  0  0  0  0  0  0  0  0  0  0  0
  -49.9980   57.7101   60.1956 C   0  0  0  0  0  0  0  0  0  0  0  0
  -49.6071   57.8999   58.7086 C   0  0  0  0  0  0  0  0  0  0  0  0
  -48.0901   58.1259   58.5475 C   0  0  0  0  0  0  0  0  0  0  0  0
  -47.5424   58.2053   57.1174 C   0  0  0  0  0  0  0  0  0  0  0  0
 46 47  1  0  0  0
 46 48  1  0  0  0
 46 45  1  0  0  0
 47 49  2  0  0  0
 47 51  1  0  0  0
 19 20  2  0  0  0
 37 38  1  0  0  0
 37 39  1  0  0  0
 37 40  1  0  0  0
 37 41  1  0  0  0
 48 50  1  0  0  0
 38 29  1  0  0  0
 45 44  1  0  0  0
 25 27  1  0  0  0
 25 35  1  0  0  0
 25 28  1  0  0  0
 21 20  1  0  0  0
 21 22  1  0  0  0
 44 42  1  0  0  0
  2  1  1  0  0  0
  2  4  1  0  0  0
  2  5  1  0  0  0
 26 27  2  0  0  0
 42 43  2  0  0  0
 29 31  1  0  0  0
 29 36  1  0  0  0
  3  4  2  0  0  0
 43  1  1  0  0  0
  6  9  2  0  0  0
  6 10  1  0  0  0
  1 20  1  0  0  0
 30 36  2  0  0  0
  7  8  1  0  0  0
  7  9  1  0  0  0
 22 24  1  0  0  0
 22 23  1  0  0  0
 11 12  1  0  0  0
 11 18  1  0  0  0
 24 27  1  0  0  0
  4 10  1  0  0  0
 51 52  1  0  0  0
 52 53  1  0  0  0
 53 54  1  0  0  0
 54 55  1  0  0  0
 55 56  1  0  0  0
 56 57  1  0  0  0
 57 58  1  0  0  0
 58 59  1  0  0  0
 59 60  1  0  0  0
 60 61  1  0  0  0
 61 62  1  0  0  0
 62 63  1  0  0  0
 63 64  1  0  0  0
 64 65  1  0  0  0
 31 32  1  0  0  0
 32 33  1  0  0  0
 33 34  1  0  0  0
 34 35  1  0  0  0
 35 36  1  0  0  0
  8 10  1  0  0  0
  9 17  1  0  0  0
 12 13  2  0  0  0
 12 17  1  0  0  0
 13 14  1  0  0  0
 14 15  2  0  0  0
 15 16  1  0  0  0
 16 17  2  0  0  0
M  END
> <minimizedAffinity>
-9.34329

> <CNNscore>
0.1329669505

> <CNNaffinity>
7.2612051964

> <CNN_VS>
0.9655002952

> <CNNaffinity_variance>
0.7198942900

$$$$
/media/chris/experiments/cd1a-new-docking/inputs/ligands/1xz0_ligand.pdb


 65 67  0  0  0  0  0  0  0  0999 V2000
  -37.4158   57.5760   63.0289 C   0  0  0  0  0  0  0  0  0  0  0  0
  -36.1221   58.1450   63.4117 N   0  0  0  0  0  0  0  0  0  0  0  0
  -35.4827   56.8356   65.1579 O   0  0  0  0  0  0  0  0  0  0  0  0
  -35.2818   57.7681   64.3911 C   0  0  0  0  0  0  0  0  0  0  0  0
  -35.8248   58.9146   62.8745 H   0  0  0  0  0  0  0  0  0  0  0  0
  -34.3476   59.8021   65.4729 N   0  0  0  0  0  0  0  0  0  0  0  0
  -33.2642   60.6776   63.7260 O   0  0  0  0  0  0  0  0  0  0  0  0
  -33.3151   59.2816   63.4348 C   0  0  0  0  0  0  0  0  0  0  0  0
  -33.9357   60.8922   64.9834 C   0  0  0  0  0  0  0  0  0  0  0  0
  -34.0476   58.6240   64.6371 C   0  0  0  0  0  0  0  0  0  0  0  0
  -36.4278   62.0281   65.9301 O   0  0  0  0  0  0  0  0  0  0  0  0
  -35.2977   62.7271   66.0916 C   0  0  0  0  0  0  0  0  0  0  0  0
  -35.3403   63.9762   66.7247 C   0  0  0  0  0  0  0  0  0  0  0  0
  -34.1695   64.7335   66.8979 C   0  0  0  0  0  0  0  0  0  0  0  0
  -32.9411   64.2458   66.4488 C   0  0  0  0  0  0  0  0  0  0  0  0
  -32.8923   62.9973   65.8223 C   0  0  0  0  0  0  0  0  0  0  0  0
  -34.0652   62.2400   65.6395 C   0  0  0  0  0  0  0  0  0  0  0  0
  -37.2412   62.3742   66.2408 H   0  0  0  0  0  0  0  0  0  0  0  0
  -37.2775   59.2698   61.3416 O   0  0  0  0  0  0  0  0  0  0  0  0
  -37.8010   58.2339   61.7176 C   0  0  0  0  0  0  0  0  0  0  0  0
  -38.8755   57.6598   60.9010 O   0  0  0  0  0  0  0  0  0  0  0  0
  -38.9841   57.9496   59.4945 C   0  0  0  0  0  0  0  0  0  0  0  0
  -37.9893   58.9841   58.9832 C   0  0  0  0  0  0  0  0  0  0  0  0
  -40.4157   58.3729   59.2015 C   0  0  0  0  0  0  0  0  0  0  0  0
  -41.6916   58.8315   61.2405 N   0  0  0  0  0  0  0  0  0  0  0  0
  -41.9059   56.8660   60.1422 O   0  0  0  0  0  0  0  0  0  0  0  0
  -41.3903   57.9524   60.2737 C   0  0  0  0  0  0  0  0  0  0  0  0
  -42.3760   58.5710   61.8986 H   0  0  0  0  0  0  0  0  0  0  0  0
  -41.6378   60.7811   63.7003 N   0  0  0  0  0  0  0  0  0  0  0  0
  -39.4842   60.6531   63.0594 O   0  0  0  0  0  0  0  0  0  0  0  0
  -43.0578   60.4261   63.5601 C   0  0  0  0  0  0  0  0  0  0  0  0
  -43.7277   61.2801   62.4671 C   0  0  0  0  0  0  0  0  0  0  0  0
  -42.7837   62.1505   61.6541 C   0  0  0  0  0  0  0  0  0  0  0  0
  -41.8344   61.3390   60.7687 C   0  0  0  0  0  0  0  0  0  0  0  0
  -41.0733   60.1541   61.3867 C   0  0  0  0  0  0  0  0  0  0  0  0
  -40.6738   60.5377   62.7981 C   0  0  0  0  0  0  0  0  0  0  0  0
  -39.7677   60.9235   65.7020 Si  0  0  0  0  0  0  0  0  0  0  0  0
  -41.2658   61.4044   64.8532 O   0  0  0  0  0  0  0  0  0  0  0  0
  -39.6077   61.7191   66.8672 H   0  0  0  0  0  0  0  0  0  0  0  0
  -38.6543   61.1147   64.8417 H   0  0  0  0  0  0  0  0  0  0  0  0
  -39.8513   59.5549   66.0710 H   0  0  0  0  0  0  0  0  0  0  0  0
  -39.8846   56.9682   63.6847 C   0  0  0  0  0  0  0  0  0  0  0  0
  -38.5447   57.5959   64.0880 C   0  0  0  0  0  0  0  0  0  0  0  0
  -41.1140   57.3559   64.5237 C   0  0  0  0  0  0  0  0  0  0  0  0
  -42.4971   57.2541   63.8484 C   0  0  0  0  0  0  0  0  0  0  0  0
  -43.4421   56.6917   64.8184 N   0  0  0  0  0  0  0  0  0  0  0  0
  -44.3473   57.3341   65.6029 C   0  0  0  0  0  0  0  0  0  0  0  0
  -43.3799   55.2955   64.9288 O   0  0  0  0  0  0  0  0  0  0  0  0
  -45.0772   56.7115   66.3740 O   0  0  0  0  0  0  0  0  0  0  0  0
  -44.0284   54.9938   65.5841 H   0  0  0  0  0  0  0  0  0  0  0  0
  -44.4565   58.8598   65.5128 C   0  0  0  0  0  0  0  0  0  0  0  0
  -45.8837   59.4048   65.6611 C   0  0  0  0  0  0  0  0  0  0  0  0
  -46.6838   59.1494   64.3693 C   0  0  0  0  0  0  0  0  0  0  0  0
  -47.4205   60.3969   63.8455 C   0  0  0  0  0  0  0  0  0  0  0  0
  -48.7376   60.7181   64.5764 C   0  0  0  0  0  0  0  0  0  0  0  0
  -49.3913   59.4723   65.2103 C   0  0  0  0  0  0  0  0  0  0  0  0
  -50.7307   59.0505   64.5623 C   0  0  0  0  0  0  0  0  0  0  0  0
  -50.5571   58.2907   63.2421 C   0  0  0  0  0  0  0  0  0  0  0  0
  -50.9196   59.0789   61.9796 C   0  0  0  0  0  0  0  0  0  0  0  0
  -49.7059   59.2291   61.0441 C   0  0  0  0  0  0  0  0  0  0  0  0
  -48.7617   58.0174   61.0499 C   0  0  0  0  0  0  0  0  0  0  0  0
  -48.8720   57.0818   59.8416 C   0  0  0  0  0  0  0  0  0  0  0  0
  -47.6471   57.1198   58.8940 C   0  0  0  0  0  0  0  0  0  0  0  0
  -47.7607   58.2665   57.8691 C   0  0  0  0  0  0  0  0  0  0  0  0
  -47.5288   57.9132   56.3951 C   0  0  0  0  0  0  0  0  0  0  0  0
 46 47  1  0  0  0
 46 48  1  0  0  0
 46 45  1  0  0  0
 47 49  2  0  0  0
 47 51  1  0  0  0
 19 20  2  0  0  0
 37 38  1  0  0  0
 37 39  1  0  0  0
 37 40  1  0  0  0
 37 41  1  0  0  0
 48 50  1  0  0  0
 38 29  1  0  0  0
 45 44  1  0  0  0
 25 27  1  0  0  0
 25 35  1  0  0  0
 25 28  1  0  0  0
 21 20  1  0  0  0
 21 22  1  0  0  0
 44 42  1  0  0  0
  2  1  1  0  0  0
  2  4  1  0  0  0
  2  5  1  0  0  0
 26 27  2  0  0  0
 42 43  2  0  0  0
 29 31  1  0  0  0
 29 36  1  0  0  0
  3  4  2  0  0  0
 43  1  1  0  0  0
  6  9  2  0  0  0
  6 10  1  0  0  0
  1 20  1  0  0  0
 30 36  2  0  0  0
  7  8  1  0  0  0
  7  9  1  0  0  0
 22 24  1  0  0  0
 22 23  1  0  0  0
 11 12  1  0  0  0
 11 18  1  0  0  0
 24 27  1  0  0  0
  4 10  1  0  0  0
 51 52  1  0  0  0
 52 53  1  0  0  0
 53 54  1  0  0  0
 54 55  1  0  0  0
 55 56  1  0  0  0
 56 57  1  0  0  0
 57 58  1  0  0  0
 58 59  1  0  0  0
 59 60  1  0  0  0
 60 61  1  0  0  0
 61 62  1  0  0  0
 62 63  1  0  0  0
 63 64  1  0  0  0
 64 65  1  0  0  0
 31 32  1  0  0  0
 32 33  1  0  0  0
 33 34  1  0  0  0
 34 35  1  0  0  0
 35 36  1  0  0  0
  8 10  1  0  0  0
  9 17  1  0  0  0
 12 13  2  0  0  0
 12 17  1  0  0  0
 13 14  1  0  0  0
 14 15  2  0  0  0
 15 16  1  0  0  0
 16 17  2  0  0  0
M  END
> <minimizedAffinity>
-9.73228

> <CNNscore>
0.1316662878

> <CNNaffinity>
7.7091612816

> <CNN_VS>
1.0150367022

> <CNNaffinity_variance>
1.5467640162

$$$$
/media/chris/experiments/cd1a-new-docking/inputs/ligands/1xz0_ligand.pdb


 65 67  0  0  0  0  0  0  0  0999 V2000
  -37.5295   57.9241   63.1000 C   0  0  0  0  0  0  0  0  0  0  0  0
  -38.4386   58.2220   64.2085 N   0  0  0  0  0  0  0  0  0  0  0  0
  -40.4858   57.7646   63.3295 O   0  0  0  0  0  0  0  0  0  0  0  0
  -39.7790   58.1318   64.2589 C   0  0  0  0  0  0  0  0  0  0  0  0
  -38.0060   58.5333   65.0363 H   0  0  0  0  0  0  0  0  0  0  0  0
  -41.7978   57.9906   65.7028 N   0  0  0  0  0  0  0  0  0  0  0  0
  -42.2394   60.1696   65.9239 O   0  0  0  0  0  0  0  0  0  0  0  0
  -40.8371   60.1275   65.6626 C   0  0  0  0  0  0  0  0  0  0  0  0
  -42.7327   58.8151   65.9116 C   0  0  0  0  0  0  0  0  0  0  0  0
  -40.4775   58.6227   65.5188 C   0  0  0  0  0  0  0  0  0  0  0  0
  -43.9493   56.2921   65.1692 O   0  0  0  0  0  0  0  0  0  0  0  0
  -44.6933   57.2043   65.8067 C   0  0  0  0  0  0  0  0  0  0  0  0
  -46.0296   56.9162   66.1139 C   0  0  0  0  0  0  0  0  0  0  0  0
  -46.8340   57.8603   66.7740 C   0  0  0  0  0  0  0  0  0  0  0  0
  -46.3083   59.0997   67.1433 C   0  0  0  0  0  0  0  0  0  0  0  0
  -44.9740   59.3894   66.8447 C   0  0  0  0  0  0  0  0  0  0  0  0
  -44.1679   58.4486   66.1756 C   0  0  0  0  0  0  0  0  0  0  0  0
  -44.3224   55.4660   64.9322 H   0  0  0  0  0  0  0  0  0  0  0  0
  -36.4646   60.0540   62.8446 O   0  0  0  0  0  0  0  0  0  0  0  0
  -36.3727   58.8976   63.2226 C   0  0  0  0  0  0  0  0  0  0  0  0
  -35.0823   58.4356   63.7446 O   0  0  0  0  0  0  0  0  0  0  0  0
  -33.8806   58.5222   62.9557 C   0  0  0  0  0  0  0  0  0  0  0  0
  -33.1414   57.2012   62.7820 C   0  0  0  0  0  0  0  0  0  0  0  0
  -32.9774   59.5797   63.5724 C   0  0  0  0  0  0  0  0  0  0  0  0
  -33.8310   61.8625   63.8093 N   0  0  0  0  0  0  0  0  0  0  0  0
  -32.7723   61.1978   61.9244 O   0  0  0  0  0  0  0  0  0  0  0  0
  -33.2221   60.9632   63.0226 C   0  0  0  0  0  0  0  0  0  0  0  0
  -33.9287   62.7797   63.4650 H   0  0  0  0  0  0  0  0  0  0  0  0
  -35.5561   63.6494   65.7290 N   0  0  0  0  0  0  0  0  0  0  0  0
  -36.6610   61.6895   65.6696 O   0  0  0  0  0  0  0  0  0  0  0  0
  -34.4418   64.5245   65.3359 C   0  0  0  0  0  0  0  0  0  0  0  0
  -33.1906   64.2280   66.1843 C   0  0  0  0  0  0  0  0  0  0  0  0
  -33.2945   63.0127   67.0909 C   0  0  0  0  0  0  0  0  0  0  0  0
  -33.3714   61.6937   66.3174 C   0  0  0  0  0  0  0  0  0  0  0  0
  -34.3618   61.5759   65.1469 C   0  0  0  0  0  0  0  0  0  0  0  0
  -35.6253   62.3244   65.5240 C   0  0  0  0  0  0  0  0  0  0  0  0
  -36.9694   63.8951   68.0670 Si  0  0  0  0  0  0  0  0  0  0  0  0
  -36.6174   64.2379   66.3482 O   0  0  0  0  0  0  0  0  0  0  0  0
  -38.1178   64.6267   68.4700 H   0  0  0  0  0  0  0  0  0  0  0  0
  -35.8590   64.2807   68.8635 H   0  0  0  0  0  0  0  0  0  0  0  0
  -37.2112   62.5057   68.2327 H   0  0  0  0  0  0  0  0  0  0  0  0
  -38.3987   59.1958   60.9736 C   0  0  0  0  0  0  0  0  0  0  0  0
  -38.1371   57.8587   61.6778 C   0  0  0  0  0  0  0  0  0  0  0  0
  -39.3759   59.1760   59.7860 C   0  0  0  0  0  0  0  0  0  0  0  0
  -40.8843   59.1407   60.1064 C   0  0  0  0  0  0  0  0  0  0  0  0
  -41.4006   60.5115   60.0412 N   0  0  0  0  0  0  0  0  0  0  0  0
  -42.1299   61.1961   60.9616 C   0  0  0  0  0  0  0  0  0  0  0  0
  -41.0807   61.1836   58.8532 O   0  0  0  0  0  0  0  0  0  0  0  0
  -42.4903   62.3547   60.7549 O   0  0  0  0  0  0  0  0  0  0  0  0
  -41.4518   62.0796   58.8786 H   0  0  0  0  0  0  0  0  0  0  0  0
  -42.4989   60.5054   62.2786 C   0  0  0  0  0  0  0  0  0  0  0  0
  -43.6887   61.1356   63.0153 C   0  0  0  0  0  0  0  0  0  0  0  0
  -44.7172   60.0493   63.3848 C   0  0  0  0  0  0  0  0  0  0  0  0
  -46.0976   60.6149   63.7695 C   0  0  0  0  0  0  0  0  0  0  0  0
  -47.2665   59.6274   63.5949 C   0  0  0  0  0  0  0  0  0  0  0  0
  -48.5782   60.3195   63.1687 C   0  0  0  0  0  0  0  0  0  0  0  0
  -49.8434   59.7950   63.8870 C   0  0  0  0  0  0  0  0  0  0  0  0
  -50.9634   59.3811   62.9255 C   0  0  0  0  0  0  0  0  0  0  0  0
  -51.0136   57.8892   62.5810 C   0  0  0  0  0  0  0  0  0  0  0  0
  -51.0669   57.6664   61.0585 C   0  0  0  0  0  0  0  0  0  0  0  0
  -49.7811   57.0642   60.4719 C   0  0  0  0  0  0  0  0  0  0  0  0
  -48.8954   58.0303   59.6784 C   0  0  0  0  0  0  0  0  0  0  0  0
  -47.9823   57.3430   58.6327 C   0  0  0  0  0  0  0  0  0  0  0  0
  -47.5660   58.3215   57.5158 C   0  0  0  0  0  0  0  0  0  0  0  0
  -47.7770   57.8618   56.0682 C   0  0  0  0  0  0  0  0  0  0  0  0
 46 47  1  0  0  0
 46 48  1  0  0  0
 46 45  1  0  0  0
 47 49  2  0  0  0
 47 51  1  0  0  0
 19 20  2  0  0  0
 37 38  1  0  0  0
 37 39  1  0  0  0
 37 40  1  0  0  0
 37 41  1  0  0  0
 48 50  1  0  0  0
 38 29  1  0  0  0
 45 44  1  0  0  0
 25 27  1  0  0  0
 25 35  1  0  0  0
 25 28  1  0  0  0
 21 20  1  0  0  0
 21 22  1  0  0  0
 44 42  1  0  0  0
  2  1  1  0  0  0
  2  4  1  0  0  0
  2  5  1  0  0  0
 26 27  2  0  0  0
 42 43  2  0  0  0
 29 31  1  0  0  0
 29 36  1  0  0  0
  3  4  2  0  0  0
 43  1  1  0  0  0
  6  9  2  0  0  0
  6 10  1  0  0  0
  1 20  1  0  0  0
 30 36  2  0  0  0
  7  8  1  0  0  0
  7  9  1  0  0  0
 22 24  1  0  0  0
 22 23  1  0  0  0
 11 12  1  0  0  0
 11 18  1  0  0  0
 24 27  1  0  0  0
  4 10  1  0  0  0
 51 52  1  0  0  0
 52 53  1  0  0  0
 53 54  1  0  0  0
 54 55  1  0  0  0
 55 56  1  0  0  0
 56 57  1  0  0  0
 57 58  1  0  0  0
 58 59  1  0  0  0
 59 60  1  0  0  0
 60 61  1  0  0  0
 61 62  1  0  0  0
 62 63  1  0  0  0
 63 64  1  0  0  0
 64 65  1  0  0  0
 31 32  1  0  0  0
 32 33  1  0  0  0
 33 34  1  0  0  0
 34 35  1  0  0  0
 35 36  1  0  0  0
  8 10  1  0  0  0
  9 17  1  0  0  0
 12 13  2  0  0  0
 12 17  1  0  0  0
 13 14  1  0  0  0
 14 15  2  0  0  0
 15 16  1  0  0  0
 16 17  2  0  0  0
M  END
> <minimizedAffinity>
-9.70686

> <CNNscore>
0.1227423400

> <CNNaffinity>
7.4723916054

> <CNN_VS>
0.9171788096

> <CNNaffinity_variance>
1.0449401140

$$$$
/media/chris/experiments/cd1a-new-docking/inputs/ligands/1xz0_ligand.pdb


 65 67  0  0  0  0  0  0  0  0999 V2000
  -38.1422   58.4117   64.5739 C   0  0  0  0  0  0  0  0  0  0  0  0
  -36.7481   58.8320   64.7294 N   0  0  0  0  0  0  0  0  0  0  0  0
  -35.5830   56.9629   64.1622 O   0  0  0  0  0  0  0  0  0  0  0  0
  -35.6192   58.1303   64.5282 C   0  0  0  0  0  0  0  0  0  0  0  0
  -36.6190   59.7625   65.0238 H   0  0  0  0  0  0  0  0  0  0  0  0
  -34.4895   60.0285   65.6687 N   0  0  0  0  0  0  0  0  0  0  0  0
  -33.1210   60.6768   64.0260 O   0  0  0  0  0  0  0  0  0  0  0  0
  -33.3592   59.2970   63.7508 C   0  0  0  0  0  0  0  0  0  0  0  0
  -33.8687   61.0281   65.2072 C   0  0  0  0  0  0  0  0  0  0  0  0
  -34.2968   58.7945   64.8835 C   0  0  0  0  0  0  0  0  0  0  0  0
  -36.1155   62.2449   66.5742 O   0  0  0  0  0  0  0  0  0  0  0  0
  -34.9656   62.9251   66.4911 C   0  0  0  0  0  0  0  0  0  0  0  0
  -34.8677   64.1943   67.0762 C   0  0  0  0  0  0  0  0  0  0  0  0
  -33.6749   64.9324   66.9948 C   0  0  0  0  0  0  0  0  0  0  0  0
  -32.5629   64.4052   66.3356 C   0  0  0  0  0  0  0  0  0  0  0  0
  -32.6535   63.1367   65.7557 C   0  0  0  0  0  0  0  0  0  0  0  0
  -33.8503   62.3985   65.8282 C   0  0  0  0  0  0  0  0  0  0  0  0
  -36.8488   62.6175   67.0229 H   0  0  0  0  0  0  0  0  0  0  0  0
  -38.2521   57.7441   62.2766 O   0  0  0  0  0  0  0  0  0  0  0  0
  -38.4859   58.6047   63.1092 C   0  0  0  0  0  0  0  0  0  0  0  0
  -39.0528   59.8786   62.6544 O   0  0  0  0  0  0  0  0  0  0  0  0
  -38.3547   60.7158   61.7133 C   0  0  0  0  0  0  0  0  0  0  0  0
  -38.3192   60.1740   60.2896 C   0  0  0  0  0  0  0  0  0  0  0  0
  -36.9496   60.9629   62.2417 C   0  0  0  0  0  0  0  0  0  0  0  0
  -36.1734   63.1498   63.0233 N   0  0  0  0  0  0  0  0  0  0  0  0
  -37.5725   61.8879   64.2746 O   0  0  0  0  0  0  0  0  0  0  0  0
  -36.8913   62.0484   63.2879 C   0  0  0  0  0  0  0  0  0  0  0  0
  -36.1935   63.8788   63.6847 H   0  0  0  0  0  0  0  0  0  0  0  0
  -33.4022   64.5788   62.6591 N   0  0  0  0  0  0  0  0  0  0  0  0
  -33.1300   62.5933   61.6349 O   0  0  0  0  0  0  0  0  0  0  0  0
  -34.2085   65.5542   63.4078 C   0  0  0  0  0  0  0  0  0  0  0  0
  -35.1250   66.3477   62.4574 C   0  0  0  0  0  0  0  0  0  0  0  0
  -35.1510   65.8554   61.0198 C   0  0  0  0  0  0  0  0  0  0  0  0
  -35.7974   64.4756   60.8712 C   0  0  0  0  0  0  0  0  0  0  0  0
  -35.3603   63.3450   61.8176 C   0  0  0  0  0  0  0  0  0  0  0  0
  -33.8677   63.4772   62.0488 C   0  0  0  0  0  0  0  0  0  0  0  0
  -31.0652   63.9863   61.3507 Si  0  0  0  0  0  0  0  0  0  0  0  0
  -32.0614   64.8090   62.5864 O   0  0  0  0  0  0  0  0  0  0  0  0
  -29.7117   64.3938   61.4858 H   0  0  0  0  0  0  0  0  0  0  0  0
  -31.5366   64.3311   60.0565 H   0  0  0  0  0  0  0  0  0  0  0  0
  -31.1563   62.5804   61.5286 H   0  0  0  0  0  0  0  0  0  0  0  0
  -40.6192   58.4946   65.4410 C   0  0  0  0  0  0  0  0  0  0  0  0
  -39.1836   59.0246   65.5415 C   0  0  0  0  0  0  0  0  0  0  0  0
  -41.7263   59.3658   66.0581 C   0  0  0  0  0  0  0  0  0  0  0  0
  -43.1101   59.3462   65.3769 C   0  0  0  0  0  0  0  0  0  0  0  0
  -43.9221   58.3054   66.0152 N   0  0  0  0  0  0  0  0  0  0  0  0
  -45.2655   58.2733   66.2198 C   0  0  0  0  0  0  0  0  0  0  0  0
  -43.1821   57.2033   66.4656 O   0  0  0  0  0  0  0  0  0  0  0  0
  -45.8023   57.3157   66.7766 O   0  0  0  0  0  0  0  0  0  0  0  0
  -43.7797   56.5579   66.8746 H   0  0  0  0  0  0  0  0  0  0  0  0
  -46.1176   59.4526   65.7392 C   0  0  0  0  0  0  0  0  0  0  0  0
  -47.0758   59.1171   64.5881 C   0  0  0  0  0  0  0  0  0  0  0  0
  -47.6469   60.4130   63.9810 C   0  0  0  0  0  0  0  0  0  0  0  0
  -48.8207   61.0037   64.7852 C   0  0  0  0  0  0  0  0  0  0  0  0
  -49.6958   59.9594   65.5034 C   0  0  0  0  0  0  0  0  0  0  0  0
  -50.9543   59.5747   64.6975 C   0  0  0  0  0  0  0  0  0  0  0  0
  -50.7508   58.4009   63.7113 C   0  0  0  0  0  0  0  0  0  0  0  0
  -51.1774   58.7294   62.2759 C   0  0  0  0  0  0  0  0  0  0  0  0
  -50.5914   60.0210   61.6971 C   0  0  0  0  0  0  0  0  0  0  0  0
  -49.4816   59.7236   60.6721 C   0  0  0  0  0  0  0  0  0  0  0  0
  -49.5493   58.3104   60.0737 C   0  0  0  0  0  0  0  0  0  0  0  0
  -48.2294   57.5325   60.0526 C   0  0  0  0  0  0  0  0  0  0  0  0
  -47.8047   57.0385   58.6472 C   0  0  0  0  0  0  0  0  0  0  0  0
  -47.6184   58.2145   57.6671 C   0  0  0  0  0  0  0  0  0  0  0  0
  -47.7099   57.8985   56.1694 C   0  0  0  0  0  0  0  0  0  0  0  0
 46 47  1  0  0  0
 46 48  1  0  0  0
 46 45  1  0  0  0
 47 49  2  0  0  0
 47 51  1  0  0  0
 19 20  2  0  0  0
 37 38  1  0  0  0
 37 39  1  0  0  0
 37 40  1  0  0  0
 37 41  1  0  0  0
 48 50  1  0  0  0
 38 29  1  0  0  0
 45 44  1  0  0  0
 25 27  1  0  0  0
 25 35  1  0  0  0
 25 28  1  0  0  0
 21 20  1  0  0  0
 21 22  1  0  0  0
 44 42  1  0  0  0
  2  1  1  0  0  0
  2  4  1  0  0  0
  2  5  1  0  0  0
 26 27  2  0  0  0
 42 43  2  0  0  0
 29 31  1  0  0  0
 29 36  1  0  0  0
  3  4  2  0  0  0
 43  1  1  0  0  0
  6  9  2  0  0  0
  6 10  1  0  0  0
  1 20  1  0  0  0
 30 36  2  0  0  0
  7  8  1  0  0  0
  7  9  1  0  0  0
 22 24  1  0  0  0
 22 23  1  0  0  0
 11 12  1  0  0  0
 11 18  1  0  0  0
 24 27  1  0  0  0
  4 10  1  0  0  0
 51 52  1  0  0  0
 52 53  1  0  0  0
 53 54  1  0  0  0
 54 55  1  0  0  0
 55 56  1  0  0  0
 56 57  1  0  0  0
 57 58  1  0  0  0
 58 59  1  0  0  0
 59 60  1  0  0  0
 60 61  1  0  0  0
 61 62  1  0  0  0
 62 63  1  0  0  0
 63 64  1  0  0  0
 64 65  1  0  0  0
 31 32  1  0  0  0
 32 33  1  0  0  0
 33 34  1  0  0  0
 34 35  1  0  0  0
 35 36  1  0  0  0
  8 10  1  0  0  0
  9 17  1  0  0  0
 12 13  2  0  0  0
 12 17  1  0  0  0
 13 14  1  0  0  0
 14 15  2  0  0  0
 15 16  1  0  0  0
 16 17  2  0  0  0
M  END
> <minimizedAffinity>
-8.69496

> <CNNscore>
0.1182129234

> <CNNaffinity>
6.7759261131

> <CNN_VS>
0.8010020256

> <CNNaffinity_variance>
0.4834310114

$$$$
/media/chris/experiments/cd1a-new-docking/inputs/ligands/1xz0_ligand.pdb


 65 67  0  0  0  0  0  0  0  0999 V2000
  -41.7603   58.0504   62.7944 C   0  0  0  0  0  0  0  0  0  0  0  0
  -40.8711   58.4672   63.8806 N   0  0  0  0  0  0  0  0  0  0  0  0
  -40.6675   60.7074   63.5452 O   0  0  0  0  0  0  0  0  0  0  0  0
  -40.4042   59.6926   64.1768 C   0  0  0  0  0  0  0  0  0  0  0  0
  -40.5722   57.7460   64.4804 H   0  0  0  0  0  0  0  0  0  0  0  0
  -38.6859   61.1084   65.2826 N   0  0  0  0  0  0  0  0  0  0  0  0
  -37.0234   59.6220   65.4190 O   0  0  0  0  0  0  0  0  0  0  0  0
  -38.2018   58.8179   65.3838 C   0  0  0  0  0  0  0  0  0  0  0  0
  -37.4275   61.0032   65.3359 C   0  0  0  0  0  0  0  0  0  0  0  0
  -39.3924   59.8135   65.3071 C   0  0  0  0  0  0  0  0  0  0  0  0
  -36.2642   62.1024   67.7516 O   0  0  0  0  0  0  0  0  0  0  0  0
  -35.9213   62.6327   66.5713 C   0  0  0  0  0  0  0  0  0  0  0  0
  -35.0018   63.6889   66.5274 C   0  0  0  0  0  0  0  0  0  0  0  0
  -34.6327   64.2688   65.3020 C   0  0  0  0  0  0  0  0  0  0  0  0
  -35.1714   63.7924   64.1055 C   0  0  0  0  0  0  0  0  0  0  0  0
  -36.0843   62.7346   64.1435 C   0  0  0  0  0  0  0  0  0  0  0  0
  -36.4627   62.1573   65.3707 C   0  0  0  0  0  0  0  0  0  0  0  0
  -35.8888   62.4369   68.5423 H   0  0  0  0  0  0  0  0  0  0  0  0
  -41.6318   59.3070   60.7597 O   0  0  0  0  0  0  0  0  0  0  0  0
  -41.1001   58.5006   61.5050 C   0  0  0  0  0  0  0  0  0  0  0  0
  -39.8211   57.9112   61.0956 O   0  0  0  0  0  0  0  0  0  0  0  0
  -38.7906   58.7088   60.4826 C   0  0  0  0  0  0  0  0  0  0  0  0
  -38.5815   58.4395   58.9975 C   0  0  0  0  0  0  0  0  0  0  0  0
  -37.5007   58.5082   61.2637 C   0  0  0  0  0  0  0  0  0  0  0  0
  -35.8214   59.7467   62.5452 N   0  0  0  0  0  0  0  0  0  0  0  0
  -37.7448   60.7311   61.8766 O   0  0  0  0  0  0  0  0  0  0  0  0
  -37.0289   59.7597   61.9620 C   0  0  0  0  0  0  0  0  0  0  0  0
  -35.4962   60.5868   62.9425 H   0  0  0  0  0  0  0  0  0  0  0  0
  -33.6793   58.9682   64.7038 N   0  0  0  0  0  0  0  0  0  0  0  0
  -34.9383   57.1147   64.4926 O   0  0  0  0  0  0  0  0  0  0  0  0
  -33.3394   60.3545   64.3508 C   0  0  0  0  0  0  0  0  0  0  0  0
  -32.5104   60.3988   63.0532 C   0  0  0  0  0  0  0  0  0  0  0  0
  -32.3753   59.0722   62.3239 C   0  0  0  0  0  0  0  0  0  0  0  0
  -33.6993   58.5729   61.7395 C   0  0  0  0  0  0  0  0  0  0  0  0
  -34.9509   58.5688   62.6331 C   0  0  0  0  0  0  0  0  0  0  0  0
  -34.5265   58.1713   64.0333 C   0  0  0  0  0  0  0  0  0  0  0  0
  -32.8527   59.4594   67.2728 Si  0  0  0  0  0  0  0  0  0  0  0  0
  -33.0886   58.4496   65.8166 O   0  0  0  0  0  0  0  0  0  0  0  0
  -32.2205   58.6899   68.2851 H   0  0  0  0  0  0  0  0  0  0  0  0
  -34.1131   59.9149   67.7421 H   0  0  0  0  0  0  0  0  0  0  0  0
  -32.0371   60.5755   66.9479 H   0  0  0  0  0  0  0  0  0  0  0  0
  -43.9167   58.2906   64.2731 C   0  0  0  0  0  0  0  0  0  0  0  0
  -43.2517   58.4514   62.9005 C   0  0  0  0  0  0  0  0  0  0  0  0
  -45.4542   58.2609   64.3009 C   0  0  0  0  0  0  0  0  0  0  0  0
  -46.1606   59.0392   65.4299 C   0  0  0  0  0  0  0  0  0  0  0  0
  -47.0380   60.0420   64.8179 N   0  0  0  0  0  0  0  0  0  0  0  0
  -48.3833   60.1919   64.9416 C   0  0  0  0  0  0  0  0  0  0  0  0
  -46.3669   60.9598   63.9977 O   0  0  0  0  0  0  0  0  0  0  0  0
  -48.9799   61.0957   64.3566 O   0  0  0  0  0  0  0  0  0  0  0  0
  -47.0051   61.5902   63.6283 H   0  0  0  0  0  0  0  0  0  0  0  0
  -49.1597   59.2165   65.8325 C   0  0  0  0  0  0  0  0  0  0  0  0
  -49.9710   58.1633   65.0656 C   0  0  0  0  0  0  0  0  0  0  0  0
  -51.0183   58.8521   64.1696 C   0  0  0  0  0  0  0  0  0  0  0  0
  -51.1596   58.2041   62.7791 C   0  0  0  0  0  0  0  0  0  0  0  0
  -49.9439   57.3699   62.3337 C   0  0  0  0  0  0  0  0  0  0  0  0
  -50.2319   56.5081   61.0865 C   0  0  0  0  0  0  0  0  0  0  0  0
  -49.0418   55.6384   60.6186 C   0  0  0  0  0  0  0  0  0  0  0  0
  -47.9023   56.4503   59.9919 C   0  0  0  0  0  0  0  0  0  0  0  0
  -47.3762   55.9179   58.6552 C   0  0  0  0  0  0  0  0  0  0  0  0
  -47.1423   57.0600   57.6495 C   0  0  0  0  0  0  0  0  0  0  0  0
  -48.0243   58.2941   57.8926 C   0  0  0  0  0  0  0  0  0  0  0  0
  -49.5277   58.0244   58.0132 C   0  0  0  0  0  0  0  0  0  0  0  0
  -50.2643   58.9605   59.0036 C   0  0  0  0  0  0  0  0  0  0  0  0
  -49.3210   60.0431   59.5660 C   0  0  0  0  0  0  0  0  0  0  0  0
  -49.5803   60.5210   60.9997 C   0  0  0  0  0  0  0  0  0  0  0  0
 46 47  1  0  0  0
 46 48  1  0  0  0
 46 45  1  0  0  0
 47 49  2  0  0  0
 47 51  1  0  0  0
 19 20  2  0  0  0
 37 38  1  0  0  0
 37 39  1  0  0  0
 37 40  1  0  0  0
 37 41  1  0  0  0
 48 50  1  0  0  0
 38 29  1  0  0  0
 45 44  1  0  0  0
 25 27  1  0  0  0
 25 35  1  0  0  0
 25 28  1  0  0  0
 21 20  1  0  0  0
 21 22  1  0  0  0
 44 42  1  0  0  0
  2  1  1  0  0  0
  2  4  1  0  0  0
  2  5  1  0  0  0
 26 27  2  0  0  0
 42 43  2  0  0  0
 29 31  1  0  0  0
 29 36  1  0  0  0
  3  4  2  0  0  0
 43  1  1  0  0  0
  6  9  2  0  0  0
  6 10  1  0  0  0
  1 20  1  0  0  0
 30 36  2  0  0  0
  7  8  1  0  0  0
  7  9  1  0  0  0
 22 24  1  0  0  0
 22 23  1  0  0  0
 11 12  1  0  0  0
 11 18  1  0  0  0
 24 27  1  0  0  0
  4 10  1  0  0  0
 51 52  1  0  0  0
 52 53  1  0  0  0
 53 54  1  0  0  0
 54 55  1  0  0  0
 55 56  1  0  0  0
 56 57  1  0  0  0
 57 58  1  0  0  0
 58 59  1  0  0  0
 59 60  1  0  0  0
 60 61  1  0  0  0
 61 62  1  0  0  0
 62 63  1  0  0  0
 63 64  1  0  0  0
 64 65  1  0  0  0
 31 32  1  0  0  0
 32 33  1  0  0  0
 33 34  1  0  0  0
 34 35  1  0  0  0
 35 36  1  0  0  0
  8 10  1  0  0  0
  9 17  1  0  0  0
 12 13  2  0  0  0
 12 17  1  0  0  0
 13 14  1  0  0  0
 14 15  2  0  0  0
 15 16  1  0  0  0
 16 17  2  0  0  0
M  END
> <minimizedAffinity>
-8.84244

> <CNNscore>
0.1174339131

> <CNNaffinity>
7.3622627258

> <CNN_VS>
0.8645793200

> <CNNaffinity_variance>
0.3818585277

$$$$
/media/chris/experiments/cd1a-new-docking/inputs/ligands/1xz0_ligand.pdb


 65 67  0  0  0  0  0  0  0  0999 V2000
  -41.6644   58.7124   64.8837 C   0  0  0  0  0  0  0  0  0  0  0  0
  -40.2945   58.7392   65.4004 N   0  0  0  0  0  0  0  0  0  0  0  0
  -39.7955   60.9581   65.4152 O   0  0  0  0  0  0  0  0  0  0  0  0
  -39.4883   59.7917   65.6230 C   0  0  0  0  0  0  0  0  0  0  0  0
  -39.9083   57.8596   65.6157 H   0  0  0  0  0  0  0  0  0  0  0  0
  -37.3350   60.7464   66.4181 N   0  0  0  0  0  0  0  0  0  0  0  0
  -35.9414   59.7343   64.9949 O   0  0  0  0  0  0  0  0  0  0  0  0
  -37.0633   58.8549   65.0617 C   0  0  0  0  0  0  0  0  0  0  0  0
  -36.2141   60.8651   65.8463 C   0  0  0  0  0  0  0  0  0  0  0  0
  -38.0576   59.5111   66.0595 C   0  0  0  0  0  0  0  0  0  0  0  0
  -36.9796   63.6471   66.1137 O   0  0  0  0  0  0  0  0  0  0  0  0
  -35.6834   63.3237   66.1979 C   0  0  0  0  0  0  0  0  0  0  0  0
  -34.7327   64.3267   66.4282 C   0  0  0  0  0  0  0  0  0  0  0  0
  -33.3653   64.0144   66.5114 C   0  0  0  0  0  0  0  0  0  0  0  0
  -32.9339   62.6938   66.3751 C   0  0  0  0  0  0  0  0  0  0  0  0
  -33.8790   61.6886   66.1517 C   0  0  0  0  0  0  0  0  0  0  0  0
  -35.2492   61.9998   66.0592 C   0  0  0  0  0  0  0  0  0  0  0  0
  -37.2468   64.5400   66.2098 H   0  0  0  0  0  0  0  0  0  0  0  0
  -42.2714   58.3905   67.1779 O   0  0  0  0  0  0  0  0  0  0  0  0
  -42.5340   58.1776   66.0056 C   0  0  0  0  0  0  0  0  0  0  0  0
  -43.6855   57.3248   65.6932 O   0  0  0  0  0  0  0  0  0  0  0  0
  -44.9175   57.8816   65.1971 C   0  0  0  0  0  0  0  0  0  0  0  0
  -44.9256   59.4013   65.0866 C   0  0  0  0  0  0  0  0  0  0  0  0
  -46.0554   57.3893   66.0787 C   0  0  0  0  0  0  0  0  0  0  0  0
  -48.0249   58.8436   66.1257 N   0  0  0  0  0  0  0  0  0  0  0  0
  -46.4279   58.9830   67.7212 O   0  0  0  0  0  0  0  0  0  0  0  0
  -46.8570   58.5097   66.6940 C   0  0  0  0  0  0  0  0  0  0  0  0
  -48.5702   59.5318   66.5711 H   0  0  0  0  0  0  0  0  0  0  0  0
  -48.9109   60.2199   63.4471 N   0  0  0  0  0  0  0  0  0  0  0  0
  -47.5274   58.5740   62.7822 O   0  0  0  0  0  0  0  0  0  0  0  0
  -49.6171   60.9818   64.4877 C   0  0  0  0  0  0  0  0  0  0  0  0
  -50.8966   60.2457   64.9283 C   0  0  0  0  0  0  0  0  0  0  0  0
  -51.0685   58.8466   64.3604 C   0  0  0  0  0  0  0  0  0  0  0  0
  -50.0317   57.8533   64.8917 C   0  0  0  0  0  0  0  0  0  0  0  0
  -48.5474   58.2555   64.8871 C   0  0  0  0  0  0  0  0  0  0  0  0
  -48.2798   59.0479   63.6224 C   0  0  0  0  0  0  0  0  0  0  0  0
  -49.9986   60.1571   60.9297 Si  0  0  0  0  0  0  0  0  0  0  0  0
  -48.8870   60.7565   62.1950 O   0  0  0  0  0  0  0  0  0  0  0  0
  -49.7753   60.8747   59.7249 H   0  0  0  0  0  0  0  0  0  0  0  0
  -51.3414   60.3459   61.3513 H   0  0  0  0  0  0  0  0  0  0  0  0
  -49.7621   58.7746   60.7080 H   0  0  0  0  0  0  0  0  0  0  0  0
  -40.9511   56.8574   63.1678 C   0  0  0  0  0  0  0  0  0  0  0  0
  -41.9005   58.0074   63.5260 C   0  0  0  0  0  0  0  0  0  0  0  0
  -40.8844   56.4472   61.6870 C   0  0  0  0  0  0  0  0  0  0  0  0
  -39.8516   57.1666   60.7952 C   0  0  0  0  0  0  0  0  0  0  0  0
  -40.4875   58.3581   60.2243 N   0  0  0  0  0  0  0  0  0  0  0  0
  -40.4292   59.6471   60.6516 C   0  0  0  0  0  0  0  0  0  0  0  0
  -41.2545   58.0999   59.0796 O   0  0  0  0  0  0  0  0  0  0  0  0
  -41.0259   60.5434   60.0552 O   0  0  0  0  0  0  0  0  0  0  0  0
  -41.6433   58.9281   58.7573 H   0  0  0  0  0  0  0  0  0  0  0  0
  -39.5981   59.9797   61.8952 C   0  0  0  0  0  0  0  0  0  0  0  0
  -38.2066   60.5534   61.5950 C   0  0  0  0  0  0  0  0  0  0  0  0
  -37.8522   61.6456   62.6225 C   0  0  0  0  0  0  0  0  0  0  0  0
  -36.3945   62.1339   62.5228 C   0  0  0  0  0  0  0  0  0  0  0  0
  -36.2047   63.6416   62.7734 C   0  0  0  0  0  0  0  0  0  0  0  0
  -35.9324   64.4356   61.4786 C   0  0  0  0  0  0  0  0  0  0  0  0
  -34.4372   64.7157   61.1999 C   0  0  0  0  0  0  0  0  0  0  0  0
  -33.6438   65.0971   62.4550 C   0  0  0  0  0  0  0  0  0  0  0  0
  -32.5600   64.0988   62.8739 C   0  0  0  0  0  0  0  0  0  0  0  0
  -32.5581   62.8576   61.9629 C   0  0  0  0  0  0  0  0  0  0  0  0
  -32.7580   61.5330   62.7149 C   0  0  0  0  0  0  0  0  0  0  0  0
  -31.5626   60.5747   62.7044 C   0  0  0  0  0  0  0  0  0  0  0  0
  -31.9430   59.0816   62.8655 C   0  0  0  0  0  0  0  0  0  0  0  0
  -33.4003   58.8200   62.4341 C   0  0  0  0  0  0  0  0  0  0  0  0
  -34.0883   57.5768   63.0109 C   0  0  0  0  0  0  0  0  0  0  0  0
 46 47  1  0  0  0
 46 48  1  0  0  0
 46 45  1  0  0  0
 47 49  2  0  0  0
 47 51  1  0  0  0
 19 20  2  0  0  0
 37 38  1  0  0  0
 37 39  1  0  0  0
 37 40  1  0  0  0
 37 41  1  0  0  0
 48 50  1  0  0  0
 38 29  1  0  0  0
 45 44  1  0  0  0
 25 27  1  0  0  0
 25 35  1  0  0  0
 25 28  1  0  0  0
 21 20  1  0  0  0
 21 22  1  0  0  0
 44 42  1  0  0  0
  2  1  1  0  0  0
  2  4  1  0  0  0
  2  5  1  0  0  0
 26 27  2  0  0  0
 42 43  2  0  0  0
 29 31  1  0  0  0
 29 36  1  0  0  0
  3  4  2  0  0  0
 43  1  1  0  0  0
  6  9  2  0  0  0
  6 10  1  0  0  0
  1 20  1  0  0  0
 30 36  2  0  0  0
  7  8  1  0  0  0
  7  9  1  0  0  0
 22 24  1  0  0  0
 22 23  1  0  0  0
 11 12  1  0  0  0
 11 18  1  0  0  0
 24 27  1  0  0  0
  4 10  1  0  0  0
 51 52  1  0  0  0
 52 53  1  0  0  0
 53 54  1  0  0  0
 54 55  1  0  0  0
 55 56  1  0  0  0
 56 57  1  0  0  0
 57 58  1  0  0  0
 58 59  1  0  0  0
 59 60  1  0  0  0
 60 61  1  0  0  0
 61 62  1  0  0  0
 62 63  1  0  0  0
 63 64  1  0  0  0
 64 65  1  0  0  0
 31 32  1  0  0  0
 32 33  1  0  0  0
 33 34  1  0  0  0
 34 35  1  0  0  0
 35 36  1  0  0  0
  8 10  1  0  0  0
  9 17  1  0  0  0
 12 13  2  0  0  0
 12 17  1  0  0  0
 13 14  1  0  0  0
 14 15  2  0  0  0
 15 16  1  0  0  0
 16 17  2  0  0  0
M  END
> <minimizedAffinity>
-8.62391

> <CNNscore>
0.1003229469

> <CNNaffinity>
7.3151512146

> <CNN_VS>
0.7338775396

> <CNNaffinity_variance>
1.3587161303

$$$$
/media/chris/experiments/cd1a-new-docking/inputs/ligands/1xz0_ligand.pdb


 65 67  0  0  0  0  0  0  0  0999 V2000
  -41.4131   60.1204   65.8515 C   0  0  0  0  0  0  0  0  0  0  0  0
  -41.7348   60.2973   64.4340 N   0  0  0  0  0  0  0  0  0  0  0  0
  -44.0048   60.1594   64.4025 O   0  0  0  0  0  0  0  0  0  0  0  0
  -42.9345   60.3064   63.8273 C   0  0  0  0  0  0  0  0  0  0  0  0
  -40.9611   60.4284   63.8395 H   0  0  0  0  0  0  0  0  0  0  0  0
  -41.9255   59.5513   61.6844 N   0  0  0  0  0  0  0  0  0  0  0  0
  -41.6245   61.5368   60.7051 O   0  0  0  0  0  0  0  0  0  0  0  0
  -42.7025   61.7609   61.6129 C   0  0  0  0  0  0  0  0  0  0  0  0
  -41.2127   60.1618   60.8378 C   0  0  0  0  0  0  0  0  0  0  0  0
  -42.9620   60.3957   62.3082 C   0  0  0  0  0  0  0  0  0  0  0  0
  -38.4091   60.8653   61.0433 O   0  0  0  0  0  0  0  0  0  0  0  0
  -38.7729   59.9103   60.1787 C   0  0  0  0  0  0  0  0  0  0  0  0
  -37.7966   59.2644   59.4089 C   0  0  0  0  0  0  0  0  0  0  0  0
  -38.1538   58.2654   58.4877 C   0  0  0  0  0  0  0  0  0  0  0  0
  -39.4905   57.8940   58.3329 C   0  0  0  0  0  0  0  0  0  0  0  0
  -40.4675   58.5309   59.1031 C   0  0  0  0  0  0  0  0  0  0  0  0
  -40.1136   59.5385   60.0208 C   0  0  0  0  0  0  0  0  0  0  0  0
  -37.5057   61.0975   61.1320 H   0  0  0  0  0  0  0  0  0  0  0  0
  -39.1145   60.1748   66.5214 O   0  0  0  0  0  0  0  0  0  0  0  0
  -39.9918   59.5932   65.9046 C   0  0  0  0  0  0  0  0  0  0  0  0
  -39.6304   58.3913   65.1458 O   0  0  0  0  0  0  0  0  0  0  0  0
  -38.5614   58.4076   64.1810 C   0  0  0  0  0  0  0  0  0  0  0  0
  -38.7829   57.5017   62.9760 C   0  0  0  0  0  0  0  0  0  0  0  0
  -37.2644   58.0615   64.8968 C   0  0  0  0  0  0  0  0  0  0  0  0
  -35.4790   59.4708   63.9899 N   0  0  0  0  0  0  0  0  0  0  0  0
  -35.5933   57.2657   63.5001 O   0  0  0  0  0  0  0  0  0  0  0  0
  -36.0411   58.2541   64.0349 C   0  0  0  0  0  0  0  0  0  0  0  0
  -34.6453   59.5709   63.4759 H   0  0  0  0  0  0  0  0  0  0  0  0
  -35.1799   62.5076   63.2530 N   0  0  0  0  0  0  0  0  0  0  0  0
  -37.3938   62.2351   63.5521 O   0  0  0  0  0  0  0  0  0  0  0  0
  -33.8005   61.9989   63.2276 C   0  0  0  0  0  0  0  0  0  0  0  0
  -33.2159   61.9380   64.6515 C   0  0  0  0  0  0  0  0  0  0  0  0
  -34.2032   62.2239   65.7710 C   0  0  0  0  0  0  0  0  0  0  0  0
  -35.2778   61.1426   65.9122 C   0  0  0  0  0  0  0  0  0  0  0  0
  -36.0189   60.6634   64.6528 C   0  0  0  0  0  0  0  0  0  0  0  0
  -36.2458   61.8647   63.7560 C   0  0  0  0  0  0  0  0  0  0  0  0
  -37.0520   64.4053   62.6063 Si  0  0  0  0  0  0  0  0  0  0  0  0
  -35.3969   63.7374   62.7084 O   0  0  0  0  0  0  0  0  0  0  0  0
  -37.0076   65.6901   62.0033 H   0  0  0  0  0  0  0  0  0  0  0  0
  -37.5999   64.5137   63.9118 H   0  0  0  0  0  0  0  0  0  0  0  0
  -37.8630   63.5424   61.8227 H   0  0  0  0  0  0  0  0  0  0  0  0
  -42.8265   57.9314   66.1755 C   0  0  0  0  0  0  0  0  0  0  0  0
  -42.4093   59.3062   66.7122 C   0  0  0  0  0  0  0  0  0  0  0  0
  -44.1068   57.3151   66.7643 C   0  0  0  0  0  0  0  0  0  0  0  0
  -45.3772   57.3428   65.8899 C   0  0  0  0  0  0  0  0  0  0  0  0
  -46.2211   58.4543   66.3399 N   0  0  0  0  0  0  0  0  0  0  0  0
  -47.5454   58.6671   66.1195 C   0  0  0  0  0  0  0  0  0  0  0  0
  -45.5392   59.4137   67.1014 O   0  0  0  0  0  0  0  0  0  0  0  0
  -48.1146   59.6605   66.5714 O   0  0  0  0  0  0  0  0  0  0  0  0
  -46.1551   60.1157   67.3638 H   0  0  0  0  0  0  0  0  0  0  0  0
  -48.3348   57.6427   65.2978 C   0  0  0  0  0  0  0  0  0  0  0  0
  -49.8122   58.0004   65.0859 C   0  0  0  0  0  0  0  0  0  0  0  0
  -50.1596   57.9447   63.5858 C   0  0  0  0  0  0  0  0  0  0  0  0
  -51.1778   59.0156   63.1502 C   0  0  0  0  0  0  0  0  0  0  0  0
  -50.5790   60.4170   62.9276 C   0  0  0  0  0  0  0  0  0  0  0  0
  -49.3446   60.4020   62.0017 C   0  0  0  0  0  0  0  0  0  0  0  0
  -49.6749   60.4377   60.4913 C   0  0  0  0  0  0  0  0  0  0  0  0
  -49.1605   59.2134   59.7253 C   0  0  0  0  0  0  0  0  0  0  0  0
  -50.1532   58.0532   59.6011 C   0  0  0  0  0  0  0  0  0  0  0  0
  -49.4432   56.6922   59.7198 C   0  0  0  0  0  0  0  0  0  0  0  0
  -47.9145   56.7951   59.8320 C   0  0  0  0  0  0  0  0  0  0  0  0
  -47.1266   56.3898   58.5820 C   0  0  0  0  0  0  0  0  0  0  0  0
  -48.0080   56.0926   57.3432 C   0  0  0  0  0  0  0  0  0  0  0  0
  -48.0836   57.3091   56.3984 C   0  0  0  0  0  0  0  0  0  0  0  0
  -47.0455   58.4192   56.6025 C   0  0  0  0  0  0  0  0  0  0  0  0
 46 47  1  0  0  0
 46 48  1  0  0  0
 46 45  1  0  0  0
 47 49  2  0  0  0
 47 51  1  0  0  0
 19 20  2  0  0  0
 37 38  1  0  0  0
 37 39  1  0  0  0
 37 40  1  0  0  0
 37 41  1  0  0  0
 48 50  1  0  0  0
 38 29  1  0  0  0
 45 44  1  0  0  0
 25 27  1  0  0  0
 25 35  1  0  0  0
 25 28  1  0  0  0
 21 20  1  0  0  0
 21 22  1  0  0  0
 44 42  1  0  0  0
  2  1  1  0  0  0
  2  4  1  0  0  0
  2  5  1  0  0  0
 26 27  2  0  0  0
 42 43  2  0  0  0
 29 31  1  0  0  0
 29 36  1  0  0  0
  3  4  2  0  0  0
 43  1  1  0  0  0
  6  9  2  0  0  0
  6 10  1  0  0  0
  1 20  1  0  0  0
 30 36  2  0  0  0
  7  8  1  0  0  0
  7  9  1  0  0  0
 22 24  1  0  0  0
 22 23  1  0  0  0
 11 12  1  0  0  0
 11 18  1  0  0  0
 24 27  1  0  0  0
  4 10  1  0  0  0
 51 52  1  0  0  0
 52 53  1  0  0  0
 53 54  1  0  0  0
 54 55  1  0  0  0
 55 56  1  0  0  0
 56 57  1  0  0  0
 57 58  1  0  0  0
 58 59  1  0  0  0
 59 60  1  0  0  0
 60 61  1  0  0  0
 61 62  1  0  0  0
 62 63  1  0  0  0
 63 64  1  0  0  0
 64 65  1  0  0  0
 31 32  1  0  0  0
 32 33  1  0  0  0
 33 34  1  0  0  0
 34 35  1  0  0  0
 35 36  1  0  0  0
  8 10  1  0  0  0
  9 17  1  0  0  0
 12 13  2  0  0  0
 12 17  1  0  0  0
 13 14  1  0  0  0
 14 15  2  0  0  0
 15 16  1  0  0  0
 16 17  2  0  0  0
M  END
> <minimizedAffinity>
-9.37774

> <CNNscore>
0.0938982666

> <CNNaffinity>
7.3857679367

> <CNN_VS>
0.6935108304

> <CNNaffinity_variance>
0.9302332997

$$$$
