/media/chris/experiments/cd1a-new-docking/inputs/ligands/1xz0_ligand.pdb


 65 67  0  0  0  0  0  0  0  0999 V2000
  -39.9830   59.4121   64.9132 C   0  0  0  0  0  0  0  0  0  0  0  0
  -39.0306   59.9420   65.8910 N   0  0  0  0  0  0  0  0  0  0  0  0
  -37.0513   60.8166   66.5916 O   0  0  0  0  0  0  0  0  0  0  0  0
  -37.7814   60.4013   65.7012 C   0  0  0  0  0  0  0  0  0  0  0  0
  -39.3511   59.9652   66.8217 H   0  0  0  0  0  0  0  0  0  0  0  0
  -35.9455   59.9042   64.1005 N   0  0  0  0  0  0  0  0  0  0  0  0
  -35.6935   61.9315   63.1957 O   0  0  0  0  0  0  0  0  0  0  0  0
  -37.0475   61.9216   63.6462 C   0  0  0  0  0  0  0  0  0  0  0  0
  -35.1050   60.6601   63.5350 C   0  0  0  0  0  0  0  0  0  0  0  0
  -37.2767   60.5171   64.2702 C   0  0  0  0  0  0  0  0  0  0  0  0
  -33.2481   62.3532   62.0922 O   0  0  0  0  0  0  0  0  0  0  0  0
  -32.8336   61.1512   62.5104 C   0  0  0  0  0  0  0  0  0  0  0  0
  -31.5163   60.7463   62.2583 C   0  0  0  0  0  0  0  0  0  0  0  0
  -31.0599   59.4856   62.6785 C   0  0  0  0  0  0  0  0  0  0  0  0
  -31.9129   58.6194   63.3647 C   0  0  0  0  0  0  0  0  0  0  0  0
  -33.2261   59.0212   63.6242 C   0  0  0  0  0  0  0  0  0  0  0  0
  -33.6889   60.2804   63.1966 C   0  0  0  0  0  0  0  0  0  0  0  0
  -32.6578   62.9194   61.6348 H   0  0  0  0  0  0  0  0  0  0  0  0
  -41.5213   61.1884   65.3758 O   0  0  0  0  0  0  0  0  0  0  0  0
  -40.8938   60.5649   64.5356 C   0  0  0  0  0  0  0  0  0  0  0  0
  -41.0885   60.9087   63.1232 O   0  0  0  0  0  0  0  0  0  0  0  0
  -42.3605   61.3736   62.6337 C   0  0  0  0  0  0  0  0  0  0  0  0
  -43.5514   60.5248   63.0615 C   0  0  0  0  0  0  0  0  0  0  0  0
  -42.2803   61.4828   61.1185 C   0  0  0  0  0  0  0  0  0  0  0  0
  -41.3581   59.2155   61.1897 N   0  0  0  0  0  0  0  0  0  0  0  0
  -41.2007   60.4858   59.3249 O   0  0  0  0  0  0  0  0  0  0  0  0
  -41.5296   60.3403   60.4799 C   0  0  0  0  0  0  0  0  0  0  0  0
  -41.6660   59.2131   62.1247 H   0  0  0  0  0  0  0  0  0  0  0  0
  -38.5505   57.9460   61.7899 N   0  0  0  0  0  0  0  0  0  0  0  0
  -39.9905   56.2383   62.0646 O   0  0  0  0  0  0  0  0  0  0  0  0
  -38.2448   59.3484   61.4710 C   0  0  0  0  0  0  0  0  0  0  0  0
  -38.1991   59.5633   59.9465 C   0  0  0  0  0  0  0  0  0  0  0  0
  -38.6469   58.3760   59.1101 C   0  0  0  0  0  0  0  0  0  0  0  0
  -40.1391   58.0679   59.2590 C   0  0  0  0  0  0  0  0  0  0  0  0
  -40.7438   57.9881   60.6707 C   0  0  0  0  0  0  0  0  0  0  0  0
  -39.7253   57.3303   61.5810 C   0  0  0  0  0  0  0  0  0  0  0  0
  -35.8697   57.8039   62.3530 Si  0  0  0  0  0  0  0  0  0  0  0  0
  -37.5552   57.2082   62.3565 O   0  0  0  0  0  0  0  0  0  0  0  0
  -35.0318   56.8573   62.9999 H   0  0  0  0  0  0  0  0  0  0  0  0
  -35.8043   59.0433   63.0429 H   0  0  0  0  0  0  0  0  0  0  0  0
  -35.4342   57.9842   61.0135 H   0  0  0  0  0  0  0  0  0  0  0  0
  -41.9013   57.7030   64.3715 C   0  0  0  0  0  0  0  0  0  0  0  0
  -40.7442   58.1176   65.2888 C   0  0  0  0  0  0  0  0  0  0  0  0
  -42.9202   56.7045   64.9465 C   0  0  0  0  0  0  0  0  0  0  0  0
  -43.4660   56.9809   66.3626 C   0  0  0  0  0  0  0  0  0  0  0  0
  -44.7853   57.6075   66.2327 N   0  0  0  0  0  0  0  0  0  0  0  0
  -45.1121   58.9267   66.2540 C   0  0  0  0  0  0  0  0  0  0  0  0
  -45.8346   56.6933   66.0636 O   0  0  0  0  0  0  0  0  0  0  0  0
  -44.2495   59.7947   66.3853 O   0  0  0  0  0  0  0  0  0  0  0  0
  -46.6731   57.1746   65.9849 H   0  0  0  0  0  0  0  0  0  0  0  0
  -46.5846   59.3284   66.1174 C   0  0  0  0  0  0  0  0  0  0  0  0
  -46.9590   59.9159   64.7499 C   0  0  0  0  0  0  0  0  0  0  0  0
  -47.7840   58.8945   63.9436 C   0  0  0  0  0  0  0  0  0  0  0  0
  -48.7840   58.0969   64.8021 C   0  0  0  0  0  0  0  0  0  0  0  0
  -50.2525   58.2165   64.3535 C   0  0  0  0  0  0  0  0  0  0  0  0
  -50.9079   59.5430   64.7916 C   0  0  0  0  0  0  0  0  0  0  0  0
  -51.1709   60.5402   63.6393 C   0  0  0  0  0  0  0  0  0  0  0  0
  -51.0105   59.9193   62.2467 C   0  0  0  0  0  0  0  0  0  0  0  0
  -49.8514   60.4729   61.4119 C   0  0  0  0  0  0  0  0  0  0  0  0
  -49.4703   59.5099   60.2727 C   0  0  0  0  0  0  0  0  0  0  0  0
  -50.1037   58.1160   60.3977 C   0  0  0  0  0  0  0  0  0  0  0  0
  -49.2305   56.9444   59.9367 C   0  0  0  0  0  0  0  0  0  0  0  0
  -47.9424   57.3673   59.1873 C   0  0  0  0  0  0  0  0  0  0  0  0
  -48.1559   57.3814   57.6601 C   0  0  0  0  0  0  0  0  0  0  0  0
  -47.2911   58.3474   56.8414 C   0  0  0  0  0  0  0  0  0  0  0  0
 46 47  1  0  0  0
 46 48  1  0  0  0
 46 45  1  0  0  0
 47 49  2  0  0  0
 47 51  1  0  0  0
 19 20  2  0  0  0
 37 38  1  0  0  0
 37 39  1  0  0  0
 37 40  1  0  0  0
 37 41  1  0  0  0
 48 50  1  0  0  0
 38 29  1  0  0  0
 45 44  1  0  0  0
 25 27  1  0  0  0
 25 35  1  0  0  0
 25 28  1  0  0  0
 21 20  1  0  0  0
 21 22  1  0  0  0
 44 42  1  0  0  0
  2  1  1  0  0  0
  2  4  1  0  0  0
  2  5  1  0  0  0
 26 27  2  0  0  0
 42 43  2  0  0  0
 29 31  1  0  0  0
 29 36  1  0  0  0
  3  4  2  0  0  0
 43  1  1  0  0  0
  6  9  2  0  0  0
  6 10  1  0  0  0
  1 20  1  0  0  0
 30 36  2  0  0  0
  7  8  1  0  0  0
  7  9  1  0  0  0
 22 24  1  0  0  0
 22 23  1  0  0  0
 11 12  1  0  0  0
 11 18  1  0  0  0
 24 27  1  0  0  0
  4 10  1  0  0  0
 51 52  1  0  0  0
 52 53  1  0  0  0
 53 54  1  0  0  0
 54 55  1  0  0  0
 55 56  1  0  0  0
 56 57  1  0  0  0
 57 58  1  0  0  0
 58 59  1  0  0  0
 59 60  1  0  0  0
 60 61  1  0  0  0
 61 62  1  0  0  0
 62 63  1  0  0  0
 63 64  1  0  0  0
 64 65  1  0  0  0
 31 32  1  0  0  0
 32 33  1  0  0  0
 33 34  1  0  0  0
 34 35  1  0  0  0
 35 36  1  0  0  0
  8 10  1  0  0  0
  9 17  1  0  0  0
 12 13  2  0  0  0
 12 17  1  0  0  0
 13 14  1  0  0  0
 14 15  2  0  0  0
 15 16  1  0  0  0
 16 17  2  0  0  0
M  END
> <minimizedAffinity>
-10.36095

> <CNNscore>
0.3026059866

> <CNNaffinity>
7.8516907692

> <CNN_VS>
2.3759686947

> <CNNaffinity_variance>
1.8821592331

$$$$
/media/chris/experiments/cd1a-new-docking/inputs/ligands/1xz0_ligand.pdb


 65 67  0  0  0  0  0  0  0  0999 V2000
  -36.5972   61.5060   63.5362 C   0  0  0  0  0  0  0  0  0  0  0  0
  -35.5002   61.0397   64.3866 N   0  0  0  0  0  0  0  0  0  0  0  0
  -33.8693   59.6063   65.0641 O   0  0  0  0  0  0  0  0  0  0  0  0
  -34.7656   59.9178   64.2909 C   0  0  0  0  0  0  0  0  0  0  0  0
  -35.2669   61.6333   65.1366 H   0  0  0  0  0  0  0  0  0  0  0  0
  -36.2519   59.3335   62.3857 N   0  0  0  0  0  0  0  0  0  0  0  0
  -36.3495   57.1191   62.6668 O   0  0  0  0  0  0  0  0  0  0  0  0
  -35.1078   57.4877   63.2659 C   0  0  0  0  0  0  0  0  0  0  0  0
  -36.9767   58.3199   62.1741 C   0  0  0  0  0  0  0  0  0  0  0  0
  -34.9861   59.0253   63.0780 C   0  0  0  0  0  0  0  0  0  0  0  0
  -37.8758   60.4562   60.4350 O   0  0  0  0  0  0  0  0  0  0  0  0
  -38.6665   59.3904   60.6094 C   0  0  0  0  0  0  0  0  0  0  0  0
  -39.8955   59.3228   59.9401 C   0  0  0  0  0  0  0  0  0  0  0  0
  -40.7477   58.2192   60.1138 C   0  0  0  0  0  0  0  0  0  0  0  0
  -40.3761   57.1660   60.9511 C   0  0  0  0  0  0  0  0  0  0  0  0
  -39.1483   57.2258   61.6162 C   0  0  0  0  0  0  0  0  0  0  0  0
  -38.2960   58.3344   61.4509 C   0  0  0  0  0  0  0  0  0  0  0  0
  -38.1445   61.1511   59.8667 H   0  0  0  0  0  0  0  0  0  0  0  0
  -36.3762   63.7816   64.2491 O   0  0  0  0  0  0  0  0  0  0  0  0
  -36.3697   62.9901   63.3206 C   0  0  0  0  0  0  0  0  0  0  0  0
  -36.2029   63.5129   61.9604 O   0  0  0  0  0  0  0  0  0  0  0  0
  -35.6924   64.8386   61.7247 C   0  0  0  0  0  0  0  0  0  0  0  0
  -36.7004   65.8055   61.1157 C   0  0  0  0  0  0  0  0  0  0  0  0
  -34.4473   64.7257   60.8580 C   0  0  0  0  0  0  0  0  0  0  0  0
  -32.7503   64.6161   62.6199 N   0  0  0  0  0  0  0  0  0  0  0  0
  -33.0127   62.9260   61.1398 O   0  0  0  0  0  0  0  0  0  0  0  0
  -33.3036   64.0262   61.5502 C   0  0  0  0  0  0  0  0  0  0  0  0
  -33.0673   65.5164   62.8610 H   0  0  0  0  0  0  0  0  0  0  0  0
  -32.9454   63.2758   65.4519 N   0  0  0  0  0  0  0  0  0  0  0  0
  -31.7968   61.7825   64.2204 O   0  0  0  0  0  0  0  0  0  0  0  0
  -33.6486   64.5566   65.6163 C   0  0  0  0  0  0  0  0  0  0  0  0
  -32.6466   65.7021   65.8534 C   0  0  0  0  0  0  0  0  0  0  0  0
  -31.1828   65.3282   65.6883 C   0  0  0  0  0  0  0  0  0  0  0  0
  -30.8115   64.9871   64.2428 C   0  0  0  0  0  0  0  0  0  0  0  0
  -31.7056   64.0142   63.4562 C   0  0  0  0  0  0  0  0  0  0  0  0
  -32.1728   62.9314   64.4091 C   0  0  0  0  0  0  0  0  0  0  0  0
  -32.8149   62.7980   68.1497 Si  0  0  0  0  0  0  0  0  0  0  0  0
  -33.0993   62.3528   66.4419 O   0  0  0  0  0  0  0  0  0  0  0  0
  -33.0406   61.6667   68.9778 H   0  0  0  0  0  0  0  0  0  0  0  0
  -33.7037   63.8413   68.5212 H   0  0  0  0  0  0  0  0  0  0  0  0
  -31.4746   63.2398   68.3069 H   0  0  0  0  0  0  0  0  0  0  0  0
  -38.2018   60.4893   65.3489 C   0  0  0  0  0  0  0  0  0  0  0  0
  -38.0392   61.1572   63.9779 C   0  0  0  0  0  0  0  0  0  0  0  0
  -39.5278   59.7555   65.6113 C   0  0  0  0  0  0  0  0  0  0  0  0
  -39.9174   58.6211   64.6413 C   0  0  0  0  0  0  0  0  0  0  0  0
  -41.2967   58.8482   64.1985 N   0  0  0  0  0  0  0  0  0  0  0  0
  -42.3239   57.9625   64.1096 C   0  0  0  0  0  0  0  0  0  0  0  0
  -41.5621   60.1723   63.8219 O   0  0  0  0  0  0  0  0  0  0  0  0
  -42.1786   56.7838   64.4329 O   0  0  0  0  0  0  0  0  0  0  0  0
  -42.4877   60.2494   63.5419 H   0  0  0  0  0  0  0  0  0  0  0  0
  -43.6807   58.4499   63.5905 C   0  0  0  0  0  0  0  0  0  0  0  0
  -44.7866   58.5019   64.6534 C   0  0  0  0  0  0  0  0  0  0  0  0
  -45.7444   59.6733   64.3629 C   0  0  0  0  0  0  0  0  0  0  0  0
  -47.0667   59.2376   63.7035 C   0  0  0  0  0  0  0  0  0  0  0  0
  -48.2213   60.2457   63.8545 C   0  0  0  0  0  0  0  0  0  0  0  0
  -49.1019   60.3432   62.5912 C   0  0  0  0  0  0  0  0  0  0  0  0
  -50.6210   60.4157   62.8719 C   0  0  0  0  0  0  0  0  0  0  0  0
  -51.3606   59.1078   62.5675 C   0  0  0  0  0  0  0  0  0  0  0  0
  -50.4640   57.8994   62.2797 C   0  0  0  0  0  0  0  0  0  0  0  0
  -50.8997   57.1706   60.9955 C   0  0  0  0  0  0  0  0  0  0  0  0
  -50.3197   57.7763   59.7085 C   0  0  0  0  0  0  0  0  0  0  0  0
  -48.8127   58.0530   59.7234 C   0  0  0  0  0  0  0  0  0  0  0  0
  -47.9690   57.0230   58.9316 C   0  0  0  0  0  0  0  0  0  0  0  0
  -48.0211   57.2964   57.4148 C   0  0  0  0  0  0  0  0  0  0  0  0
  -47.2411   58.5100   56.8952 C   0  0  0  0  0  0  0  0  0  0  0  0
 46 47  1  0  0  0
 46 48  1  0  0  0
 46 45  1  0  0  0
 47 49  2  0  0  0
 47 51  1  0  0  0
 19 20  2  0  0  0
 37 38  1  0  0  0
 37 39  1  0  0  0
 37 40  1  0  0  0
 37 41  1  0  0  0
 48 50  1  0  0  0
 38 29  1  0  0  0
 45 44  1  0  0  0
 25 27  1  0  0  0
 25 35  1  0  0  0
 25 28  1  0  0  0
 21 20  1  0  0  0
 21 22  1  0  0  0
 44 42  1  0  0  0
  2  1  1  0  0  0
  2  4  1  0  0  0
  2  5  1  0  0  0
 26 27  2  0  0  0
 42 43  2  0  0  0
 29 31  1  0  0  0
 29 36  1  0  0  0
  3  4  2  0  0  0
 43  1  1  0  0  0
  6  9  2  0  0  0
  6 10  1  0  0  0
  1 20  1  0  0  0
 30 36  2  0  0  0
  7  8  1  0  0  0
  7  9  1  0  0  0
 22 24  1  0  0  0
 22 23  1  0  0  0
 11 12  1  0  0  0
 11 18  1  0  0  0
 24 27  1  0  0  0
  4 10  1  0  0  0
 51 52  1  0  0  0
 52 53  1  0  0  0
 53 54  1  0  0  0
 54 55  1  0  0  0
 55 56  1  0  0  0
 56 57  1  0  0  0
 57 58  1  0  0  0
 58 59  1  0  0  0
 59 60  1  0  0  0
 60 61  1  0  0  0
 61 62  1  0  0  0
 62 63  1  0  0  0
 63 64  1  0  0  0
 64 65  1  0  0  0
 31 32  1  0  0  0
 32 33  1  0  0  0
 33 34  1  0  0  0
 34 35  1  0  0  0
 35 36  1  0  0  0
  8 10  1  0  0  0
  9 17  1  0  0  0
 12 13  2  0  0  0
 12 17  1  0  0  0
 13 14  1  0  0  0
 14 15  2  0  0  0
 15 16  1  0  0  0
 16 17  2  0  0  0
M  END
> <minimizedAffinity>
-9.88185

> <CNNscore>
0.2599429786

> <CNNaffinity>
7.3262948990

> <CNN_VS>
1.9044189453

> <CNNaffinity_variance>
0.2942068279

$$$$
/media/chris/experiments/cd1a-new-docking/inputs/ligands/1xz0_ligand.pdb


 65 67  0  0  0  0  0  0  0  0999 V2000
  -41.6092   57.3252   60.2116 C   0  0  0  0  0  0  0  0  0  0  0  0
  -41.4973   56.0202   60.8662 N   0  0  0  0  0  0  0  0  0  0  0  0
  -41.2967   54.5971   62.6291 O   0  0  0  0  0  0  0  0  0  0  0  0
  -41.3989   55.7292   62.1751 C   0  0  0  0  0  0  0  0  0  0  0  0
  -41.4937   55.2440   60.2606 H   0  0  0  0  0  0  0  0  0  0  0  0
  -40.2719   57.6214   63.3281 N   0  0  0  0  0  0  0  0  0  0  0  0
  -40.8659   57.1692   65.4340 O   0  0  0  0  0  0  0  0  0  0  0  0
  -41.8953   56.5680   64.6495 C   0  0  0  0  0  0  0  0  0  0  0  0
  -39.9167   57.7716   64.5318 C   0  0  0  0  0  0  0  0  0  0  0  0
  -41.5336   56.8734   63.1695 C   0  0  0  0  0  0  0  0  0  0  0  0
  -39.9841   60.3152   65.9182 O   0  0  0  0  0  0  0  0  0  0  0  0
  -38.7977   59.7477   65.6689 C   0  0  0  0  0  0  0  0  0  0  0  0
  -37.6233   60.3821   66.0944 C   0  0  0  0  0  0  0  0  0  0  0  0
  -36.3654   59.8117   65.8366 C   0  0  0  0  0  0  0  0  0  0  0  0
  -36.2681   58.5951   65.1590 C   0  0  0  0  0  0  0  0  0  0  0  0
  -37.4371   57.9551   64.7380 C   0  0  0  0  0  0  0  0  0  0  0  0
  -38.6987   58.5286   64.9872 C   0  0  0  0  0  0  0  0  0  0  0  0
  -40.0260   61.1316   66.3763 H   0  0  0  0  0  0  0  0  0  0  0  0
  -39.9967   57.6077   58.4636 O   0  0  0  0  0  0  0  0  0  0  0  0
  -40.2331   57.6460   59.6599 C   0  0  0  0  0  0  0  0  0  0  0  0
  -39.1302   57.9464   60.5789 O   0  0  0  0  0  0  0  0  0  0  0  0
  -38.2881   59.0987   60.3873 C   0  0  0  0  0  0  0  0  0  0  0  0
  -37.4071   59.0387   59.1456 C   0  0  0  0  0  0  0  0  0  0  0  0
  -37.4533   59.2966   61.6436 C   0  0  0  0  0  0  0  0  0  0  0  0
  -36.5590   61.4077   62.5038 N   0  0  0  0  0  0  0  0  0  0  0  0
  -38.7852   61.0101   62.4598 O   0  0  0  0  0  0  0  0  0  0  0  0
  -37.6441   60.6534   62.2754 C   0  0  0  0  0  0  0  0  0  0  0  0
  -35.6780   61.0104   62.3164 H   0  0  0  0  0  0  0  0  0  0  0  0
  -34.3816   63.6657   62.3821 N   0  0  0  0  0  0  0  0  0  0  0  0
  -36.2524   64.6722   61.6388 O   0  0  0  0  0  0  0  0  0  0  0  0
  -33.6530   62.4977   62.8987 C   0  0  0  0  0  0  0  0  0  0  0  0
  -33.8866   62.3353   64.4125 C   0  0  0  0  0  0  0  0  0  0  0  0
  -34.9309   63.2631   65.0111 C   0  0  0  0  0  0  0  0  0  0  0  0
  -36.3499   62.9623   64.5211 C   0  0  0  0  0  0  0  0  0  0  0  0
  -36.5925   62.7833   63.0131 C   0  0  0  0  0  0  0  0  0  0  0  0
  -35.7155   63.7761   62.2756 C   0  0  0  0  0  0  0  0  0  0  0  0
  -34.2191   65.7846   60.6479 Si  0  0  0  0  0  0  0  0  0  0  0  0
  -33.6357   64.7269   61.9657 O   0  0  0  0  0  0  0  0  0  0  0  0
  -33.2655   66.8085   60.4054 H   0  0  0  0  0  0  0  0  0  0  0  0
  -35.4570   66.3701   61.0237 H   0  0  0  0  0  0  0  0  0  0  0  0
  -34.3982   65.0154   59.4678 H   0  0  0  0  0  0  0  0  0  0  0  0
  -41.5471   59.8490   60.9334 C   0  0  0  0  0  0  0  0  0  0  0  0
  -42.2347   58.4814   61.0290 C   0  0  0  0  0  0  0  0  0  0  0  0
  -41.8699   60.8678   62.0396 C   0  0  0  0  0  0  0  0  0  0  0  0
  -43.3371   60.9729   62.5040 C   0  0  0  0  0  0  0  0  0  0  0  0
  -43.4835   60.2030   63.7433 N   0  0  0  0  0  0  0  0  0  0  0  0
  -44.6096   59.6856   64.3016 C   0  0  0  0  0  0  0  0  0  0  0  0
  -42.2770   59.9862   64.4237 O   0  0  0  0  0  0  0  0  0  0  0  0
  -45.7077   59.8196   63.7619 O   0  0  0  0  0  0  0  0  0  0  0  0
  -42.4478   59.4736   65.2292 H   0  0  0  0  0  0  0  0  0  0  0  0
  -44.4990   58.9293   65.6296 C   0  0  0  0  0  0  0  0  0  0  0  0
  -45.3202   57.6343   65.6940 C   0  0  0  0  0  0  0  0  0  0  0  0
  -46.4189   57.7577   66.7670 C   0  0  0  0  0  0  0  0  0  0  0  0
  -47.1332   59.1226   66.7617 C   0  0  0  0  0  0  0  0  0  0  0  0
  -48.4041   59.1780   65.8935 C   0  0  0  0  0  0  0  0  0  0  0  0
  -48.8310   57.7925   65.3652 C   0  0  0  0  0  0  0  0  0  0  0  0
  -49.4521   57.8092   63.9490 C   0  0  0  0  0  0  0  0  0  0  0  0
  -50.7047   58.6868   63.8426 C   0  0  0  0  0  0  0  0  0  0  0  0
  -51.2098   58.9381   62.4183 C   0  0  0  0  0  0  0  0  0  0  0  0
  -51.3321   57.6236   61.6262 C   0  0  0  0  0  0  0  0  0  0  0  0
  -50.6295   57.6521   60.2604 C   0  0  0  0  0  0  0  0  0  0  0  0
  -49.1722   58.1250   60.2712 C   0  0  0  0  0  0  0  0  0  0  0  0
  -48.2815   57.4660   59.1887 C   0  0  0  0  0  0  0  0  0  0  0  0
  -47.9434   58.4558   58.0555 C   0  0  0  0  0  0  0  0  0  0  0  0
  -47.1444   57.9110   56.8655 C   0  0  0  0  0  0  0  0  0  0  0  0
 46 47  1  0  0  0
 46 48  1  0  0  0
 46 45  1  0  0  0
 47 49  2  0  0  0
 47 51  1  0  0  0
 19 20  2  0  0  0
 37 38  1  0  0  0
 37 39  1  0  0  0
 37 40  1  0  0  0
 37 41  1  0  0  0
 48 50  1  0  0  0
 38 29  1  0  0  0
 45 44  1  0  0  0
 25 27  1  0  0  0
 25 35  1  0  0  0
 25 28  1  0  0  0
 21 20  1  0  0  0
 21 22  1  0  0  0
 44 42  1  0  0  0
  2  1  1  0  0  0
  2  4  1  0  0  0
  2  5  1  0  0  0
 26 27  2  0  0  0
 42 43  2  0  0  0
 29 31  1  0  0  0
 29 36  1  0  0  0
  3  4  2  0  0  0
 43  1  1  0  0  0
  6  9  2  0  0  0
  6 10  1  0  0  0
  1 20  1  0  0  0
 30 36  2  0  0  0
  7  8  1  0  0  0
  7  9  1  0  0  0
 22 24  1  0  0  0
 22 23  1  0  0  0
 11 12  1  0  0  0
 11 18  1  0  0  0
 24 27  1  0  0  0
  4 10  1  0  0  0
 51 52  1  0  0  0
 52 53  1  0  0  0
 53 54  1  0  0  0
 54 55  1  0  0  0
 55 56  1  0  0  0
 56 57  1  0  0  0
 57 58  1  0  0  0
 58 59  1  0  0  0
 59 60  1  0  0  0
 60 61  1  0  0  0
 61 62  1  0  0  0
 62 63  1  0  0  0
 63 64  1  0  0  0
 64 65  1  0  0  0
 31 32  1  0  0  0
 32 33  1  0  0  0
 33 34  1  0  0  0
 34 35  1  0  0  0
 35 36  1  0  0  0
  8 10  1  0  0  0
  9 17  1  0  0  0
 12 13  2  0  0  0
 12 17  1  0  0  0
 13 14  1  0  0  0
 14 15  2  0  0  0
 15 16  1  0  0  0
 16 17  2  0  0  0
M  END
> <minimizedAffinity>
-9.03156

> <CNNscore>
0.2276080847

> <CNNaffinity>
7.5947508812

> <CNN_VS>
1.7286267281

> <CNNaffinity_variance>
1.1408017874

$$$$
/media/chris/experiments/cd1a-new-docking/inputs/ligands/1xz0_ligand.pdb


 65 67  0  0  0  0  0  0  0  0999 V2000
  -36.5001   59.8295   62.1909 C   0  0  0  0  0  0  0  0  0  0  0  0
  -36.9013   59.2166   60.9230 N   0  0  0  0  0  0  0  0  0  0  0  0
  -38.3715   58.4817   59.3509 O   0  0  0  0  0  0  0  0  0  0  0  0
  -38.1343   59.0187   60.4249 C   0  0  0  0  0  0  0  0  0  0  0  0
  -36.1616   58.9045   60.3532 H   0  0  0  0  0  0  0  0  0  0  0  0
  -39.8285   58.6592   62.2083 N   0  0  0  0  0  0  0  0  0  0  0  0
  -41.6663   59.2635   61.0907 O   0  0  0  0  0  0  0  0  0  0  0  0
  -40.6162   59.9742   60.4360 C   0  0  0  0  0  0  0  0  0  0  0  0
  -41.0779   58.4788   62.1470 C   0  0  0  0  0  0  0  0  0  0  0  0
  -39.3128   59.5981   61.1939 C   0  0  0  0  0  0  0  0  0  0  0  0
  -43.7860   59.0427   63.0103 O   0  0  0  0  0  0  0  0  0  0  0  0
  -43.1877   57.9289   63.4497 C   0  0  0  0  0  0  0  0  0  0  0  0
  -43.8832   57.0574   64.2980 C   0  0  0  0  0  0  0  0  0  0  0  0
  -43.2741   55.8868   64.7804 C   0  0  0  0  0  0  0  0  0  0  0  0
  -41.9656   55.5692   64.4119 C   0  0  0  0  0  0  0  0  0  0  0  0
  -41.2697   56.4321   63.5608 C   0  0  0  0  0  0  0  0  0  0  0  0
  -41.8744   57.6104   63.0827 C   0  0  0  0  0  0  0  0  0  0  0  0
  -44.6657   59.2353   63.2691 H   0  0  0  0  0  0  0  0  0  0  0  0
  -36.1102   57.6379   63.0743 O   0  0  0  0  0  0  0  0  0  0  0  0
  -35.7012   58.7794   62.9393 C   0  0  0  0  0  0  0  0  0  0  0  0
  -34.4343   59.1462   63.5807 O   0  0  0  0  0  0  0  0  0  0  0  0
  -33.1810   59.0388   62.8796 C   0  0  0  0  0  0  0  0  0  0  0  0
  -32.4100   57.7539   63.1555 C   0  0  0  0  0  0  0  0  0  0  0  0
  -32.3413   60.2641   63.2083 C   0  0  0  0  0  0  0  0  0  0  0  0
  -33.7010   62.1076   64.0737 N   0  0  0  0  0  0  0  0  0  0  0  0
  -33.0047   62.0756   61.9220 O   0  0  0  0  0  0  0  0  0  0  0  0
  -33.0848   61.5626   63.0146 C   0  0  0  0  0  0  0  0  0  0  0  0
  -33.7028   61.5964   64.9151 H   0  0  0  0  0  0  0  0  0  0  0  0
  -33.6337   64.4310   66.1836 N   0  0  0  0  0  0  0  0  0  0  0  0
  -33.2082   65.4592   64.2271 O   0  0  0  0  0  0  0  0  0  0  0  0
  -33.9304   63.2337   66.9838 C   0  0  0  0  0  0  0  0  0  0  0  0
  -35.4295   62.8873   66.9111 C   0  0  0  0  0  0  0  0  0  0  0  0
  -36.2369   63.7052   65.9167 C   0  0  0  0  0  0  0  0  0  0  0  0
  -35.8593   63.4200   64.4607 C   0  0  0  0  0  0  0  0  0  0  0  0
  -34.3728   63.4121   64.0669 C   0  0  0  0  0  0  0  0  0  0  0  0
  -33.6756   64.5115   64.8439 C   0  0  0  0  0  0  0  0  0  0  0  0
  -33.0916   65.5246   68.6400 Si  0  0  0  0  0  0  0  0  0  0  0  0
  -33.2751   65.5567   66.8621 O   0  0  0  0  0  0  0  0  0  0  0  0
  -32.7150   66.8141   69.1003 H   0  0  0  0  0  0  0  0  0  0  0  0
  -32.0893   64.5837   68.9956 H   0  0  0  0  0  0  0  0  0  0  0  0
  -34.3248   65.1506   69.2365 H   0  0  0  0  0  0  0  0  0  0  0  0
  -37.6220   60.1573   64.5421 C   0  0  0  0  0  0  0  0  0  0  0  0
  -37.6087   60.4909   63.0452 C   0  0  0  0  0  0  0  0  0  0  0  0
  -38.9285   60.4363   65.3045 C   0  0  0  0  0  0  0  0  0  0  0  0
  -39.8022   59.2238   65.6864 C   0  0  0  0  0  0  0  0  0  0  0  0
  -41.1810   59.6892   65.8665 N   0  0  0  0  0  0  0  0  0  0  0  0
  -42.1880   59.1248   66.5842 C   0  0  0  0  0  0  0  0  0  0  0  0
  -41.4699   60.8847   65.1937 O   0  0  0  0  0  0  0  0  0  0  0  0
  -42.0143   58.0820   67.2145 O   0  0  0  0  0  0  0  0  0  0  0  0
  -42.3937   61.1319   65.3562 H   0  0  0  0  0  0  0  0  0  0  0  0
  -43.5614   59.8044   66.5964 C   0  0  0  0  0  0  0  0  0  0  0  0
  -44.7507   58.8345   66.5782 C   0  0  0  0  0  0  0  0  0  0  0  0
  -46.0673   59.6157   66.4045 C   0  0  0  0  0  0  0  0  0  0  0  0
  -47.1916   58.7888   65.7524 C   0  0  0  0  0  0  0  0  0  0  0  0
  -48.5444   59.5174   65.6458 C   0  0  0  0  0  0  0  0  0  0  0  0
  -49.1798   59.4014   64.2445 C   0  0  0  0  0  0  0  0  0  0  0  0
  -50.5765   58.7376   64.2261 C   0  0  0  0  0  0  0  0  0  0  0  0
  -51.1940   58.6545   62.8253 C   0  0  0  0  0  0  0  0  0  0  0  0
  -50.1961   58.4570   61.6798 C   0  0  0  0  0  0  0  0  0  0  0  0
  -50.8428   57.7191   60.4933 C   0  0  0  0  0  0  0  0  0  0  0  0
  -50.1843   58.0213   59.1387 C   0  0  0  0  0  0  0  0  0  0  0  0
  -48.6743   58.2788   59.1752 C   0  0  0  0  0  0  0  0  0  0  0  0
  -47.8086   57.0297   58.8756 C   0  0  0  0  0  0  0  0  0  0  0  0
  -47.1011   57.1468   57.5103 C   0  0  0  0  0  0  0  0  0  0  0  0
  -47.2062   58.4913   56.7806 C   0  0  0  0  0  0  0  0  0  0  0  0
 46 47  1  0  0  0
 46 48  1  0  0  0
 46 45  1  0  0  0
 47 49  2  0  0  0
 47 51  1  0  0  0
 19 20  2  0  0  0
 37 38  1  0  0  0
 37 39  1  0  0  0
 37 40  1  0  0  0
 37 41  1  0  0  0
 48 50  1  0  0  0
 38 29  1  0  0  0
 45 44  1  0  0  0
 25 27  1  0  0  0
 25 35  1  0  0  0
 25 28  1  0  0  0
 21 20  1  0  0  0
 21 22  1  0  0  0
 44 42  1  0  0  0
  2  1  1  0  0  0
  2  4  1  0  0  0
  2  5  1  0  0  0
 26 27  2  0  0  0
 42 43  2  0  0  0
 29 31  1  0  0  0
 29 36  1  0  0  0
  3  4  2  0  0  0
 43  1  1  0  0  0
  6  9  2  0  0  0
  6 10  1  0  0  0
  1 20  1  0  0  0
 30 36  2  0  0  0
  7  8  1  0  0  0
  7  9  1  0  0  0
 22 24  1  0  0  0
 22 23  1  0  0  0
 11 12  1  0  0  0
 11 18  1  0  0  0
 24 27  1  0  0  0
  4 10  1  0  0  0
 51 52  1  0  0  0
 52 53  1  0  0  0
 53 54  1  0  0  0
 54 55  1  0  0  0
 55 56  1  0  0  0
 56 57  1  0  0  0
 57 58  1  0  0  0
 58 59  1  0  0  0
 59 60  1  0  0  0
 60 61  1  0  0  0
 61 62  1  0  0  0
 62 63  1  0  0  0
 63 64  1  0  0  0
 64 65  1  0  0  0
 31 32  1  0  0  0
 32 33  1  0  0  0
 33 34  1  0  0  0
 34 35  1  0  0  0
 35 36  1  0  0  0
  8 10  1  0  0  0
  9 17  1  0  0  0
 12 13  2  0  0  0
 12 17  1  0  0  0
 13 14  1  0  0  0
 14 15  2  0  0  0
 15 16  1  0  0  0
 16 17  2  0  0  0
M  END
> <minimizedAffinity>
-9.11468

> <CNNscore>
0.2090426683

> <CNNaffinity>
7.4736413956

> <CNN_VS>
1.5623099804

> <CNNaffinity_variance>
0.6637789607

$$$$
/media/chris/experiments/cd1a-new-docking/inputs/ligands/1xz0_ligand.pdb


 65 67  0  0  0  0  0  0  0  0999 V2000
  -40.8270   57.2982   62.9178 C   0  0  0  0  0  0  0  0  0  0  0  0
  -39.5434   56.9893   63.5512 N   0  0  0  0  0  0  0  0  0  0  0  0
  -37.6268   57.4551   64.6838 O   0  0  0  0  0  0  0  0  0  0  0  0
  -38.6916   57.8073   64.1937 C   0  0  0  0  0  0  0  0  0  0  0  0
  -39.2637   56.0468   63.4989 H   0  0  0  0  0  0  0  0  0  0  0  0
  -38.0683   60.2108   64.0708 N   0  0  0  0  0  0  0  0  0  0  0  0
  -38.6718   60.8481   66.1255 O   0  0  0  0  0  0  0  0  0  0  0  0
  -39.4999   59.7169   65.8589 C   0  0  0  0  0  0  0  0  0  0  0  0
  -37.8242   61.0561   64.9782 C   0  0  0  0  0  0  0  0  0  0  0  0
  -39.1274   59.2469   64.4254 C   0  0  0  0  0  0  0  0  0  0  0  0
  -36.1544   61.9854   67.1564 O   0  0  0  0  0  0  0  0  0  0  0  0
  -36.0357   62.5698   65.9581 C   0  0  0  0  0  0  0  0  0  0  0  0
  -35.1026   63.5994   65.7788 C   0  0  0  0  0  0  0  0  0  0  0  0
  -34.9655   64.2351   64.5333 C   0  0  0  0  0  0  0  0  0  0  0  0
  -35.7532   63.8416   63.4500 C   0  0  0  0  0  0  0  0  0  0  0  0
  -36.6811   62.8107   63.6221 C   0  0  0  0  0  0  0  0  0  0  0  0
  -36.8269   62.1776   64.8713 C   0  0  0  0  0  0  0  0  0  0  0  0
  -35.6140   62.2644   67.8693 H   0  0  0  0  0  0  0  0  0  0  0  0
  -41.1391   59.4207   61.8536 O   0  0  0  0  0  0  0  0  0  0  0  0
  -40.5425   58.3566   61.8692 C   0  0  0  0  0  0  0  0  0  0  0  0
  -39.5767   58.0833   60.7997 O   0  0  0  0  0  0  0  0  0  0  0  0
  -38.9254   59.1520   60.0874 C   0  0  0  0  0  0  0  0  0  0  0  0
  -38.3030   58.7396   58.7591 C   0  0  0  0  0  0  0  0  0  0  0  0
  -37.8893   59.7799   61.0075 C   0  0  0  0  0  0  0  0  0  0  0  0
  -35.7748   59.2459   62.1210 N   0  0  0  0  0  0  0  0  0  0  0  0
  -37.2244   57.6180   61.5176 O   0  0  0  0  0  0  0  0  0  0  0  0
  -36.8978   58.7822   61.5534 C   0  0  0  0  0  0  0  0  0  0  0  0
  -35.6131   60.2165   62.0891 H   0  0  0  0  0  0  0  0  0  0  0  0
  -33.8407   59.9100   64.5028 N   0  0  0  0  0  0  0  0  0  0  0  0
  -34.7972   57.9634   65.1041 O   0  0  0  0  0  0  0  0  0  0  0  0
  -33.6510   61.0298   63.5690 C   0  0  0  0  0  0  0  0  0  0  0  0
  -32.6765   60.6402   62.4415 C   0  0  0  0  0  0  0  0  0  0  0  0
  -32.2691   59.1763   62.4131 C   0  0  0  0  0  0  0  0  0  0  0  0
  -33.4266   58.2397   62.0568 C   0  0  0  0  0  0  0  0  0  0  0  0
  -34.7700   58.4086   62.7860 C   0  0  0  0  0  0  0  0  0  0  0  0
  -34.4782   58.7597   64.2318 C   0  0  0  0  0  0  0  0  0  0  0  0
  -32.7731   58.6329   66.6829 Si  0  0  0  0  0  0  0  0  0  0  0  0
  -33.3321   60.0569   65.7581 O   0  0  0  0  0  0  0  0  0  0  0  0
  -32.2916   59.0516   67.9515 H   0  0  0  0  0  0  0  0  0  0  0  0
  -31.7290   57.9858   65.9704 H   0  0  0  0  0  0  0  0  0  0  0  0
  -33.8545   57.7300   66.8615 H   0  0  0  0  0  0  0  0  0  0  0  0
  -41.9216   57.1694   65.3010 C   0  0  0  0  0  0  0  0  0  0  0  0
  -42.0141   57.6491   63.8472 C   0  0  0  0  0  0  0  0  0  0  0  0
  -43.2345   57.1187   66.1007 C   0  0  0  0  0  0  0  0  0  0  0  0
  -44.5404   56.8939   65.3111 C   0  0  0  0  0  0  0  0  0  0  0  0
  -45.6425   57.5036   66.0619 N   0  0  0  0  0  0  0  0  0  0  0  0
  -45.8507   58.8121   66.3653 C   0  0  0  0  0  0  0  0  0  0  0  0
  -46.5984   56.5840   66.5159 O   0  0  0  0  0  0  0  0  0  0  0  0
  -45.0665   59.6848   65.9936 O   0  0  0  0  0  0  0  0  0  0  0  0
  -47.2942   57.0541   67.0015 H   0  0  0  0  0  0  0  0  0  0  0  0
  -47.0837   59.1951   67.1905 C   0  0  0  0  0  0  0  0  0  0  0  0
  -48.0352   60.1771   66.4935 C   0  0  0  0  0  0  0  0  0  0  0  0
  -48.4040   59.6518   65.0928 C   0  0  0  0  0  0  0  0  0  0  0  0
  -49.1592   58.3094   65.1187 C   0  0  0  0  0  0  0  0  0  0  0  0
  -50.6715   58.4189   64.8482 C   0  0  0  0  0  0  0  0  0  0  0  0
  -51.1500   59.8780   64.6964 C   0  0  0  0  0  0  0  0  0  0  0  0
  -51.3645   60.3342   63.2344 C   0  0  0  0  0  0  0  0  0  0  0  0
  -51.2450   59.1945   62.2160 C   0  0  0  0  0  0  0  0  0  0  0  0
  -50.0118   59.2527   61.3089 C   0  0  0  0  0  0  0  0  0  0  0  0
  -49.2500   57.9148   61.3111 C   0  0  0  0  0  0  0  0  0  0  0  0
  -48.6699   57.5264   59.9427 C   0  0  0  0  0  0  0  0  0  0  0  0
  -48.5183   58.6705   58.9350 C   0  0  0  0  0  0  0  0  0  0  0  0
  -47.7398   58.2886   57.6514 C   0  0  0  0  0  0  0  0  0  0  0  0
  -47.0991   56.8912   57.7737 C   0  0  0  0  0  0  0  0  0  0  0  0
  -47.6119   55.8007   56.8254 C   0  0  0  0  0  0  0  0  0  0  0  0
 46 47  1  0  0  0
 46 48  1  0  0  0
 46 45  1  0  0  0
 47 49  2  0  0  0
 47 51  1  0  0  0
 19 20  2  0  0  0
 37 38  1  0  0  0
 37 39  1  0  0  0
 37 40  1  0  0  0
 37 41  1  0  0  0
 48 50  1  0  0  0
 38 29  1  0  0  0
 45 44  1  0  0  0
 25 27  1  0  0  0
 25 35  1  0  0  0
 25 28  1  0  0  0
 21 20  1  0  0  0
 21 22  1  0  0  0
 44 42  1  0  0  0
  2  1  1  0  0  0
  2  4  1  0  0  0
  2  5  1  0  0  0
 26 27  2  0  0  0
 42 43  2  0  0  0
 29 31  1  0  0  0
 29 36  1  0  0  0
  3  4  2  0  0  0
 43  1  1  0  0  0
  6  9  2  0  0  0
  6 10  1  0  0  0
  1 20  1  0  0  0
 30 36  2  0  0  0
  7  8  1  0  0  0
  7  9  1  0  0  0
 22 24  1  0  0  0
 22 23  1  0  0  0
 11 12  1  0  0  0
 11 18  1  0  0  0
 24 27  1  0  0  0
  4 10  1  0  0  0
 51 52  1  0  0  0
 52 53  1  0  0  0
 53 54  1  0  0  0
 54 55  1  0  0  0
 55 56  1  0  0  0
 56 57  1  0  0  0
 57 58  1  0  0  0
 58 59  1  0  0  0
 59 60  1  0  0  0
 60 61  1  0  0  0
 61 62  1  0  0  0
 62 63  1  0  0  0
 63 64  1  0  0  0
 64 65  1  0  0  0
 31 32  1  0  0  0
 32 33  1  0  0  0
 33 34  1  0  0  0
 34 35  1  0  0  0
 35 36  1  0  0  0
  8 10  1  0  0  0
  9 17  1  0  0  0
 12 13  2  0  0  0
 12 17  1  0  0  0
 13 14  1  0  0  0
 14 15  2  0  0  0
 15 16  1  0  0  0
 16 17  2  0  0  0
M  END
> <minimizedAffinity>
-9.16333

> <CNNscore>
0.2070683837

> <CNNaffinity>
7.5465040207

> <CNN_VS>
1.5626423359

> <CNNaffinity_variance>
0.7393320799

$$$$
/media/chris/experiments/cd1a-new-docking/inputs/ligands/1xz0_ligand.pdb


 65 67  0  0  0  0  0  0  0  0999 V2000
  -36.9859   57.4089   62.6415 C   0  0  0  0  0  0  0  0  0  0  0  0
  -37.1506   57.2086   64.0826 N   0  0  0  0  0  0  0  0  0  0  0  0
  -37.3916   57.8550   66.2499 O   0  0  0  0  0  0  0  0  0  0  0  0
  -37.2689   58.1222   65.0618 C   0  0  0  0  0  0  0  0  0  0  0  0
  -37.1788   56.2695   64.3770 H   0  0  0  0  0  0  0  0  0  0  0  0
  -36.1610   60.3475   65.0357 N   0  0  0  0  0  0  0  0  0  0  0  0
  -37.8261   61.5919   65.8549 O   0  0  0  0  0  0  0  0  0  0  0  0
  -38.4898   60.4764   65.2619 C   0  0  0  0  0  0  0  0  0  0  0  0
  -36.4075   61.4090   65.6760 C   0  0  0  0  0  0  0  0  0  0  0  0
  -37.3675   59.5866   64.6592 C   0  0  0  0  0  0  0  0  0  0  0  0
  -36.9705   64.1554   66.4091 O   0  0  0  0  0  0  0  0  0  0  0  0
  -35.7125   63.7078   66.5025 C   0  0  0  0  0  0  0  0  0  0  0  0
  -34.7049   64.5646   66.9645 C   0  0  0  0  0  0  0  0  0  0  0  0
  -33.3751   64.1217   67.0625 C   0  0  0  0  0  0  0  0  0  0  0  0
  -33.0395   62.8135   66.7091 C   0  0  0  0  0  0  0  0  0  0  0  0
  -34.0421   61.9530   66.2535 C   0  0  0  0  0  0  0  0  0  0  0  0
  -35.3742   62.3966   66.1460 C   0  0  0  0  0  0  0  0  0  0  0  0
  -37.1736   65.0369   66.6535 H   0  0  0  0  0  0  0  0  0  0  0  0
  -35.6702   59.1918   61.7331 O   0  0  0  0  0  0  0  0  0  0  0  0
  -35.7142   58.2166   62.4648 C   0  0  0  0  0  0  0  0  0  0  0  0
  -34.4795   57.7887   63.1308 O   0  0  0  0  0  0  0  0  0  0  0  0
  -33.2134   58.4053   62.8297 C   0  0  0  0  0  0  0  0  0  0  0  0
  -32.0136   57.4727   62.9402 C   0  0  0  0  0  0  0  0  0  0  0  0
  -33.0473   59.6223   63.7272 C   0  0  0  0  0  0  0  0  0  0  0  0
  -32.8005   61.9346   62.9601 N   0  0  0  0  0  0  0  0  0  0  0  0
  -31.0906   60.4619   62.8092 O   0  0  0  0  0  0  0  0  0  0  0  0
  -32.2378   60.7242   63.0894 C   0  0  0  0  0  0  0  0  0  0  0  0
  -33.7451   62.0301   63.2204 H   0  0  0  0  0  0  0  0  0  0  0  0
  -33.2956   64.9734   63.5727 N   0  0  0  0  0  0  0  0  0  0  0  0
  -31.0810   64.7103   63.8758 O   0  0  0  0  0  0  0  0  0  0  0  0
  -34.6301   64.4581   63.2324 C   0  0  0  0  0  0  0  0  0  0  0  0
  -34.8139   64.3875   61.7048 C   0  0  0  0  0  0  0  0  0  0  0  0
  -33.5650   64.6729   60.8871 C   0  0  0  0  0  0  0  0  0  0  0  0
  -32.4880   63.5961   61.0439 C   0  0  0  0  0  0  0  0  0  0  0  0
  -32.1076   63.1265   62.4579 C   0  0  0  0  0  0  0  0  0  0  0  0
  -32.1319   64.3332   63.3755 C   0  0  0  0  0  0  0  0  0  0  0  0
  -31.8775   66.6402   65.2262 Si  0  0  0  0  0  0  0  0  0  0  0  0
  -33.2358   66.2069   64.1479 O   0  0  0  0  0  0  0  0  0  0  0  0
  -32.0488   67.9706   65.6921 H   0  0  0  0  0  0  0  0  0  0  0  0
  -30.6551   66.5432   64.5102 H   0  0  0  0  0  0  0  0  0  0  0  0
  -31.8495   65.7510   66.3330 H   0  0  0  0  0  0  0  0  0  0  0  0
  -39.2947   56.9815   61.4663 C   0  0  0  0  0  0  0  0  0  0  0  0
  -38.1946   57.9758   61.8579 C   0  0  0  0  0  0  0  0  0  0  0  0
  -40.2549   57.4138   60.3451 C   0  0  0  0  0  0  0  0  0  0  0  0
  -41.7672   57.3643   60.6450 C   0  0  0  0  0  0  0  0  0  0  0  0
  -42.0662   58.3713   61.6682 N   0  0  0  0  0  0  0  0  0  0  0  0
  -42.5552   58.1962   62.9243 C   0  0  0  0  0  0  0  0  0  0  0  0
  -41.7996   59.6874   61.2655 O   0  0  0  0  0  0  0  0  0  0  0  0
  -42.8036   57.0723   63.3603 O   0  0  0  0  0  0  0  0  0  0  0  0
  -42.0193   60.2971   61.9873 H   0  0  0  0  0  0  0  0  0  0  0  0
  -42.8034   59.4274   63.8020 C   0  0  0  0  0  0  0  0  0  0  0  0
  -44.1962   60.0518   63.6419 C   0  0  0  0  0  0  0  0  0  0  0  0
  -45.2234   59.2773   64.4899 C   0  0  0  0  0  0  0  0  0  0  0  0
  -46.6081   59.9501   64.5444 C   0  0  0  0  0  0  0  0  0  0  0  0
  -47.6326   59.3914   63.5393 C   0  0  0  0  0  0  0  0  0  0  0  0
  -48.9849   60.1332   63.5855 C   0  0  0  0  0  0  0  0  0  0  0  0
  -50.1405   59.3222   64.2167 C   0  0  0  0  0  0  0  0  0  0  0  0
  -50.5496   58.0980   63.3894 C   0  0  0  0  0  0  0  0  0  0  0  0
  -51.3142   58.4055   62.0980 C   0  0  0  0  0  0  0  0  0  0  0  0
  -51.0550   57.3336   61.0237 C   0  0  0  0  0  0  0  0  0  0  0  0
  -49.6239   56.7754   61.0336 C   0  0  0  0  0  0  0  0  0  0  0  0
  -48.5648   57.6470   60.3507 C   0  0  0  0  0  0  0  0  0  0  0  0
  -48.1678   57.1707   58.9312 C   0  0  0  0  0  0  0  0  0  0  0  0
  -47.9269   58.3620   57.9820 C   0  0  0  0  0  0  0  0  0  0  0  0
  -47.2320   58.0646   56.6479 C   0  0  0  0  0  0  0  0  0  0  0  0
 46 47  1  0  0  0
 46 48  1  0  0  0
 46 45  1  0  0  0
 47 49  2  0  0  0
 47 51  1  0  0  0
 19 20  2  0  0  0
 37 38  1  0  0  0
 37 39  1  0  0  0
 37 40  1  0  0  0
 37 41  1  0  0  0
 48 50  1  0  0  0
 38 29  1  0  0  0
 45 44  1  0  0  0
 25 27  1  0  0  0
 25 35  1  0  0  0
 25 28  1  0  0  0
 21 20  1  0  0  0
 21 22  1  0  0  0
 44 42  1  0  0  0
  2  1  1  0  0  0
  2  4  1  0  0  0
  2  5  1  0  0  0
 26 27  2  0  0  0
 42 43  2  0  0  0
 29 31  1  0  0  0
 29 36  1  0  0  0
  3  4  2  0  0  0
 43  1  1  0  0  0
  6  9  2  0  0  0
  6 10  1  0  0  0
  1 20  1  0  0  0
 30 36  2  0  0  0
  7  8  1  0  0  0
  7  9  1  0  0  0
 22 24  1  0  0  0
 22 23  1  0  0  0
 11 12  1  0  0  0
 11 18  1  0  0  0
 24 27  1  0  0  0
  4 10  1  0  0  0
 51 52  1  0  0  0
 52 53  1  0  0  0
 53 54  1  0  0  0
 54 55  1  0  0  0
 55 56  1  0  0  0
 56 57  1  0  0  0
 57 58  1  0  0  0
 58 59  1  0  0  0
 59 60  1  0  0  0
 60 61  1  0  0  0
 61 62  1  0  0  0
 62 63  1  0  0  0
 63 64  1  0  0  0
 64 65  1  0  0  0
 31 32  1  0  0  0
 32 33  1  0  0  0
 33 34  1  0  0  0
 34 35  1  0  0  0
 35 36  1  0  0  0
  8 10  1  0  0  0
  9 17  1  0  0  0
 12 13  2  0  0  0
 12 17  1  0  0  0
 13 14  1  0  0  0
 14 15  2  0  0  0
 15 16  1  0  0  0
 16 17  2  0  0  0
M  END
> <minimizedAffinity>
-9.46199

> <CNNscore>
0.1896464080

> <CNNaffinity>
6.9047822952

> <CNN_VS>
1.3094671965

> <CNNaffinity_variance>
0.8785014153

$$$$
/media/chris/experiments/cd1a-new-docking/inputs/ligands/1xz0_ligand.pdb


 65 67  0  0  0  0  0  0  0  0999 V2000
  -41.0890   58.5198   59.7059 C   0  0  0  0  0  0  0  0  0  0  0  0
  -41.1837   57.0737   59.9156 N   0  0  0  0  0  0  0  0  0  0  0  0
  -41.4433   55.1692   61.1317 O   0  0  0  0  0  0  0  0  0  0  0  0
  -41.3916   56.3897   61.0542 C   0  0  0  0  0  0  0  0  0  0  0  0
  -41.0802   56.5229   59.1061 H   0  0  0  0  0  0  0  0  0  0  0  0
  -40.5140   57.9328   62.7946 N   0  0  0  0  0  0  0  0  0  0  0  0
  -41.2101   56.8524   64.6223 O   0  0  0  0  0  0  0  0  0  0  0  0
  -42.1274   56.4414   63.6093 C   0  0  0  0  0  0  0  0  0  0  0  0
  -40.2567   57.7492   64.0184 C   0  0  0  0  0  0  0  0  0  0  0  0
  -41.6925   57.1852   62.3162 C   0  0  0  0  0  0  0  0  0  0  0  0
  -40.5270   60.2288   65.4933 O   0  0  0  0  0  0  0  0  0  0  0  0
  -39.3413   59.6078   65.4872 C   0  0  0  0  0  0  0  0  0  0  0  0
  -38.2683   60.1566   66.2018 C   0  0  0  0  0  0  0  0  0  0  0  0
  -37.0111   59.5291   66.2034 C   0  0  0  0  0  0  0  0  0  0  0  0
  -36.8153   58.3401   65.4985 C   0  0  0  0  0  0  0  0  0  0  0  0
  -37.8842   57.7854   64.7893 C   0  0  0  0  0  0  0  0  0  0  0  0
  -39.1429   58.4165   64.7787 C   0  0  0  0  0  0  0  0  0  0  0  0
  -40.6364   61.0251   65.9748 H   0  0  0  0  0  0  0  0  0  0  0  0
  -38.9230   58.0808   58.7835 O   0  0  0  0  0  0  0  0  0  0  0  0
  -39.6236   58.8202   59.4550 C   0  0  0  0  0  0  0  0  0  0  0  0
  -39.0004   59.9898   60.0834 O   0  0  0  0  0  0  0  0  0  0  0  0
  -37.8723   59.8529   60.9680 C   0  0  0  0  0  0  0  0  0  0  0  0
  -37.5523   58.4178   61.3676 C   0  0  0  0  0  0  0  0  0  0  0  0
  -38.1149   60.7225   62.1924 C   0  0  0  0  0  0  0  0  0  0  0  0
  -35.9376   60.8892   63.3006 N   0  0  0  0  0  0  0  0  0  0  0  0
  -36.8355   62.6562   62.2109 O   0  0  0  0  0  0  0  0  0  0  0  0
  -36.9001   61.5152   62.6077 C   0  0  0  0  0  0  0  0  0  0  0  0
  -36.1017   59.9571   63.5718 H   0  0  0  0  0  0  0  0  0  0  0  0
  -32.9989   59.9496   62.7214 N   0  0  0  0  0  0  0  0  0  0  0  0
  -33.0083   62.1162   62.1120 O   0  0  0  0  0  0  0  0  0  0  0  0
  -33.6572   58.7475   63.2540 C   0  0  0  0  0  0  0  0  0  0  0  0
  -33.7017   58.7871   64.7932 C   0  0  0  0  0  0  0  0  0  0  0  0
  -33.2458   60.0935   65.4220 C   0  0  0  0  0  0  0  0  0  0  0  0
  -34.1923   61.2607   65.1298 C   0  0  0  0  0  0  0  0  0  0  0  0
  -34.6573   61.4955   63.6830 C   0  0  0  0  0  0  0  0  0  0  0  0
  -33.4909   61.1983   62.7611 C   0  0  0  0  0  0  0  0  0  0  0  0
  -31.6578   59.6440   60.3482 Si  0  0  0  0  0  0  0  0  0  0  0  0
  -31.7854   59.7793   62.1262 O   0  0  0  0  0  0  0  0  0  0  0  0
  -30.2962   59.4736   59.9829 H   0  0  0  0  0  0  0  0  0  0  0  0
  -32.1651   60.8257   59.7460 H   0  0  0  0  0  0  0  0  0  0  0  0
  -32.4108   58.5253   59.9034 H   0  0  0  0  0  0  0  0  0  0  0  0
  -41.9268   60.9121   60.3908 C   0  0  0  0  0  0  0  0  0  0  0  0
  -41.7372   59.4383   60.7701 C   0  0  0  0  0  0  0  0  0  0  0  0
  -42.1501   61.9035   61.5454 C   0  0  0  0  0  0  0  0  0  0  0  0
  -43.5146   61.8633   62.2638 C   0  0  0  0  0  0  0  0  0  0  0  0
  -43.4468   60.8518   63.3232 N   0  0  0  0  0  0  0  0  0  0  0  0
  -44.4620   60.2296   63.9788 C   0  0  0  0  0  0  0  0  0  0  0  0
  -42.1404   60.4974   63.6881 O   0  0  0  0  0  0  0  0  0  0  0  0
  -45.6381   60.4736   63.7100 O   0  0  0  0  0  0  0  0  0  0  0  0
  -42.1710   59.8281   64.3895 H   0  0  0  0  0  0  0  0  0  0  0  0
  -44.1245   59.2128   65.0744 C   0  0  0  0  0  0  0  0  0  0  0  0
  -45.0367   57.9788   65.0991 C   0  0  0  0  0  0  0  0  0  0  0  0
  -45.9472   58.0193   66.3414 C   0  0  0  0  0  0  0  0  0  0  0  0
  -47.4055   58.4003   66.0230 C   0  0  0  0  0  0  0  0  0  0  0  0
  -47.8391   59.7789   66.5554 C   0  0  0  0  0  0  0  0  0  0  0  0
  -49.0069   60.3916   65.7543 C   0  0  0  0  0  0  0  0  0  0  0  0
  -50.3326   59.6005   65.8459 C   0  0  0  0  0  0  0  0  0  0  0  0
  -51.1051   59.5493   64.5226 C   0  0  0  0  0  0  0  0  0  0  0  0
  -50.6721   58.4448   63.5533 C   0  0  0  0  0  0  0  0  0  0  0  0
  -51.2682   58.6637   62.1508 C   0  0  0  0  0  0  0  0  0  0  0  0
  -51.3648   57.3827   61.3084 C   0  0  0  0  0  0  0  0  0  0  0  0
  -50.0356   56.6828   61.0066 C   0  0  0  0  0  0  0  0  0  0  0  0
  -48.9688   57.5972   60.3545 C   0  0  0  0  0  0  0  0  0  0  0  0
  -49.1011   57.6133   58.8182 C   0  0  0  0  0  0  0  0  0  0  0  0
  -47.9342   58.2090   58.0214 C   0  0  0  0  0  0  0  0  0  0  0  0
 46 47  1  0  0  0
 46 48  1  0  0  0
 46 45  1  0  0  0
 47 49  2  0  0  0
 47 51  1  0  0  0
 19 20  2  0  0  0
 37 38  1  0  0  0
 37 39  1  0  0  0
 37 40  1  0  0  0
 37 41  1  0  0  0
 48 50  1  0  0  0
 38 29  1  0  0  0
 45 44  1  0  0  0
 25 27  1  0  0  0
 25 35  1  0  0  0
 25 28  1  0  0  0
 21 20  1  0  0  0
 21 22  1  0  0  0
 44 42  1  0  0  0
  2  1  1  0  0  0
  2  4  1  0  0  0
  2  5  1  0  0  0
 26 27  2  0  0  0
 42 43  2  0  0  0
 29 31  1  0  0  0
 29 36  1  0  0  0
  3  4  2  0  0  0
 43  1  1  0  0  0
  6  9  2  0  0  0
  6 10  1  0  0  0
  1 20  1  0  0  0
 30 36  2  0  0  0
  7  8  1  0  0  0
  7  9  1  0  0  0
 22 24  1  0  0  0
 22 23  1  0  0  0
 11 12  1  0  0  0
 11 18  1  0  0  0
 24 27  1  0  0  0
  4 10  1  0  0  0
 51 52  1  0  0  0
 52 53  1  0  0  0
 53 54  1  0  0  0
 54 55  1  0  0  0
 55 56  1  0  0  0
 56 57  1  0  0  0
 57 58  1  0  0  0
 58 59  1  0  0  0
 59 60  1  0  0  0
 60 61  1  0  0  0
 61 62  1  0  0  0
 62 63  1  0  0  0
 63 64  1  0  0  0
 64 65  1  0  0  0
 31 32  1  0  0  0
 32 33  1  0  0  0
 33 34  1  0  0  0
 34 35  1  0  0  0
 35 36  1  0  0  0
  8 10  1  0  0  0
  9 17  1  0  0  0
 12 13  2  0  0  0
 12 17  1  0  0  0
 13 14  1  0  0  0
 14 15  2  0  0  0
 15 16  1  0  0  0
 16 17  2  0  0  0
M  END
> <minimizedAffinity>
-8.89963

> <CNNscore>
0.1770434082

> <CNNaffinity>
7.4931197166

> <CNN_VS>
1.3266074657

> <CNNaffinity_variance>
1.2929103374

$$$$
/media/chris/experiments/cd1a-new-docking/inputs/ligands/1xz0_ligand.pdb


 65 67  0  0  0  0  0  0  0  0999 V2000
  -36.5428   59.0113   63.3561 C   0  0  0  0  0  0  0  0  0  0  0  0
  -36.6594   60.3621   63.9090 N   0  0  0  0  0  0  0  0  0  0  0  0
  -37.5217   61.9848   65.2493 O   0  0  0  0  0  0  0  0  0  0  0  0
  -37.4907   60.8252   64.8587 C   0  0  0  0  0  0  0  0  0  0  0  0
  -36.0397   61.0271   63.5308 H   0  0  0  0  0  0  0  0  0  0  0  0
  -38.6357   58.6209   64.7564 N   0  0  0  0  0  0  0  0  0  0  0  0
  -40.6816   59.2440   65.4032 O   0  0  0  0  0  0  0  0  0  0  0  0
  -39.8232   60.2238   65.9859 C   0  0  0  0  0  0  0  0  0  0  0  0
  -39.8598   58.3211   64.6610 C   0  0  0  0  0  0  0  0  0  0  0  0
  -38.3795   59.8201   65.5768 C   0  0  0  0  0  0  0  0  0  0  0  0
  -42.1004   56.7168   65.5572 O   0  0  0  0  0  0  0  0  0  0  0  0
  -41.5023   56.4014   64.4020 C   0  0  0  0  0  0  0  0  0  0  0  0
  -41.9785   55.3208   63.6479 C   0  0  0  0  0  0  0  0  0  0  0  0
  -41.3622   54.9637   62.4367 C   0  0  0  0  0  0  0  0  0  0  0  0
  -40.2688   55.6895   61.9608 C   0  0  0  0  0  0  0  0  0  0  0  0
  -39.7940   56.7722   62.7063 C   0  0  0  0  0  0  0  0  0  0  0  0
  -40.4040   57.1270   63.9247 C   0  0  0  0  0  0  0  0  0  0  0  0
  -42.8341   56.2169   65.8568 H   0  0  0  0  0  0  0  0  0  0  0  0
  -34.9664   57.4397   64.2393 O   0  0  0  0  0  0  0  0  0  0  0  0
  -35.1509   58.5232   63.7099 C   0  0  0  0  0  0  0  0  0  0  0  0
  -33.9921   59.3918   63.4778 O   0  0  0  0  0  0  0  0  0  0  0  0
  -32.9203   58.9931   62.6026 C   0  0  0  0  0  0  0  0  0  0  0  0
  -31.8198   58.1843   63.2781 C   0  0  0  0  0  0  0  0  0  0  0  0
  -32.3559   60.2393   61.9372 C   0  0  0  0  0  0  0  0  0  0  0  0
  -33.7552   62.1050   62.6839 N   0  0  0  0  0  0  0  0  0  0  0  0
  -31.6590   61.8198   63.4841 O   0  0  0  0  0  0  0  0  0  0  0  0
  -32.5640   61.4927   62.7510 C   0  0  0  0  0  0  0  0  0  0  0  0
  -34.4171   61.7497   62.0476 H   0  0  0  0  0  0  0  0  0  0  0  0
  -34.9973   64.8536   61.8137 N   0  0  0  0  0  0  0  0  0  0  0  0
  -36.3255   64.1632   63.4944 O   0  0  0  0  0  0  0  0  0  0  0  0
  -33.8461   64.6841   60.9148 C   0  0  0  0  0  0  0  0  0  0  0  0
  -32.5413   65.1097   61.6140 C   0  0  0  0  0  0  0  0  0  0  0  0
  -32.6723   65.4275   63.0944 C   0  0  0  0  0  0  0  0  0  0  0  0
  -33.0032   64.1973   63.9436 C   0  0  0  0  0  0  0  0  0  0  0  0
  -34.1415   63.2673   63.4919 C   0  0  0  0  0  0  0  0  0  0  0  0
  -35.2488   64.1271   62.9146 C   0  0  0  0  0  0  0  0  0  0  0  0
  -37.3772   66.0502   62.4680 Si  0  0  0  0  0  0  0  0  0  0  0  0
  -35.8936   65.8290   61.4955 O   0  0  0  0  0  0  0  0  0  0  0  0
  -38.1378   67.1236   61.9336 H   0  0  0  0  0  0  0  0  0  0  0  0
  -37.0231   66.3438   63.8115 H   0  0  0  0  0  0  0  0  0  0  0  0
  -38.1491   64.8589   62.4316 H   0  0  0  0  0  0  0  0  0  0  0  0
  -38.0656   59.6622   61.3185 C   0  0  0  0  0  0  0  0  0  0  0  0
  -36.9073   58.8179   61.8641 C   0  0  0  0  0  0  0  0  0  0  0  0
  -38.7150   59.1863   60.0079 C   0  0  0  0  0  0  0  0  0  0  0  0
  -40.0450   59.8477   59.5918 C   0  0  0  0  0  0  0  0  0  0  0  0
  -41.1050   59.3404   60.4690 N   0  0  0  0  0  0  0  0  0  0  0  0
  -41.6200   59.8948   61.5981 C   0  0  0  0  0  0  0  0  0  0  0  0
  -41.6423   58.1119   60.0595 O   0  0  0  0  0  0  0  0  0  0  0  0
  -41.2134   60.9776   62.0188 O   0  0  0  0  0  0  0  0  0  0  0  0
  -42.3339   57.8380   60.6821 H   0  0  0  0  0  0  0  0  0  0  0  0
  -42.7218   59.1465   62.3559 C   0  0  0  0  0  0  0  0  0  0  0  0
  -43.5037   60.0089   63.3561 C   0  0  0  0  0  0  0  0  0  0  0  0
  -44.2107   59.1106   64.3891 C   0  0  0  0  0  0  0  0  0  0  0  0
  -45.7322   59.0045   64.1728 C   0  0  0  0  0  0  0  0  0  0  0  0
  -46.4578   60.3571   64.0462 C   0  0  0  0  0  0  0  0  0  0  0  0
  -47.9926   60.2256   64.1356 C   0  0  0  0  0  0  0  0  0  0  0  0
  -48.7070   60.1049   62.7693 C   0  0  0  0  0  0  0  0  0  0  0  0
  -49.0101   58.6574   62.3652 C   0  0  0  0  0  0  0  0  0  0  0  0
  -50.4965   58.3123   62.2294 C   0  0  0  0  0  0  0  0  0  0  0  0
  -50.8062   57.6969   60.8526 C   0  0  0  0  0  0  0  0  0  0  0  0
  -50.1390   58.4296   59.6788 C   0  0  0  0  0  0  0  0  0  0  0  0
  -49.5089   57.5343   58.6068 C   0  0  0  0  0  0  0  0  0  0  0  0
  -48.0447   57.1233   58.9016 C   0  0  0  0  0  0  0  0  0  0  0  0
  -47.1744   57.1817   57.6298 C   0  0  0  0  0  0  0  0  0  0  0  0
  -47.2184   58.4771   56.8105 C   0  0  0  0  0  0  0  0  0  0  0  0
 46 47  1  0  0  0
 46 48  1  0  0  0
 46 45  1  0  0  0
 47 49  2  0  0  0
 47 51  1  0  0  0
 19 20  2  0  0  0
 37 38  1  0  0  0
 37 39  1  0  0  0
 37 40  1  0  0  0
 37 41  1  0  0  0
 48 50  1  0  0  0
 38 29  1  0  0  0
 45 44  1  0  0  0
 25 27  1  0  0  0
 25 35  1  0  0  0
 25 28  1  0  0  0
 21 20  1  0  0  0
 21 22  1  0  0  0
 44 42  1  0  0  0
  2  1  1  0  0  0
  2  4  1  0  0  0
  2  5  1  0  0  0
 26 27  2  0  0  0
 42 43  2  0  0  0
 29 31  1  0  0  0
 29 36  1  0  0  0
  3  4  2  0  0  0
 43  1  1  0  0  0
  6  9  2  0  0  0
  6 10  1  0  0  0
  1 20  1  0  0  0
 30 36  2  0  0  0
  7  8  1  0  0  0
  7  9  1  0  0  0
 22 24  1  0  0  0
 22 23  1  0  0  0
 11 12  1  0  0  0
 11 18  1  0  0  0
 24 27  1  0  0  0
  4 10  1  0  0  0
 51 52  1  0  0  0
 52 53  1  0  0  0
 53 54  1  0  0  0
 54 55  1  0  0  0
 55 56  1  0  0  0
 56 57  1  0  0  0
 57 58  1  0  0  0
 58 59  1  0  0  0
 59 60  1  0  0  0
 60 61  1  0  0  0
 61 62  1  0  0  0
 62 63  1  0  0  0
 63 64  1  0  0  0
 64 65  1  0  0  0
 31 32  1  0  0  0
 32 33  1  0  0  0
 33 34  1  0  0  0
 34 35  1  0  0  0
 35 36  1  0  0  0
  8 10  1  0  0  0
  9 17  1  0  0  0
 12 13  2  0  0  0
 12 17  1  0  0  0
 13 14  1  0  0  0
 14 15  2  0  0  0
 15 16  1  0  0  0
 16 17  2  0  0  0
M  END
> <minimizedAffinity>
-9.47208

> <CNNscore>
0.1688323617

> <CNNaffinity>
7.5460600853

> <CNN_VS>
1.2740191221

> <CNNaffinity_variance>
0.8085190654

$$$$
/media/chris/experiments/cd1a-new-docking/inputs/ligands/1xz0_ligand.pdb


 65 67  0  0  0  0  0  0  0  0999 V2000
  -40.6936   57.9269   63.1086 C   0  0  0  0  0  0  0  0  0  0  0  0
  -39.4365   57.3817   63.6248 N   0  0  0  0  0  0  0  0  0  0  0  0
  -37.4780   57.4276   64.7803 O   0  0  0  0  0  0  0  0  0  0  0  0
  -38.5123   57.9655   64.4074 C   0  0  0  0  0  0  0  0  0  0  0  0
  -39.2396   56.4539   63.3606 H   0  0  0  0  0  0  0  0  0  0  0  0
  -37.7889   60.3370   64.5880 N   0  0  0  0  0  0  0  0  0  0  0  0
  -37.9849   60.6094   66.7970 O   0  0  0  0  0  0  0  0  0  0  0  0
  -38.9081   59.5636   66.4960 C   0  0  0  0  0  0  0  0  0  0  0  0
  -37.3426   61.0002   65.5671 C   0  0  0  0  0  0  0  0  0  0  0  0
  -38.8205   59.3498   64.9594 C   0  0  0  0  0  0  0  0  0  0  0  0
  -37.0691   62.8066   63.3179 O   0  0  0  0  0  0  0  0  0  0  0  0
  -36.2486   62.9520   64.3655 C   0  0  0  0  0  0  0  0  0  0  0  0
  -35.2931   63.9765   64.3600 C   0  0  0  0  0  0  0  0  0  0  0  0
  -34.4140   64.1441   65.4433 C   0  0  0  0  0  0  0  0  0  0  0  0
  -34.4872   63.2950   66.5489 C   0  0  0  0  0  0  0  0  0  0  0  0
  -35.4429   62.2752   66.5619 C   0  0  0  0  0  0  0  0  0  0  0  0
  -36.3195   62.0995   65.4740 C   0  0  0  0  0  0  0  0  0  0  0  0
  -37.0034   63.3892   62.5869 H   0  0  0  0  0  0  0  0  0  0  0  0
  -40.5397   60.0962   62.1058 O   0  0  0  0  0  0  0  0  0  0  0  0
  -40.3173   58.9006   62.0080 C   0  0  0  0  0  0  0  0  0  0  0  0
  -39.7316   58.4004   60.7599 O   0  0  0  0  0  0  0  0  0  0  0  0
  -38.4924   58.9277   60.2498 C   0  0  0  0  0  0  0  0  0  0  0  0
  -38.2894   58.7296   58.7527 C   0  0  0  0  0  0  0  0  0  0  0  0
  -37.3481   58.3168   61.0445 C   0  0  0  0  0  0  0  0  0  0  0  0
  -35.5448   58.9146   62.5894 N   0  0  0  0  0  0  0  0  0  0  0  0
  -37.0764   60.4426   61.9296 O   0  0  0  0  0  0  0  0  0  0  0  0
  -36.6445   59.3126   61.9332 C   0  0  0  0  0  0  0  0  0  0  0  0
  -35.2881   57.9668   62.5195 H   0  0  0  0  0  0  0  0  0  0  0  0
  -32.5106   59.6577   62.2795 N   0  0  0  0  0  0  0  0  0  0  0  0
  -33.5371   61.6466   62.5164 O   0  0  0  0  0  0  0  0  0  0  0  0
  -32.5264   58.1896   62.1984 C   0  0  0  0  0  0  0  0  0  0  0  0
  -32.5791   57.5665   63.6061 C   0  0  0  0  0  0  0  0  0  0  0  0
  -32.7872   58.5518   64.7444 C   0  0  0  0  0  0  0  0  0  0  0  0
  -34.1716   59.2051   64.7249 C   0  0  0  0  0  0  0  0  0  0  0  0
  -34.6972   59.7924   63.4044 C   0  0  0  0  0  0  0  0  0  0  0  0
  -33.5307   60.4340   62.6790 C   0  0  0  0  0  0  0  0  0  0  0  0
  -30.9407   60.4597   60.1781 Si  0  0  0  0  0  0  0  0  0  0  0  0
  -31.3609   60.2865   61.9070 O   0  0  0  0  0  0  0  0  0  0  0  0
  -29.7036   61.1464   60.0581 H   0  0  0  0  0  0  0  0  0  0  0  0
  -31.9574   61.1969   59.5153 H   0  0  0  0  0  0  0  0  0  0  0  0
  -30.8273   59.1734   59.5874 H   0  0  0  0  0  0  0  0  0  0  0  0
  -42.2141   57.5520   65.2162 C   0  0  0  0  0  0  0  0  0  0  0  0
  -41.6935   58.5092   64.1368 C   0  0  0  0  0  0  0  0  0  0  0  0
  -43.4987   57.9680   65.9527 C   0  0  0  0  0  0  0  0  0  0  0  0
  -44.8376   57.4307   65.4067 C   0  0  0  0  0  0  0  0  0  0  0  0
  -45.9275   58.1613   66.0614 N   0  0  0  0  0  0  0  0  0  0  0  0
  -46.5923   59.2681   65.6366 C   0  0  0  0  0  0  0  0  0  0  0  0
  -46.3158   57.6182   67.2942 O   0  0  0  0  0  0  0  0  0  0  0  0
  -46.3220   59.7995   64.5598 O   0  0  0  0  0  0  0  0  0  0  0  0
  -47.0366   58.1486   67.6684 H   0  0  0  0  0  0  0  0  0  0  0  0
  -47.6917   59.8597   66.5251 C   0  0  0  0  0  0  0  0  0  0  0  0
  -48.8728   60.4667   65.7558 C   0  0  0  0  0  0  0  0  0  0  0  0
  -50.1003   59.5407   65.8552 C   0  0  0  0  0  0  0  0  0  0  0  0
  -51.3149   60.0410   65.0506 C   0  0  0  0  0  0  0  0  0  0  0  0
  -50.9870   61.1130   63.9943 C   0  0  0  0  0  0  0  0  0  0  0  0
  -51.1001   60.5856   62.5487 C   0  0  0  0  0  0  0  0  0  0  0  0
  -49.7491   60.2161   61.8929 C   0  0  0  0  0  0  0  0  0  0  0  0
  -49.3505   58.7505   62.1014 C   0  0  0  0  0  0  0  0  0  0  0  0
  -50.5086   57.7477   62.0867 C   0  0  0  0  0  0  0  0  0  0  0  0
  -50.5972   57.0127   60.7368 C   0  0  0  0  0  0  0  0  0  0  0  0
  -49.4579   56.0104   60.4977 C   0  0  0  0  0  0  0  0  0  0  0  0
  -48.4263   56.4152   59.4396 C   0  0  0  0  0  0  0  0  0  0  0  0
  -48.8057   57.6824   58.6334 C   0  0  0  0  0  0  0  0  0  0  0  0
  -47.6728   58.1028   57.6752 C   0  0  0  0  0  0  0  0  0  0  0  0
  -47.8467   57.7570   56.1915 C   0  0  0  0  0  0  0  0  0  0  0  0
 46 47  1  0  0  0
 46 48  1  0  0  0
 46 45  1  0  0  0
 47 49  2  0  0  0
 47 51  1  0  0  0
 19 20  2  0  0  0
 37 38  1  0  0  0
 37 39  1  0  0  0
 37 40  1  0  0  0
 37 41  1  0  0  0
 48 50  1  0  0  0
 38 29  1  0  0  0
 45 44  1  0  0  0
 25 27  1  0  0  0
 25 35  1  0  0  0
 25 28  1  0  0  0
 21 20  1  0  0  0
 21 22  1  0  0  0
 44 42  1  0  0  0
  2  1  1  0  0  0
  2  4  1  0  0  0
  2  5  1  0  0  0
 26 27  2  0  0  0
 42 43  2  0  0  0
 29 31  1  0  0  0
 29 36  1  0  0  0
  3  4  2  0  0  0
 43  1  1  0  0  0
  6  9  2  0  0  0
  6 10  1  0  0  0
  1 20  1  0  0  0
 30 36  2  0  0  0
  7  8  1  0  0  0
  7  9  1  0  0  0
 22 24  1  0  0  0
 22 23  1  0  0  0
 11 12  1  0  0  0
 11 18  1  0  0  0
 24 27  1  0  0  0
  4 10  1  0  0  0
 51 52  1  0  0  0
 52 53  1  0  0  0
 53 54  1  0  0  0
 54 55  1  0  0  0
 55 56  1  0  0  0
 56 57  1  0  0  0
 57 58  1  0  0  0
 58 59  1  0  0  0
 59 60  1  0  0  0
 60 61  1  0  0  0
 61 62  1  0  0  0
 62 63  1  0  0  0
 63 64  1  0  0  0
 64 65  1  0  0  0
 31 32  1  0  0  0
 32 33  1  0  0  0
 33 34  1  0  0  0
 34 35  1  0  0  0
 35 36  1  0  0  0
  8 10  1  0  0  0
  9 17  1  0  0  0
 12 13  2  0  0  0
 12 17  1  0  0  0
 13 14  1  0  0  0
 14 15  2  0  0  0
 15 16  1  0  0  0
 16 17  2  0  0  0
M  END
> <minimizedAffinity>
-9.59520

> <CNNscore>
0.1652240604

> <CNNaffinity>
7.2241487503

> <CNN_VS>
1.1936031580

> <CNNaffinity_variance>
0.4645400047

$$$$
