/media/chris/experiments/cd1a-new-docking/inputs/ligands/1xz0_ligand.pdb


 65 67  0  0  0  0  0  0  0  0999 V2000
  -32.7953   61.5336   62.5973 C   0  0  0  0  0  0  0  0  0  0  0  0
  -33.6371   60.3356   62.5823 N   0  0  0  0  0  0  0  0  0  0  0  0
  -32.6080   58.9672   64.0794 O   0  0  0  0  0  0  0  0  0  0  0  0
  -33.5057   59.1931   63.2786 C   0  0  0  0  0  0  0  0  0  0  0  0
  -34.4110   60.3721   61.9747 H   0  0  0  0  0  0  0  0  0  0  0  0
  -35.5574   58.4846   62.0668 N   0  0  0  0  0  0  0  0  0  0  0  0
  -36.6531   57.5050   63.7496 O   0  0  0  0  0  0  0  0  0  0  0  0
  -35.2807   57.4039   64.1276 C   0  0  0  0  0  0  0  0  0  0  0  0
  -36.7143   58.1944   62.4852 C   0  0  0  0  0  0  0  0  0  0  0  0
  -34.4735   58.0592   62.9728 C   0  0  0  0  0  0  0  0  0  0  0  0
  -37.5450   60.8072   61.5470 O   0  0  0  0  0  0  0  0  0  0  0  0
  -38.3341   59.7536   61.3038 C   0  0  0  0  0  0  0  0  0  0  0  0
  -39.5276   59.9316   60.5922 C   0  0  0  0  0  0  0  0  0  0  0  0
  -40.3777   58.8434   60.3324 C   0  0  0  0  0  0  0  0  0  0  0  0
  -40.0387   57.5628   60.7726 C   0  0  0  0  0  0  0  0  0  0  0  0
  -38.8458   57.3789   61.4775 C   0  0  0  0  0  0  0  0  0  0  0  0
  -37.9963   58.4690   61.7469 C   0  0  0  0  0  0  0  0  0  0  0  0
  -37.7915   61.6577   61.2405 H   0  0  0  0  0  0  0  0  0  0  0  0
  -31.3051   60.3778   61.1213 O   0  0  0  0  0  0  0  0  0  0  0  0
  -31.4306   61.1034   62.0940 C   0  0  0  0  0  0  0  0  0  0  0  0
  -30.2236   61.5061   62.8233 O   0  0  0  0  0  0  0  0  0  0  0  0
  -28.9710   61.7119   62.1433 C   0  0  0  0  0  0  0  0  0  0  0  0
  -28.1247   60.4552   61.9824 C   0  0  0  0  0  0  0  0  0  0  0  0
  -28.2018   62.8017   62.8749 C   0  0  0  0  0  0  0  0  0  0  0  0
  -29.5475   64.7824   62.3632 N   0  0  0  0  0  0  0  0  0  0  0  0
  -29.3575   64.0107   64.4808 O   0  0  0  0  0  0  0  0  0  0  0  0
  -29.0727   63.9556   63.3063 C   0  0  0  0  0  0  0  0  0  0  0  0
  -29.2447   64.6420   61.4371 H   0  0  0  0  0  0  0  0  0  0  0  0
  -32.6040   65.0281   61.6911 N   0  0  0  0  0  0  0  0  0  0  0  0
  -32.4742   65.6155   63.8598 O   0  0  0  0  0  0  0  0  0  0  0  0
  -31.9964   64.5920   60.4251 C   0  0  0  0  0  0  0  0  0  0  0  0
  -31.3878   65.7896   59.6716 C   0  0  0  0  0  0  0  0  0  0  0  0
  -31.3695   67.0995   60.4421 C   0  0  0  0  0  0  0  0  0  0  0  0
  -30.4226   67.0734   61.6448 C   0  0  0  0  0  0  0  0  0  0  0  0
  -30.4865   65.8816   62.6145 C   0  0  0  0  0  0  0  0  0  0  0  0
  -31.9402   65.4786   62.7677 C   0  0  0  0  0  0  0  0  0  0  0  0
  -34.7564   64.7973   63.3757 Si  0  0  0  0  0  0  0  0  0  0  0  0
  -33.9616   64.9599   61.7827 O   0  0  0  0  0  0  0  0  0  0  0  0
  -36.1646   64.7481   63.1992 H   0  0  0  0  0  0  0  0  0  0  0  0
  -34.4200   65.9120   64.1885 H   0  0  0  0  0  0  0  0  0  0  0  0
  -34.3162   63.6027   64.0047 H   0  0  0  0  0  0  0  0  0  0  0  0
  -33.7829   62.0071   64.9837 C   0  0  0  0  0  0  0  0  0  0  0  0
  -32.7426   62.3513   63.9107 C   0  0  0  0  0  0  0  0  0  0  0  0
  -34.0289   63.0613   66.0764 C   0  0  0  0  0  0  0  0  0  0  0  0
  -35.4471   63.6587   66.1824 C   0  0  0  0  0  0  0  0  0  0  0  0
  -36.3693   62.7871   65.4477 N   0  0  0  0  0  0  0  0  0  0  0  0
  -36.9731   61.6404   65.8576 C   0  0  0  0  0  0  0  0  0  0  0  0
  -36.6482   63.2239   64.1450 O   0  0  0  0  0  0  0  0  0  0  0  0
  -36.7921   61.1950   66.9907 O   0  0  0  0  0  0  0  0  0  0  0  0
  -37.2611   62.6035   63.7202 H   0  0  0  0  0  0  0  0  0  0  0  0
  -37.8884   60.8940   64.8814 C   0  0  0  0  0  0  0  0  0  0  0  0
  -38.6188   59.6890   65.4896 C   0  0  0  0  0  0  0  0  0  0  0  0
  -40.1431   59.8776   65.3668 C   0  0  0  0  0  0  0  0  0  0  0  0
  -40.7727   59.0656   64.2189 C   0  0  0  0  0  0  0  0  0  0  0  0
  -42.0855   59.6500   63.6649 C   0  0  0  0  0  0  0  0  0  0  0  0
  -42.9491   58.5998   62.9351 C   0  0  0  0  0  0  0  0  0  0  0  0
  -44.2814   58.2604   63.6433 C   0  0  0  0  0  0  0  0  0  0  0  0
  -44.8978   59.4513   64.3862 C   0  0  0  0  0  0  0  0  0  0  0  0
  -45.0750   59.2617   65.8960 C   0  0  0  0  0  0  0  0  0  0  0  0
  -46.4294   58.6073   66.2242 C   0  0  0  0  0  0  0  0  0  0  0  0
  -47.5029   59.6003   66.6949 C   0  0  0  0  0  0  0  0  0  0  0  0
  -48.8324   59.5529   65.9351 C   0  0  0  0  0  0  0  0  0  0  0  0
  -49.0840   60.7747   65.0165 C   0  0  0  0  0  0  0  0  0  0  0  0
  -49.4151   60.3391   63.5747 C   0  0  0  0  0  0  0  0  0  0  0  0
  -48.4220   59.3977   62.8826 C   0  0  0  0  0  0  0  0  0  0  0  0
 46 47  1  0  0  0
 46 48  1  0  0  0
 46 45  1  0  0  0
 47 49  2  0  0  0
 47 51  1  0  0  0
 19 20  2  0  0  0
 37 38  1  0  0  0
 37 39  1  0  0  0
 37 40  1  0  0  0
 37 41  1  0  0  0
 48 50  1  0  0  0
 38 29  1  0  0  0
 45 44  1  0  0  0
 25 27  1  0  0  0
 25 35  1  0  0  0
 25 28  1  0  0  0
 21 20  1  0  0  0
 21 22  1  0  0  0
 44 42  1  0  0  0
  2  1  1  0  0  0
  2  4  1  0  0  0
  2  5  1  0  0  0
 26 27  2  0  0  0
 42 43  2  0  0  0
 29 31  1  0  0  0
 29 36  1  0  0  0
  3  4  2  0  0  0
 43  1  1  0  0  0
  6  9  2  0  0  0
  6 10  1  0  0  0
  1 20  1  0  0  0
 30 36  2  0  0  0
  7  8  1  0  0  0
  7  9  1  0  0  0
 22 24  1  0  0  0
 22 23  1  0  0  0
 11 12  1  0  0  0
 11 18  1  0  0  0
 24 27  1  0  0  0
  4 10  1  0  0  0
 51 52  1  0  0  0
 52 53  1  0  0  0
 53 54  1  0  0  0
 54 55  1  0  0  0
 55 56  1  0  0  0
 56 57  1  0  0  0
 57 58  1  0  0  0
 58 59  1  0  0  0
 59 60  1  0  0  0
 60 61  1  0  0  0
 61 62  1  0  0  0
 62 63  1  0  0  0
 63 64  1  0  0  0
 64 65  1  0  0  0
 31 32  1  0  0  0
 32 33  1  0  0  0
 33 34  1  0  0  0
 34 35  1  0  0  0
 35 36  1  0  0  0
  8 10  1  0  0  0
  9 17  1  0  0  0
 12 13  2  0  0  0
 12 17  1  0  0  0
 13 14  1  0  0  0
 14 15  2  0  0  0
 15 16  1  0  0  0
 16 17  2  0  0  0
M  END
> <minimizedAffinity>
-8.53643

> <CNNscore>
0.3935069740

> <CNNaffinity>
7.5357947350

> <CNN_VS>
2.9653878212

> <CNNaffinity_variance>
0.6847189069

$$$$
/media/chris/experiments/cd1a-new-docking/inputs/ligands/1xz0_ligand.pdb


 65 67  0  0  0  0  0  0  0  0999 V2000
  -37.0414   61.4639   63.0158 C   0  0  0  0  0  0  0  0  0  0  0  0
  -35.8683   60.5889   62.9654 N   0  0  0  0  0  0  0  0  0  0  0  0
  -35.2641   60.4152   65.1512 O   0  0  0  0  0  0  0  0  0  0  0  0
  -35.0949   60.1421   63.9701 C   0  0  0  0  0  0  0  0  0  0  0  0
  -35.6086   60.2840   62.0660 H   0  0  0  0  0  0  0  0  0  0  0  0
  -32.6488   60.1698   63.5276 N   0  0  0  0  0  0  0  0  0  0  0  0
  -32.6151   59.0370   61.6021 O   0  0  0  0  0  0  0  0  0  0  0  0
  -33.8019   58.5800   62.2494 C   0  0  0  0  0  0  0  0  0  0  0  0
  -31.9933   60.0163   62.4578 C   0  0  0  0  0  0  0  0  0  0  0  0
  -33.8593   59.3304   63.6088 C   0  0  0  0  0  0  0  0  0  0  0  0
  -31.7954   62.6605   61.2891 O   0  0  0  0  0  0  0  0  0  0  0  0
  -30.6693   61.9973   61.5788 C   0  0  0  0  0  0  0  0  0  0  0  0
  -29.4282   62.5970   61.3282 C   0  0  0  0  0  0  0  0  0  0  0  0
  -28.2319   61.9181   61.6146 C   0  0  0  0  0  0  0  0  0  0  0  0
  -28.2631   60.6353   62.1643 C   0  0  0  0  0  0  0  0  0  0  0  0
  -29.4989   60.0351   62.4221 C   0  0  0  0  0  0  0  0  0  0  0  0
  -30.6994   60.7097   62.1280 C   0  0  0  0  0  0  0  0  0  0  0  0
  -31.7508   63.5215   60.9221 H   0  0  0  0  0  0  0  0  0  0  0  0
  -36.2975   63.4343   64.1557 O   0  0  0  0  0  0  0  0  0  0  0  0
  -36.5127   62.8838   63.0884 C   0  0  0  0  0  0  0  0  0  0  0  0
  -36.3135   63.6522   61.8552 O   0  0  0  0  0  0  0  0  0  0  0  0
  -35.8408   65.0122   61.8880 C   0  0  0  0  0  0  0  0  0  0  0  0
  -36.6901   65.9962   61.0930 C   0  0  0  0  0  0  0  0  0  0  0  0
  -34.3948   65.0286   61.4155 C   0  0  0  0  0  0  0  0  0  0  0  0
  -33.6634   65.3885   63.7245 N   0  0  0  0  0  0  0  0  0  0  0  0
  -32.4957   66.2327   61.9811 O   0  0  0  0  0  0  0  0  0  0  0  0
  -33.4478   65.6315   62.4234 C   0  0  0  0  0  0  0  0  0  0  0  0
  -34.4752   64.8876   63.9680 H   0  0  0  0  0  0  0  0  0  0  0  0
  -31.0825   64.0289   64.8840 N   0  0  0  0  0  0  0  0  0  0  0  0
  -30.4577   66.1596   64.5169 O   0  0  0  0  0  0  0  0  0  0  0  0
  -32.0761   62.9451   64.8646 C   0  0  0  0  0  0  0  0  0  0  0  0
  -32.9967   63.0277   66.0968 C   0  0  0  0  0  0  0  0  0  0  0  0
  -32.8241   64.2711   66.9535 C   0  0  0  0  0  0  0  0  0  0  0  0
  -33.2669   65.5533   66.2436 C   0  0  0  0  0  0  0  0  0  0  0  0
  -32.7747   65.8167   64.8108 C   0  0  0  0  0  0  0  0  0  0  0  0
  -31.3404   65.3352   64.7112 C   0  0  0  0  0  0  0  0  0  0  0  0
  -28.6071   64.8606   65.7234 Si  0  0  0  0  0  0  0  0  0  0  0  0
  -29.7827   63.6742   65.0860 O   0  0  0  0  0  0  0  0  0  0  0  0
  -27.3320   64.2470   65.8413 H   0  0  0  0  0  0  0  0  0  0  0  0
  -29.0350   65.3119   66.9999 H   0  0  0  0  0  0  0  0  0  0  0  0
  -28.5205   65.9652   64.8353 H   0  0  0  0  0  0  0  0  0  0  0  0
  -39.1066   60.0202   63.7539 C   0  0  0  0  0  0  0  0  0  0  0  0
  -38.1205   61.1486   64.0799 C   0  0  0  0  0  0  0  0  0  0  0  0
  -40.4133   59.9837   64.5644 C   0  0  0  0  0  0  0  0  0  0  0  0
  -41.2177   58.6675   64.5586 C   0  0  0  0  0  0  0  0  0  0  0  0
  -42.5743   58.9598   64.0852 N   0  0  0  0  0  0  0  0  0  0  0  0
  -43.7663   58.6701   64.6707 C   0  0  0  0  0  0  0  0  0  0  0  0
  -42.6148   59.6328   62.8559 O   0  0  0  0  0  0  0  0  0  0  0  0
  -43.8189   58.0927   65.7565 O   0  0  0  0  0  0  0  0  0  0  0  0
  -43.5381   59.7927   62.6051 H   0  0  0  0  0  0  0  0  0  0  0  0
  -45.0609   59.0685   63.9545 C   0  0  0  0  0  0  0  0  0  0  0  0
  -46.0585   59.8415   64.8278 C   0  0  0  0  0  0  0  0  0  0  0  0
  -47.3955   60.0098   64.0806 C   0  0  0  0  0  0  0  0  0  0  0  0
  -48.5227   60.5854   64.9588 C   0  0  0  0  0  0  0  0  0  0  0  0
  -49.2069   59.5575   65.8793 C   0  0  0  0  0  0  0  0  0  0  0  0
  -50.7451   59.5723   65.7565 C   0  0  0  0  0  0  0  0  0  0  0  0
  -51.2973   60.5903   64.7315 C   0  0  0  0  0  0  0  0  0  0  0  0
  -51.9788   59.9331   63.5257 C   0  0  0  0  0  0  0  0  0  0  0  0
  -51.0473   59.5638   62.3670 C   0  0  0  0  0  0  0  0  0  0  0  0
  -50.6686   58.0720   62.4050 C   0  0  0  0  0  0  0  0  0  0  0  0
  -51.1385   57.2788   61.1762 C   0  0  0  0  0  0  0  0  0  0  0  0
  -50.0837   57.0491   60.0890 C   0  0  0  0  0  0  0  0  0  0  0  0
  -49.5338   58.3493   59.4513 C   0  0  0  0  0  0  0  0  0  0  0  0
  -48.2089   58.0958   58.7039 C   0  0  0  0  0  0  0  0  0  0  0  0
  -48.3058   57.5739   57.2653 C   0  0  0  0  0  0  0  0  0  0  0  0
 46 47  1  0  0  0
 46 48  1  0  0  0
 46 45  1  0  0  0
 47 49  2  0  0  0
 47 51  1  0  0  0
 19 20  2  0  0  0
 37 38  1  0  0  0
 37 39  1  0  0  0
 37 40  1  0  0  0
 37 41  1  0  0  0
 48 50  1  0  0  0
 38 29  1  0  0  0
 45 44  1  0  0  0
 25 27  1  0  0  0
 25 35  1  0  0  0
 25 28  1  0  0  0
 21 20  1  0  0  0
 21 22  1  0  0  0
 44 42  1  0  0  0
  2  1  1  0  0  0
  2  4  1  0  0  0
  2  5  1  0  0  0
 26 27  2  0  0  0
 42 43  2  0  0  0
 29 31  1  0  0  0
 29 36  1  0  0  0
  3  4  2  0  0  0
 43  1  1  0  0  0
  6  9  2  0  0  0
  6 10  1  0  0  0
  1 20  1  0  0  0
 30 36  2  0  0  0
  7  8  1  0  0  0
  7  9  1  0  0  0
 22 24  1  0  0  0
 22 23  1  0  0  0
 11 12  1  0  0  0
 11 18  1  0  0  0
 24 27  1  0  0  0
  4 10  1  0  0  0
 51 52  1  0  0  0
 52 53  1  0  0  0
 53 54  1  0  0  0
 54 55  1  0  0  0
 55 56  1  0  0  0
 56 57  1  0  0  0
 57 58  1  0  0  0
 58 59  1  0  0  0
 59 60  1  0  0  0
 60 61  1  0  0  0
 61 62  1  0  0  0
 62 63  1  0  0  0
 63 64  1  0  0  0
 64 65  1  0  0  0
 31 32  1  0  0  0
 32 33  1  0  0  0
 33 34  1  0  0  0
 34 35  1  0  0  0
 35 36  1  0  0  0
  8 10  1  0  0  0
  9 17  1  0  0  0
 12 13  2  0  0  0
 12 17  1  0  0  0
 13 14  1  0  0  0
 14 15  2  0  0  0
 15 16  1  0  0  0
 16 17  2  0  0  0
M  END
> <minimizedAffinity>
-9.67804

> <CNNscore>
0.3652185798

> <CNNaffinity>
6.5161657333

> <CNN_VS>
2.3798248768

> <CNNaffinity_variance>
0.0683979243

$$$$
/media/chris/experiments/cd1a-new-docking/inputs/ligands/1xz0_ligand.pdb


 65 67  0  0  0  0  0  0  0  0999 V2000
  -36.7890   61.6128   63.3883 C   0  0  0  0  0  0  0  0  0  0  0  0
  -35.5193   60.8954   63.5194 N   0  0  0  0  0  0  0  0  0  0  0  0
  -35.8773   58.9965   62.3197 O   0  0  0  0  0  0  0  0  0  0  0  0
  -35.1572   59.7046   63.0112 C   0  0  0  0  0  0  0  0  0  0  0  0
  -34.8317   61.3506   64.0572 H   0  0  0  0  0  0  0  0  0  0  0  0
  -32.7255   60.1476   63.2771 N   0  0  0  0  0  0  0  0  0  0  0  0
  -31.9120   58.3789   62.1807 O   0  0  0  0  0  0  0  0  0  0  0  0
  -33.1987   57.9478   62.6225 C   0  0  0  0  0  0  0  0  0  0  0  0
  -31.7269   59.7398   62.6182 C   0  0  0  0  0  0  0  0  0  0  0  0
  -33.7995   59.1448   63.4104 C   0  0  0  0  0  0  0  0  0  0  0  0
  -31.3742   61.5997   60.4241 O   0  0  0  0  0  0  0  0  0  0  0  0
  -30.3712   61.4309   61.2943 C   0  0  0  0  0  0  0  0  0  0  0  0
  -29.1872   62.1632   61.1371 C   0  0  0  0  0  0  0  0  0  0  0  0
  -28.1163   61.9971   62.0314 C   0  0  0  0  0  0  0  0  0  0  0  0
  -28.2210   61.1041   63.0992 C   0  0  0  0  0  0  0  0  0  0  0  0
  -29.4026   60.3758   63.2641 C   0  0  0  0  0  0  0  0  0  0  0  0
  -30.4742   60.5337   62.3643 C   0  0  0  0  0  0  0  0  0  0  0  0
  -31.2827   62.2059   59.7156 H   0  0  0  0  0  0  0  0  0  0  0  0
  -36.2201   63.7455   64.3175 O   0  0  0  0  0  0  0  0  0  0  0  0
  -36.4411   63.0874   63.3142 C   0  0  0  0  0  0  0  0  0  0  0  0
  -36.4316   63.7706   62.0165 O   0  0  0  0  0  0  0  0  0  0  0  0
  -35.8291   65.0689   61.8577 C   0  0  0  0  0  0  0  0  0  0  0  0
  -36.6430   66.0455   61.0178 C   0  0  0  0  0  0  0  0  0  0  0  0
  -34.4328   64.8824   61.2833 C   0  0  0  0  0  0  0  0  0  0  0  0
  -33.0992   64.2153   63.2256 N   0  0  0  0  0  0  0  0  0  0  0  0
  -33.5394   62.7595   61.5516 O   0  0  0  0  0  0  0  0  0  0  0  0
  -33.6119   63.8653   62.0369 C   0  0  0  0  0  0  0  0  0  0  0  0
  -33.2199   65.1471   63.5195 H   0  0  0  0  0  0  0  0  0  0  0  0
  -33.0239   64.0891   66.3614 N   0  0  0  0  0  0  0  0  0  0  0  0
  -33.4414   61.9665   65.7406 O   0  0  0  0  0  0  0  0  0  0  0  0
  -32.7648   65.5042   66.0570 C   0  0  0  0  0  0  0  0  0  0  0  0
  -31.2840   65.7209   65.6923 C   0  0  0  0  0  0  0  0  0  0  0  0
  -30.4607   64.4523   65.5412 C   0  0  0  0  0  0  0  0  0  0  0  0
  -30.8783   63.6079   64.3344 C   0  0  0  0  0  0  0  0  0  0  0  0
  -32.3710   63.3073   64.1192 C   0  0  0  0  0  0  0  0  0  0  0  0
  -33.0043   63.0784   65.4777 C   0  0  0  0  0  0  0  0  0  0  0  0
  -34.7577   62.7892   68.0431 Si  0  0  0  0  0  0  0  0  0  0  0  0
  -33.3197   63.7776   67.6542 O   0  0  0  0  0  0  0  0  0  0  0  0
  -34.8415   62.6082   69.4490 H   0  0  0  0  0  0  0  0  0  0  0  0
  -34.6479   61.5236   67.4087 H   0  0  0  0  0  0  0  0  0  0  0  0
  -35.9260   63.4508   67.5806 H   0  0  0  0  0  0  0  0  0  0  0  0
  -38.6872   59.9902   64.1996 C   0  0  0  0  0  0  0  0  0  0  0  0
  -37.9003   61.2886   64.4161 C   0  0  0  0  0  0  0  0  0  0  0  0
  -40.0403   59.8694   64.9208 C   0  0  0  0  0  0  0  0  0  0  0  0
  -40.9432   58.6766   64.5447 C   0  0  0  0  0  0  0  0  0  0  0  0
  -42.3128   58.9854   64.9672 N   0  0  0  0  0  0  0  0  0  0  0  0
  -43.4893   58.5897   64.4132 C   0  0  0  0  0  0  0  0  0  0  0  0
  -42.3864   59.8035   66.1034 O   0  0  0  0  0  0  0  0  0  0  0  0
  -43.5132   57.8603   63.4221 O   0  0  0  0  0  0  0  0  0  0  0  0
  -43.3168   59.9662   66.3250 H   0  0  0  0  0  0  0  0  0  0  0  0
  -44.8028   59.0712   65.0384 C   0  0  0  0  0  0  0  0  0  0  0  0
  -45.9471   59.2743   64.0360 C   0  0  0  0  0  0  0  0  0  0  0  0
  -47.0779   60.0960   64.6841 C   0  0  0  0  0  0  0  0  0  0  0  0
  -48.0437   59.2493   65.5347 C   0  0  0  0  0  0  0  0  0  0  0  0
  -48.7291   58.0993   64.7734 C   0  0  0  0  0  0  0  0  0  0  0  0
  -50.2634   58.2519   64.7102 C   0  0  0  0  0  0  0  0  0  0  0  0
  -50.7565   59.4135   63.8161 C   0  0  0  0  0  0  0  0  0  0  0  0
  -50.8434   59.0451   62.3305 C   0  0  0  0  0  0  0  0  0  0  0  0
  -51.2201   57.5895   62.0369 C   0  0  0  0  0  0  0  0  0  0  0  0
  -50.6199   57.1130   60.7017 C   0  0  0  0  0  0  0  0  0  0  0  0
  -49.2265   57.6879   60.4049 C   0  0  0  0  0  0  0  0  0  0  0  0
  -49.1294   58.5962   59.1749 C   0  0  0  0  0  0  0  0  0  0  0  0
  -47.9348   58.2775   58.2416 C   0  0  0  0  0  0  0  0  0  0  0  0
  -47.5450   56.7871   58.3113 C   0  0  0  0  0  0  0  0  0  0  0  0
  -47.7067   55.9608   57.0298 C   0  0  0  0  0  0  0  0  0  0  0  0
 46 47  1  0  0  0
 46 48  1  0  0  0
 46 45  1  0  0  0
 47 49  2  0  0  0
 47 51  1  0  0  0
 19 20  2  0  0  0
 37 38  1  0  0  0
 37 39  1  0  0  0
 37 40  1  0  0  0
 37 41  1  0  0  0
 48 50  1  0  0  0
 38 29  1  0  0  0
 45 44  1  0  0  0
 25 27  1  0  0  0
 25 35  1  0  0  0
 25 28  1  0  0  0
 21 20  1  0  0  0
 21 22  1  0  0  0
 44 42  1  0  0  0
  2  1  1  0  0  0
  2  4  1  0  0  0
  2  5  1  0  0  0
 26 27  2  0  0  0
 42 43  2  0  0  0
 29 31  1  0  0  0
 29 36  1  0  0  0
  3  4  2  0  0  0
 43  1  1  0  0  0
  6  9  2  0  0  0
  6 10  1  0  0  0
  1 20  1  0  0  0
 30 36  2  0  0  0
  7  8  1  0  0  0
  7  9  1  0  0  0
 22 24  1  0  0  0
 22 23  1  0  0  0
 11 12  1  0  0  0
 11 18  1  0  0  0
 24 27  1  0  0  0
  4 10  1  0  0  0
 51 52  1  0  0  0
 52 53  1  0  0  0
 53 54  1  0  0  0
 54 55  1  0  0  0
 55 56  1  0  0  0
 56 57  1  0  0  0
 57 58  1  0  0  0
 58 59  1  0  0  0
 59 60  1  0  0  0
 60 61  1  0  0  0
 61 62  1  0  0  0
 62 63  1  0  0  0
 63 64  1  0  0  0
 64 65  1  0  0  0
 31 32  1  0  0  0
 32 33  1  0  0  0
 33 34  1  0  0  0
 34 35  1  0  0  0
 35 36  1  0  0  0
  8 10  1  0  0  0
  9 17  1  0  0  0
 12 13  2  0  0  0
 12 17  1  0  0  0
 13 14  1  0  0  0
 14 15  2  0  0  0
 15 16  1  0  0  0
 16 17  2  0  0  0
M  END
> <minimizedAffinity>
-9.11670

> <CNNscore>
0.3385976255

> <CNNaffinity>
6.7930021286

> <CNN_VS>
2.3000943661

> <CNNaffinity_variance>
0.0237437207

$$$$
/media/chris/experiments/cd1a-new-docking/inputs/ligands/1xz0_ligand.pdb


 65 67  0  0  0  0  0  0  0  0999 V2000
  -40.2226   59.0529   64.6067 C   0  0  0  0  0  0  0  0  0  0  0  0
  -38.9057   59.2618   65.2118 N   0  0  0  0  0  0  0  0  0  0  0  0
  -38.1474   61.1288   64.1572 O   0  0  0  0  0  0  0  0  0  0  0  0
  -37.9999   60.2252   64.9696 C   0  0  0  0  0  0  0  0  0  0  0  0
  -38.6463   58.6016   65.8945 H   0  0  0  0  0  0  0  0  0  0  0  0
  -36.0925   61.4556   65.9834 N   0  0  0  0  0  0  0  0  0  0  0  0
  -34.4025   60.4164   64.9559 O   0  0  0  0  0  0  0  0  0  0  0  0
  -35.4551   59.4529   64.9471 C   0  0  0  0  0  0  0  0  0  0  0  0
  -34.8989   61.6084   65.5965 C   0  0  0  0  0  0  0  0  0  0  0  0
  -36.6531   60.1271   65.6715 C   0  0  0  0  0  0  0  0  0  0  0  0
  -35.6455   63.8027   67.3358 O   0  0  0  0  0  0  0  0  0  0  0  0
  -34.4759   63.8626   66.6874 C   0  0  0  0  0  0  0  0  0  0  0  0
  -33.6362   64.9683   66.8743 C   0  0  0  0  0  0  0  0  0  0  0  0
  -32.4079   65.0593   66.1981 C   0  0  0  0  0  0  0  0  0  0  0  0
  -32.0007   64.0406   65.3349 C   0  0  0  0  0  0  0  0  0  0  0  0
  -32.8321   62.9323   65.1499 C   0  0  0  0  0  0  0  0  0  0  0  0
  -34.0676   62.8425   65.8196 C   0  0  0  0  0  0  0  0  0  0  0  0
  -35.8979   64.4972   67.9118 H   0  0  0  0  0  0  0  0  0  0  0  0
  -41.3304   60.9590   65.5423 O   0  0  0  0  0  0  0  0  0  0  0  0
  -40.8855   60.4159   64.5445 C   0  0  0  0  0  0  0  0  0  0  0  0
  -41.0646   61.0819   63.2501 O   0  0  0  0  0  0  0  0  0  0  0  0
  -42.3767   61.3488   62.7200 C   0  0  0  0  0  0  0  0  0  0  0  0
  -43.4298   60.3101   63.0855 C   0  0  0  0  0  0  0  0  0  0  0  0
  -42.2613   61.5059   61.2112 C   0  0  0  0  0  0  0  0  0  0  0  0
  -41.3210   59.2456   61.2646 N   0  0  0  0  0  0  0  0  0  0  0  0
  -41.2831   60.4854   59.3733 O   0  0  0  0  0  0  0  0  0  0  0  0
  -41.5420   60.3574   60.5480 C   0  0  0  0  0  0  0  0  0  0  0  0
  -41.5730   59.2569   62.2162 H   0  0  0  0  0  0  0  0  0  0  0  0
  -38.5015   57.9641   61.7770 N   0  0  0  0  0  0  0  0  0  0  0  0
  -39.9400   56.2647   62.1051 O   0  0  0  0  0  0  0  0  0  0  0  0
  -38.1995   59.3640   61.4432 C   0  0  0  0  0  0  0  0  0  0  0  0
  -38.2028   59.5733   59.9172 C   0  0  0  0  0  0  0  0  0  0  0  0
  -38.6837   58.3853   59.1004 C   0  0  0  0  0  0  0  0  0  0  0  0
  -40.1717   58.0851   59.2991 C   0  0  0  0  0  0  0  0  0  0  0  0
  -40.7301   58.0134   60.7301 C   0  0  0  0  0  0  0  0  0  0  0  0
  -39.6855   57.3536   61.6091 C   0  0  0  0  0  0  0  0  0  0  0  0
  -37.3643   57.0105   64.0838 Si  0  0  0  0  0  0  0  0  0  0  0  0
  -37.4918   57.2234   62.3134 O   0  0  0  0  0  0  0  0  0  0  0  0
  -36.2351   56.2033   64.3834 H   0  0  0  0  0  0  0  0  0  0  0  0
  -38.5396   56.3796   64.5704 H   0  0  0  0  0  0  0  0  0  0  0  0
  -37.2169   58.2795   64.7038 H   0  0  0  0  0  0  0  0  0  0  0  0
  -42.2261   57.3797   64.3225 C   0  0  0  0  0  0  0  0  0  0  0  0
  -41.1226   57.9529   65.2202 C   0  0  0  0  0  0  0  0  0  0  0  0
  -43.3738   56.6331   65.0233 C   0  0  0  0  0  0  0  0  0  0  0  0
  -43.7679   57.1018   66.4390 C   0  0  0  0  0  0  0  0  0  0  0  0
  -44.6523   58.2641   66.3090 N   0  0  0  0  0  0  0  0  0  0  0  0
  -45.9996   58.2990   66.1321 C   0  0  0  0  0  0  0  0  0  0  0  0
  -43.9868   59.4959   66.3824 O   0  0  0  0  0  0  0  0  0  0  0  0
  -46.6610   57.2629   66.0702 O   0  0  0  0  0  0  0  0  0  0  0  0
  -44.6294   60.2166   66.2893 H   0  0  0  0  0  0  0  0  0  0  0  0
  -46.6957   59.6579   66.0024 C   0  0  0  0  0  0  0  0  0  0  0  0
  -47.2614   59.9517   64.6063 C   0  0  0  0  0  0  0  0  0  0  0  0
  -48.6377   60.6339   64.7264 C   0  0  0  0  0  0  0  0  0  0  0  0
  -49.4942   60.0909   65.8861 C   0  0  0  0  0  0  0  0  0  0  0  0
  -50.9443   59.7411   65.5032 C   0  0  0  0  0  0  0  0  0  0  0  0
  -51.5334   60.6981   64.4456 C   0  0  0  0  0  0  0  0  0  0  0  0
  -52.1147   59.9949   63.1968 C   0  0  0  0  0  0  0  0  0  0  0  0
  -51.0425   59.3928   62.2814 C   0  0  0  0  0  0  0  0  0  0  0  0
  -50.9206   57.8665   62.3301 C   0  0  0  0  0  0  0  0  0  0  0  0
  -51.0634   57.2472   60.9279 C   0  0  0  0  0  0  0  0  0  0  0  0
  -50.0474   57.7792   59.9058 C   0  0  0  0  0  0  0  0  0  0  0  0
  -48.5746   57.5038   60.2260 C   0  0  0  0  0  0  0  0  0  0  0  0
  -47.7214   57.0994   58.9979 C   0  0  0  0  0  0  0  0  0  0  0  0
  -48.1775   57.8399   57.7244 C   0  0  0  0  0  0  0  0  0  0  0  0
  -47.0887   58.2506   56.7258 C   0  0  0  0  0  0  0  0  0  0  0  0
 46 47  1  0  0  0
 46 48  1  0  0  0
 46 45  1  0  0  0
 47 49  2  0  0  0
 47 51  1  0  0  0
 19 20  2  0  0  0
 37 38  1  0  0  0
 37 39  1  0  0  0
 37 40  1  0  0  0
 37 41  1  0  0  0
 48 50  1  0  0  0
 38 29  1  0  0  0
 45 44  1  0  0  0
 25 27  1  0  0  0
 25 35  1  0  0  0
 25 28  1  0  0  0
 21 20  1  0  0  0
 21 22  1  0  0  0
 44 42  1  0  0  0
  2  1  1  0  0  0
  2  4  1  0  0  0
  2  5  1  0  0  0
 26 27  2  0  0  0
 42 43  2  0  0  0
 29 31  1  0  0  0
 29 36  1  0  0  0
  3  4  2  0  0  0
 43  1  1  0  0  0
  6  9  2  0  0  0
  6 10  1  0  0  0
  1 20  1  0  0  0
 30 36  2  0  0  0
  7  8  1  0  0  0
  7  9  1  0  0  0
 22 24  1  0  0  0
 22 23  1  0  0  0
 11 12  1  0  0  0
 11 18  1  0  0  0
 24 27  1  0  0  0
  4 10  1  0  0  0
 51 52  1  0  0  0
 52 53  1  0  0  0
 53 54  1  0  0  0
 54 55  1  0  0  0
 55 56  1  0  0  0
 56 57  1  0  0  0
 57 58  1  0  0  0
 58 59  1  0  0  0
 59 60  1  0  0  0
 60 61  1  0  0  0
 61 62  1  0  0  0
 62 63  1  0  0  0
 63 64  1  0  0  0
 64 65  1  0  0  0
 31 32  1  0  0  0
 32 33  1  0  0  0
 33 34  1  0  0  0
 34 35  1  0  0  0
 35 36  1  0  0  0
  8 10  1  0  0  0
  9 17  1  0  0  0
 12 13  2  0  0  0
 12 17  1  0  0  0
 13 14  1  0  0  0
 14 15  2  0  0  0
 15 16  1  0  0  0
 16 17  2  0  0  0
M  END
> <minimizedAffinity>
-10.87080

> <CNNscore>
0.3330513835

> <CNNaffinity>
7.7153649330

> <CNN_VS>
2.5696129799

> <CNNaffinity_variance>
1.5118036270

$$$$
/media/chris/experiments/cd1a-new-docking/inputs/ligands/1xz0_ligand.pdb


 65 67  0  0  0  0  0  0  0  0999 V2000
  -37.5565   60.2123   64.2400 C   0  0  0  0  0  0  0  0  0  0  0  0
  -37.1128   61.5684   64.5692 N   0  0  0  0  0  0  0  0  0  0  0  0
  -35.3445   61.2072   65.9533 O   0  0  0  0  0  0  0  0  0  0  0  0
  -36.0977   61.9651   65.3563 C   0  0  0  0  0  0  0  0  0  0  0  0
  -37.6329   62.2942   64.1543 H   0  0  0  0  0  0  0  0  0  0  0  0
  -34.8801   64.0531   64.7751 N   0  0  0  0  0  0  0  0  0  0  0  0
  -34.3605   64.7550   66.8317 O   0  0  0  0  0  0  0  0  0  0  0  0
  -35.5264   63.9552   67.0254 C   0  0  0  0  0  0  0  0  0  0  0  0
  -34.0399   64.7370   65.4264 C   0  0  0  0  0  0  0  0  0  0  0  0
  -35.9383   63.4568   65.6125 C   0  0  0  0  0  0  0  0  0  0  0  0
  -31.4274   64.9957   66.6531 O   0  0  0  0  0  0  0  0  0  0  0  0
  -31.6394   65.5657   65.4606 C   0  0  0  0  0  0  0  0  0  0  0  0
  -30.5975   66.2560   64.8277 C   0  0  0  0  0  0  0  0  0  0  0  0
  -30.7974   66.8710   63.5803 C   0  0  0  0  0  0  0  0  0  0  0  0
  -32.0390   66.7940   62.9468 C   0  0  0  0  0  0  0  0  0  0  0  0
  -33.0799   66.1010   63.5712 C   0  0  0  0  0  0  0  0  0  0  0  0
  -32.8850   65.4911   64.8253 C   0  0  0  0  0  0  0  0  0  0  0  0
  -30.5854   65.0585   67.0592 H   0  0  0  0  0  0  0  0  0  0  0  0
  -37.9161   59.8652   61.8979 O   0  0  0  0  0  0  0  0  0  0  0  0
  -37.1136   59.9523   62.8127 C   0  0  0  0  0  0  0  0  0  0  0  0
  -35.6941   59.7309   62.5180 O   0  0  0  0  0  0  0  0  0  0  0  0
  -35.1070   58.4187   62.6031 C   0  0  0  0  0  0  0  0  0  0  0  0
  -35.5285   57.6154   63.8272 C   0  0  0  0  0  0  0  0  0  0  0  0
  -33.5942   58.5652   62.5370 C   0  0  0  0  0  0  0  0  0  0  0  0
  -32.9448   60.8823   62.0841 N   0  0  0  0  0  0  0  0  0  0  0  0
  -32.9753   60.0655   64.1930 O   0  0  0  0  0  0  0  0  0  0  0  0
  -33.1078   59.9162   62.9998 C   0  0  0  0  0  0  0  0  0  0  0  0
  -33.0794   60.6438   61.1385 H   0  0  0  0  0  0  0  0  0  0  0  0
  -30.8728   62.7878   60.6947 N   0  0  0  0  0  0  0  0  0  0  0  0
  -32.7498   64.0233   60.8210 O   0  0  0  0  0  0  0  0  0  0  0  0
  -30.1144   61.5502   60.9299 C   0  0  0  0  0  0  0  0  0  0  0  0
  -29.6005   61.4933   62.3808 C   0  0  0  0  0  0  0  0  0  0  0  0
  -30.1179   62.5910   63.2959 C   0  0  0  0  0  0  0  0  0  0  0  0
  -31.6192   62.4800   63.5743 C   0  0  0  0  0  0  0  0  0  0  0  0
  -32.5802   62.2699   62.3923 C   0  0  0  0  0  0  0  0  0  0  0  0
  -32.0706   63.0881   61.2220 C   0  0  0  0  0  0  0  0  0  0  0  0
  -31.3374   64.9047   59.0133 Si  0  0  0  0  0  0  0  0  0  0  0  0
  -30.3141   63.7077   59.8595 O   0  0  0  0  0  0  0  0  0  0  0  0
  -30.5196   65.7427   58.2099 H   0  0  0  0  0  0  0  0  0  0  0  0
  -32.0303   65.6945   59.9685 H   0  0  0  0  0  0  0  0  0  0  0  0
  -32.2749   64.2276   58.1893 H   0  0  0  0  0  0  0  0  0  0  0  0
  -39.3975   58.3776   64.6126 C   0  0  0  0  0  0  0  0  0  0  0  0
  -39.0423   59.8654   64.5013 C   0  0  0  0  0  0  0  0  0  0  0  0
  -40.8783   58.0016   64.4346 C   0  0  0  0  0  0  0  0  0  0  0  0
  -41.8975   58.6513   65.3929 C   0  0  0  0  0  0  0  0  0  0  0  0
  -43.1049   58.9776   64.6277 N   0  0  0  0  0  0  0  0  0  0  0  0
  -44.3751   59.1679   65.0727 C   0  0  0  0  0  0  0  0  0  0  0  0
  -42.8867   59.1054   63.2486 O   0  0  0  0  0  0  0  0  0  0  0  0
  -44.6495   59.0867   66.2698 O   0  0  0  0  0  0  0  0  0  0  0  0
  -43.7234   59.3205   62.8074 H   0  0  0  0  0  0  0  0  0  0  0  0
  -45.4779   59.4824   64.0564 C   0  0  0  0  0  0  0  0  0  0  0  0
  -46.8152   59.9050   64.6798 C   0  0  0  0  0  0  0  0  0  0  0  0
  -47.9436   58.9775   64.1894 C   0  0  0  0  0  0  0  0  0  0  0  0
  -48.7438   58.3248   65.3326 C   0  0  0  0  0  0  0  0  0  0  0  0
  -50.2710   58.3360   65.1341 C   0  0  0  0  0  0  0  0  0  0  0  0
  -50.8367   59.7540   64.9093 C   0  0  0  0  0  0  0  0  0  0  0  0
  -51.7003   59.9058   63.6353 C   0  0  0  0  0  0  0  0  0  0  0  0
  -51.0839   59.2429   62.3980 C   0  0  0  0  0  0  0  0  0  0  0  0
  -51.6961   57.8955   62.0026 C   0  0  0  0  0  0  0  0  0  0  0  0
  -50.8669   57.2026   60.9060 C   0  0  0  0  0  0  0  0  0  0  0  0
  -49.9577   58.1567   60.1166 C   0  0  0  0  0  0  0  0  0  0  0  0
  -48.4741   57.7767   60.0708 C   0  0  0  0  0  0  0  0  0  0  0  0
  -48.0129   57.1755   58.7196 C   0  0  0  0  0  0  0  0  0  0  0  0
  -47.7962   58.2724   57.6575 C   0  0  0  0  0  0  0  0  0  0  0  0
  -46.7397   58.0034   56.5792 C   0  0  0  0  0  0  0  0  0  0  0  0
 46 47  1  0  0  0
 46 48  1  0  0  0
 46 45  1  0  0  0
 47 49  2  0  0  0
 47 51  1  0  0  0
 19 20  2  0  0  0
 37 38  1  0  0  0
 37 39  1  0  0  0
 37 40  1  0  0  0
 37 41  1  0  0  0
 48 50  1  0  0  0
 38 29  1  0  0  0
 45 44  1  0  0  0
 25 27  1  0  0  0
 25 35  1  0  0  0
 25 28  1  0  0  0
 21 20  1  0  0  0
 21 22  1  0  0  0
 44 42  1  0  0  0
  2  1  1  0  0  0
  2  4  1  0  0  0
  2  5  1  0  0  0
 26 27  2  0  0  0
 42 43  2  0  0  0
 29 31  1  0  0  0
 29 36  1  0  0  0
  3  4  2  0  0  0
 43  1  1  0  0  0
  6  9  2  0  0  0
  6 10  1  0  0  0
  1 20  1  0  0  0
 30 36  2  0  0  0
  7  8  1  0  0  0
  7  9  1  0  0  0
 22 24  1  0  0  0
 22 23  1  0  0  0
 11 12  1  0  0  0
 11 18  1  0  0  0
 24 27  1  0  0  0
  4 10  1  0  0  0
 51 52  1  0  0  0
 52 53  1  0  0  0
 53 54  1  0  0  0
 54 55  1  0  0  0
 55 56  1  0  0  0
 56 57  1  0  0  0
 57 58  1  0  0  0
 58 59  1  0  0  0
 59 60  1  0  0  0
 60 61  1  0  0  0
 61 62  1  0  0  0
 62 63  1  0  0  0
 63 64  1  0  0  0
 64 65  1  0  0  0
 31 32  1  0  0  0
 32 33  1  0  0  0
 33 34  1  0  0  0
 34 35  1  0  0  0
 35 36  1  0  0  0
  8 10  1  0  0  0
  9 17  1  0  0  0
 12 13  2  0  0  0
 12 17  1  0  0  0
 13 14  1  0  0  0
 14 15  2  0  0  0
 15 16  1  0  0  0
 16 17  2  0  0  0
M  END
> <minimizedAffinity>
-9.92777

> <CNNscore>
0.3019021153

> <CNNaffinity>
6.6937551498

> <CNN_VS>
2.0208587646

> <CNNaffinity_variance>
0.1112120152

$$$$
/media/chris/experiments/cd1a-new-docking/inputs/ligands/1xz0_ligand.pdb


 65 67  0  0  0  0  0  0  0  0999 V2000
  -36.6482   60.7677   65.1720 C   0  0  0  0  0  0  0  0  0  0  0  0
  -35.6554   61.7153   65.6824 N   0  0  0  0  0  0  0  0  0  0  0  0
  -36.8546   63.6325   65.9260 O   0  0  0  0  0  0  0  0  0  0  0  0
  -35.8036   63.0108   66.0098 C   0  0  0  0  0  0  0  0  0  0  0  0
  -34.7487   61.3513   65.8032 H   0  0  0  0  0  0  0  0  0  0  0  0
  -33.9034   64.4200   65.2463 N   0  0  0  0  0  0  0  0  0  0  0  0
  -32.2256   63.3473   66.2593 O   0  0  0  0  0  0  0  0  0  0  0  0
  -33.3633   63.0465   67.0664 C   0  0  0  0  0  0  0  0  0  0  0  0
  -32.6654   64.1780   65.1664 C   0  0  0  0  0  0  0  0  0  0  0  0
  -34.5586   63.7899   66.4083 C   0  0  0  0  0  0  0  0  0  0  0  0
  -32.7410   66.8954   64.1629 O   0  0  0  0  0  0  0  0  0  0  0  0
  -31.8181   66.0548   63.6798 C   0  0  0  0  0  0  0  0  0  0  0  0
  -30.9046   66.5070   62.7187 C   0  0  0  0  0  0  0  0  0  0  0  0
  -29.9325   65.6418   62.1891 C   0  0  0  0  0  0  0  0  0  0  0  0
  -29.8564   64.3168   62.6220 C   0  0  0  0  0  0  0  0  0  0  0  0
  -30.7615   63.8625   63.5854 C   0  0  0  0  0  0  0  0  0  0  0  0
  -31.7423   64.7250   64.1115 C   0  0  0  0  0  0  0  0  0  0  0  0
  -32.7727   67.7812   63.8592 H   0  0  0  0  0  0  0  0  0  0  0  0
  -37.5476   61.8824   63.2526 O   0  0  0  0  0  0  0  0  0  0  0  0
  -36.7763   61.0421   63.6856 C   0  0  0  0  0  0  0  0  0  0  0  0
  -36.0102   60.2393   62.7267 O   0  0  0  0  0  0  0  0  0  0  0  0
  -35.5657   58.9083   63.0501 C   0  0  0  0  0  0  0  0  0  0  0  0
  -34.1772   58.5608   62.5279 C   0  0  0  0  0  0  0  0  0  0  0  0
  -36.6055   57.9195   62.5447 C   0  0  0  0  0  0  0  0  0  0  0  0
  -38.8492   58.7038   61.9560 N   0  0  0  0  0  0  0  0  0  0  0  0
  -37.1222   58.9025   60.5092 O   0  0  0  0  0  0  0  0  0  0  0  0
  -37.5781   58.5294   61.5658 C   0  0  0  0  0  0  0  0  0  0  0  0
  -39.1081   58.3569   62.8402 H   0  0  0  0  0  0  0  0  0  0  0  0
  -41.9713   58.7185   62.2830 N   0  0  0  0  0  0  0  0  0  0  0  0
  -41.4345   60.8948   62.0809 O   0  0  0  0  0  0  0  0  0  0  0  0
  -41.6156   57.2928   62.3375 C   0  0  0  0  0  0  0  0  0  0  0  0
  -41.4275   56.7233   60.9187 C   0  0  0  0  0  0  0  0  0  0  0  0
  -41.4594   57.7496   59.7982 C   0  0  0  0  0  0  0  0  0  0  0  0
  -40.2638   58.7053   59.8277 C   0  0  0  0  0  0  0  0  0  0  0  0
  -39.8813   59.3754   61.1579 C   0  0  0  0  0  0  0  0  0  0  0  0
  -41.1609   59.7168   61.8965 C   0  0  0  0  0  0  0  0  0  0  0  0
  -44.4656   57.7936   62.9515 Si  0  0  0  0  0  0  0  0  0  0  0  0
  -43.2333   59.0574   62.6682 O   0  0  0  0  0  0  0  0  0  0  0  0
  -45.6877   58.4030   63.3408 H   0  0  0  0  0  0  0  0  0  0  0  0
  -44.0220   56.9224   63.9813 H   0  0  0  0  0  0  0  0  0  0  0  0
  -44.6660   57.0517   61.7574 H   0  0  0  0  0  0  0  0  0  0  0  0
  -38.9646   59.5721   65.4866 C   0  0  0  0  0  0  0  0  0  0  0  0
  -38.0077   60.6939   65.9085 C   0  0  0  0  0  0  0  0  0  0  0  0
  -40.4438   59.7383   65.8740 C   0  0  0  0  0  0  0  0  0  0  0  0
  -41.3510   58.4953   65.7685 C   0  0  0  0  0  0  0  0  0  0  0  0
  -42.7019   58.8745   66.1941 N   0  0  0  0  0  0  0  0  0  0  0  0
  -43.8865   58.2632   65.9279 C   0  0  0  0  0  0  0  0  0  0  0  0
  -42.7451   60.0315   66.9847 O   0  0  0  0  0  0  0  0  0  0  0  0
  -43.9353   57.2355   65.2524 O   0  0  0  0  0  0  0  0  0  0  0  0
  -43.6644   60.2223   67.2286 H   0  0  0  0  0  0  0  0  0  0  0  0
  -45.1781   58.8768   66.4784 C   0  0  0  0  0  0  0  0  0  0  0  0
  -46.4245   58.6068   65.6246 C   0  0  0  0  0  0  0  0  0  0  0  0
  -46.7029   59.8081   64.7008 C   0  0  0  0  0  0  0  0  0  0  0  0
  -47.6270   59.4711   63.5152 C   0  0  0  0  0  0  0  0  0  0  0  0
  -48.8574   60.3876   63.3804 C   0  0  0  0  0  0  0  0  0  0  0  0
  -49.9604   60.0669   64.4109 C   0  0  0  0  0  0  0  0  0  0  0  0
  -51.3692   59.8724   63.8033 C   0  0  0  0  0  0  0  0  0  0  0  0
  -51.3454   59.3347   62.3678 C   0  0  0  0  0  0  0  0  0  0  0  0
  -51.2855   57.8093   62.2401 C   0  0  0  0  0  0  0  0  0  0  0  0
  -50.9822   57.3789   60.7933 C   0  0  0  0  0  0  0  0  0  0  0  0
  -49.8876   58.2140   60.1118 C   0  0  0  0  0  0  0  0  0  0  0  0
  -48.4502   57.7281   60.3246 C   0  0  0  0  0  0  0  0  0  0  0  0
  -47.8498   56.9687   59.1152 C   0  0  0  0  0  0  0  0  0  0  0  0
  -48.3425   57.5567   57.7775 C   0  0  0  0  0  0  0  0  0  0  0  0
  -47.3486   58.4090   56.9793 C   0  0  0  0  0  0  0  0  0  0  0  0
 46 47  1  0  0  0
 46 48  1  0  0  0
 46 45  1  0  0  0
 47 49  2  0  0  0
 47 51  1  0  0  0
 19 20  2  0  0  0
 37 38  1  0  0  0
 37 39  1  0  0  0
 37 40  1  0  0  0
 37 41  1  0  0  0
 48 50  1  0  0  0
 38 29  1  0  0  0
 45 44  1  0  0  0
 25 27  1  0  0  0
 25 35  1  0  0  0
 25 28  1  0  0  0
 21 20  1  0  0  0
 21 22  1  0  0  0
 44 42  1  0  0  0
  2  1  1  0  0  0
  2  4  1  0  0  0
  2  5  1  0  0  0
 26 27  2  0  0  0
 42 43  2  0  0  0
 29 31  1  0  0  0
 29 36  1  0  0  0
  3  4  2  0  0  0
 43  1  1  0  0  0
  6  9  2  0  0  0
  6 10  1  0  0  0
  1 20  1  0  0  0
 30 36  2  0  0  0
  7  8  1  0  0  0
  7  9  1  0  0  0
 22 24  1  0  0  0
 22 23  1  0  0  0
 11 12  1  0  0  0
 11 18  1  0  0  0
 24 27  1  0  0  0
  4 10  1  0  0  0
 51 52  1  0  0  0
 52 53  1  0  0  0
 53 54  1  0  0  0
 54 55  1  0  0  0
 55 56  1  0  0  0
 56 57  1  0  0  0
 57 58  1  0  0  0
 58 59  1  0  0  0
 59 60  1  0  0  0
 60 61  1  0  0  0
 61 62  1  0  0  0
 62 63  1  0  0  0
 63 64  1  0  0  0
 64 65  1  0  0  0
 31 32  1  0  0  0
 32 33  1  0  0  0
 33 34  1  0  0  0
 34 35  1  0  0  0
 35 36  1  0  0  0
  8 10  1  0  0  0
  9 17  1  0  0  0
 12 13  2  0  0  0
 12 17  1  0  0  0
 13 14  1  0  0  0
 14 15  2  0  0  0
 15 16  1  0  0  0
 16 17  2  0  0  0
M  END
> <minimizedAffinity>
-10.10454

> <CNNscore>
0.2632286549

> <CNNaffinity>
7.4173369408

> <CNN_VS>
1.9524556398

> <CNNaffinity_variance>
0.8582175970

$$$$
/media/chris/experiments/cd1a-new-docking/inputs/ligands/1xz0_ligand.pdb


 65 67  0  0  0  0  0  0  0  0999 V2000
  -36.6856   61.3727   64.2310 C   0  0  0  0  0  0  0  0  0  0  0  0
  -36.2028   62.2137   63.1340 N   0  0  0  0  0  0  0  0  0  0  0  0
  -36.3737   64.3156   63.9860 O   0  0  0  0  0  0  0  0  0  0  0  0
  -36.0814   63.5513   63.0757 C   0  0  0  0  0  0  0  0  0  0  0  0
  -35.9273   61.7299   62.3220 H   0  0  0  0  0  0  0  0  0  0  0  0
  -34.2673   63.8174   61.3969 N   0  0  0  0  0  0  0  0  0  0  0  0
  -34.3049   66.0399   61.1707 O   0  0  0  0  0  0  0  0  0  0  0  0
  -35.6273   65.7152   61.5977 C   0  0  0  0  0  0  0  0  0  0  0  0
  -33.5507   64.8138   61.0948 C   0  0  0  0  0  0  0  0  0  0  0  0
  -35.6555   64.1692   61.7517 C   0  0  0  0  0  0  0  0  0  0  0  0
  -32.0887   67.0148   59.9051 O   0  0  0  0  0  0  0  0  0  0  0  0
  -31.4571   65.8505   60.0986 C   0  0  0  0  0  0  0  0  0  0  0  0
  -30.1085   65.7261   59.7401 C   0  0  0  0  0  0  0  0  0  0  0  0
  -29.4258   64.5120   59.9244 C   0  0  0  0  0  0  0  0  0  0  0  0
  -30.0813   63.4112   60.4787 C   0  0  0  0  0  0  0  0  0  0  0  0
  -31.4251   63.5322   60.8439 C   0  0  0  0  0  0  0  0  0  0  0  0
  -32.1142   64.7451   60.6524 C   0  0  0  0  0  0  0  0  0  0  0  0
  -31.6285   67.7412   59.5329 H   0  0  0  0  0  0  0  0  0  0  0  0
  -35.0087   60.2554   65.5252 O   0  0  0  0  0  0  0  0  0  0  0  0
  -35.6154   60.3244   64.4690 C   0  0  0  0  0  0  0  0  0  0  0  0
  -35.2410   59.4055   63.3889 O   0  0  0  0  0  0  0  0  0  0  0  0
  -35.1924   57.9818   63.5997 C   0  0  0  0  0  0  0  0  0  0  0  0
  -34.0483   57.2751   62.8833 C   0  0  0  0  0  0  0  0  0  0  0  0
  -36.5369   57.3920   63.2014 C   0  0  0  0  0  0  0  0  0  0  0  0
  -38.4922   57.9285   61.8283 N   0  0  0  0  0  0  0  0  0  0  0  0
  -36.4811   58.8818   61.4255 O   0  0  0  0  0  0  0  0  0  0  0  0
  -37.1810   58.1117   62.0424 C   0  0  0  0  0  0  0  0  0  0  0  0
  -38.9608   57.2729   62.3937 H   0  0  0  0  0  0  0  0  0  0  0  0
  -41.5071   58.8029   61.8433 N   0  0  0  0  0  0  0  0  0  0  0  0
  -40.4020   60.6676   61.2373 O   0  0  0  0  0  0  0  0  0  0  0  0
  -41.5469   57.3855   62.2325 C   0  0  0  0  0  0  0  0  0  0  0  0
  -41.4651   56.4769   60.9914 C   0  0  0  0  0  0  0  0  0  0  0  0
  -41.1805   57.1925   59.6811 C   0  0  0  0  0  0  0  0  0  0  0  0
  -39.7752   57.7971   59.6222 C   0  0  0  0  0  0  0  0  0  0  0  0
  -39.2774   58.6363   60.8107 C   0  0  0  0  0  0  0  0  0  0  0  0
  -40.4459   59.4488   61.3337 C   0  0  0  0  0  0  0  0  0  0  0  0
  -42.8811   61.0788   61.1678 Si  0  0  0  0  0  0  0  0  0  0  0  0
  -42.6463   59.5276   62.0249 O   0  0  0  0  0  0  0  0  0  0  0  0
  -44.1390   61.6318   61.5261 H   0  0  0  0  0  0  0  0  0  0  0  0
  -42.8444   60.8553   59.7660 H   0  0  0  0  0  0  0  0  0  0  0  0
  -41.8466   61.9814   61.5306 H   0  0  0  0  0  0  0  0  0  0  0  0
  -38.6493   60.0028   65.3089 C   0  0  0  0  0  0  0  0  0  0  0  0
  -38.1121   60.7850   64.1040 C   0  0  0  0  0  0  0  0  0  0  0  0
  -39.8415   59.0652   65.0529 C   0  0  0  0  0  0  0  0  0  0  0  0
  -40.9631   59.0353   66.1114 C   0  0  0  0  0  0  0  0  0  0  0  0
  -42.2496   59.1775   65.4224 N   0  0  0  0  0  0  0  0  0  0  0  0
  -43.3312   58.3547   65.4503 C   0  0  0  0  0  0  0  0  0  0  0  0
  -42.3475   60.3327   64.6340 O   0  0  0  0  0  0  0  0  0  0  0  0
  -43.3323   57.3269   66.1274 O   0  0  0  0  0  0  0  0  0  0  0  0
  -43.2196   60.3619   64.2101 H   0  0  0  0  0  0  0  0  0  0  0  0
  -44.5628   58.7200   64.6152 C   0  0  0  0  0  0  0  0  0  0  0  0
  -45.6167   59.5466   65.3646 C   0  0  0  0  0  0  0  0  0  0  0  0
  -46.7473   59.9591   64.4025 C   0  0  0  0  0  0  0  0  0  0  0  0
  -47.8199   58.8700   64.2112 C   0  0  0  0  0  0  0  0  0  0  0  0
  -48.7179   58.6316   65.4395 C   0  0  0  0  0  0  0  0  0  0  0  0
  -49.4999   59.8921   65.8650 C   0  0  0  0  0  0  0  0  0  0  0  0
  -50.9796   59.9114   65.4158 C   0  0  0  0  0  0  0  0  0  0  0  0
  -51.1862   60.5175   64.0229 C   0  0  0  0  0  0  0  0  0  0  0  0
  -51.9398   59.6302   63.0270 C   0  0  0  0  0  0  0  0  0  0  0  0
  -51.1799   58.3187   62.7574 C   0  0  0  0  0  0  0  0  0  0  0  0
  -51.3933   57.7546   61.3445 C   0  0  0  0  0  0  0  0  0  0  0  0
  -50.1438   57.1987   60.6539 C   0  0  0  0  0  0  0  0  0  0  0  0
  -49.4225   58.2129   59.7314 C   0  0  0  0  0  0  0  0  0  0  0  0
  -48.1883   57.5828   59.0546 C   0  0  0  0  0  0  0  0  0  0  0  0
  -47.8362   58.0736   57.6452 C   0  0  0  0  0  0  0  0  0  0  0  0
 46 47  1  0  0  0
 46 48  1  0  0  0
 46 45  1  0  0  0
 47 49  2  0  0  0
 47 51  1  0  0  0
 19 20  2  0  0  0
 37 38  1  0  0  0
 37 39  1  0  0  0
 37 40  1  0  0  0
 37 41  1  0  0  0
 48 50  1  0  0  0
 38 29  1  0  0  0
 45 44  1  0  0  0
 25 27  1  0  0  0
 25 35  1  0  0  0
 25 28  1  0  0  0
 21 20  1  0  0  0
 21 22  1  0  0  0
 44 42  1  0  0  0
  2  1  1  0  0  0
  2  4  1  0  0  0
  2  5  1  0  0  0
 26 27  2  0  0  0
 42 43  2  0  0  0
 29 31  1  0  0  0
 29 36  1  0  0  0
  3  4  2  0  0  0
 43  1  1  0  0  0
  6  9  2  0  0  0
  6 10  1  0  0  0
  1 20  1  0  0  0
 30 36  2  0  0  0
  7  8  1  0  0  0
  7  9  1  0  0  0
 22 24  1  0  0  0
 22 23  1  0  0  0
 11 12  1  0  0  0
 11 18  1  0  0  0
 24 27  1  0  0  0
  4 10  1  0  0  0
 51 52  1  0  0  0
 52 53  1  0  0  0
 53 54  1  0  0  0
 54 55  1  0  0  0
 55 56  1  0  0  0
 56 57  1  0  0  0
 57 58  1  0  0  0
 58 59  1  0  0  0
 59 60  1  0  0  0
 60 61  1  0  0  0
 61 62  1  0  0  0
 62 63  1  0  0  0
 63 64  1  0  0  0
 64 65  1  0  0  0
 31 32  1  0  0  0
 32 33  1  0  0  0
 33 34  1  0  0  0
 34 35  1  0  0  0
 35 36  1  0  0  0
  8 10  1  0  0  0
  9 17  1  0  0  0
 12 13  2  0  0  0
 12 17  1  0  0  0
 13 14  1  0  0  0
 14 15  2  0  0  0
 15 16  1  0  0  0
 16 17  2  0  0  0
M  END
> <minimizedAffinity>
-9.70478

> <CNNscore>
0.2569086254

> <CNNaffinity>
7.3403930664

> <CNN_VS>
1.8858102560

> <CNNaffinity_variance>
0.5788499713

$$$$
/media/chris/experiments/cd1a-new-docking/inputs/ligands/1xz0_ligand.pdb


 65 67  0  0  0  0  0  0  0  0999 V2000
  -36.2575   61.7343   64.7730 C   0  0  0  0  0  0  0  0  0  0  0  0
  -35.9850   62.8362   63.8480 N   0  0  0  0  0  0  0  0  0  0  0  0
  -37.0308   62.1741   61.9399 O   0  0  0  0  0  0  0  0  0  0  0  0
  -36.3619   62.9856   62.5662 C   0  0  0  0  0  0  0  0  0  0  0  0
  -35.4483   63.5739   64.2181 H   0  0  0  0  0  0  0  0  0  0  0  0
  -34.5435   63.9082   61.1442 N   0  0  0  0  0  0  0  0  0  0  0  0
  -34.1403   65.8044   62.2551 O   0  0  0  0  0  0  0  0  0  0  0  0
  -35.4976   65.5007   62.5743 C   0  0  0  0  0  0  0  0  0  0  0  0
  -33.6454   64.7630   61.3899 C   0  0  0  0  0  0  0  0  0  0  0  0
  -35.8314   64.1922   61.8055 C   0  0  0  0  0  0  0  0  0  0  0  0
  -32.3227   67.0598   60.2186 O   0  0  0  0  0  0  0  0  0  0  0  0
  -31.6630   65.8966   60.2784 C   0  0  0  0  0  0  0  0  0  0  0  0
  -30.3514   65.8182   59.7923 C   0  0  0  0  0  0  0  0  0  0  0  0
  -29.6412   64.6067   59.8350 C   0  0  0  0  0  0  0  0  0  0  0  0
  -30.2311   63.4618   60.3736 C   0  0  0  0  0  0  0  0  0  0  0  0
  -31.5372   63.5364   60.8657 C   0  0  0  0  0  0  0  0  0  0  0  0
  -32.2545   64.7471   60.8162 C   0  0  0  0  0  0  0  0  0  0  0  0
  -31.9065   67.8162   59.8544 H   0  0  0  0  0  0  0  0  0  0  0  0
  -34.1922   60.6039   65.2112 O   0  0  0  0  0  0  0  0  0  0  0  0
  -35.1911   60.6866   64.5158 C   0  0  0  0  0  0  0  0  0  0  0  0
  -35.3158   59.7856   63.3652 O   0  0  0  0  0  0  0  0  0  0  0  0
  -34.5656   58.5587   63.2896 C   0  0  0  0  0  0  0  0  0  0  0  0
  -33.3391   58.6218   62.3879 C   0  0  0  0  0  0  0  0  0  0  0  0
  -35.5085   57.4462   62.8565 C   0  0  0  0  0  0  0  0  0  0  0  0
  -37.7426   58.2610   62.2724 N   0  0  0  0  0  0  0  0  0  0  0  0
  -37.3215   57.3490   64.2988 O   0  0  0  0  0  0  0  0  0  0  0  0
  -36.9500   57.7191   63.2086 C   0  0  0  0  0  0  0  0  0  0  0  0
  -37.3283   58.5255   61.4194 H   0  0  0  0  0  0  0  0  0  0  0  0
  -40.1309   57.4932   60.3853 N   0  0  0  0  0  0  0  0  0  0  0  0
  -40.7701   56.7394   62.4073 O   0  0  0  0  0  0  0  0  0  0  0  0
  -39.1740   58.1627   59.4919 C   0  0  0  0  0  0  0  0  0  0  0  0
  -39.3072   59.6936   59.5992 C   0  0  0  0  0  0  0  0  0  0  0  0
  -40.2307   60.1888   60.7000 C   0  0  0  0  0  0  0  0  0  0  0  0
  -39.6954   59.9009   62.1051 C   0  0  0  0  0  0  0  0  0  0  0  0
  -39.1838   58.4875   62.4297 C   0  0  0  0  0  0  0  0  0  0  0  0
  -40.0837   57.4897   61.7271 C   0  0  0  0  0  0  0  0  0  0  0  0
  -41.6811   55.2314   60.4551 Si  0  0  0  0  0  0  0  0  0  0  0  0
  -41.1511   56.8074   59.7983 O   0  0  0  0  0  0  0  0  0  0  0  0
  -42.7512   54.7270   59.6697 H   0  0  0  0  0  0  0  0  0  0  0  0
  -42.1165   55.3998   61.7960 H   0  0  0  0  0  0  0  0  0  0  0  0
  -40.5964   54.3156   60.4210 H   0  0  0  0  0  0  0  0  0  0  0  0
  -38.0937   60.3375   66.0266 C   0  0  0  0  0  0  0  0  0  0  0  0
  -37.6958   61.1625   64.7965 C   0  0  0  0  0  0  0  0  0  0  0  0
  -39.3192   59.4195   65.8807 C   0  0  0  0  0  0  0  0  0  0  0  0
  -40.6772   60.0876   65.5824 C   0  0  0  0  0  0  0  0  0  0  0  0
  -41.7411   59.2052   66.0717 N   0  0  0  0  0  0  0  0  0  0  0  0
  -42.7102   58.5615   65.3688 C   0  0  0  0  0  0  0  0  0  0  0  0
  -41.7305   59.0183   67.4612 O   0  0  0  0  0  0  0  0  0  0  0  0
  -42.7821   58.6618   64.1442 O   0  0  0  0  0  0  0  0  0  0  0  0
  -42.4571   58.4271   67.7134 H   0  0  0  0  0  0  0  0  0  0  0  0
  -43.7296   57.7035   66.1255 C   0  0  0  0  0  0  0  0  0  0  0  0
  -45.0572   57.4925   65.3851 C   0  0  0  0  0  0  0  0  0  0  0  0
  -46.2395   57.6888   66.3535 C   0  0  0  0  0  0  0  0  0  0  0  0
  -47.6143   57.6624   65.6589 C   0  0  0  0  0  0  0  0  0  0  0  0
  -47.8484   58.8079   64.6563 C   0  0  0  0  0  0  0  0  0  0  0  0
  -49.2287   59.4777   64.8219 C   0  0  0  0  0  0  0  0  0  0  0  0
  -50.4310   58.5534   64.5184 C   0  0  0  0  0  0  0  0  0  0  0  0
  -51.0848   58.8295   63.1595 C   0  0  0  0  0  0  0  0  0  0  0  0
  -50.9209   57.7203   62.1157 C   0  0  0  0  0  0  0  0  0  0  0  0
  -49.8880   58.1084   61.0420 C   0  0  0  0  0  0  0  0  0  0  0  0
  -49.8158   57.1258   59.8634 C   0  0  0  0  0  0  0  0  0  0  0  0
  -48.5481   56.2687   59.7881 C   0  0  0  0  0  0  0  0  0  0  0  0
  -47.7015   56.4959   58.5108 C   0  0  0  0  0  0  0  0  0  0  0  0
  -47.7968   57.9553   58.0219 C   0  0  0  0  0  0  0  0  0  0  0  0
  -47.1571   58.2827   56.6673 C   0  0  0  0  0  0  0  0  0  0  0  0
 46 47  1  0  0  0
 46 48  1  0  0  0
 46 45  1  0  0  0
 47 49  2  0  0  0
 47 51  1  0  0  0
 19 20  2  0  0  0
 37 38  1  0  0  0
 37 39  1  0  0  0
 37 40  1  0  0  0
 37 41  1  0  0  0
 48 50  1  0  0  0
 38 29  1  0  0  0
 45 44  1  0  0  0
 25 27  1  0  0  0
 25 35  1  0  0  0
 25 28  1  0  0  0
 21 20  1  0  0  0
 21 22  1  0  0  0
 44 42  1  0  0  0
  2  1  1  0  0  0
  2  4  1  0  0  0
  2  5  1  0  0  0
 26 27  2  0  0  0
 42 43  2  0  0  0
 29 31  1  0  0  0
 29 36  1  0  0  0
  3  4  2  0  0  0
 43  1  1  0  0  0
  6  9  2  0  0  0
  6 10  1  0  0  0
  1 20  1  0  0  0
 30 36  2  0  0  0
  7  8  1  0  0  0
  7  9  1  0  0  0
 22 24  1  0  0  0
 22 23  1  0  0  0
 11 12  1  0  0  0
 11 18  1  0  0  0
 24 27  1  0  0  0
  4 10  1  0  0  0
 51 52  1  0  0  0
 52 53  1  0  0  0
 53 54  1  0  0  0
 54 55  1  0  0  0
 55 56  1  0  0  0
 56 57  1  0  0  0
 57 58  1  0  0  0
 58 59  1  0  0  0
 59 60  1  0  0  0
 60 61  1  0  0  0
 61 62  1  0  0  0
 62 63  1  0  0  0
 63 64  1  0  0  0
 64 65  1  0  0  0
 31 32  1  0  0  0
 32 33  1  0  0  0
 33 34  1  0  0  0
 34 35  1  0  0  0
 35 36  1  0  0  0
  8 10  1  0  0  0
  9 17  1  0  0  0
 12 13  2  0  0  0
 12 17  1  0  0  0
 13 14  1  0  0  0
 14 15  2  0  0  0
 15 16  1  0  0  0
 16 17  2  0  0  0
M  END
> <minimizedAffinity>
-9.23509

> <CNNscore>
0.2554693520

> <CNNaffinity>
7.5072340965

> <CNN_VS>
1.9178682566

> <CNNaffinity_variance>
0.3297591805

$$$$
/media/chris/experiments/cd1a-new-docking/inputs/ligands/1xz0_ligand.pdb


 65 67  0  0  0  0  0  0  0  0999 V2000
  -42.2433   59.7737   63.2690 C   0  0  0  0  0  0  0  0  0  0  0  0
  -41.1725   59.7922   64.2677 N   0  0  0  0  0  0  0  0  0  0  0  0
  -39.4596   60.8023   63.1639 O   0  0  0  0  0  0  0  0  0  0  0  0
  -39.9215   60.2739   64.1667 C   0  0  0  0  0  0  0  0  0  0  0  0
  -41.4019   59.3945   65.1386 H   0  0  0  0  0  0  0  0  0  0  0  0
  -37.9382   61.0952   65.4204 N   0  0  0  0  0  0  0  0  0  0  0  0
  -36.7647   59.1969   65.5278 O   0  0  0  0  0  0  0  0  0  0  0  0
  -38.1168   58.7588   65.3996 C   0  0  0  0  0  0  0  0  0  0  0  0
  -36.7634   60.6383   65.5142 C   0  0  0  0  0  0  0  0  0  0  0  0
  -38.9774   60.0511   65.3393 C   0  0  0  0  0  0  0  0  0  0  0  0
  -36.2847   62.5297   67.6567 O   0  0  0  0  0  0  0  0  0  0  0  0
  -35.3392   62.3577   66.7249 C   0  0  0  0  0  0  0  0  0  0  0  0
  -34.1406   63.0776   66.8131 C   0  0  0  0  0  0  0  0  0  0  0  0
  -33.1366   62.9219   65.8426 C   0  0  0  0  0  0  0  0  0  0  0  0
  -33.3157   62.0367   64.7781 C   0  0  0  0  0  0  0  0  0  0  0  0
  -34.5073   61.3114   64.6891 C   0  0  0  0  0  0  0  0  0  0  0  0
  -35.5187   61.4719   65.6555 C   0  0  0  0  0  0  0  0  0  0  0  0
  -36.1424   63.1280   68.3637 H   0  0  0  0  0  0  0  0  0  0  0  0
  -44.4262   58.7892   63.3019 O   0  0  0  0  0  0  0  0  0  0  0  0
  -43.4398   59.1236   63.9373 C   0  0  0  0  0  0  0  0  0  0  0  0
  -43.4556   58.9464   65.3931 O   0  0  0  0  0  0  0  0  0  0  0  0
  -43.5188   57.6363   65.9877 C   0  0  0  0  0  0  0  0  0  0  0  0
  -42.8850   56.5312   65.1520 C   0  0  0  0  0  0  0  0  0  0  0  0
  -44.9739   57.3217   66.3009 C   0  0  0  0  0  0  0  0  0  0  0  0
  -46.4816   58.9514   65.2679 N   0  0  0  0  0  0  0  0  0  0  0  0
  -45.9770   59.0546   67.4703 O   0  0  0  0  0  0  0  0  0  0  0  0
  -45.8440   58.5518   66.3780 C   0  0  0  0  0  0  0  0  0  0  0  0
  -46.2939   58.4655   64.4325 H   0  0  0  0  0  0  0  0  0  0  0  0
  -49.6204   58.9220   65.3061 N   0  0  0  0  0  0  0  0  0  0  0  0
  -49.0707   60.4395   66.8746 O   0  0  0  0  0  0  0  0  0  0  0  0
  -49.2690   57.9395   64.2700 C   0  0  0  0  0  0  0  0  0  0  0  0
  -48.9543   58.6428   62.9363 C   0  0  0  0  0  0  0  0  0  0  0  0
  -48.8874   60.1598   63.0027 C   0  0  0  0  0  0  0  0  0  0  0  0
  -47.7006   60.6712   63.8234 C   0  0  0  0  0  0  0  0  0  0  0  0
  -47.4393   60.0617   65.2108 C   0  0  0  0  0  0  0  0  0  0  0  0
  -48.7801   59.8041   65.8704 C   0  0  0  0  0  0  0  0  0  0  0  0
  -51.6559   60.4404   66.3430 Si  0  0  0  0  0  0  0  0  0  0  0  0
  -50.9122   58.9312   65.7386 O   0  0  0  0  0  0  0  0  0  0  0  0
  -52.9981   60.1848   66.7298 H   0  0  0  0  0  0  0  0  0  0  0  0
  -51.6377   61.4211   65.3164 H   0  0  0  0  0  0  0  0  0  0  0  0
  -50.9226   60.9138   67.4631 H   0  0  0  0  0  0  0  0  0  0  0  0
  -41.9884   57.6545   61.7398 C   0  0  0  0  0  0  0  0  0  0  0  0
  -41.9109   59.1799   61.8786 C   0  0  0  0  0  0  0  0  0  0  0  0
  -41.2598   57.0283   60.5386 C   0  0  0  0  0  0  0  0  0  0  0  0
  -40.0143   57.7620   60.0005 C   0  0  0  0  0  0  0  0  0  0  0  0
  -38.9355   57.6179   60.9829 N   0  0  0  0  0  0  0  0  0  0  0  0
  -37.8832   58.4433   61.2260 C   0  0  0  0  0  0  0  0  0  0  0  0
  -39.0305   56.4586   61.7656 O   0  0  0  0  0  0  0  0  0  0  0  0
  -37.7333   59.4878   60.5923 O   0  0  0  0  0  0  0  0  0  0  0  0
  -38.2886   56.4284   62.3900 H   0  0  0  0  0  0  0  0  0  0  0  0
  -36.8685   58.0534   62.3059 C   0  0  0  0  0  0  0  0  0  0  0  0
  -35.6273   58.9539   62.3668 C   0  0  0  0  0  0  0  0  0  0  0  0
  -34.3872   58.1201   62.7425 C   0  0  0  0  0  0  0  0  0  0  0  0
  -33.0710   58.6860   62.1763 C   0  0  0  0  0  0  0  0  0  0  0  0
  -31.9420   58.8425   63.2121 C   0  0  0  0  0  0  0  0  0  0  0  0
  -30.9195   59.9316   62.8255 C   0  0  0  0  0  0  0  0  0  0  0  0
  -31.0018   60.3951   61.3523 C   0  0  0  0  0  0  0  0  0  0  0  0
  -30.2346   61.6936   61.0777 C   0  0  0  0  0  0  0  0  0  0  0  0
  -28.8025   61.7362   61.6201 C   0  0  0  0  0  0  0  0  0  0  0  0
  -28.5701   62.9827   62.4933 C   0  0  0  0  0  0  0  0  0  0  0  0
  -29.4693   63.0479   63.7373 C   0  0  0  0  0  0  0  0  0  0  0  0
  -30.1774   64.3852   63.9773 C   0  0  0  0  0  0  0  0  0  0  0  0
  -31.2171   64.7584   62.8912 C   0  0  0  0  0  0  0  0  0  0  0  0
  -32.2007   65.8334   63.3961 C   0  0  0  0  0  0  0  0  0  0  0  0
  -33.6936   65.4844   63.3682 C   0  0  0  0  0  0  0  0  0  0  0  0
 46 47  1  0  0  0
 46 48  1  0  0  0
 46 45  1  0  0  0
 47 49  2  0  0  0
 47 51  1  0  0  0
 19 20  2  0  0  0
 37 38  1  0  0  0
 37 39  1  0  0  0
 37 40  1  0  0  0
 37 41  1  0  0  0
 48 50  1  0  0  0
 38 29  1  0  0  0
 45 44  1  0  0  0
 25 27  1  0  0  0
 25 35  1  0  0  0
 25 28  1  0  0  0
 21 20  1  0  0  0
 21 22  1  0  0  0
 44 42  1  0  0  0
  2  1  1  0  0  0
  2  4  1  0  0  0
  2  5  1  0  0  0
 26 27  2  0  0  0
 42 43  2  0  0  0
 29 31  1  0  0  0
 29 36  1  0  0  0
  3  4  2  0  0  0
 43  1  1  0  0  0
  6  9  2  0  0  0
  6 10  1  0  0  0
  1 20  1  0  0  0
 30 36  2  0  0  0
  7  8  1  0  0  0
  7  9  1  0  0  0
 22 24  1  0  0  0
 22 23  1  0  0  0
 11 12  1  0  0  0
 11 18  1  0  0  0
 24 27  1  0  0  0
  4 10  1  0  0  0
 51 52  1  0  0  0
 52 53  1  0  0  0
 53 54  1  0  0  0
 54 55  1  0  0  0
 55 56  1  0  0  0
 56 57  1  0  0  0
 57 58  1  0  0  0
 58 59  1  0  0  0
 59 60  1  0  0  0
 60 61  1  0  0  0
 61 62  1  0  0  0
 62 63  1  0  0  0
 63 64  1  0  0  0
 64 65  1  0  0  0
 31 32  1  0  0  0
 32 33  1  0  0  0
 33 34  1  0  0  0
 34 35  1  0  0  0
 35 36  1  0  0  0
  8 10  1  0  0  0
  9 17  1  0  0  0
 12 13  2  0  0  0
 12 17  1  0  0  0
 13 14  1  0  0  0
 14 15  2  0  0  0
 15 16  1  0  0  0
 16 17  2  0  0  0
M  END
> <minimizedAffinity>
-9.57780

> <CNNscore>
0.2542595863

> <CNNaffinity>
7.3688745499

> <CNN_VS>
1.8736070395

> <CNNaffinity_variance>
1.3072504997

$$$$
