/media/chris/experiments/cd1a-new-docking/inputs/ligands/1xz0_ligand.pdb


 65 67  0  0  0  0  0  0  0  0999 V2000
  -42.9026   58.4244   64.0269 C   0  0  0  0  0  0  0  0  0  0  0  0
  -42.5752   59.4826   64.9845 N   0  0  0  0  0  0  0  0  0  0  0  0
  -41.2288   60.9936   66.0223 O   0  0  0  0  0  0  0  0  0  0  0  0
  -41.4097   60.1231   65.1812 C   0  0  0  0  0  0  0  0  0  0  0  0
  -43.3153   59.7660   65.5687 H   0  0  0  0  0  0  0  0  0  0  0  0
  -38.9518   60.1542   64.8088 N   0  0  0  0  0  0  0  0  0  0  0  0
  -38.8977   61.1842   62.8269 O   0  0  0  0  0  0  0  0  0  0  0  0
  -40.1875   60.5745   62.8625 C   0  0  0  0  0  0  0  0  0  0  0  0
  -38.2302   60.8806   64.0678 C   0  0  0  0  0  0  0  0  0  0  0  0
  -40.2654   59.8267   64.2225 C   0  0  0  0  0  0  0  0  0  0  0  0
  -37.1624   61.1217   66.7509 O   0  0  0  0  0  0  0  0  0  0  0  0
  -36.3686   61.4097   65.7124 C   0  0  0  0  0  0  0  0  0  0  0  0
  -35.0435   61.8030   65.9416 C   0  0  0  0  0  0  0  0  0  0  0  0
  -34.1931   62.1198   64.8689 C   0  0  0  0  0  0  0  0  0  0  0  0
  -34.6551   62.0374   63.5543 C   0  0  0  0  0  0  0  0  0  0  0  0
  -35.9743   61.6396   63.3201 C   0  0  0  0  0  0  0  0  0  0  0  0
  -36.8316   61.3298   64.3933 C   0  0  0  0  0  0  0  0  0  0  0  0
  -36.8307   61.1822   67.6251 H   0  0  0  0  0  0  0  0  0  0  0  0
  -43.0625   56.3050   65.1305 O   0  0  0  0  0  0  0  0  0  0  0  0
  -43.6192   57.3432   64.8132 C   0  0  0  0  0  0  0  0  0  0  0  0
  -45.0374   57.5047   65.1505 O   0  0  0  0  0  0  0  0  0  0  0  0
  -45.4557   58.3285   66.2551 C   0  0  0  0  0  0  0  0  0  0  0  0
  -46.2364   57.5898   67.3351 C   0  0  0  0  0  0  0  0  0  0  0  0
  -46.2552   59.4996   65.7039 C   0  0  0  0  0  0  0  0  0  0  0  0
  -47.9347   58.4843   64.2396 N   0  0  0  0  0  0  0  0  0  0  0  0
  -48.5129   59.4032   66.2237 O   0  0  0  0  0  0  0  0  0  0  0  0
  -47.6851   59.1426   65.3809 C   0  0  0  0  0  0  0  0  0  0  0  0
  -47.1802   58.3287   63.6266 H   0  0  0  0  0  0  0  0  0  0  0  0
  -49.6569   59.1144   61.6917 N   0  0  0  0  0  0  0  0  0  0  0  0
  -49.6380   56.8661   61.7942 O   0  0  0  0  0  0  0  0  0  0  0  0
  -49.2822   60.4409   62.2035 C   0  0  0  0  0  0  0  0  0  0  0  0
  -50.2146   60.8643   63.3542 C   0  0  0  0  0  0  0  0  0  0  0  0
  -51.1765   59.7917   63.8380 C   0  0  0  0  0  0  0  0  0  0  0  0
  -50.4703   58.6210   64.5270 C   0  0  0  0  0  0  0  0  0  0  0  0
  -49.2533   57.9796   63.8398 C   0  0  0  0  0  0  0  0  0  0  0  0
  -49.5182   57.9509   62.3472 C   0  0  0  0  0  0  0  0  0  0  0  0
  -49.8106   57.6867   59.3546 Si  0  0  0  0  0  0  0  0  0  0  0  0
  -50.1830   59.0605   60.4361 O   0  0  0  0  0  0  0  0  0  0  0  0
  -50.4763   57.8676   58.1133 H   0  0  0  0  0  0  0  0  0  0  0  0
  -50.2506   56.4780   59.9559 H   0  0  0  0  0  0  0  0  0  0  0  0
  -48.4091   57.6234   59.1351 H   0  0  0  0  0  0  0  0  0  0  0  0
  -41.9796   57.9189   61.6213 C   0  0  0  0  0  0  0  0  0  0  0  0
  -41.7546   57.8874   63.1381 C   0  0  0  0  0  0  0  0  0  0  0  0
  -41.0746   57.0163   60.7659 C   0  0  0  0  0  0  0  0  0  0  0  0
  -40.0643   57.7067   59.8268 C   0  0  0  0  0  0  0  0  0  0  0  0
  -38.9071   58.1253   60.6240 N   0  0  0  0  0  0  0  0  0  0  0  0
  -38.3110   57.4892   61.6670 C   0  0  0  0  0  0  0  0  0  0  0  0
  -38.3614   59.3556   60.2315 O   0  0  0  0  0  0  0  0  0  0  0  0
  -38.7198   56.3990   62.0659 O   0  0  0  0  0  0  0  0  0  0  0  0
  -37.6039   59.5689   60.7987 H   0  0  0  0  0  0  0  0  0  0  0  0
  -37.1136   58.1535   62.3545 C   0  0  0  0  0  0  0  0  0  0  0  0
  -36.7665   57.5697   63.7308 C   0  0  0  0  0  0  0  0  0  0  0  0
  -35.3323   57.9690   64.1280 C   0  0  0  0  0  0  0  0  0  0  0  0
  -34.2709   57.5655   63.0870 C   0  0  0  0  0  0  0  0  0  0  0  0
  -33.3745   58.7210   62.6039 C   0  0  0  0  0  0  0  0  0  0  0  0
  -31.9880   58.7285   63.2811 C   0  0  0  0  0  0  0  0  0  0  0  0
  -30.9603   59.6824   62.6289 C   0  0  0  0  0  0  0  0  0  0  0  0
  -31.2813   61.1656   62.8460 C   0  0  0  0  0  0  0  0  0  0  0  0
  -31.4698   61.9895   61.5683 C   0  0  0  0  0  0  0  0  0  0  0  0
  -30.9921   63.4404   61.7607 C   0  0  0  0  0  0  0  0  0  0  0  0
  -31.7039   64.1843   62.9008 C   0  0  0  0  0  0  0  0  0  0  0  0
  -32.4441   65.4647   62.5001 C   0  0  0  0  0  0  0  0  0  0  0  0
  -33.3831   65.3008   61.2790 C   0  0  0  0  0  0  0  0  0  0  0  0
  -34.7933   65.8516   61.5727 C   0  0  0  0  0  0  0  0  0  0  0  0
  -35.9571   64.8541   61.5300 C   0  0  0  0  0  0  0  0  0  0  0  0
 46 47  1  0  0  0
 46 48  1  0  0  0
 46 45  1  0  0  0
 47 49  2  0  0  0
 47 51  1  0  0  0
 19 20  2  0  0  0
 37 38  1  0  0  0
 37 39  1  0  0  0
 37 40  1  0  0  0
 37 41  1  0  0  0
 48 50  1  0  0  0
 38 29  1  0  0  0
 45 44  1  0  0  0
 25 27  1  0  0  0
 25 35  1  0  0  0
 25 28  1  0  0  0
 21 20  1  0  0  0
 21 22  1  0  0  0
 44 42  1  0  0  0
  2  1  1  0  0  0
  2  4  1  0  0  0
  2  5  1  0  0  0
 26 27  2  0  0  0
 42 43  2  0  0  0
 29 31  1  0  0  0
 29 36  1  0  0  0
  3  4  2  0  0  0
 43  1  1  0  0  0
  6  9  2  0  0  0
  6 10  1  0  0  0
  1 20  1  0  0  0
 30 36  2  0  0  0
  7  8  1  0  0  0
  7  9  1  0  0  0
 22 24  1  0  0  0
 22 23  1  0  0  0
 11 12  1  0  0  0
 11 18  1  0  0  0
 24 27  1  0  0  0
  4 10  1  0  0  0
 51 52  1  0  0  0
 52 53  1  0  0  0
 53 54  1  0  0  0
 54 55  1  0  0  0
 55 56  1  0  0  0
 56 57  1  0  0  0
 57 58  1  0  0  0
 58 59  1  0  0  0
 59 60  1  0  0  0
 60 61  1  0  0  0
 61 62  1  0  0  0
 62 63  1  0  0  0
 63 64  1  0  0  0
 64 65  1  0  0  0
 31 32  1  0  0  0
 32 33  1  0  0  0
 33 34  1  0  0  0
 34 35  1  0  0  0
 35 36  1  0  0  0
  8 10  1  0  0  0
  9 17  1  0  0  0
 12 13  2  0  0  0
 12 17  1  0  0  0
 13 14  1  0  0  0
 14 15  2  0  0  0
 15 16  1  0  0  0
 16 17  2  0  0  0
M  END
> <minimizedAffinity>
-8.87451

> <CNNscore>
0.2690847218

> <CNNaffinity>
7.5204071999

> <CNN_VS>
2.0236265659

> <CNNaffinity_variance>
1.2032903433

$$$$
/media/chris/experiments/cd1a-new-docking/inputs/ligands/1xz0_ligand.pdb


 65 67  0  0  0  0  0  0  0  0999 V2000
  -36.8305   60.9586   65.1039 C   0  0  0  0  0  0  0  0  0  0  0  0
  -36.8618   62.3065   65.6753 N   0  0  0  0  0  0  0  0  0  0  0  0
  -35.9820   64.1679   66.6416 O   0  0  0  0  0  0  0  0  0  0  0  0
  -35.8539   63.0456   66.1703 C   0  0  0  0  0  0  0  0  0  0  0  0
  -37.7488   62.7329   65.7006 H   0  0  0  0  0  0  0  0  0  0  0  0
  -33.7506   63.0267   64.8449 N   0  0  0  0  0  0  0  0  0  0  0  0
  -33.4488   60.8194   64.6743 O   0  0  0  0  0  0  0  0  0  0  0  0
  -34.2188   60.9702   65.8663 C   0  0  0  0  0  0  0  0  0  0  0  0
  -33.2307   62.1318   64.1194 C   0  0  0  0  0  0  0  0  0  0  0  0
  -34.4398   62.4987   66.0378 C   0  0  0  0  0  0  0  0  0  0  0  0
  -31.4818   60.1934   62.8619 O   0  0  0  0  0  0  0  0  0  0  0  0
  -31.6167   61.4007   62.2998 C   0  0  0  0  0  0  0  0  0  0  0  0
  -30.9278   61.6943   61.1157 C   0  0  0  0  0  0  0  0  0  0  0  0
  -31.0452   62.9573   60.5113 C   0  0  0  0  0  0  0  0  0  0  0  0
  -31.8608   63.9378   61.0788 C   0  0  0  0  0  0  0  0  0  0  0  0
  -32.5551   63.6476   62.2567 C   0  0  0  0  0  0  0  0  0  0  0  0
  -32.4326   62.3859   62.8695 C   0  0  0  0  0  0  0  0  0  0  0  0
  -30.9302   59.5497   62.4628 H   0  0  0  0  0  0  0  0  0  0  0  0
  -37.5410   62.0166   63.0762 O   0  0  0  0  0  0  0  0  0  0  0  0
  -36.8829   61.1315   63.5978 C   0  0  0  0  0  0  0  0  0  0  0  0
  -36.1846   60.1782   62.7291 O   0  0  0  0  0  0  0  0  0  0  0  0
  -35.8478   58.8551   63.1870 C   0  0  0  0  0  0  0  0  0  0  0  0
  -34.3977   58.4530   62.9478 C   0  0  0  0  0  0  0  0  0  0  0  0
  -36.8055   57.8657   62.5402 C   0  0  0  0  0  0  0  0  0  0  0  0
  -39.0589   58.6886   62.0491 N   0  0  0  0  0  0  0  0  0  0  0  0
  -37.3728   58.9336   60.5617 O   0  0  0  0  0  0  0  0  0  0  0  0
  -37.8011   58.5213   61.6152 C   0  0  0  0  0  0  0  0  0  0  0  0
  -39.2949   58.3080   62.9258 H   0  0  0  0  0  0  0  0  0  0  0  0
  -42.1812   58.3875   62.1722 N   0  0  0  0  0  0  0  0  0  0  0  0
  -41.8393   60.6033   62.3699 O   0  0  0  0  0  0  0  0  0  0  0  0
  -41.6979   57.0081   62.0117 C   0  0  0  0  0  0  0  0  0  0  0  0
  -41.3880   56.7079   60.5330 C   0  0  0  0  0  0  0  0  0  0  0  0
  -41.4595   57.9047   59.5991 C   0  0  0  0  0  0  0  0  0  0  0  0
  -40.3607   58.9373   59.8641 C   0  0  0  0  0  0  0  0  0  0  0  0
  -40.1082   59.3989   61.3091 C   0  0  0  0  0  0  0  0  0  0  0  0
  -41.4488   59.5011   62.0101 C   0  0  0  0  0  0  0  0  0  0  0  0
  -44.0746   60.1269   63.1277 Si  0  0  0  0  0  0  0  0  0  0  0  0
  -43.4867   58.5494   62.5264 O   0  0  0  0  0  0  0  0  0  0  0  0
  -45.4599   60.0334   63.4257 H   0  0  0  0  0  0  0  0  0  0  0  0
  -43.8705   61.1189   62.1324 H   0  0  0  0  0  0  0  0  0  0  0  0
  -43.3607   60.4816   64.3029 H   0  0  0  0  0  0  0  0  0  0  0  0
  -39.3162   60.1218   65.2282 C   0  0  0  0  0  0  0  0  0  0  0  0
  -37.8530   59.9307   65.6461 C   0  0  0  0  0  0  0  0  0  0  0  0
  -40.3804   59.4065   66.0775 C   0  0  0  0  0  0  0  0  0  0  0  0
  -41.3122   58.4093   65.3587 C   0  0  0  0  0  0  0  0  0  0  0  0
  -42.6280   58.4626   66.0033 N   0  0  0  0  0  0  0  0  0  0  0  0
  -43.6607   57.5831   65.9150 C   0  0  0  0  0  0  0  0  0  0  0  0
  -42.8167   59.5878   66.8180 O   0  0  0  0  0  0  0  0  0  0  0  0
  -43.5722   56.5633   65.2317 O   0  0  0  0  0  0  0  0  0  0  0  0
  -43.7036   59.5580   67.2100 H   0  0  0  0  0  0  0  0  0  0  0  0
  -44.9552   57.8800   66.6792 C   0  0  0  0  0  0  0  0  0  0  0  0
  -46.2241   57.3207   66.0215 C   0  0  0  0  0  0  0  0  0  0  0  0
  -47.0518   58.4673   65.4097 C   0  0  0  0  0  0  0  0  0  0  0  0
  -47.2779   59.6459   66.3756 C   0  0  0  0  0  0  0  0  0  0  0  0
  -48.7038   60.2277   66.3549 C   0  0  0  0  0  0  0  0  0  0  0  0
  -49.2315   60.4722   64.9255 C   0  0  0  0  0  0  0  0  0  0  0  0
  -50.7130   60.0829   64.7129 C   0  0  0  0  0  0  0  0  0  0  0  0
  -50.8982   58.6612   64.1702 C   0  0  0  0  0  0  0  0  0  0  0  0
  -51.0199   58.5517   62.6470 C   0  0  0  0  0  0  0  0  0  0  0  0
  -49.9239   57.6432   62.0605 C   0  0  0  0  0  0  0  0  0  0  0  0
  -50.3068   56.9887   60.7245 C   0  0  0  0  0  0  0  0  0  0  0  0
  -49.1660   56.2960   59.9716 C   0  0  0  0  0  0  0  0  0  0  0  0
  -47.9683   57.2211   59.6410 C   0  0  0  0  0  0  0  0  0  0  0  0
  -48.2714   58.1271   58.4305 C   0  0  0  0  0  0  0  0  0  0  0  0
  -47.3691   57.9759   57.1999 C   0  0  0  0  0  0  0  0  0  0  0  0
 46 47  1  0  0  0
 46 48  1  0  0  0
 46 45  1  0  0  0
 47 49  2  0  0  0
 47 51  1  0  0  0
 19 20  2  0  0  0
 37 38  1  0  0  0
 37 39  1  0  0  0
 37 40  1  0  0  0
 37 41  1  0  0  0
 48 50  1  0  0  0
 38 29  1  0  0  0
 45 44  1  0  0  0
 25 27  1  0  0  0
 25 35  1  0  0  0
 25 28  1  0  0  0
 21 20  1  0  0  0
 21 22  1  0  0  0
 44 42  1  0  0  0
  2  1  1  0  0  0
  2  4  1  0  0  0
  2  5  1  0  0  0
 26 27  2  0  0  0
 42 43  2  0  0  0
 29 31  1  0  0  0
 29 36  1  0  0  0
  3  4  2  0  0  0
 43  1  1  0  0  0
  6  9  2  0  0  0
  6 10  1  0  0  0
  1 20  1  0  0  0
 30 36  2  0  0  0
  7  8  1  0  0  0
  7  9  1  0  0  0
 22 24  1  0  0  0
 22 23  1  0  0  0
 11 12  1  0  0  0
 11 18  1  0  0  0
 24 27  1  0  0  0
  4 10  1  0  0  0
 51 52  1  0  0  0
 52 53  1  0  0  0
 53 54  1  0  0  0
 54 55  1  0  0  0
 55 56  1  0  0  0
 56 57  1  0  0  0
 57 58  1  0  0  0
 58 59  1  0  0  0
 59 60  1  0  0  0
 60 61  1  0  0  0
 61 62  1  0  0  0
 62 63  1  0  0  0
 63 64  1  0  0  0
 64 65  1  0  0  0
 31 32  1  0  0  0
 32 33  1  0  0  0
 33 34  1  0  0  0
 34 35  1  0  0  0
 35 36  1  0  0  0
  8 10  1  0  0  0
  9 17  1  0  0  0
 12 13  2  0  0  0
 12 17  1  0  0  0
 13 14  1  0  0  0
 14 15  2  0  0  0
 15 16  1  0  0  0
 16 17  2  0  0  0
M  END
> <minimizedAffinity>
-9.83699

> <CNNscore>
0.2501010895

> <CNNaffinity>
7.5369133949

> <CNN_VS>
1.8849902153

> <CNNaffinity_variance>
1.0799421072

$$$$
/media/chris/experiments/cd1a-new-docking/inputs/ligands/1xz0_ligand.pdb


 65 67  0  0  0  0  0  0  0  0999 V2000
  -43.4121   58.7873   64.1438 C   0  0  0  0  0  0  0  0  0  0  0  0
  -42.8473   59.4422   65.3254 N   0  0  0  0  0  0  0  0  0  0  0  0
  -41.1959   60.3408   66.6053 O   0  0  0  0  0  0  0  0  0  0  0  0
  -41.5766   59.8045   65.5731 C   0  0  0  0  0  0  0  0  0  0  0  0
  -43.4909   59.6469   66.0418 H   0  0  0  0  0  0  0  0  0  0  0  0
  -39.1821   59.9035   64.9118 N   0  0  0  0  0  0  0  0  0  0  0  0
  -39.3634   61.1690   63.0793 O   0  0  0  0  0  0  0  0  0  0  0  0
  -40.6428   60.5476   63.1962 C   0  0  0  0  0  0  0  0  0  0  0  0
  -38.5517   60.7218   64.1834 C   0  0  0  0  0  0  0  0  0  0  0  0
  -40.5591   59.6382   64.4535 C   0  0  0  0  0  0  0  0  0  0  0  0
  -36.9105   62.0134   62.1746 O   0  0  0  0  0  0  0  0  0  0  0  0
  -36.3849   61.7774   63.3827 C   0  0  0  0  0  0  0  0  0  0  0  0
  -35.0680   62.1712   63.6542 C   0  0  0  0  0  0  0  0  0  0  0  0
  -34.4903   61.9263   64.9114 C   0  0  0  0  0  0  0  0  0  0  0  0
  -35.2262   61.2936   65.9147 C   0  0  0  0  0  0  0  0  0  0  0  0
  -36.5425   60.9044   65.6508 C   0  0  0  0  0  0  0  0  0  0  0  0
  -37.1213   61.1406   64.3893 C   0  0  0  0  0  0  0  0  0  0  0  0
  -36.3988   62.4411   61.5164 H   0  0  0  0  0  0  0  0  0  0  0  0
  -44.8468   57.3769   65.4430 O   0  0  0  0  0  0  0  0  0  0  0  0
  -44.7544   58.2227   64.5686 C   0  0  0  0  0  0  0  0  0  0  0  0
  -45.9758   58.6442   63.8748 O   0  0  0  0  0  0  0  0  0  0  0  0
  -47.0462   59.3043   64.5764 C   0  0  0  0  0  0  0  0  0  0  0  0
  -47.9432   58.3729   65.3824 C   0  0  0  0  0  0  0  0  0  0  0  0
  -47.8544   60.1094   63.5699 C   0  0  0  0  0  0  0  0  0  0  0  0
  -48.6525   58.3432   62.0734 N   0  0  0  0  0  0  0  0  0  0  0  0
  -50.0937   59.5625   63.3190 O   0  0  0  0  0  0  0  0  0  0  0  0
  -48.9722   59.3180   62.9371 C   0  0  0  0  0  0  0  0  0  0  0  0
  -47.7034   58.2369   61.8342 H   0  0  0  0  0  0  0  0  0  0  0  0
  -48.4473   56.6589   59.4323 N   0  0  0  0  0  0  0  0  0  0  0  0
  -49.1174   55.1674   60.9789 O   0  0  0  0  0  0  0  0  0  0  0  0
  -48.0591   58.0155   59.0189 C   0  0  0  0  0  0  0  0  0  0  0  0
  -49.3049   58.8861   58.7680 C   0  0  0  0  0  0  0  0  0  0  0  0
  -50.6289   58.2536   59.1638 C   0  0  0  0  0  0  0  0  0  0  0  0
  -50.7743   58.0663   60.6764 C   0  0  0  0  0  0  0  0  0  0  0  0
  -49.6175   57.4238   61.4597 C   0  0  0  0  0  0  0  0  0  0  0  0
  -49.0208   56.3267   60.5999 C   0  0  0  0  0  0  0  0  0  0  0  0
  -46.5620   55.4438   57.8533 Si  0  0  0  0  0  0  0  0  0  0  0  0
  -48.1933   55.6474   58.5556 O   0  0  0  0  0  0  0  0  0  0  0  0
  -46.5600   54.3261   56.9773 H   0  0  0  0  0  0  0  0  0  0  0  0
  -45.6213   55.2301   58.8953 H   0  0  0  0  0  0  0  0  0  0  0  0
  -46.2089   56.6132   57.1293 H   0  0  0  0  0  0  0  0  0  0  0  0
  -42.3222   57.9857   61.8934 C   0  0  0  0  0  0  0  0  0  0  0  0
  -42.5178   57.7668   63.3988 C   0  0  0  0  0  0  0  0  0  0  0  0
  -41.8220   56.7830   61.0756 C   0  0  0  0  0  0  0  0  0  0  0  0
  -40.8549   57.0689   59.9084 C   0  0  0  0  0  0  0  0  0  0  0  0
  -39.6947   57.7916   60.4389 N   0  0  0  0  0  0  0  0  0  0  0  0
  -38.8369   57.4252   61.4278 C   0  0  0  0  0  0  0  0  0  0  0  0
  -39.4634   59.0280   59.8199 O   0  0  0  0  0  0  0  0  0  0  0  0
  -38.9618   56.3499   62.0133 O   0  0  0  0  0  0  0  0  0  0  0  0
  -38.6852   59.4484   60.2183 H   0  0  0  0  0  0  0  0  0  0  0  0
  -37.7018   58.3785   61.8160 C   0  0  0  0  0  0  0  0  0  0  0  0
  -36.6968   57.7952   62.8186 C   0  0  0  0  0  0  0  0  0  0  0  0
  -35.2960   58.3857   62.5671 C   0  0  0  0  0  0  0  0  0  0  0  0
  -34.3783   58.3401   63.8036 C   0  0  0  0  0  0  0  0  0  0  0  0
  -32.8767   58.2176   63.4836 C   0  0  0  0  0  0  0  0  0  0  0  0
  -32.1796   59.5870   63.3421 C   0  0  0  0  0  0  0  0  0  0  0  0
  -32.1332   60.1372   61.8975 C   0  0  0  0  0  0  0  0  0  0  0  0
  -31.5074   61.5331   61.7963 C   0  0  0  0  0  0  0  0  0  0  0  0
  -31.3056   62.2593   63.1299 C   0  0  0  0  0  0  0  0  0  0  0  0
  -31.2292   63.7843   62.9324 C   0  0  0  0  0  0  0  0  0  0  0  0
  -32.1547   64.5801   63.8652 C   0  0  0  0  0  0  0  0  0  0  0  0
  -33.3274   65.2961   63.1869 C   0  0  0  0  0  0  0  0  0  0  0  0
  -33.3240   65.1980   61.6409 C   0  0  0  0  0  0  0  0  0  0  0  0
  -34.6217   64.5537   61.1127 C   0  0  0  0  0  0  0  0  0  0  0  0
  -35.8982   65.4013   61.1716 C   0  0  0  0  0  0  0  0  0  0  0  0
 46 47  1  0  0  0
 46 48  1  0  0  0
 46 45  1  0  0  0
 47 49  2  0  0  0
 47 51  1  0  0  0
 19 20  2  0  0  0
 37 38  1  0  0  0
 37 39  1  0  0  0
 37 40  1  0  0  0
 37 41  1  0  0  0
 48 50  1  0  0  0
 38 29  1  0  0  0
 45 44  1  0  0  0
 25 27  1  0  0  0
 25 35  1  0  0  0
 25 28  1  0  0  0
 21 20  1  0  0  0
 21 22  1  0  0  0
 44 42  1  0  0  0
  2  1  1  0  0  0
  2  4  1  0  0  0
  2  5  1  0  0  0
 26 27  2  0  0  0
 42 43  2  0  0  0
 29 31  1  0  0  0
 29 36  1  0  0  0
  3  4  2  0  0  0
 43  1  1  0  0  0
  6  9  2  0  0  0
  6 10  1  0  0  0
  1 20  1  0  0  0
 30 36  2  0  0  0
  7  8  1  0  0  0
  7  9  1  0  0  0
 22 24  1  0  0  0
 22 23  1  0  0  0
 11 12  1  0  0  0
 11 18  1  0  0  0
 24 27  1  0  0  0
  4 10  1  0  0  0
 51 52  1  0  0  0
 52 53  1  0  0  0
 53 54  1  0  0  0
 54 55  1  0  0  0
 55 56  1  0  0  0
 56 57  1  0  0  0
 57 58  1  0  0  0
 58 59  1  0  0  0
 59 60  1  0  0  0
 60 61  1  0  0  0
 61 62  1  0  0  0
 62 63  1  0  0  0
 63 64  1  0  0  0
 64 65  1  0  0  0
 31 32  1  0  0  0
 32 33  1  0  0  0
 33 34  1  0  0  0
 34 35  1  0  0  0
 35 36  1  0  0  0
  8 10  1  0  0  0
  9 17  1  0  0  0
 12 13  2  0  0  0
 12 17  1  0  0  0
 13 14  1  0  0  0
 14 15  2  0  0  0
 15 16  1  0  0  0
 16 17  2  0  0  0
M  END
> <minimizedAffinity>
-8.29282

> <CNNscore>
0.2440568060

> <CNNaffinity>
7.5613503456

> <CNN_VS>
1.8453990221

> <CNNaffinity_variance>
0.7605374455

$$$$
/media/chris/experiments/cd1a-new-docking/inputs/ligands/1xz0_ligand.pdb


 65 67  0  0  0  0  0  0  0  0999 V2000
  -36.5367   58.9917   63.3916 C   0  0  0  0  0  0  0  0  0  0  0  0
  -36.6228   60.3341   63.9702 N   0  0  0  0  0  0  0  0  0  0  0  0
  -37.4463   61.9492   65.3435 O   0  0  0  0  0  0  0  0  0  0  0  0
  -37.4412   60.7969   64.9311 C   0  0  0  0  0  0  0  0  0  0  0  0
  -35.9900   60.9927   63.6026 H   0  0  0  0  0  0  0  0  0  0  0  0
  -38.6193   58.6117   64.7980 N   0  0  0  0  0  0  0  0  0  0  0  0
  -40.6589   59.2590   65.4408 O   0  0  0  0  0  0  0  0  0  0  0  0
  -39.7889   60.2189   66.0392 C   0  0  0  0  0  0  0  0  0  0  0  0
  -39.8474   58.3319   64.6927 C   0  0  0  0  0  0  0  0  0  0  0  0
  -38.3493   59.7975   65.6332 C   0  0  0  0  0  0  0  0  0  0  0  0
  -42.1943   56.8319   65.4920 O   0  0  0  0  0  0  0  0  0  0  0  0
  -41.5556   56.4805   64.3694 C   0  0  0  0  0  0  0  0  0  0  0  0
  -42.0405   55.4136   63.6015 C   0  0  0  0  0  0  0  0  0  0  0  0
  -41.3827   55.0193   62.4243 C   0  0  0  0  0  0  0  0  0  0  0  0
  -40.2379   55.6938   61.9962 C   0  0  0  0  0  0  0  0  0  0  0  0
  -39.7538   56.7628   62.7554 C   0  0  0  0  0  0  0  0  0  0  0  0
  -40.4058   57.1547   63.9402 C   0  0  0  0  0  0  0  0  0  0  0  0
  -42.9621   56.3661   65.7596 H   0  0  0  0  0  0  0  0  0  0  0  0
  -34.9475   57.3660   64.1444 O   0  0  0  0  0  0  0  0  0  0  0  0
  -35.1400   58.4840   63.6956 C   0  0  0  0  0  0  0  0  0  0  0  0
  -33.9858   59.3705   63.5143 O   0  0  0  0  0  0  0  0  0  0  0  0
  -32.8774   58.9953   62.6750 C   0  0  0  0  0  0  0  0  0  0  0  0
  -31.7300   58.3135   63.4098 C   0  0  0  0  0  0  0  0  0  0  0  0
  -32.3960   60.2340   61.9346 C   0  0  0  0  0  0  0  0  0  0  0  0
  -33.7622   62.1160   62.7011 N   0  0  0  0  0  0  0  0  0  0  0  0
  -31.6325   61.8481   63.4139 O   0  0  0  0  0  0  0  0  0  0  0  0
  -32.5687   61.5051   62.7289 C   0  0  0  0  0  0  0  0  0  0  0  0
  -34.4514   61.7468   62.1029 H   0  0  0  0  0  0  0  0  0  0  0  0
  -35.0319   64.8497   61.8242 N   0  0  0  0  0  0  0  0  0  0  0  0
  -36.2934   64.1985   63.5706 O   0  0  0  0  0  0  0  0  0  0  0  0
  -33.9180   64.6581   60.8837 C   0  0  0  0  0  0  0  0  0  0  0  0
  -32.5853   65.0941   61.5213 C   0  0  0  0  0  0  0  0  0  0  0  0
  -32.6564   65.4429   62.9988 C   0  0  0  0  0  0  0  0  0  0  0  0
  -32.9557   64.2317   63.8860 C   0  0  0  0  0  0  0  0  0  0  0  0
  -34.1132   63.2960   63.4996 C   0  0  0  0  0  0  0  0  0  0  0  0
  -35.2409   64.1471   62.9490 C   0  0  0  0  0  0  0  0  0  0  0  0
  -37.4128   66.0257   62.5113 Si  0  0  0  0  0  0  0  0  0  0  0  0
  -35.9381   65.8210   61.5218 O   0  0  0  0  0  0  0  0  0  0  0  0
  -38.1863   67.0974   61.9918 H   0  0  0  0  0  0  0  0  0  0  0  0
  -37.0467   66.3130   63.8528 H   0  0  0  0  0  0  0  0  0  0  0  0
  -38.1770   64.8294   62.4750 H   0  0  0  0  0  0  0  0  0  0  0  0
  -38.1009   59.7049   61.4069 C   0  0  0  0  0  0  0  0  0  0  0  0
  -36.9473   58.8273   61.9082 C   0  0  0  0  0  0  0  0  0  0  0  0
  -38.7975   59.2620   60.1091 C   0  0  0  0  0  0  0  0  0  0  0  0
  -40.1370   59.9393   59.7537 C   0  0  0  0  0  0  0  0  0  0  0  0
  -41.1885   59.3422   60.5828 N   0  0  0  0  0  0  0  0  0  0  0  0
  -41.7384   59.8087   61.7352 C   0  0  0  0  0  0  0  0  0  0  0  0
  -41.6746   58.1219   60.0928 O   0  0  0  0  0  0  0  0  0  0  0  0
  -41.3776   60.8783   62.2257 O   0  0  0  0  0  0  0  0  0  0  0  0
  -42.3636   57.7861   60.6875 H   0  0  0  0  0  0  0  0  0  0  0  0
  -42.8214   58.9769   62.4302 C   0  0  0  0  0  0  0  0  0  0  0  0
  -43.6209   59.7379   63.4965 C   0  0  0  0  0  0  0  0  0  0  0  0
  -44.8048   58.8796   63.9822 C   0  0  0  0  0  0  0  0  0  0  0  0
  -45.9027   59.6927   64.6939 C   0  0  0  0  0  0  0  0  0  0  0  0
  -47.3398   59.3444   64.2631 C   0  0  0  0  0  0  0  0  0  0  0  0
  -48.0524   58.4024   65.2561 C   0  0  0  0  0  0  0  0  0  0  0  0
  -49.3453   57.7532   64.7098 C   0  0  0  0  0  0  0  0  0  0  0  0
  -50.4296   58.7716   64.3391 C   0  0  0  0  0  0  0  0  0  0  0  0
  -51.0865   58.5612   62.9712 C   0  0  0  0  0  0  0  0  0  0  0  0
  -50.1997   57.7051   62.0487 C   0  0  0  0  0  0  0  0  0  0  0  0
  -50.7147   57.6079   60.6047 C   0  0  0  0  0  0  0  0  0  0  0  0
  -49.6569   57.7719   59.5082 C   0  0  0  0  0  0  0  0  0  0  0  0
  -48.6222   56.6207   59.4456 C   0  0  0  0  0  0  0  0  0  0  0  0
  -47.4121   56.9958   58.5664 C   0  0  0  0  0  0  0  0  0  0  0  0
  -47.6495   58.0181   57.4483 C   0  0  0  0  0  0  0  0  0  0  0  0
 46 47  1  0  0  0
 46 48  1  0  0  0
 46 45  1  0  0  0
 47 49  2  0  0  0
 47 51  1  0  0  0
 19 20  2  0  0  0
 37 38  1  0  0  0
 37 39  1  0  0  0
 37 40  1  0  0  0
 37 41  1  0  0  0
 48 50  1  0  0  0
 38 29  1  0  0  0
 45 44  1  0  0  0
 25 27  1  0  0  0
 25 35  1  0  0  0
 25 28  1  0  0  0
 21 20  1  0  0  0
 21 22  1  0  0  0
 44 42  1  0  0  0
  2  1  1  0  0  0
  2  4  1  0  0  0
  2  5  1  0  0  0
 26 27  2  0  0  0
 42 43  2  0  0  0
 29 31  1  0  0  0
 29 36  1  0  0  0
  3  4  2  0  0  0
 43  1  1  0  0  0
  6  9  2  0  0  0
  6 10  1  0  0  0
  1 20  1  0  0  0
 30 36  2  0  0  0
  7  8  1  0  0  0
  7  9  1  0  0  0
 22 24  1  0  0  0
 22 23  1  0  0  0
 11 12  1  0  0  0
 11 18  1  0  0  0
 24 27  1  0  0  0
  4 10  1  0  0  0
 51 52  1  0  0  0
 52 53  1  0  0  0
 53 54  1  0  0  0
 54 55  1  0  0  0
 55 56  1  0  0  0
 56 57  1  0  0  0
 57 58  1  0  0  0
 58 59  1  0  0  0
 59 60  1  0  0  0
 60 61  1  0  0  0
 61 62  1  0  0  0
 62 63  1  0  0  0
 63 64  1  0  0  0
 64 65  1  0  0  0
 31 32  1  0  0  0
 32 33  1  0  0  0
 33 34  1  0  0  0
 34 35  1  0  0  0
 35 36  1  0  0  0
  8 10  1  0  0  0
  9 17  1  0  0  0
 12 13  2  0  0  0
 12 17  1  0  0  0
 13 14  1  0  0  0
 14 15  2  0  0  0
 15 16  1  0  0  0
 16 17  2  0  0  0
M  END
> <minimizedAffinity>
-9.44467

> <CNNscore>
0.2308672071

> <CNNaffinity>
7.6143465042

> <CNN_VS>
1.7579028606

> <CNNaffinity_variance>
0.5809248686

$$$$
/media/chris/experiments/cd1a-new-docking/inputs/ligands/1xz0_ligand.pdb


 65 67  0  0  0  0  0  0  0  0999 V2000
  -42.3073   58.0992   65.2107 C   0  0  0  0  0  0  0  0  0  0  0  0
  -41.8380   56.7256   65.4033 N   0  0  0  0  0  0  0  0  0  0  0  0
  -41.3269   54.6026   64.7673 O   0  0  0  0  0  0  0  0  0  0  0  0
  -41.7215   55.7313   64.5059 C   0  0  0  0  0  0  0  0  0  0  0  0
  -41.5690   56.4972   66.3224 H   0  0  0  0  0  0  0  0  0  0  0  0
  -40.7503   56.3223   62.2951 N   0  0  0  0  0  0  0  0  0  0  0  0
  -42.0340   58.0806   61.7928 O   0  0  0  0  0  0  0  0  0  0  0  0
  -42.8414   57.3074   62.6798 C   0  0  0  0  0  0  0  0  0  0  0  0
  -40.7727   57.4007   61.6362 C   0  0  0  0  0  0  0  0  0  0  0  0
  -41.9932   56.0575   63.0445 C   0  0  0  0  0  0  0  0  0  0  0  0
  -40.9583   57.6616   58.7562 O   0  0  0  0  0  0  0  0  0  0  0  0
  -39.8200   58.0171   59.3641 C   0  0  0  0  0  0  0  0  0  0  0  0
  -38.7561   58.5193   58.6033 C   0  0  0  0  0  0  0  0  0  0  0  0
  -37.5476   58.8905   59.2165 C   0  0  0  0  0  0  0  0  0  0  0  0
  -37.3927   58.7729   60.5988 C   0  0  0  0  0  0  0  0  0  0  0  0
  -38.4534   58.2784   61.3629 C   0  0  0  0  0  0  0  0  0  0  0  0
  -39.6626   57.8974   60.7503 C   0  0  0  0  0  0  0  0  0  0  0  0
  -41.0409   57.7506   57.8271 H   0  0  0  0  0  0  0  0  0  0  0  0
  -40.8965   59.4667   66.5800 O   0  0  0  0  0  0  0  0  0  0  0  0
  -41.1151   58.9991   65.4745 C   0  0  0  0  0  0  0  0  0  0  0  0
  -40.2304   59.3812   64.3688 O   0  0  0  0  0  0  0  0  0  0  0  0
  -38.8009   59.4306   64.5359 C   0  0  0  0  0  0  0  0  0  0  0  0
  -38.2064   58.2277   65.2578 C   0  0  0  0  0  0  0  0  0  0  0  0
  -38.4460   60.7279   65.2470 C   0  0  0  0  0  0  0  0  0  0  0  0
  -36.1458   60.3775   64.4838 N   0  0  0  0  0  0  0  0  0  0  0  0
  -36.5990   61.6778   66.2780 O   0  0  0  0  0  0  0  0  0  0  0  0
  -36.9589   60.9383   65.3908 C   0  0  0  0  0  0  0  0  0  0  0  0
  -36.5522   59.7907   63.8058 H   0  0  0  0  0  0  0  0  0  0  0  0
  -33.9838   59.0365   62.6448 N   0  0  0  0  0  0  0  0  0  0  0  0
  -33.5567   61.2395   62.4705 O   0  0  0  0  0  0  0  0  0  0  0  0
  -34.7501   57.9005   63.1777 C   0  0  0  0  0  0  0  0  0  0  0  0
  -34.2653   57.5318   64.5925 C   0  0  0  0  0  0  0  0  0  0  0  0
  -33.2624   58.4949   65.2062 C   0  0  0  0  0  0  0  0  0  0  0  0
  -33.8635   59.8687   65.5147 C   0  0  0  0  0  0  0  0  0  0  0  0
  -34.6930   60.5769   64.4307 C   0  0  0  0  0  0  0  0  0  0  0  0
  -34.0432   60.3023   63.0885 C   0  0  0  0  0  0  0  0  0  0  0  0
  -31.9891   60.0278   61.0439 Si  0  0  0  0  0  0  0  0  0  0  0  0
  -33.1455   58.7835   61.6010 O   0  0  0  0  0  0  0  0  0  0  0  0
  -31.2370   59.5197   59.9517 H   0  0  0  0  0  0  0  0  0  0  0  0
  -31.1105   60.3671   62.1065 H   0  0  0  0  0  0  0  0  0  0  0  0
  -32.7012   61.1847   60.6307 H   0  0  0  0  0  0  0  0  0  0  0  0
  -44.5698   57.4150   66.3540 C   0  0  0  0  0  0  0  0  0  0  0  0
  -43.5875   58.5278   65.9680 C   0  0  0  0  0  0  0  0  0  0  0  0
  -46.0056   57.8448   66.6994 C   0  0  0  0  0  0  0  0  0  0  0  0
  -46.2519   59.3409   66.9827 C   0  0  0  0  0  0  0  0  0  0  0  0
  -47.1954   59.8493   65.9822 N   0  0  0  0  0  0  0  0  0  0  0  0
  -48.4517   60.3370   66.1603 C   0  0  0  0  0  0  0  0  0  0  0  0
  -46.7048   59.8155   64.6694 O   0  0  0  0  0  0  0  0  0  0  0  0
  -48.9523   60.4130   67.2822 O   0  0  0  0  0  0  0  0  0  0  0  0
  -47.3776   60.1644   64.0638 H   0  0  0  0  0  0  0  0  0  0  0  0
  -49.2516   60.7915   64.9350 C   0  0  0  0  0  0  0  0  0  0  0  0
  -50.7053   60.3003   64.9070 C   0  0  0  0  0  0  0  0  0  0  0  0
  -50.7543   58.7798   65.1520 C   0  0  0  0  0  0  0  0  0  0  0  0
  -49.6669   57.9987   64.3903 C   0  0  0  0  0  0  0  0  0  0  0  0
  -49.8868   57.9118   62.8684 C   0  0  0  0  0  0  0  0  0  0  0  0
  -48.9025   58.7909   62.0686 C   0  0  0  0  0  0  0  0  0  0  0  0
  -49.5222   60.0837   61.4887 C   0  0  0  0  0  0  0  0  0  0  0  0
  -49.5833   60.0969   59.9569 C   0  0  0  0  0  0  0  0  0  0  0  0
  -48.8391   58.9527   59.2613 C   0  0  0  0  0  0  0  0  0  0  0  0
  -49.7321   57.7066   59.1197 C   0  0  0  0  0  0  0  0  0  0  0  0
  -48.9778   56.3783   59.2819 C   0  0  0  0  0  0  0  0  0  0  0  0
  -47.5673   56.3366   58.6848 C   0  0  0  0  0  0  0  0  0  0  0  0
  -47.5222   55.9436   57.1870 C   0  0  0  0  0  0  0  0  0  0  0  0
  -47.7315   57.1693   56.2748 C   0  0  0  0  0  0  0  0  0  0  0  0
  -46.8754   58.4089   56.5607 C   0  0  0  0  0  0  0  0  0  0  0  0
 46 47  1  0  0  0
 46 48  1  0  0  0
 46 45  1  0  0  0
 47 49  2  0  0  0
 47 51  1  0  0  0
 19 20  2  0  0  0
 37 38  1  0  0  0
 37 39  1  0  0  0
 37 40  1  0  0  0
 37 41  1  0  0  0
 48 50  1  0  0  0
 38 29  1  0  0  0
 45 44  1  0  0  0
 25 27  1  0  0  0
 25 35  1  0  0  0
 25 28  1  0  0  0
 21 20  1  0  0  0
 21 22  1  0  0  0
 44 42  1  0  0  0
  2  1  1  0  0  0
  2  4  1  0  0  0
  2  5  1  0  0  0
 26 27  2  0  0  0
 42 43  2  0  0  0
 29 31  1  0  0  0
 29 36  1  0  0  0
  3  4  2  0  0  0
 43  1  1  0  0  0
  6  9  2  0  0  0
  6 10  1  0  0  0
  1 20  1  0  0  0
 30 36  2  0  0  0
  7  8  1  0  0  0
  7  9  1  0  0  0
 22 24  1  0  0  0
 22 23  1  0  0  0
 11 12  1  0  0  0
 11 18  1  0  0  0
 24 27  1  0  0  0
  4 10  1  0  0  0
 51 52  1  0  0  0
 52 53  1  0  0  0
 53 54  1  0  0  0
 54 55  1  0  0  0
 55 56  1  0  0  0
 56 57  1  0  0  0
 57 58  1  0  0  0
 58 59  1  0  0  0
 59 60  1  0  0  0
 60 61  1  0  0  0
 61 62  1  0  0  0
 62 63  1  0  0  0
 63 64  1  0  0  0
 64 65  1  0  0  0
 31 32  1  0  0  0
 32 33  1  0  0  0
 33 34  1  0  0  0
 34 35  1  0  0  0
 35 36  1  0  0  0
  8 10  1  0  0  0
  9 17  1  0  0  0
 12 13  2  0  0  0
 12 17  1  0  0  0
 13 14  1  0  0  0
 14 15  2  0  0  0
 15 16  1  0  0  0
 16 17  2  0  0  0
M  END
> <minimizedAffinity>
-9.59308

> <CNNscore>
0.1927786767

> <CNNaffinity>
7.4735045433

> <CNN_VS>
1.4407323599

> <CNNaffinity_variance>
1.2217447758

$$$$
/media/chris/experiments/cd1a-new-docking/inputs/ligands/1xz0_ligand.pdb


 65 67  0  0  0  0  0  0  0  0999 V2000
  -40.4712   59.7941   65.2405 C   0  0  0  0  0  0  0  0  0  0  0  0
  -39.3864   60.0705   66.1844 N   0  0  0  0  0  0  0  0  0  0  0  0
  -37.2332   60.4445   66.8141 O   0  0  0  0  0  0  0  0  0  0  0  0
  -38.0718   60.2260   65.9498 C   0  0  0  0  0  0  0  0  0  0  0  0
  -39.6590   60.1545   67.1267 H   0  0  0  0  0  0  0  0  0  0  0  0
  -36.2630   59.6497   64.3447 N   0  0  0  0  0  0  0  0  0  0  0  0
  -36.0871   61.6052   63.2783 O   0  0  0  0  0  0  0  0  0  0  0  0
  -37.4290   61.5976   63.7638 C   0  0  0  0  0  0  0  0  0  0  0  0
  -35.4569   60.3793   63.7001 C   0  0  0  0  0  0  0  0  0  0  0  0
  -37.6054   60.2412   64.5012 C   0  0  0  0  0  0  0  0  0  0  0  0
  -33.5806   62.1302   62.3544 O   0  0  0  0  0  0  0  0  0  0  0  0
  -33.1751   60.9075   62.7180 C   0  0  0  0  0  0  0  0  0  0  0  0
  -31.8577   60.5085   62.4571 C   0  0  0  0  0  0  0  0  0  0  0  0
  -31.4105   59.2270   62.8202 C   0  0  0  0  0  0  0  0  0  0  0  0
  -32.2729   58.3332   63.4574 C   0  0  0  0  0  0  0  0  0  0  0  0
  -33.5864   58.7287   63.7255 C   0  0  0  0  0  0  0  0  0  0  0  0
  -34.0400   60.0091   63.3550 C   0  0  0  0  0  0  0  0  0  0  0  0
  -32.9841   62.7145   61.9293 H   0  0  0  0  0  0  0  0  0  0  0  0
  -41.3710   61.7985   66.1937 O   0  0  0  0  0  0  0  0  0  0  0  0
  -41.3768   61.0109   65.2620 C   0  0  0  0  0  0  0  0  0  0  0  0
  -42.3377   61.2247   64.1748 O   0  0  0  0  0  0  0  0  0  0  0  0
  -42.0788   60.7465   62.8413 C   0  0  0  0  0  0  0  0  0  0  0  0
  -42.2506   61.7947   61.7489 C   0  0  0  0  0  0  0  0  0  0  0  0
  -42.9650   59.5367   62.5854 C   0  0  0  0  0  0  0  0  0  0  0  0
  -41.2035   58.5615   61.1918 N   0  0  0  0  0  0  0  0  0  0  0  0
  -42.4985   57.2663   62.5187 O   0  0  0  0  0  0  0  0  0  0  0  0
  -42.2050   58.3452   62.0569 C   0  0  0  0  0  0  0  0  0  0  0  0
  -41.0572   59.4847   60.8826 H   0  0  0  0  0  0  0  0  0  0  0  0
  -38.0951   58.2313   61.4801 N   0  0  0  0  0  0  0  0  0  0  0  0
  -38.9132   56.2164   62.0603 O   0  0  0  0  0  0  0  0  0  0  0  0
  -38.2640   59.6216   61.0325 C   0  0  0  0  0  0  0  0  0  0  0  0
  -38.4566   59.6828   59.5054 C   0  0  0  0  0  0  0  0  0  0  0  0
  -38.6167   58.3372   58.8172 C   0  0  0  0  0  0  0  0  0  0  0  0
  -39.9202   57.6257   59.1898 C   0  0  0  0  0  0  0  0  0  0  0  0
  -40.3103   57.5191   60.6734 C   0  0  0  0  0  0  0  0  0  0  0  0
  -39.0453   57.2828   61.4754 C   0  0  0  0  0  0  0  0  0  0  0  0
  -36.6987   57.0963   63.5504 Si  0  0  0  0  0  0  0  0  0  0  0  0
  -36.8667   57.8767   61.9508 O   0  0  0  0  0  0  0  0  0  0  0  0
  -35.3273   56.8296   63.8051 H   0  0  0  0  0  0  0  0  0  0  0  0
  -37.4278   55.8779   63.5617 H   0  0  0  0  0  0  0  0  0  0  0  0
  -37.2070   57.9616   64.5550 H   0  0  0  0  0  0  0  0  0  0  0  0
  -42.7119   58.5371   65.7826 C   0  0  0  0  0  0  0  0  0  0  0  0
  -41.2294   58.4538   65.3985 C   0  0  0  0  0  0  0  0  0  0  0  0
  -43.3527   57.2635   66.3597 C   0  0  0  0  0  0  0  0  0  0  0  0
  -44.7003   56.8110   65.7610 C   0  0  0  0  0  0  0  0  0  0  0  0
  -45.7608   57.6483   66.3303 N   0  0  0  0  0  0  0  0  0  0  0  0
  -46.3724   58.7374   65.7939 C   0  0  0  0  0  0  0  0  0  0  0  0
  -46.1818   57.2438   67.6049 O   0  0  0  0  0  0  0  0  0  0  0  0
  -46.0709   59.1503   64.6744 O   0  0  0  0  0  0  0  0  0  0  0  0
  -46.8808   57.8390   67.9185 H   0  0  0  0  0  0  0  0  0  0  0  0
  -47.4503   59.4594   66.6092 C   0  0  0  0  0  0  0  0  0  0  0  0
  -48.5262   60.1556   65.7646 C   0  0  0  0  0  0  0  0  0  0  0  0
  -49.9144   59.5727   66.0920 C   0  0  0  0  0  0  0  0  0  0  0  0
  -51.0584   60.2201   65.2887 C   0  0  0  0  0  0  0  0  0  0  0  0
  -50.6067   60.9781   64.0264 C   0  0  0  0  0  0  0  0  0  0  0  0
  -51.1777   60.3731   62.7266 C   0  0  0  0  0  0  0  0  0  0  0  0
  -51.1771   58.8272   62.6840 C   0  0  0  0  0  0  0  0  0  0  0  0
  -49.7743   58.2209   62.5633 C   0  0  0  0  0  0  0  0  0  0  0  0
  -49.6393   57.0767   61.5536 C   0  0  0  0  0  0  0  0  0  0  0  0
  -50.6273   57.2408   60.3843 C   0  0  0  0  0  0  0  0  0  0  0  0
  -50.0488   58.0030   59.1826 C   0  0  0  0  0  0  0  0  0  0  0  0
  -48.5342   58.2337   59.2071 C   0  0  0  0  0  0  0  0  0  0  0  0
  -47.7086   57.1087   58.5344 C   0  0  0  0  0  0  0  0  0  0  0  0
  -48.1367   56.8929   57.0687 C   0  0  0  0  0  0  0  0  0  0  0  0
  -47.7100   57.9575   56.0510 C   0  0  0  0  0  0  0  0  0  0  0  0
 46 47  1  0  0  0
 46 48  1  0  0  0
 46 45  1  0  0  0
 47 49  2  0  0  0
 47 51  1  0  0  0
 19 20  2  0  0  0
 37 38  1  0  0  0
 37 39  1  0  0  0
 37 40  1  0  0  0
 37 41  1  0  0  0
 48 50  1  0  0  0
 38 29  1  0  0  0
 45 44  1  0  0  0
 25 27  1  0  0  0
 25 35  1  0  0  0
 25 28  1  0  0  0
 21 20  1  0  0  0
 21 22  1  0  0  0
 44 42  1  0  0  0
  2  1  1  0  0  0
  2  4  1  0  0  0
  2  5  1  0  0  0
 26 27  2  0  0  0
 42 43  2  0  0  0
 29 31  1  0  0  0
 29 36  1  0  0  0
  3  4  2  0  0  0
 43  1  1  0  0  0
  6  9  2  0  0  0
  6 10  1  0  0  0
  1 20  1  0  0  0
 30 36  2  0  0  0
  7  8  1  0  0  0
  7  9  1  0  0  0
 22 24  1  0  0  0
 22 23  1  0  0  0
 11 12  1  0  0  0
 11 18  1  0  0  0
 24 27  1  0  0  0
  4 10  1  0  0  0
 51 52  1  0  0  0
 52 53  1  0  0  0
 53 54  1  0  0  0
 54 55  1  0  0  0
 55 56  1  0  0  0
 56 57  1  0  0  0
 57 58  1  0  0  0
 58 59  1  0  0  0
 59 60  1  0  0  0
 60 61  1  0  0  0
 61 62  1  0  0  0
 62 63  1  0  0  0
 63 64  1  0  0  0
 64 65  1  0  0  0
 31 32  1  0  0  0
 32 33  1  0  0  0
 33 34  1  0  0  0
 34 35  1  0  0  0
 35 36  1  0  0  0
  8 10  1  0  0  0
  9 17  1  0  0  0
 12 13  2  0  0  0
 12 17  1  0  0  0
 13 14  1  0  0  0
 14 15  2  0  0  0
 15 16  1  0  0  0
 16 17  2  0  0  0
M  END
> <minimizedAffinity>
-9.71646

> <CNNscore>
0.1792499274

> <CNNaffinity>
7.6671533585

> <CNN_VS>
1.3743367195

> <CNNaffinity_variance>
1.6609675884

$$$$
/media/chris/experiments/cd1a-new-docking/inputs/ligands/1xz0_ligand.pdb


 65 67  0  0  0  0  0  0  0  0999 V2000
  -36.7046   61.7357   63.1057 C   0  0  0  0  0  0  0  0  0  0  0  0
  -35.9361   61.1624   64.2125 N   0  0  0  0  0  0  0  0  0  0  0  0
  -34.7549   59.5504   65.2982 O   0  0  0  0  0  0  0  0  0  0  0  0
  -35.3733   59.9462   64.3189 C   0  0  0  0  0  0  0  0  0  0  0  0
  -35.8139   61.7528   64.9908 H   0  0  0  0  0  0  0  0  0  0  0  0
  -36.6554   59.1997   62.3241 N   0  0  0  0  0  0  0  0  0  0  0  0
  -36.5185   56.9881   62.6111 O   0  0  0  0  0  0  0  0  0  0  0  0
  -35.3687   57.4946   63.2878 C   0  0  0  0  0  0  0  0  0  0  0  0
  -37.2447   58.1104   62.0718 C   0  0  0  0  0  0  0  0  0  0  0  0
  -35.4109   59.0365   63.0994 C   0  0  0  0  0  0  0  0  0  0  0  0
  -37.8361   59.6327   59.6780 O   0  0  0  0  0  0  0  0  0  0  0  0
  -38.7270   58.7293   60.1044 C   0  0  0  0  0  0  0  0  0  0  0  0
  -39.9101   58.5283   59.3814 C   0  0  0  0  0  0  0  0  0  0  0  0
  -40.8653   57.5928   59.8134 C   0  0  0  0  0  0  0  0  0  0  0  0
  -40.6437   56.8404   60.9682 C   0  0  0  0  0  0  0  0  0  0  0  0
  -39.4621   57.0327   61.6895 C   0  0  0  0  0  0  0  0  0  0  0  0
  -38.5070   57.9756   61.2640 C   0  0  0  0  0  0  0  0  0  0  0  0
  -38.0048   60.1255   58.8991 H   0  0  0  0  0  0  0  0  0  0  0  0
  -36.3676   63.8694   64.1398 O   0  0  0  0  0  0  0  0  0  0  0  0
  -36.4090   63.2235   63.1056 C   0  0  0  0  0  0  0  0  0  0  0  0
  -36.2326   63.9323   61.8338 O   0  0  0  0  0  0  0  0  0  0  0  0
  -35.7239   65.2789   61.7909 C   0  0  0  0  0  0  0  0  0  0  0  0
  -36.7275   66.3191   61.3088 C   0  0  0  0  0  0  0  0  0  0  0  0
  -34.4675   65.2896   60.9331 C   0  0  0  0  0  0  0  0  0  0  0  0
  -33.0779   64.5412   62.8053 N   0  0  0  0  0  0  0  0  0  0  0  0
  -32.8387   63.6506   60.7401 O   0  0  0  0  0  0  0  0  0  0  0  0
  -33.3562   64.4393   61.4974 C   0  0  0  0  0  0  0  0  0  0  0  0
  -33.5632   65.2223   63.3246 H   0  0  0  0  0  0  0  0  0  0  0  0
  -33.2311   63.2235   65.6504 N   0  0  0  0  0  0  0  0  0  0  0  0
  -32.5917   61.5378   64.3030 O   0  0  0  0  0  0  0  0  0  0  0  0
  -33.6109   64.6241   65.8873 C   0  0  0  0  0  0  0  0  0  0  0  0
  -32.3603   65.5169   65.9958 C   0  0  0  0  0  0  0  0  0  0  0  0
  -31.0444   64.8338   65.6617 C   0  0  0  0  0  0  0  0  0  0  0  0
  -30.9290   64.4467   64.1849 C   0  0  0  0  0  0  0  0  0  0  0  0
  -32.1010   63.7089   63.5167 C   0  0  0  0  0  0  0  0  0  0  0  0
  -32.6808   62.7374   64.5263 C   0  0  0  0  0  0  0  0  0  0  0  0
  -34.4705   62.8084   68.0619 Si  0  0  0  0  0  0  0  0  0  0  0  0
  -33.4678   62.3382   66.6586 O   0  0  0  0  0  0  0  0  0  0  0  0
  -34.5637   61.7158   68.9642 H   0  0  0  0  0  0  0  0  0  0  0  0
  -35.7704   63.1662   67.6162 H   0  0  0  0  0  0  0  0  0  0  0  0
  -33.8741   63.9162   68.7200 H   0  0  0  0  0  0  0  0  0  0  0  0
  -38.8068   60.6280   64.2229 C   0  0  0  0  0  0  0  0  0  0  0  0
  -38.2151   61.4034   63.0395 C   0  0  0  0  0  0  0  0  0  0  0  0
  -40.1536   59.9233   63.9882 C   0  0  0  0  0  0  0  0  0  0  0  0
  -40.5625   58.8195   64.9850 C   0  0  0  0  0  0  0  0  0  0  0  0
  -41.9518   58.4414   64.7082 N   0  0  0  0  0  0  0  0  0  0  0  0
  -42.8847   57.9302   65.5545 C   0  0  0  0  0  0  0  0  0  0  0  0
  -42.3429   58.6482   63.3779 O   0  0  0  0  0  0  0  0  0  0  0  0
  -42.6268   57.7305   66.7413 O   0  0  0  0  0  0  0  0  0  0  0  0
  -43.2680   58.3779   63.2672 H   0  0  0  0  0  0  0  0  0  0  0  0
  -44.2767   57.5947   65.0089 C   0  0  0  0  0  0  0  0  0  0  0  0
  -45.3743   58.5883   65.4133 C   0  0  0  0  0  0  0  0  0  0  0  0
  -45.7472   59.4809   64.2139 C   0  0  0  0  0  0  0  0  0  0  0  0
  -47.1930   60.0100   64.2671 C   0  0  0  0  0  0  0  0  0  0  0  0
  -48.1616   59.3297   63.2817 C   0  0  0  0  0  0  0  0  0  0  0  0
  -49.1311   60.3247   62.6098 C   0  0  0  0  0  0  0  0  0  0  0  0
  -50.1053   59.6845   61.5936 C   0  0  0  0  0  0  0  0  0  0  0  0
  -50.9865   58.5871   62.2014 C   0  0  0  0  0  0  0  0  0  0  0  0
  -51.0882   57.2980   61.3800 C   0  0  0  0  0  0  0  0  0  0  0  0
  -50.2330   57.3779   60.1023 C   0  0  0  0  0  0  0  0  0  0  0  0
  -49.0010   56.4604   60.1192 C   0  0  0  0  0  0  0  0  0  0  0  0
  -47.7615   56.9969   59.3955 C   0  0  0  0  0  0  0  0  0  0  0  0
  -48.0597   58.1196   58.3706 C   0  0  0  0  0  0  0  0  0  0  0  0
  -47.5773   57.7366   56.9568 C   0  0  0  0  0  0  0  0  0  0  0  0
  -47.3091   56.2511   56.6873 C   0  0  0  0  0  0  0  0  0  0  0  0
 46 47  1  0  0  0
 46 48  1  0  0  0
 46 45  1  0  0  0
 47 49  2  0  0  0
 47 51  1  0  0  0
 19 20  2  0  0  0
 37 38  1  0  0  0
 37 39  1  0  0  0
 37 40  1  0  0  0
 37 41  1  0  0  0
 48 50  1  0  0  0
 38 29  1  0  0  0
 45 44  1  0  0  0
 25 27  1  0  0  0
 25 35  1  0  0  0
 25 28  1  0  0  0
 21 20  1  0  0  0
 21 22  1  0  0  0
 44 42  1  0  0  0
  2  1  1  0  0  0
  2  4  1  0  0  0
  2  5  1  0  0  0
 26 27  2  0  0  0
 42 43  2  0  0  0
 29 31  1  0  0  0
 29 36  1  0  0  0
  3  4  2  0  0  0
 43  1  1  0  0  0
  6  9  2  0  0  0
  6 10  1  0  0  0
  1 20  1  0  0  0
 30 36  2  0  0  0
  7  8  1  0  0  0
  7  9  1  0  0  0
 22 24  1  0  0  0
 22 23  1  0  0  0
 11 12  1  0  0  0
 11 18  1  0  0  0
 24 27  1  0  0  0
  4 10  1  0  0  0
 51 52  1  0  0  0
 52 53  1  0  0  0
 53 54  1  0  0  0
 54 55  1  0  0  0
 55 56  1  0  0  0
 56 57  1  0  0  0
 57 58  1  0  0  0
 58 59  1  0  0  0
 59 60  1  0  0  0
 60 61  1  0  0  0
 61 62  1  0  0  0
 62 63  1  0  0  0
 63 64  1  0  0  0
 64 65  1  0  0  0
 31 32  1  0  0  0
 32 33  1  0  0  0
 33 34  1  0  0  0
 34 35  1  0  0  0
 35 36  1  0  0  0
  8 10  1  0  0  0
  9 17  1  0  0  0
 12 13  2  0  0  0
 12 17  1  0  0  0
 13 14  1  0  0  0
 14 15  2  0  0  0
 15 16  1  0  0  0
 16 17  2  0  0  0
M  END
> <minimizedAffinity>
-9.77492

> <CNNscore>
0.1726655662

> <CNNaffinity>
7.2340250015

> <CNN_VS>
1.2490670681

> <CNNaffinity_variance>
0.4108480513

$$$$
/media/chris/experiments/cd1a-new-docking/inputs/ligands/1xz0_ligand.pdb


 65 67  0  0  0  0  0  0  0  0999 V2000
  -40.6336   58.2807   64.0744 C   0  0  0  0  0  0  0  0  0  0  0  0
  -41.1597   59.0637   62.9545 N   0  0  0  0  0  0  0  0  0  0  0  0
  -41.2034   59.8644   60.8261 O   0  0  0  0  0  0  0  0  0  0  0  0
  -40.6974   59.1683   61.6964 C   0  0  0  0  0  0  0  0  0  0  0  0
  -41.9685   59.5895   63.1511 H   0  0  0  0  0  0  0  0  0  0  0  0
  -38.5163   58.1753   62.3577 N   0  0  0  0  0  0  0  0  0  0  0  0
  -37.3107   58.7138   60.5554 O   0  0  0  0  0  0  0  0  0  0  0  0
  -38.6523   58.6693   60.0710 C   0  0  0  0  0  0  0  0  0  0  0  0
  -37.3388   58.4132   61.9649 C   0  0  0  0  0  0  0  0  0  0  0  0
  -39.5309   58.2785   61.2917 C   0  0  0  0  0  0  0  0  0  0  0  0
  -37.2479   57.2254   64.6065 O   0  0  0  0  0  0  0  0  0  0  0  0
  -36.1234   57.7349   64.0893 C   0  0  0  0  0  0  0  0  0  0  0  0
  -34.9317   57.6695   64.8231 C   0  0  0  0  0  0  0  0  0  0  0  0
  -33.7401   58.2055   64.3063 C   0  0  0  0  0  0  0  0  0  0  0  0
  -33.7246   58.8043   63.0455 C   0  0  0  0  0  0  0  0  0  0  0  0
  -34.9095   58.8666   62.3068 C   0  0  0  0  0  0  0  0  0  0  0  0
  -36.1070   58.3381   62.8256 C   0  0  0  0  0  0  0  0  0  0  0  0
  -37.2349   56.8264   65.4542 H   0  0  0  0  0  0  0  0  0  0  0  0
  -41.7925   56.1942   64.2721 O   0  0  0  0  0  0  0  0  0  0  0  0
  -41.7660   57.3845   64.5386 C   0  0  0  0  0  0  0  0  0  0  0  0
  -42.8995   57.9603   65.2698 O   0  0  0  0  0  0  0  0  0  0  0  0
  -44.2314   57.9417   64.7226 C   0  0  0  0  0  0  0  0  0  0  0  0
  -44.3854   58.6953   63.4074 C   0  0  0  0  0  0  0  0  0  0  0  0
  -45.1901   58.4753   65.7764 C   0  0  0  0  0  0  0  0  0  0  0  0
  -47.4681   58.4572   64.8784 N   0  0  0  0  0  0  0  0  0  0  0  0
  -46.7512   56.8381   66.2856 O   0  0  0  0  0  0  0  0  0  0  0  0
  -46.5698   57.8718   65.6838 C   0  0  0  0  0  0  0  0  0  0  0  0
  -47.2089   59.2995   64.4397 H   0  0  0  0  0  0  0  0  0  0  0  0
  -49.8066   59.6638   63.1666 N   0  0  0  0  0  0  0  0  0  0  0  0
  -49.6211   57.5482   62.4211 O   0  0  0  0  0  0  0  0  0  0  0  0
  -49.4007   60.7719   64.0436 C   0  0  0  0  0  0  0  0  0  0  0  0
  -50.0420   60.6274   65.4367 C   0  0  0  0  0  0  0  0  0  0  0  0
  -50.7835   59.3228   65.6774 C   0  0  0  0  0  0  0  0  0  0  0  0
  -49.8557   58.1057   65.7188 C   0  0  0  0  0  0  0  0  0  0  0  0
  -48.8102   57.9307   64.6049 C   0  0  0  0  0  0  0  0  0  0  0  0
  -49.4360   58.3801   63.2990 C   0  0  0  0  0  0  0  0  0  0  0  0
  -50.5432   59.0297   60.6016 Si  0  0  0  0  0  0  0  0  0  0  0  0
  -50.6243   59.9690   62.1205 O   0  0  0  0  0  0  0  0  0  0  0  0
  -51.4900   59.5435   59.6763 H   0  0  0  0  0  0  0  0  0  0  0  0
  -50.8366   57.6669   60.8715 H   0  0  0  0  0  0  0  0  0  0  0  0
  -49.2387   59.1329   60.0502 H   0  0  0  0  0  0  0  0  0  0  0  0
  -38.9698   60.1692   64.8226 C   0  0  0  0  0  0  0  0  0  0  0  0
  -39.9444   59.0550   65.2240 C   0  0  0  0  0  0  0  0  0  0  0  0
  -37.9721   60.6391   65.8947 C   0  0  0  0  0  0  0  0  0  0  0  0
  -36.5361   60.9656   65.4360 C   0  0  0  0  0  0  0  0  0  0  0  0
  -36.5257   62.3265   64.8905 N   0  0  0  0  0  0  0  0  0  0  0  0
  -36.1950   62.7450   63.6401 C   0  0  0  0  0  0  0  0  0  0  0  0
  -36.9168   63.3103   65.8095 O   0  0  0  0  0  0  0  0  0  0  0  0
  -35.8533   61.9444   62.7700 O   0  0  0  0  0  0  0  0  0  0  0  0
  -36.8867   64.1812   65.3831 H   0  0  0  0  0  0  0  0  0  0  0  0
  -36.2460   64.2429   63.3216 C   0  0  0  0  0  0  0  0  0  0  0  0
  -35.8308   64.6025   61.8885 C   0  0  0  0  0  0  0  0  0  0  0  0
  -35.3343   66.0600   61.8320 C   0  0  0  0  0  0  0  0  0  0  0  0
  -33.8602   66.2243   62.2482 C   0  0  0  0  0  0  0  0  0  0  0  0
  -32.8561   66.1861   61.0809 C   0  0  0  0  0  0  0  0  0  0  0  0
  -31.5969   65.3528   61.3995 C   0  0  0  0  0  0  0  0  0  0  0  0
  -31.5830   63.9428   60.7646 C   0  0  0  0  0  0  0  0  0  0  0  0
  -32.6115   62.9867   61.3796 C   0  0  0  0  0  0  0  0  0  0  0  0
  -32.0590   62.0145   62.4266 C   0  0  0  0  0  0  0  0  0  0  0  0
  -31.8924   62.6992   63.7955 C   0  0  0  0  0  0  0  0  0  0  0  0
  -33.0213   62.3867   64.7894 C   0  0  0  0  0  0  0  0  0  0  0  0
  -32.8399   62.9521   66.2020 C   0  0  0  0  0  0  0  0  0  0  0  0
  -33.5539   64.3057   66.4418 C   0  0  0  0  0  0  0  0  0  0  0  0
  -32.7770   65.4752   65.8037 C   0  0  0  0  0  0  0  0  0  0  0  0
  -31.2546   65.4860   65.9859 C   0  0  0  0  0  0  0  0  0  0  0  0
 46 47  1  0  0  0
 46 48  1  0  0  0
 46 45  1  0  0  0
 47 49  2  0  0  0
 47 51  1  0  0  0
 19 20  2  0  0  0
 37 38  1  0  0  0
 37 39  1  0  0  0
 37 40  1  0  0  0
 37 41  1  0  0  0
 48 50  1  0  0  0
 38 29  1  0  0  0
 45 44  1  0  0  0
 25 27  1  0  0  0
 25 35  1  0  0  0
 25 28  1  0  0  0
 21 20  1  0  0  0
 21 22  1  0  0  0
 44 42  1  0  0  0
  2  1  1  0  0  0
  2  4  1  0  0  0
  2  5  1  0  0  0
 26 27  2  0  0  0
 42 43  2  0  0  0
 29 31  1  0  0  0
 29 36  1  0  0  0
  3  4  2  0  0  0
 43  1  1  0  0  0
  6  9  2  0  0  0
  6 10  1  0  0  0
  1 20  1  0  0  0
 30 36  2  0  0  0
  7  8  1  0  0  0
  7  9  1  0  0  0
 22 24  1  0  0  0
 22 23  1  0  0  0
 11 12  1  0  0  0
 11 18  1  0  0  0
 24 27  1  0  0  0
  4 10  1  0  0  0
 51 52  1  0  0  0
 52 53  1  0  0  0
 53 54  1  0  0  0
 54 55  1  0  0  0
 55 56  1  0  0  0
 56 57  1  0  0  0
 57 58  1  0  0  0
 58 59  1  0  0  0
 59 60  1  0  0  0
 60 61  1  0  0  0
 61 62  1  0  0  0
 62 63  1  0  0  0
 63 64  1  0  0  0
 64 65  1  0  0  0
 31 32  1  0  0  0
 32 33  1  0  0  0
 33 34  1  0  0  0
 34 35  1  0  0  0
 35 36  1  0  0  0
  8 10  1  0  0  0
  9 17  1  0  0  0
 12 13  2  0  0  0
 12 17  1  0  0  0
 13 14  1  0  0  0
 14 15  2  0  0  0
 15 16  1  0  0  0
 16 17  2  0  0  0
M  END
> <minimizedAffinity>
-8.46702

> <CNNscore>
0.1630541682

> <CNNaffinity>
7.0562620163

> <CNN_VS>
1.1505529881

> <CNNaffinity_variance>
1.2017369270

$$$$
/media/chris/experiments/cd1a-new-docking/inputs/ligands/1xz0_ligand.pdb


 65 67  0  0  0  0  0  0  0  0999 V2000
  -40.6867   58.0669   60.1401 C   0  0  0  0  0  0  0  0  0  0  0  0
  -39.4747   58.3611   59.3730 N   0  0  0  0  0  0  0  0  0  0  0  0
  -37.2863   58.9108   59.0869 O   0  0  0  0  0  0  0  0  0  0  0  0
  -38.2414   58.6668   59.8124 C   0  0  0  0  0  0  0  0  0  0  0  0
  -39.5777   58.3307   58.3943 H   0  0  0  0  0  0  0  0  0  0  0  0
  -36.6041   58.9923   61.6545 N   0  0  0  0  0  0  0  0  0  0  0  0
  -36.8584   57.0424   62.7153 O   0  0  0  0  0  0  0  0  0  0  0  0
  -38.1065   57.2383   62.0517 C   0  0  0  0  0  0  0  0  0  0  0  0
  -36.0068   58.1606   62.3955 C   0  0  0  0  0  0  0  0  0  0  0  0
  -37.9837   58.5987   61.3107 C   0  0  0  0  0  0  0  0  0  0  0  0
  -35.1856   57.4503   65.0822 O   0  0  0  0  0  0  0  0  0  0  0  0
  -34.2728   57.9476   64.2389 C   0  0  0  0  0  0  0  0  0  0  0  0
  -32.9463   58.0981   64.6640 C   0  0  0  0  0  0  0  0  0  0  0  0
  -31.9715   58.6265   63.8009 C   0  0  0  0  0  0  0  0  0  0  0  0
  -32.3102   59.0014   62.4996 C   0  0  0  0  0  0  0  0  0  0  0  0
  -33.6308   58.8474   62.0688 C   0  0  0  0  0  0  0  0  0  0  0  0
  -34.6117   58.3263   62.9341 C   0  0  0  0  0  0  0  0  0  0  0  0
  -34.9357   57.2036   65.9509 H   0  0  0  0  0  0  0  0  0  0  0  0
  -41.0650   60.4007   60.5217 O   0  0  0  0  0  0  0  0  0  0  0  0
  -40.9525   59.2855   61.0034 C   0  0  0  0  0  0  0  0  0  0  0  0
  -41.0117   59.1473   62.4623 O   0  0  0  0  0  0  0  0  0  0  0  0
  -40.8095   60.2781   63.3308 C   0  0  0  0  0  0  0  0  0  0  0  0
  -41.8965   61.3426   63.2468 C   0  0  0  0  0  0  0  0  0  0  0  0
  -39.4388   60.8691   63.0370 C   0  0  0  0  0  0  0  0  0  0  0  0
  -37.1912   61.0462   63.9925 N   0  0  0  0  0  0  0  0  0  0  0  0
  -38.9727   60.5152   65.2807 O   0  0  0  0  0  0  0  0  0  0  0  0
  -38.4857   60.7659   64.2021 C   0  0  0  0  0  0  0  0  0  0  0  0
  -36.9077   61.2352   63.0688 H   0  0  0  0  0  0  0  0  0  0  0  0
  -36.1698   63.4580   65.7229 N   0  0  0  0  0  0  0  0  0  0  0  0
  -36.6065   61.8490   67.2349 O   0  0  0  0  0  0  0  0  0  0  0  0
  -36.1124   63.9622   64.3429 C   0  0  0  0  0  0  0  0  0  0  0  0
  -34.8280   63.4829   63.6406 C   0  0  0  0  0  0  0  0  0  0  0  0
  -34.0024   62.4711   64.4180 C   0  0  0  0  0  0  0  0  0  0  0  0
  -34.7036   61.1189   64.5729 C   0  0  0  0  0  0  0  0  0  0  0  0
  -36.1675   61.0911   65.0428 C   0  0  0  0  0  0  0  0  0  0  0  0
  -36.3465   62.1774   66.0853 C   0  0  0  0  0  0  0  0  0  0  0  0
  -36.7516   64.0635   68.3342 Si  0  0  0  0  0  0  0  0  0  0  0  0
  -36.0417   64.3741   66.7232 O   0  0  0  0  0  0  0  0  0  0  0  0
  -36.4803   65.1631   69.1909 H   0  0  0  0  0  0  0  0  0  0  0  0
  -36.1821   62.8841   68.8830 H   0  0  0  0  0  0  0  0  0  0  0  0
  -38.1561   63.8967   68.2085 H   0  0  0  0  0  0  0  0  0  0  0  0
  -41.8497   56.5689   61.9561 C   0  0  0  0  0  0  0  0  0  0  0  0
  -40.7287   56.7316   60.9221 C   0  0  0  0  0  0  0  0  0  0  0  0
  -41.6587   55.4765   63.0218 C   0  0  0  0  0  0  0  0  0  0  0  0
  -41.4543   55.9337   64.4807 C   0  0  0  0  0  0  0  0  0  0  0  0
  -42.7459   56.3870   65.0059 N   0  0  0  0  0  0  0  0  0  0  0  0
  -43.0576   57.5614   65.6154 C   0  0  0  0  0  0  0  0  0  0  0  0
  -43.7839   55.4591   64.8410 O   0  0  0  0  0  0  0  0  0  0  0  0
  -42.2078   58.4349   65.7874 O   0  0  0  0  0  0  0  0  0  0  0  0
  -44.6043   55.8231   65.2092 H   0  0  0  0  0  0  0  0  0  0  0  0
  -44.4940   57.7882   66.0982 C   0  0  0  0  0  0  0  0  0  0  0  0
  -45.0630   59.1755   65.7710 C   0  0  0  0  0  0  0  0  0  0  0  0
  -45.5209   59.2256   64.3006 C   0  0  0  0  0  0  0  0  0  0  0  0
  -46.8086   60.0431   64.0849 C   0  0  0  0  0  0  0  0  0  0  0  0
  -47.9598   59.6919   65.0458 C   0  0  0  0  0  0  0  0  0  0  0  0
  -48.5172   58.2707   64.8204 C   0  0  0  0  0  0  0  0  0  0  0  0
  -50.0343   58.1270   65.0840 C   0  0  0  0  0  0  0  0  0  0  0  0
  -50.8767   59.2139   64.4063 C   0  0  0  0  0  0  0  0  0  0  0  0
  -51.0065   59.0895   62.8850 C   0  0  0  0  0  0  0  0  0  0  0  0
  -50.6065   60.3978   62.1789 C   0  0  0  0  0  0  0  0  0  0  0  0
  -49.6652   60.1965   60.9816 C   0  0  0  0  0  0  0  0  0  0  0  0
  -49.2656   58.7472   60.6853 C   0  0  0  0  0  0  0  0  0  0  0  0
  -49.3563   58.3557   59.1893 C   0  0  0  0  0  0  0  0  0  0  0  0
  -48.0358   57.7386   58.6856 C   0  0  0  0  0  0  0  0  0  0  0  0
  -47.5147   58.2156   57.3246 C   0  0  0  0  0  0  0  0  0  0  0  0
 46 47  1  0  0  0
 46 48  1  0  0  0
 46 45  1  0  0  0
 47 49  2  0  0  0
 47 51  1  0  0  0
 19 20  2  0  0  0
 37 38  1  0  0  0
 37 39  1  0  0  0
 37 40  1  0  0  0
 37 41  1  0  0  0
 48 50  1  0  0  0
 38 29  1  0  0  0
 45 44  1  0  0  0
 25 27  1  0  0  0
 25 35  1  0  0  0
 25 28  1  0  0  0
 21 20  1  0  0  0
 21 22  1  0  0  0
 44 42  1  0  0  0
  2  1  1  0  0  0
  2  4  1  0  0  0
  2  5  1  0  0  0
 26 27  2  0  0  0
 42 43  2  0  0  0
 29 31  1  0  0  0
 29 36  1  0  0  0
  3  4  2  0  0  0
 43  1  1  0  0  0
  6  9  2  0  0  0
  6 10  1  0  0  0
  1 20  1  0  0  0
 30 36  2  0  0  0
  7  8  1  0  0  0
  7  9  1  0  0  0
 22 24  1  0  0  0
 22 23  1  0  0  0
 11 12  1  0  0  0
 11 18  1  0  0  0
 24 27  1  0  0  0
  4 10  1  0  0  0
 51 52  1  0  0  0
 52 53  1  0  0  0
 53 54  1  0  0  0
 54 55  1  0  0  0
 55 56  1  0  0  0
 56 57  1  0  0  0
 57 58  1  0  0  0
 58 59  1  0  0  0
 59 60  1  0  0  0
 60 61  1  0  0  0
 61 62  1  0  0  0
 62 63  1  0  0  0
 63 64  1  0  0  0
 64 65  1  0  0  0
 31 32  1  0  0  0
 32 33  1  0  0  0
 33 34  1  0  0  0
 34 35  1  0  0  0
 35 36  1  0  0  0
  8 10  1  0  0  0
  9 17  1  0  0  0
 12 13  2  0  0  0
 12 17  1  0  0  0
 13 14  1  0  0  0
 14 15  2  0  0  0
 15 16  1  0  0  0
 16 17  2  0  0  0
M  END
> <minimizedAffinity>
-9.89803

> <CNNscore>
0.1563564688

> <CNNaffinity>
7.6864609718

> <CNN_VS>
1.2018278837

> <CNNaffinity_variance>
1.2532417774

$$$$
