/media/chris/experiments/cd1a-new-docking/inputs/ligands/1xz0_ligand.pdb


 65 67  0  0  0  0  0  0  0  0999 V2000
  -40.9296   59.1609   65.1211 C   0  0  0  0  0  0  0  0  0  0  0  0
  -39.5363   58.9872   65.5367 N   0  0  0  0  0  0  0  0  0  0  0  0
  -38.4299   60.5220   64.2746 O   0  0  0  0  0  0  0  0  0  0  0  0
  -38.4353   59.6350   65.1179 C   0  0  0  0  0  0  0  0  0  0  0  0
  -39.3839   58.2963   66.2214 H   0  0  0  0  0  0  0  0  0  0  0  0
  -35.9613   59.7824   64.9237 N   0  0  0  0  0  0  0  0  0  0  0  0
  -35.4716   57.6034   64.8577 O   0  0  0  0  0  0  0  0  0  0  0  0
  -36.7141   57.6558   65.5576 C   0  0  0  0  0  0  0  0  0  0  0  0
  -35.1073   58.9519   64.5013 C   0  0  0  0  0  0  0  0  0  0  0  0
  -37.0885   59.1614   65.6451 C   0  0  0  0  0  0  0  0  0  0  0  0
  -34.7557   61.3226   62.8725 O   0  0  0  0  0  0  0  0  0  0  0  0
  -33.7263   60.4787   63.0142 C   0  0  0  0  0  0  0  0  0  0  0  0
  -32.5049   60.7651   62.3904 C   0  0  0  0  0  0  0  0  0  0  0  0
  -31.4123   59.8907   62.5159 C   0  0  0  0  0  0  0  0  0  0  0  0
  -31.5257   58.7246   63.2750 C   0  0  0  0  0  0  0  0  0  0  0  0
  -32.7401   58.4376   63.9045 C   0  0  0  0  0  0  0  0  0  0  0  0
  -33.8395   59.3077   63.7733 C   0  0  0  0  0  0  0  0  0  0  0  0
  -34.6566   62.1004   62.3595 H   0  0  0  0  0  0  0  0  0  0  0  0
  -41.3373   61.3672   65.9586 O   0  0  0  0  0  0  0  0  0  0  0  0
  -41.1520   60.6552   64.9854 C   0  0  0  0  0  0  0  0  0  0  0  0
  -41.2158   61.2655   63.6533 O   0  0  0  0  0  0  0  0  0  0  0  0
  -42.4678   61.4184   62.9583 C   0  0  0  0  0  0  0  0  0  0  0  0
  -43.4477   60.2692   63.1600 C   0  0  0  0  0  0  0  0  0  0  0  0
  -42.1730   61.6357   61.4817 C   0  0  0  0  0  0  0  0  0  0  0  0
  -41.2248   59.3799   61.5739 N   0  0  0  0  0  0  0  0  0  0  0  0
  -41.5600   60.4295   59.5987 O   0  0  0  0  0  0  0  0  0  0  0  0
  -41.5871   60.4194   60.8081 C   0  0  0  0  0  0  0  0  0  0  0  0
  -41.2889   59.4868   62.5505 H   0  0  0  0  0  0  0  0  0  0  0  0
  -38.3861   58.0560   61.7836 N   0  0  0  0  0  0  0  0  0  0  0  0
  -39.7959   56.4292   62.4406 O   0  0  0  0  0  0  0  0  0  0  0  0
  -38.1079   59.4176   61.3036 C   0  0  0  0  0  0  0  0  0  0  0  0
  -38.3238   59.5137   59.7815 C   0  0  0  0  0  0  0  0  0  0  0  0
  -38.9385   58.2835   59.1345 C   0  0  0  0  0  0  0  0  0  0  0  0
  -40.3888   58.0436   59.5625 C   0  0  0  0  0  0  0  0  0  0  0  0
  -40.7395   58.0945   61.0589 C   0  0  0  0  0  0  0  0  0  0  0  0
  -39.5936   57.4705   61.8310 C   0  0  0  0  0  0  0  0  0  0  0  0
  -35.6550   57.9229   62.0006 Si  0  0  0  0  0  0  0  0  0  0  0  0
  -37.3249   57.3269   62.2289 O   0  0  0  0  0  0  0  0  0  0  0  0
  -34.7392   56.9864   62.5487 H   0  0  0  0  0  0  0  0  0  0  0  0
  -35.5044   59.1725   62.6578 H   0  0  0  0  0  0  0  0  0  0  0  0
  -35.3952   58.0831   60.6138 H   0  0  0  0  0  0  0  0  0  0  0  0
  -42.7885   57.3126   65.2695 C   0  0  0  0  0  0  0  0  0  0  0  0
  -42.0176   58.4454   65.9582 C   0  0  0  0  0  0  0  0  0  0  0  0
  -44.1268   56.8972   65.9039 C   0  0  0  0  0  0  0  0  0  0  0  0
  -45.4201   57.3143   65.1739 C   0  0  0  0  0  0  0  0  0  0  0  0
  -46.2402   58.0979   66.1029 N   0  0  0  0  0  0  0  0  0  0  0  0
  -46.7561   59.3457   65.9459 C   0  0  0  0  0  0  0  0  0  0  0  0
  -46.5140   57.4423   67.3116 O   0  0  0  0  0  0  0  0  0  0  0  0
  -47.4329   59.8709   66.8296 O   0  0  0  0  0  0  0  0  0  0  0  0
  -47.0575   58.0156   67.8744 H   0  0  0  0  0  0  0  0  0  0  0  0
  -46.4891   60.0997   64.6390 C   0  0  0  0  0  0  0  0  0  0  0  0
  -47.7531   60.4931   63.8624 C   0  0  0  0  0  0  0  0  0  0  0  0
  -48.7770   61.1425   64.8133 C   0  0  0  0  0  0  0  0  0  0  0  0
  -50.1906   61.2540   64.2115 C   0  0  0  0  0  0  0  0  0  0  0  0
  -51.1747   60.1658   64.6796 C   0  0  0  0  0  0  0  0  0  0  0  0
  -50.4728   58.8459   65.0617 C   0  0  0  0  0  0  0  0  0  0  0  0
  -50.2352   57.8793   63.8782 C   0  0  0  0  0  0  0  0  0  0  0  0
  -51.1290   58.1673   62.6665 C   0  0  0  0  0  0  0  0  0  0  0  0
  -50.3864   58.4871   61.3653 C   0  0  0  0  0  0  0  0  0  0  0  0
  -50.5241   57.3426   60.3448 C   0  0  0  0  0  0  0  0  0  0  0  0
  -49.5305   56.1914   60.5624 C   0  0  0  0  0  0  0  0  0  0  0  0
  -48.5102   55.9715   59.4408 C   0  0  0  0  0  0  0  0  0  0  0  0
  -47.5987   57.1927   59.1618 C   0  0  0  0  0  0  0  0  0  0  0  0
  -47.6328   57.5949   57.6734 C   0  0  0  0  0  0  0  0  0  0  0  0
  -47.2085   56.5331   56.6517 C   0  0  0  0  0  0  0  0  0  0  0  0
 46 47  1  0  0  0
 46 48  1  0  0  0
 46 45  1  0  0  0
 47 49  2  0  0  0
 47 51  1  0  0  0
 19 20  2  0  0  0
 37 38  1  0  0  0
 37 39  1  0  0  0
 37 40  1  0  0  0
 37 41  1  0  0  0
 48 50  1  0  0  0
 38 29  1  0  0  0
 45 44  1  0  0  0
 25 27  1  0  0  0
 25 35  1  0  0  0
 25 28  1  0  0  0
 21 20  1  0  0  0
 21 22  1  0  0  0
 44 42  1  0  0  0
  2  1  1  0  0  0
  2  4  1  0  0  0
  2  5  1  0  0  0
 26 27  2  0  0  0
 42 43  2  0  0  0
 29 31  1  0  0  0
 29 36  1  0  0  0
  3  4  2  0  0  0
 43  1  1  0  0  0
  6  9  2  0  0  0
  6 10  1  0  0  0
  1 20  1  0  0  0
 30 36  2  0  0  0
  7  8  1  0  0  0
  7  9  1  0  0  0
 22 24  1  0  0  0
 22 23  1  0  0  0
 11 12  1  0  0  0
 11 18  1  0  0  0
 24 27  1  0  0  0
  4 10  1  0  0  0
 51 52  1  0  0  0
 52 53  1  0  0  0
 53 54  1  0  0  0
 54 55  1  0  0  0
 55 56  1  0  0  0
 56 57  1  0  0  0
 57 58  1  0  0  0
 58 59  1  0  0  0
 59 60  1  0  0  0
 60 61  1  0  0  0
 61 62  1  0  0  0
 62 63  1  0  0  0
 63 64  1  0  0  0
 64 65  1  0  0  0
 31 32  1  0  0  0
 32 33  1  0  0  0
 33 34  1  0  0  0
 34 35  1  0  0  0
 35 36  1  0  0  0
  8 10  1  0  0  0
  9 17  1  0  0  0
 12 13  2  0  0  0
 12 17  1  0  0  0
 13 14  1  0  0  0
 14 15  2  0  0  0
 15 16  1  0  0  0
 16 17  2  0  0  0
M  END
> <minimizedAffinity>
-9.95484

> <CNNscore>
0.2877242267

> <CNNaffinity>
7.8662652969

> <CNN_VS>
2.2633152008

> <CNNaffinity_variance>
1.9127027988

$$$$
/media/chris/experiments/cd1a-new-docking/inputs/ligands/1xz0_ligand.pdb


 65 67  0  0  0  0  0  0  0  0999 V2000
  -41.6805   58.0373   62.8579 C   0  0  0  0  0  0  0  0  0  0  0  0
  -40.7942   58.4192   63.9590 N   0  0  0  0  0  0  0  0  0  0  0  0
  -40.6424   60.6775   63.7352 O   0  0  0  0  0  0  0  0  0  0  0  0
  -40.3528   59.6386   64.3138 C   0  0  0  0  0  0  0  0  0  0  0  0
  -40.4754   57.6759   64.5205 H   0  0  0  0  0  0  0  0  0  0  0  0
  -38.6110   61.0101   65.4386 N   0  0  0  0  0  0  0  0  0  0  0  0
  -36.9708   59.4968   65.5466 O   0  0  0  0  0  0  0  0  0  0  0  0
  -38.1612   58.7112   65.5012 C   0  0  0  0  0  0  0  0  0  0  0  0
  -37.3542   60.8851   65.4872 C   0  0  0  0  0  0  0  0  0  0  0  0
  -39.3369   59.7256   65.4436 C   0  0  0  0  0  0  0  0  0  0  0  0
  -37.0143   62.8601   63.3941 O   0  0  0  0  0  0  0  0  0  0  0  0
  -36.2668   62.9572   64.5002 C   0  0  0  0  0  0  0  0  0  0  0  0
  -35.3544   64.0126   64.6293 C   0  0  0  0  0  0  0  0  0  0  0  0
  -34.5516   64.1312   65.7762 C   0  0  0  0  0  0  0  0  0  0  0  0
  -34.6590   63.2013   66.8118 C   0  0  0  0  0  0  0  0  0  0  0  0
  -35.5723   62.1502   66.6906 C   0  0  0  0  0  0  0  0  0  0  0  0
  -36.3720   62.0237   65.5385 C   0  0  0  0  0  0  0  0  0  0  0  0
  -36.9267   63.4966   62.7121 H   0  0  0  0  0  0  0  0  0  0  0  0
  -41.7361   59.3122   60.8314 O   0  0  0  0  0  0  0  0  0  0  0  0
  -41.0773   58.6296   61.5985 C   0  0  0  0  0  0  0  0  0  0  0  0
  -39.6863   58.3285   61.2442 O   0  0  0  0  0  0  0  0  0  0  0  0
  -38.8371   59.3191   60.6347 C   0  0  0  0  0  0  0  0  0  0  0  0
  -38.0821   58.8339   59.4034 C   0  0  0  0  0  0  0  0  0  0  0  0
  -37.8799   59.8466   61.6930 C   0  0  0  0  0  0  0  0  0  0  0  0
  -35.5768   59.1717   62.1798 N   0  0  0  0  0  0  0  0  0  0  0  0
  -37.3095   57.7609   62.5305 O   0  0  0  0  0  0  0  0  0  0  0  0
  -36.8705   58.8202   62.1449 C   0  0  0  0  0  0  0  0  0  0  0  0
  -35.3354   60.0626   61.8374 H   0  0  0  0  0  0  0  0  0  0  0  0
  -33.6715   59.5834   64.6405 N   0  0  0  0  0  0  0  0  0  0  0  0
  -34.4526   57.4887   64.9006 O   0  0  0  0  0  0  0  0  0  0  0  0
  -33.5899   60.8577   63.9115 C   0  0  0  0  0  0  0  0  0  0  0  0
  -32.6023   60.7499   62.7344 C   0  0  0  0  0  0  0  0  0  0  0  0
  -32.0739   59.3523   62.4566 C   0  0  0  0  0  0  0  0  0  0  0  0
  -33.1536   58.3948   61.9454 C   0  0  0  0  0  0  0  0  0  0  0  0
  -34.4959   58.3222   62.6924 C   0  0  0  0  0  0  0  0  0  0  0  0
  -34.2141   58.4459   64.1770 C   0  0  0  0  0  0  0  0  0  0  0  0
  -32.7441   58.0028   66.6814 Si  0  0  0  0  0  0  0  0  0  0  0  0
  -33.1592   59.5574   65.9026 O   0  0  0  0  0  0  0  0  0  0  0  0
  -32.2330   58.2473   67.9834 H   0  0  0  0  0  0  0  0  0  0  0  0
  -31.7620   57.3320   65.9057 H   0  0  0  0  0  0  0  0  0  0  0  0
  -33.9078   57.1942   66.7738 H   0  0  0  0  0  0  0  0  0  0  0  0
  -43.5707   59.7402   63.5070 C   0  0  0  0  0  0  0  0  0  0  0  0
  -43.1906   58.3358   63.0221 C   0  0  0  0  0  0  0  0  0  0  0  0
  -44.9857   59.9168   64.0834 C   0  0  0  0  0  0  0  0  0  0  0  0
  -45.8465   58.6487   64.2575 C   0  0  0  0  0  0  0  0  0  0  0  0
  -45.9602   58.3633   65.6911 N   0  0  0  0  0  0  0  0  0  0  0  0
  -46.7624   58.9484   66.6195 C   0  0  0  0  0  0  0  0  0  0  0  0
  -45.1118   57.3396   66.1361 O   0  0  0  0  0  0  0  0  0  0  0  0
  -46.7402   58.5906   67.7969 O   0  0  0  0  0  0  0  0  0  0  0  0
  -45.2393   57.2050   67.0882 H   0  0  0  0  0  0  0  0  0  0  0  0
  -47.7115   60.0680   66.1797 C   0  0  0  0  0  0  0  0  0  0  0  0
  -49.1934   59.6697   66.1490 C   0  0  0  0  0  0  0  0  0  0  0  0
  -49.3626   58.3181   65.4286 C   0  0  0  0  0  0  0  0  0  0  0  0
  -50.4128   58.3489   64.3020 C   0  0  0  0  0  0  0  0  0  0  0  0
  -51.1745   59.6810   64.1715 C   0  0  0  0  0  0  0  0  0  0  0  0
  -51.1511   60.2479   62.7365 C   0  0  0  0  0  0  0  0  0  0  0  0
  -49.7518   60.2715   62.0786 C   0  0  0  0  0  0  0  0  0  0  0  0
  -49.7946   60.1641   60.5499 C   0  0  0  0  0  0  0  0  0  0  0  0
  -48.8495   59.1246   59.9390 C   0  0  0  0  0  0  0  0  0  0  0  0
  -48.9206   59.1368   58.4011 C   0  0  0  0  0  0  0  0  0  0  0  0
  -47.6776   58.5494   57.7156 C   0  0  0  0  0  0  0  0  0  0  0  0
  -47.9467   57.4779   56.6540 C   0  0  0  0  0  0  0  0  0  0  0  0
  -47.7636   56.0242   57.1568 C   0  0  0  0  0  0  0  0  0  0  0  0
  -47.2468   55.9896   58.6094 C   0  0  0  0  0  0  0  0  0  0  0  0
  -48.2807   55.7405   59.7141 C   0  0  0  0  0  0  0  0  0  0  0  0
 46 47  1  0  0  0
 46 48  1  0  0  0
 46 45  1  0  0  0
 47 49  2  0  0  0
 47 51  1  0  0  0
 19 20  2  0  0  0
 37 38  1  0  0  0
 37 39  1  0  0  0
 37 40  1  0  0  0
 37 41  1  0  0  0
 48 50  1  0  0  0
 38 29  1  0  0  0
 45 44  1  0  0  0
 25 27  1  0  0  0
 25 35  1  0  0  0
 25 28  1  0  0  0
 21 20  1  0  0  0
 21 22  1  0  0  0
 44 42  1  0  0  0
  2  1  1  0  0  0
  2  4  1  0  0  0
  2  5  1  0  0  0
 26 27  2  0  0  0
 42 43  2  0  0  0
 29 31  1  0  0  0
 29 36  1  0  0  0
  3  4  2  0  0  0
 43  1  1  0  0  0
  6  9  2  0  0  0
  6 10  1  0  0  0
  1 20  1  0  0  0
 30 36  2  0  0  0
  7  8  1  0  0  0
  7  9  1  0  0  0
 22 24  1  0  0  0
 22 23  1  0  0  0
 11 12  1  0  0  0
 11 18  1  0  0  0
 24 27  1  0  0  0
  4 10  1  0  0  0
 51 52  1  0  0  0
 52 53  1  0  0  0
 53 54  1  0  0  0
 54 55  1  0  0  0
 55 56  1  0  0  0
 56 57  1  0  0  0
 57 58  1  0  0  0
 58 59  1  0  0  0
 59 60  1  0  0  0
 60 61  1  0  0  0
 61 62  1  0  0  0
 62 63  1  0  0  0
 63 64  1  0  0  0
 64 65  1  0  0  0
 31 32  1  0  0  0
 32 33  1  0  0  0
 33 34  1  0  0  0
 34 35  1  0  0  0
 35 36  1  0  0  0
  8 10  1  0  0  0
  9 17  1  0  0  0
 12 13  2  0  0  0
 12 17  1  0  0  0
 13 14  1  0  0  0
 14 15  2  0  0  0
 15 16  1  0  0  0
 16 17  2  0  0  0
M  END
> <minimizedAffinity>
-9.74265

> <CNNscore>
0.2128177285

> <CNNaffinity>
7.6149644852

> <CNN_VS>
1.6205993891

> <CNNaffinity_variance>
0.5103015900

$$$$
/media/chris/experiments/cd1a-new-docking/inputs/ligands/1xz0_ligand.pdb


 65 67  0  0  0  0  0  0  0  0999 V2000
  -42.1462   58.7342   64.0476 C   0  0  0  0  0  0  0  0  0  0  0  0
  -40.9923   59.0403   64.8955 N   0  0  0  0  0  0  0  0  0  0  0  0
  -40.0660   60.8458   63.8683 O   0  0  0  0  0  0  0  0  0  0  0  0
  -40.0758   60.0155   64.7675 C   0  0  0  0  0  0  0  0  0  0  0  0
  -40.8701   58.4463   65.6711 H   0  0  0  0  0  0  0  0  0  0  0  0
  -38.0216   61.1865   65.5352 N   0  0  0  0  0  0  0  0  0  0  0  0
  -36.6034   59.4600   65.5501 O   0  0  0  0  0  0  0  0  0  0  0  0
  -37.8837   58.8551   65.7273 C   0  0  0  0  0  0  0  0  0  0  0  0
  -36.7994   60.8829   65.4275 C   0  0  0  0  0  0  0  0  0  0  0  0
  -38.9069   60.0244   65.7420 C   0  0  0  0  0  0  0  0  0  0  0  0
  -36.9568   63.6963   66.1033 O   0  0  0  0  0  0  0  0  0  0  0  0
  -35.8074   63.2131   65.6164 C   0  0  0  0  0  0  0  0  0  0  0  0
  -34.7078   64.0673   65.4601 C   0  0  0  0  0  0  0  0  0  0  0  0
  -33.4934   63.5866   64.9423 C   0  0  0  0  0  0  0  0  0  0  0  0
  -33.3615   62.2439   64.5841 C   0  0  0  0  0  0  0  0  0  0  0  0
  -34.4535   61.3863   64.7440 C   0  0  0  0  0  0  0  0  0  0  0  0
  -35.6746   61.8671   65.2545 C   0  0  0  0  0  0  0  0  0  0  0  0
  -37.0224   64.6009   66.3388 H   0  0  0  0  0  0  0  0  0  0  0  0
  -42.2225   56.6492   65.2233 O   0  0  0  0  0  0  0  0  0  0  0  0
  -42.8463   57.5514   64.6892 C   0  0  0  0  0  0  0  0  0  0  0  0
  -44.3069   57.4403   64.6158 O   0  0  0  0  0  0  0  0  0  0  0  0
  -45.1607   58.1870   65.5031 C   0  0  0  0  0  0  0  0  0  0  0  0
  -44.4335   59.2051   66.3727 C   0  0  0  0  0  0  0  0  0  0  0  0
  -45.9477   57.2012   66.3535 C   0  0  0  0  0  0  0  0  0  0  0  0
  -48.0014   58.0423   65.3185 N   0  0  0  0  0  0  0  0  0  0  0  0
  -47.8068   55.8774   65.9437 O   0  0  0  0  0  0  0  0  0  0  0  0
  -47.3637   57.0009   65.8727 C   0  0  0  0  0  0  0  0  0  0  0  0
  -47.5414   58.9127   65.3178 H   0  0  0  0  0  0  0  0  0  0  0  0
  -49.1556   59.5102   62.7950 N   0  0  0  0  0  0  0  0  0  0  0  0
  -49.6994   57.3512   62.4657 O   0  0  0  0  0  0  0  0  0  0  0  0
  -48.5419   60.5891   63.5833 C   0  0  0  0  0  0  0  0  0  0  0  0
  -49.4902   61.0513   64.7056 C   0  0  0  0  0  0  0  0  0  0  0  0
  -50.7411   60.2073   64.8867 C   0  0  0  0  0  0  0  0  0  0  0  0
  -50.4419   58.7959   65.3988 C   0  0  0  0  0  0  0  0  0  0  0  0
  -49.3363   57.9759   64.7130 C   0  0  0  0  0  0  0  0  0  0  0  0
  -49.3951   58.2609   63.2250 C   0  0  0  0  0  0  0  0  0  0  0  0
  -49.0805   58.6851   60.1802 Si  0  0  0  0  0  0  0  0  0  0  0  0
  -49.5035   59.8018   61.5106 O   0  0  0  0  0  0  0  0  0  0  0  0
  -49.5519   59.2146   58.9499 H   0  0  0  0  0  0  0  0  0  0  0  0
  -49.6836   57.4209   60.4135 H   0  0  0  0  0  0  0  0  0  0  0  0
  -47.6699   58.5328   60.1206 H   0  0  0  0  0  0  0  0  0  0  0  0
  -41.5176   57.1463   62.0533 C   0  0  0  0  0  0  0  0  0  0  0  0
  -41.8892   58.5552   62.5316 C   0  0  0  0  0  0  0  0  0  0  0  0
  -40.8474   57.0353   60.6733 C   0  0  0  0  0  0  0  0  0  0  0  0
  -40.8321   58.2971   59.7861 C   0  0  0  0  0  0  0  0  0  0  0  0
  -39.5013   58.4191   59.1830 N   0  0  0  0  0  0  0  0  0  0  0  0
  -38.4339   59.1475   59.6045 C   0  0  0  0  0  0  0  0  0  0  0  0
  -39.3375   57.6680   58.0105 O   0  0  0  0  0  0  0  0  0  0  0  0
  -37.3733   59.1435   58.9800 O   0  0  0  0  0  0  0  0  0  0  0  0
  -38.4391   57.7954   57.6679 H   0  0  0  0  0  0  0  0  0  0  0  0
  -38.5628   59.9798   60.8846 C   0  0  0  0  0  0  0  0  0  0  0  0
  -37.5561   59.6150   61.9841 C   0  0  0  0  0  0  0  0  0  0  0  0
  -37.7358   58.1416   62.3975 C   0  0  0  0  0  0  0  0  0  0  0  0
  -36.4284   57.4675   62.8554 C   0  0  0  0  0  0  0  0  0  0  0  0
  -35.1621   58.3203   62.6530 C   0  0  0  0  0  0  0  0  0  0  0  0
  -34.0031   57.9040   63.5826 C   0  0  0  0  0  0  0  0  0  0  0  0
  -32.6060   57.9359   62.9204 C   0  0  0  0  0  0  0  0  0  0  0  0
  -31.8850   59.2792   63.0818 C   0  0  0  0  0  0  0  0  0  0  0  0
  -31.9791   60.2225   61.8783 C   0  0  0  0  0  0  0  0  0  0  0  0
  -30.9278   61.3442   61.9610 C   0  0  0  0  0  0  0  0  0  0  0  0
  -31.0413   62.3878   60.8395 C   0  0  0  0  0  0  0  0  0  0  0  0
  -31.7864   63.6765   61.2022 C   0  0  0  0  0  0  0  0  0  0  0  0
  -33.3225   63.5122   61.3172 C   0  0  0  0  0  0  0  0  0  0  0  0
  -34.0317   64.8786   61.4083 C   0  0  0  0  0  0  0  0  0  0  0  0
  -35.5595   64.8667   61.5380 C   0  0  0  0  0  0  0  0  0  0  0  0
 46 47  1  0  0  0
 46 48  1  0  0  0
 46 45  1  0  0  0
 47 49  2  0  0  0
 47 51  1  0  0  0
 19 20  2  0  0  0
 37 38  1  0  0  0
 37 39  1  0  0  0
 37 40  1  0  0  0
 37 41  1  0  0  0
 48 50  1  0  0  0
 38 29  1  0  0  0
 45 44  1  0  0  0
 25 27  1  0  0  0
 25 35  1  0  0  0
 25 28  1  0  0  0
 21 20  1  0  0  0
 21 22  1  0  0  0
 44 42  1  0  0  0
  2  1  1  0  0  0
  2  4  1  0  0  0
  2  5  1  0  0  0
 26 27  2  0  0  0
 42 43  2  0  0  0
 29 31  1  0  0  0
 29 36  1  0  0  0
  3  4  2  0  0  0
 43  1  1  0  0  0
  6  9  2  0  0  0
  6 10  1  0  0  0
  1 20  1  0  0  0
 30 36  2  0  0  0
  7  8  1  0  0  0
  7  9  1  0  0  0
 22 24  1  0  0  0
 22 23  1  0  0  0
 11 12  1  0  0  0
 11 18  1  0  0  0
 24 27  1  0  0  0
  4 10  1  0  0  0
 51 52  1  0  0  0
 52 53  1  0  0  0
 53 54  1  0  0  0
 54 55  1  0  0  0
 55 56  1  0  0  0
 56 57  1  0  0  0
 57 58  1  0  0  0
 58 59  1  0  0  0
 59 60  1  0  0  0
 60 61  1  0  0  0
 61 62  1  0  0  0
 62 63  1  0  0  0
 63 64  1  0  0  0
 64 65  1  0  0  0
 31 32  1  0  0  0
 32 33  1  0  0  0
 33 34  1  0  0  0
 34 35  1  0  0  0
 35 36  1  0  0  0
  8 10  1  0  0  0
  9 17  1  0  0  0
 12 13  2  0  0  0
 12 17  1  0  0  0
 13 14  1  0  0  0
 14 15  2  0  0  0
 15 16  1  0  0  0
 16 17  2  0  0  0
M  END
> <minimizedAffinity>
-9.09283

> <CNNscore>
0.1959478259

> <CNNaffinity>
7.4409995079

> <CNN_VS>
1.4580476284

> <CNNaffinity_variance>
1.5930960178

$$$$
/media/chris/experiments/cd1a-new-docking/inputs/ligands/1xz0_ligand.pdb


 65 67  0  0  0  0  0  0  0  0999 V2000
  -41.0290   59.1511   64.0031 C   0  0  0  0  0  0  0  0  0  0  0  0
  -39.8035   58.6805   64.6517 N   0  0  0  0  0  0  0  0  0  0  0  0
  -38.9233   60.5859   65.5279 O   0  0  0  0  0  0  0  0  0  0  0  0
  -38.8787   59.3782   65.3338 C   0  0  0  0  0  0  0  0  0  0  0  0
  -39.6321   57.7139   64.5777 H   0  0  0  0  0  0  0  0  0  0  0  0
  -36.4048   59.1779   65.1931 N   0  0  0  0  0  0  0  0  0  0  0  0
  -36.2389   56.9809   64.8217 O   0  0  0  0  0  0  0  0  0  0  0  0
  -37.4829   57.1210   65.5066 C   0  0  0  0  0  0  0  0  0  0  0  0
  -35.6685   58.2957   64.6666 C   0  0  0  0  0  0  0  0  0  0  0  0
  -37.6346   58.6386   65.8042 C   0  0  0  0  0  0  0  0  0  0  0  0
  -35.2662   58.5733   61.8104 O   0  0  0  0  0  0  0  0  0  0  0  0
  -34.2115   58.6966   62.6255 C   0  0  0  0  0  0  0  0  0  0  0  0
  -32.9478   58.9713   62.0864 C   0  0  0  0  0  0  0  0  0  0  0  0
  -31.8236   59.0958   62.9197 C   0  0  0  0  0  0  0  0  0  0  0  0
  -31.9519   58.9570   64.3028 C   0  0  0  0  0  0  0  0  0  0  0  0
  -33.2115   58.6892   64.8461 C   0  0  0  0  0  0  0  0  0  0  0  0
  -34.3385   58.5551   64.0126 C   0  0  0  0  0  0  0  0  0  0  0  0
  -35.1572   58.6721   60.8850 H   0  0  0  0  0  0  0  0  0  0  0  0
  -40.7903   61.2825   62.9376 O   0  0  0  0  0  0  0  0  0  0  0  0
  -40.5920   60.0799   62.8863 C   0  0  0  0  0  0  0  0  0  0  0  0
  -39.9741   59.5265   61.6767 O   0  0  0  0  0  0  0  0  0  0  0  0
  -38.7515   60.0700   61.1441 C   0  0  0  0  0  0  0  0  0  0  0  0
  -38.2271   59.3531   59.9061 C   0  0  0  0  0  0  0  0  0  0  0  0
  -37.7100   60.0838   62.2529 C   0  0  0  0  0  0  0  0  0  0  0  0
  -35.9755   61.4980   63.2468 N   0  0  0  0  0  0  0  0  0  0  0  0
  -37.3188   62.2745   61.6013 O   0  0  0  0  0  0  0  0  0  0  0  0
  -36.9875   61.4030   62.3722 C   0  0  0  0  0  0  0  0  0  0  0  0
  -35.7972   60.7223   63.8262 H   0  0  0  0  0  0  0  0  0  0  0  0
  -33.9457   62.2392   65.5239 N   0  0  0  0  0  0  0  0  0  0  0  0
  -32.7696   62.5354   63.6280 O   0  0  0  0  0  0  0  0  0  0  0  0
  -35.1748   61.8811   66.2471 C   0  0  0  0  0  0  0  0  0  0  0  0
  -36.1576   63.0669   66.2719 C   0  0  0  0  0  0  0  0  0  0  0  0
  -35.7583   64.2586   65.4174 C   0  0  0  0  0  0  0  0  0  0  0  0
  -35.7922   63.9573   63.9168 C   0  0  0  0  0  0  0  0  0  0  0  0
  -35.1150   62.6765   63.4011 C   0  0  0  0  0  0  0  0  0  0  0  0
  -33.8467   62.4605   64.2032 C   0  0  0  0  0  0  0  0  0  0  0  0
  -32.8813   62.6750   68.0141 Si  0  0  0  0  0  0  0  0  0  0  0  0
  -32.8034   62.3467   66.2585 O   0  0  0  0  0  0  0  0  0  0  0  0
  -31.5649   62.7396   68.5424 H   0  0  0  0  0  0  0  0  0  0  0  0
  -33.5996   61.6336   68.6590 H   0  0  0  0  0  0  0  0  0  0  0  0
  -33.5414   63.9127   68.2352 H   0  0  0  0  0  0  0  0  0  0  0  0
  -42.9060   58.7661   65.7982 C   0  0  0  0  0  0  0  0  0  0  0  0
  -42.1317   59.7482   64.9106 C   0  0  0  0  0  0  0  0  0  0  0  0
  -44.2542   59.2503   66.3583 C   0  0  0  0  0  0  0  0  0  0  0  0
  -45.4942   58.3743   66.0849 C   0  0  0  0  0  0  0  0  0  0  0  0
  -46.6633   59.0363   66.6718 N   0  0  0  0  0  0  0  0  0  0  0  0
  -47.6425   59.7496   66.0553 C   0  0  0  0  0  0  0  0  0  0  0  0
  -46.7573   58.8954   68.0637 O   0  0  0  0  0  0  0  0  0  0  0  0
  -48.5679   60.2472   66.6963 O   0  0  0  0  0  0  0  0  0  0  0  0
  -47.5496   59.3554   68.3823 H   0  0  0  0  0  0  0  0  0  0  0  0
  -47.5862   59.9256   64.5342 C   0  0  0  0  0  0  0  0  0  0  0  0
  -48.0761   58.7104   63.7351 C   0  0  0  0  0  0  0  0  0  0  0  0
  -49.2233   58.0099   64.4885 C   0  0  0  0  0  0  0  0  0  0  0  0
  -50.6196   58.3420   63.9290 C   0  0  0  0  0  0  0  0  0  0  0  0
  -51.1752   59.7114   64.3625 C   0  0  0  0  0  0  0  0  0  0  0  0
  -51.1757   60.7482   63.2197 C   0  0  0  0  0  0  0  0  0  0  0  0
  -51.0314   60.1429   61.8039 C   0  0  0  0  0  0  0  0  0  0  0  0
  -49.7104   60.5069   61.1166 C   0  0  0  0  0  0  0  0  0  0  0  0
  -49.2894   59.5793   59.9723 C   0  0  0  0  0  0  0  0  0  0  0  0
  -50.1310   58.2903   59.9563 C   0  0  0  0  0  0  0  0  0  0  0  0
  -49.3566   57.0357   60.3878 C   0  0  0  0  0  0  0  0  0  0  0  0
  -47.9425   56.8964   59.8148 C   0  0  0  0  0  0  0  0  0  0  0  0
  -47.8927   56.3251   58.3757 C   0  0  0  0  0  0  0  0  0  0  0  0
  -46.9962   57.1814   57.4585 C   0  0  0  0  0  0  0  0  0  0  0  0
  -47.6968   58.0378   56.3969 C   0  0  0  0  0  0  0  0  0  0  0  0
 46 47  1  0  0  0
 46 48  1  0  0  0
 46 45  1  0  0  0
 47 49  2  0  0  0
 47 51  1  0  0  0
 19 20  2  0  0  0
 37 38  1  0  0  0
 37 39  1  0  0  0
 37 40  1  0  0  0
 37 41  1  0  0  0
 48 50  1  0  0  0
 38 29  1  0  0  0
 45 44  1  0  0  0
 25 27  1  0  0  0
 25 35  1  0  0  0
 25 28  1  0  0  0
 21 20  1  0  0  0
 21 22  1  0  0  0
 44 42  1  0  0  0
  2  1  1  0  0  0
  2  4  1  0  0  0
  2  5  1  0  0  0
 26 27  2  0  0  0
 42 43  2  0  0  0
 29 31  1  0  0  0
 29 36  1  0  0  0
  3  4  2  0  0  0
 43  1  1  0  0  0
  6  9  2  0  0  0
  6 10  1  0  0  0
  1 20  1  0  0  0
 30 36  2  0  0  0
  7  8  1  0  0  0
  7  9  1  0  0  0
 22 24  1  0  0  0
 22 23  1  0  0  0
 11 12  1  0  0  0
 11 18  1  0  0  0
 24 27  1  0  0  0
  4 10  1  0  0  0
 51 52  1  0  0  0
 52 53  1  0  0  0
 53 54  1  0  0  0
 54 55  1  0  0  0
 55 56  1  0  0  0
 56 57  1  0  0  0
 57 58  1  0  0  0
 58 59  1  0  0  0
 59 60  1  0  0  0
 60 61  1  0  0  0
 61 62  1  0  0  0
 62 63  1  0  0  0
 63 64  1  0  0  0
 64 65  1  0  0  0
 31 32  1  0  0  0
 32 33  1  0  0  0
 33 34  1  0  0  0
 34 35  1  0  0  0
 35 36  1  0  0  0
  8 10  1  0  0  0
  9 17  1  0  0  0
 12 13  2  0  0  0
 12 17  1  0  0  0
 13 14  1  0  0  0
 14 15  2  0  0  0
 15 16  1  0  0  0
 16 17  2  0  0  0
M  END
> <minimizedAffinity>
-9.37559

> <CNNscore>
0.1919690669

> <CNNaffinity>
7.3542814255

> <CNN_VS>
1.4117945433

> <CNNaffinity_variance>
0.3870181441

$$$$
/media/chris/experiments/cd1a-new-docking/inputs/ligands/1xz0_ligand.pdb


 65 67  0  0  0  0  0  0  0  0999 V2000
  -42.1347   59.4541   62.1888 C   0  0  0  0  0  0  0  0  0  0  0  0
  -40.8383   59.0334   61.6536 N   0  0  0  0  0  0  0  0  0  0  0  0
  -41.3931   58.0538   59.6774 O   0  0  0  0  0  0  0  0  0  0  0  0
  -40.5573   58.3980   60.5026 C   0  0  0  0  0  0  0  0  0  0  0  0
  -40.0602   59.2465   62.2180 H   0  0  0  0  0  0  0  0  0  0  0  0
  -38.4349   57.5745   61.5014 N   0  0  0  0  0  0  0  0  0  0  0  0
  -37.0140   59.0419   60.5958 O   0  0  0  0  0  0  0  0  0  0  0  0
  -38.1038   59.0053   59.6753 C   0  0  0  0  0  0  0  0  0  0  0  0
  -37.3219   58.1456   61.6821 C   0  0  0  0  0  0  0  0  0  0  0  0
  -39.1153   57.9786   60.2561 C   0  0  0  0  0  0  0  0  0  0  0  0
  -34.4774   58.6986   61.6673 O   0  0  0  0  0  0  0  0  0  0  0  0
  -35.0314   58.1970   62.7778 C   0  0  0  0  0  0  0  0  0  0  0  0
  -34.2339   57.9669   63.9066 C   0  0  0  0  0  0  0  0  0  0  0  0
  -34.7895   57.4323   65.0812 C   0  0  0  0  0  0  0  0  0  0  0  0
  -36.1511   57.1310   65.1437 C   0  0  0  0  0  0  0  0  0  0  0  0
  -36.9522   57.3647   64.0225 C   0  0  0  0  0  0  0  0  0  0  0  0
  -36.3965   57.8921   62.8410 C   0  0  0  0  0  0  0  0  0  0  0  0
  -33.5615   58.8950   61.6482 H   0  0  0  0  0  0  0  0  0  0  0  0
  -42.5668   61.7736   62.5991 O   0  0  0  0  0  0  0  0  0  0  0  0
  -41.9022   60.7879   62.8729 C   0  0  0  0  0  0  0  0  0  0  0  0
  -40.8106   60.9305   63.8420 O   0  0  0  0  0  0  0  0  0  0  0  0
  -39.6276   60.1131   63.7638 C   0  0  0  0  0  0  0  0  0  0  0  0
  -39.3063   59.3418   65.0379 C   0  0  0  0  0  0  0  0  0  0  0  0
  -38.4610   60.9966   63.3480 C   0  0  0  0  0  0  0  0  0  0  0  0
  -36.1450   61.2290   64.1086 N   0  0  0  0  0  0  0  0  0  0  0  0
  -37.8746   61.3835   65.5578 O   0  0  0  0  0  0  0  0  0  0  0  0
  -37.4427   61.1901   64.4444 C   0  0  0  0  0  0  0  0  0  0  0  0
  -35.9103   61.0549   63.1684 H   0  0  0  0  0  0  0  0  0  0  0  0
  -34.4233   63.8273   64.4819 N   0  0  0  0  0  0  0  0  0  0  0  0
  -35.0957   63.3149   66.5677 O   0  0  0  0  0  0  0  0  0  0  0  0
  -34.3709   63.5718   63.0348 C   0  0  0  0  0  0  0  0  0  0  0  0
  -33.3076   62.5066   62.7075 C   0  0  0  0  0  0  0  0  0  0  0  0
  -32.6825   61.8223   63.9120 C   0  0  0  0  0  0  0  0  0  0  0  0
  -33.6708   60.9395   64.6786 C   0  0  0  0  0  0  0  0  0  0  0  0
  -35.0503   61.5128   65.0435 C   0  0  0  0  0  0  0  0  0  0  0  0
  -34.8689   62.9714   65.4156 C   0  0  0  0  0  0  0  0  0  0  0  0
  -33.9504   65.4288   66.6580 Si  0  0  0  0  0  0  0  0  0  0  0  0
  -33.9897   65.0449   64.9124 O   0  0  0  0  0  0  0  0  0  0  0  0
  -33.4628   66.7497   66.8412 H   0  0  0  0  0  0  0  0  0  0  0  0
  -33.0957   64.5119   67.3252 H   0  0  0  0  0  0  0  0  0  0  0  0
  -35.2617   65.3296   67.1939 H   0  0  0  0  0  0  0  0  0  0  0  0
  -42.5859   58.4197   64.5595 C   0  0  0  0  0  0  0  0  0  0  0  0
  -42.9100   58.4367   63.0606 C   0  0  0  0  0  0  0  0  0  0  0  0
  -43.0008   57.1645   65.3457 C   0  0  0  0  0  0  0  0  0  0  0  0
  -44.5099   56.8732   65.4765 C   0  0  0  0  0  0  0  0  0  0  0  0
  -45.1012   57.8927   66.3486 N   0  0  0  0  0  0  0  0  0  0  0  0
  -46.3998   58.0568   66.7155 C   0  0  0  0  0  0  0  0  0  0  0  0
  -44.1733   58.8109   66.8602 O   0  0  0  0  0  0  0  0  0  0  0  0
  -46.7393   58.9729   67.4640 O   0  0  0  0  0  0  0  0  0  0  0  0
  -44.6314   59.4525   67.4252 H   0  0  0  0  0  0  0  0  0  0  0  0
  -47.4498   57.0742   66.1866 C   0  0  0  0  0  0  0  0  0  0  0  0
  -48.5291   57.7125   65.3016 C   0  0  0  0  0  0  0  0  0  0  0  0
  -47.9196   58.8542   64.4652 C   0  0  0  0  0  0  0  0  0  0  0  0
  -48.5151   60.2380   64.7872 C   0  0  0  0  0  0  0  0  0  0  0  0
  -49.7260   60.2096   65.7385 C   0  0  0  0  0  0  0  0  0  0  0  0
  -51.0723   60.0963   64.9932 C   0  0  0  0  0  0  0  0  0  0  0  0
  -51.1776   60.9702   63.7217 C   0  0  0  0  0  0  0  0  0  0  0  0
  -51.1402   60.1607   62.4203 C   0  0  0  0  0  0  0  0  0  0  0  0
  -51.1770   58.6390   62.5935 C   0  0  0  0  0  0  0  0  0  0  0  0
  -50.2210   57.9390   61.6104 C   0  0  0  0  0  0  0  0  0  0  0  0
  -49.3354   58.9049   60.8088 C   0  0  0  0  0  0  0  0  0  0  0  0
  -48.7859   58.3617   59.4857 C   0  0  0  0  0  0  0  0  0  0  0  0
  -47.8715   57.1206   59.6385 C   0  0  0  0  0  0  0  0  0  0  0  0
  -47.5107   56.5124   58.2680 C   0  0  0  0  0  0  0  0  0  0  0  0
  -48.0030   57.2564   57.0208 C   0  0  0  0  0  0  0  0  0  0  0  0
 46 47  1  0  0  0
 46 48  1  0  0  0
 46 45  1  0  0  0
 47 49  2  0  0  0
 47 51  1  0  0  0
 19 20  2  0  0  0
 37 38  1  0  0  0
 37 39  1  0  0  0
 37 40  1  0  0  0
 37 41  1  0  0  0
 48 50  1  0  0  0
 38 29  1  0  0  0
 45 44  1  0  0  0
 25 27  1  0  0  0
 25 35  1  0  0  0
 25 28  1  0  0  0
 21 20  1  0  0  0
 21 22  1  0  0  0
 44 42  1  0  0  0
  2  1  1  0  0  0
  2  4  1  0  0  0
  2  5  1  0  0  0
 26 27  2  0  0  0
 42 43  2  0  0  0
 29 31  1  0  0  0
 29 36  1  0  0  0
  3  4  2  0  0  0
 43  1  1  0  0  0
  6  9  2  0  0  0
  6 10  1  0  0  0
  1 20  1  0  0  0
 30 36  2  0  0  0
  7  8  1  0  0  0
  7  9  1  0  0  0
 22 24  1  0  0  0
 22 23  1  0  0  0
 11 12  1  0  0  0
 11 18  1  0  0  0
 24 27  1  0  0  0
  4 10  1  0  0  0
 51 52  1  0  0  0
 52 53  1  0  0  0
 53 54  1  0  0  0
 54 55  1  0  0  0
 55 56  1  0  0  0
 56 57  1  0  0  0
 57 58  1  0  0  0
 58 59  1  0  0  0
 59 60  1  0  0  0
 60 61  1  0  0  0
 61 62  1  0  0  0
 62 63  1  0  0  0
 63 64  1  0  0  0
 64 65  1  0  0  0
 31 32  1  0  0  0
 32 33  1  0  0  0
 33 34  1  0  0  0
 34 35  1  0  0  0
 35 36  1  0  0  0
  8 10  1  0  0  0
  9 17  1  0  0  0
 12 13  2  0  0  0
 12 17  1  0  0  0
 13 14  1  0  0  0
 14 15  2  0  0  0
 15 16  1  0  0  0
 16 17  2  0  0  0
M  END
> <minimizedAffinity>
-9.46683

> <CNNscore>
0.1823263019

> <CNNaffinity>
7.5214376450

> <CNN_VS>
1.3713558912

> <CNNaffinity_variance>
0.7147522569

$$$$
/media/chris/experiments/cd1a-new-docking/inputs/ligands/1xz0_ligand.pdb


 65 67  0  0  0  0  0  0  0  0999 V2000
  -42.2170   59.4730   62.3634 C   0  0  0  0  0  0  0  0  0  0  0  0
  -41.1637   58.5112   62.6946 N   0  0  0  0  0  0  0  0  0  0  0  0
  -40.4857   59.1841   64.7586 O   0  0  0  0  0  0  0  0  0  0  0  0
  -40.4057   58.4253   63.8016 C   0  0  0  0  0  0  0  0  0  0  0  0
  -40.9849   57.8290   62.0075 H   0  0  0  0  0  0  0  0  0  0  0  0
  -38.0199   57.9430   64.3068 N   0  0  0  0  0  0  0  0  0  0  0  0
  -37.4445   56.9235   62.4036 O   0  0  0  0  0  0  0  0  0  0  0  0
  -38.8514   56.7043   62.4997 C   0  0  0  0  0  0  0  0  0  0  0  0
  -37.0390   57.7024   63.5468 C   0  0  0  0  0  0  0  0  0  0  0  0
  -39.2969   57.3832   63.8245 C   0  0  0  0  0  0  0  0  0  0  0  0
  -36.2472   59.7833   65.4016 O   0  0  0  0  0  0  0  0  0  0  0  0
  -35.2965   59.1170   64.7353 C   0  0  0  0  0  0  0  0  0  0  0  0
  -33.9482   59.4258   64.9588 C   0  0  0  0  0  0  0  0  0  0  0  0
  -32.9320   58.7475   64.2651 C   0  0  0  0  0  0  0  0  0  0  0  0
  -33.2520   57.7457   63.3471 C   0  0  0  0  0  0  0  0  0  0  0  0
  -34.5952   57.4295   63.1253 C   0  0  0  0  0  0  0  0  0  0  0  0
  -35.6163   58.1136   63.8126 C   0  0  0  0  0  0  0  0  0  0  0  0
  -36.0094   60.4510   66.0144 H   0  0  0  0  0  0  0  0  0  0  0  0
  -42.1259   61.2125   60.7199 O   0  0  0  0  0  0  0  0  0  0  0  0
  -41.5445   60.5967   61.5980 C   0  0  0  0  0  0  0  0  0  0  0  0
  -40.1382   60.9194   61.8613 O   0  0  0  0  0  0  0  0  0  0  0  0
  -39.1048   60.5962   60.9118 C   0  0  0  0  0  0  0  0  0  0  0  0
  -39.4373   59.4322   59.9866 C   0  0  0  0  0  0  0  0  0  0  0  0
  -37.8149   60.3386   61.6762 C   0  0  0  0  0  0  0  0  0  0  0  0
  -36.6330   62.3825   62.3260 N   0  0  0  0  0  0  0  0  0  0  0  0
  -38.1078   61.3882   63.7230 O   0  0  0  0  0  0  0  0  0  0  0  0
  -37.4946   61.4180   62.6806 C   0  0  0  0  0  0  0  0  0  0  0  0
  -36.1906   62.3013   61.4503 H   0  0  0  0  0  0  0  0  0  0  0  0
  -34.3561   64.5180   61.9950 N   0  0  0  0  0  0  0  0  0  0  0  0
  -36.2173   65.7478   62.2933 O   0  0  0  0  0  0  0  0  0  0  0  0
  -33.6549   63.2309   61.8785 C   0  0  0  0  0  0  0  0  0  0  0  0
  -33.3641   62.6406   63.2711 C   0  0  0  0  0  0  0  0  0  0  0  0
  -34.0003   63.3815   64.4356 C   0  0  0  0  0  0  0  0  0  0  0  0
  -35.5275   63.2751   64.4500 C   0  0  0  0  0  0  0  0  0  0  0  0
  -36.3034   63.5502   63.1510 C   0  0  0  0  0  0  0  0  0  0  0  0
  -35.6159   64.6908   62.4263 C   0  0  0  0  0  0  0  0  0  0  0  0
  -32.5594   65.5913   60.2219 Si  0  0  0  0  0  0  0  0  0  0  0  0
  -33.6689   65.6340   61.6230 O   0  0  0  0  0  0  0  0  0  0  0  0
  -31.9714   66.8716   60.0447 H   0  0  0  0  0  0  0  0  0  0  0  0
  -33.2855   65.2381   59.0538 H   0  0  0  0  0  0  0  0  0  0  0  0
  -31.5402   64.6303   60.4544 H   0  0  0  0  0  0  0  0  0  0  0  0
  -44.5352   59.3728   63.5921 C   0  0  0  0  0  0  0  0  0  0  0  0
  -43.1223   59.9646   63.5188 C   0  0  0  0  0  0  0  0  0  0  0  0
  -45.5683   60.1432   64.4317 C   0  0  0  0  0  0  0  0  0  0  0  0
  -47.0132   60.2103   63.8958 C   0  0  0  0  0  0  0  0  0  0  0  0
  -47.9059   60.5183   65.0174 N   0  0  0  0  0  0  0  0  0  0  0  0
  -48.0396   59.8743   66.2070 C   0  0  0  0  0  0  0  0  0  0  0  0
  -48.7218   61.6384   64.8036 O   0  0  0  0  0  0  0  0  0  0  0  0
  -48.8431   60.2625   67.0546 O   0  0  0  0  0  0  0  0  0  0  0  0
  -49.2829   61.7828   65.5815 H   0  0  0  0  0  0  0  0  0  0  0  0
  -47.1649   58.6484   66.4891 C   0  0  0  0  0  0  0  0  0  0  0  0
  -47.8469   57.3025   66.2079 C   0  0  0  0  0  0  0  0  0  0  0  0
  -48.5739   57.3518   64.8502 C   0  0  0  0  0  0  0  0  0  0  0  0
  -50.0603   57.7405   64.9623 C   0  0  0  0  0  0  0  0  0  0  0  0
  -50.7117   58.1740   63.6358 C   0  0  0  0  0  0  0  0  0  0  0  0
  -51.1740   59.6461   63.6469 C   0  0  0  0  0  0  0  0  0  0  0  0
  -50.9601   60.3962   62.3116 C   0  0  0  0  0  0  0  0  0  0  0  0
  -49.5939   60.1244   61.6713 C   0  0  0  0  0  0  0  0  0  0  0  0
  -49.6353   59.6450   60.2169 C   0  0  0  0  0  0  0  0  0  0  0  0
  -50.3033   58.2628   60.1004 C   0  0  0  0  0  0  0  0  0  0  0  0
  -49.3108   57.1050   59.9152 C   0  0  0  0  0  0  0  0  0  0  0  0
  -48.0258   57.4453   59.1533 C   0  0  0  0  0  0  0  0  0  0  0  0
  -47.4504   56.2723   58.3210 C   0  0  0  0  0  0  0  0  0  0  0  0
  -47.2424   56.6742   56.8467 C   0  0  0  0  0  0  0  0  0  0  0  0
  -47.2196   58.1737   56.5267 C   0  0  0  0  0  0  0  0  0  0  0  0
 46 47  1  0  0  0
 46 48  1  0  0  0
 46 45  1  0  0  0
 47 49  2  0  0  0
 47 51  1  0  0  0
 19 20  2  0  0  0
 37 38  1  0  0  0
 37 39  1  0  0  0
 37 40  1  0  0  0
 37 41  1  0  0  0
 48 50  1  0  0  0
 38 29  1  0  0  0
 45 44  1  0  0  0
 25 27  1  0  0  0
 25 35  1  0  0  0
 25 28  1  0  0  0
 21 20  1  0  0  0
 21 22  1  0  0  0
 44 42  1  0  0  0
  2  1  1  0  0  0
  2  4  1  0  0  0
  2  5  1  0  0  0
 26 27  2  0  0  0
 42 43  2  0  0  0
 29 31  1  0  0  0
 29 36  1  0  0  0
  3  4  2  0  0  0
 43  1  1  0  0  0
  6  9  2  0  0  0
  6 10  1  0  0  0
  1 20  1  0  0  0
 30 36  2  0  0  0
  7  8  1  0  0  0
  7  9  1  0  0  0
 22 24  1  0  0  0
 22 23  1  0  0  0
 11 12  1  0  0  0
 11 18  1  0  0  0
 24 27  1  0  0  0
  4 10  1  0  0  0
 51 52  1  0  0  0
 52 53  1  0  0  0
 53 54  1  0  0  0
 54 55  1  0  0  0
 55 56  1  0  0  0
 56 57  1  0  0  0
 57 58  1  0  0  0
 58 59  1  0  0  0
 59 60  1  0  0  0
 60 61  1  0  0  0
 61 62  1  0  0  0
 62 63  1  0  0  0
 63 64  1  0  0  0
 64 65  1  0  0  0
 31 32  1  0  0  0
 32 33  1  0  0  0
 33 34  1  0  0  0
 34 35  1  0  0  0
 35 36  1  0  0  0
  8 10  1  0  0  0
  9 17  1  0  0  0
 12 13  2  0  0  0
 12 17  1  0  0  0
 13 14  1  0  0  0
 14 15  2  0  0  0
 15 16  1  0  0  0
 16 17  2  0  0  0
M  END
> <minimizedAffinity>
-9.16214

> <CNNscore>
0.1658246517

> <CNNaffinity>
7.2950797081

> <CNN_VS>
1.2097040415

> <CNNaffinity_variance>
0.3051772416

$$$$
/media/chris/experiments/cd1a-new-docking/inputs/ligands/1xz0_ligand.pdb


 65 67  0  0  0  0  0  0  0  0999 V2000
  -40.8832   59.0409   64.1168 C   0  0  0  0  0  0  0  0  0  0  0  0
  -39.6301   58.6115   64.7408 N   0  0  0  0  0  0  0  0  0  0  0  0
  -38.8007   60.5438   65.6077 O   0  0  0  0  0  0  0  0  0  0  0  0
  -38.7176   59.3390   65.4083 C   0  0  0  0  0  0  0  0  0  0  0  0
  -39.4264   57.6516   64.6599 H   0  0  0  0  0  0  0  0  0  0  0  0
  -36.2493   59.1740   65.1627 N   0  0  0  0  0  0  0  0  0  0  0  0
  -36.0592   56.9657   64.8802 O   0  0  0  0  0  0  0  0  0  0  0  0
  -37.2734   57.1153   65.6149 C   0  0  0  0  0  0  0  0  0  0  0  0
  -35.5212   58.2817   64.6418 C   0  0  0  0  0  0  0  0  0  0  0  0
  -37.4399   58.6419   65.8527 C   0  0  0  0  0  0  0  0  0  0  0  0
  -32.9013   58.2079   65.8779 O   0  0  0  0  0  0  0  0  0  0  0  0
  -32.9894   58.4671   64.5675 C   0  0  0  0  0  0  0  0  0  0  0  0
  -31.8214   58.6795   63.8234 C   0  0  0  0  0  0  0  0  0  0  0  0
  -31.8877   58.9625   62.4488 C   0  0  0  0  0  0  0  0  0  0  0  0
  -33.1223   59.0266   61.8004 C   0  0  0  0  0  0  0  0  0  0  0  0
  -34.2900   58.8092   62.5371 C   0  0  0  0  0  0  0  0  0  0  0  0
  -34.2272   58.5340   63.9166 C   0  0  0  0  0  0  0  0  0  0  0  0
  -32.0618   58.1680   66.2921 H   0  0  0  0  0  0  0  0  0  0  0  0
  -40.8989   61.0931   62.8825 O   0  0  0  0  0  0  0  0  0  0  0  0
  -40.4974   59.9437   62.9605 C   0  0  0  0  0  0  0  0  0  0  0  0
  -39.6763   59.4166   61.8656 O   0  0  0  0  0  0  0  0  0  0  0  0
  -38.6075   60.1916   61.2903 C   0  0  0  0  0  0  0  0  0  0  0  0
  -38.0895   59.6639   59.9581 C   0  0  0  0  0  0  0  0  0  0  0  0
  -37.4861   60.2950   62.3132 C   0  0  0  0  0  0  0  0  0  0  0  0
  -36.7416   62.0041   63.9010 N   0  0  0  0  0  0  0  0  0  0  0  0
  -37.0974   62.5038   61.7240 O   0  0  0  0  0  0  0  0  0  0  0  0
  -37.1147   61.7193   62.6448 C   0  0  0  0  0  0  0  0  0  0  0  0
  -36.7982   61.2836   64.5696 H   0  0  0  0  0  0  0  0  0  0  0  0
  -33.8214   63.1515   64.0056 N   0  0  0  0  0  0  0  0  0  0  0  0
  -35.0027   64.7618   62.9679 O   0  0  0  0  0  0  0  0  0  0  0  0
  -33.7114   61.8409   64.6631 C   0  0  0  0  0  0  0  0  0  0  0  0
  -34.1616   61.9293   66.1335 C   0  0  0  0  0  0  0  0  0  0  0  0
  -34.7831   63.2543   66.5432 C   0  0  0  0  0  0  0  0  0  0  0  0
  -36.1323   63.5165   65.8687 C   0  0  0  0  0  0  0  0  0  0  0  0
  -36.2547   63.3137   64.3492 C   0  0  0  0  0  0  0  0  0  0  0  0
  -34.9656   63.7877   63.7071 C   0  0  0  0  0  0  0  0  0  0  0  0
  -32.6544   65.4956   63.1889 Si  0  0  0  0  0  0  0  0  0  0  0  0
  -32.6584   63.7711   63.6600 O   0  0  0  0  0  0  0  0  0  0  0  0
  -31.3287   65.8982   62.8779 H   0  0  0  0  0  0  0  0  0  0  0  0
  -33.1477   66.2812   64.2640 H   0  0  0  0  0  0  0  0  0  0  0  0
  -33.4836   65.6771   62.0505 H   0  0  0  0  0  0  0  0  0  0  0  0
  -42.9131   58.6584   65.7376 C   0  0  0  0  0  0  0  0  0  0  0  0
  -41.9688   59.6451   65.0401 C   0  0  0  0  0  0  0  0  0  0  0  0
  -44.2309   59.2290   66.2884 C   0  0  0  0  0  0  0  0  0  0  0  0
  -45.5237   58.4377   66.0023 C   0  0  0  0  0  0  0  0  0  0  0  0
  -46.6387   59.1242   66.6619 N   0  0  0  0  0  0  0  0  0  0  0  0
  -47.6469   59.8479   66.1073 C   0  0  0  0  0  0  0  0  0  0  0  0
  -46.6381   58.9978   68.0583 O   0  0  0  0  0  0  0  0  0  0  0  0
  -48.5175   60.3667   66.8057 O   0  0  0  0  0  0  0  0  0  0  0  0
  -47.3990   59.4737   68.4263 H   0  0  0  0  0  0  0  0  0  0  0  0
  -47.6935   60.0089   64.5843 C   0  0  0  0  0  0  0  0  0  0  0  0
  -48.1320   58.7493   63.8250 C   0  0  0  0  0  0  0  0  0  0  0  0
  -49.2724   58.0445   64.5847 C   0  0  0  0  0  0  0  0  0  0  0  0
  -50.6752   58.4029   64.0588 C   0  0  0  0  0  0  0  0  0  0  0  0
  -51.1743   59.8021   64.4652 C   0  0  0  0  0  0  0  0  0  0  0  0
  -51.1772   60.8029   63.2907 C   0  0  0  0  0  0  0  0  0  0  0  0
  -51.0406   60.1537   61.8939 C   0  0  0  0  0  0  0  0  0  0  0  0
  -49.7168   60.4836   61.1946 C   0  0  0  0  0  0  0  0  0  0  0  0
  -49.3649   59.5893   60.0016 C   0  0  0  0  0  0  0  0  0  0  0  0
  -50.1431   58.2616   60.0467 C   0  0  0  0  0  0  0  0  0  0  0  0
  -49.3663   57.1063   60.6960 C   0  0  0  0  0  0  0  0  0  0  0  0
  -48.6740   56.1421   59.7271 C   0  0  0  0  0  0  0  0  0  0  0  0
  -47.4302   56.7355   59.0195 C   0  0  0  0  0  0  0  0  0  0  0  0
  -47.6828   56.9430   57.5124 C   0  0  0  0  0  0  0  0  0  0  0  0
  -47.2811   58.2971   56.9155 C   0  0  0  0  0  0  0  0  0  0  0  0
 46 47  1  0  0  0
 46 48  1  0  0  0
 46 45  1  0  0  0
 47 49  2  0  0  0
 47 51  1  0  0  0
 19 20  2  0  0  0
 37 38  1  0  0  0
 37 39  1  0  0  0
 37 40  1  0  0  0
 37 41  1  0  0  0
 48 50  1  0  0  0
 38 29  1  0  0  0
 45 44  1  0  0  0
 25 27  1  0  0  0
 25 35  1  0  0  0
 25 28  1  0  0  0
 21 20  1  0  0  0
 21 22  1  0  0  0
 44 42  1  0  0  0
  2  1  1  0  0  0
  2  4  1  0  0  0
  2  5  1  0  0  0
 26 27  2  0  0  0
 42 43  2  0  0  0
 29 31  1  0  0  0
 29 36  1  0  0  0
  3  4  2  0  0  0
 43  1  1  0  0  0
  6  9  2  0  0  0
  6 10  1  0  0  0
  1 20  1  0  0  0
 30 36  2  0  0  0
  7  8  1  0  0  0
  7  9  1  0  0  0
 22 24  1  0  0  0
 22 23  1  0  0  0
 11 12  1  0  0  0
 11 18  1  0  0  0
 24 27  1  0  0  0
  4 10  1  0  0  0
 51 52  1  0  0  0
 52 53  1  0  0  0
 53 54  1  0  0  0
 54 55  1  0  0  0
 55 56  1  0  0  0
 56 57  1  0  0  0
 57 58  1  0  0  0
 58 59  1  0  0  0
 59 60  1  0  0  0
 60 61  1  0  0  0
 61 62  1  0  0  0
 62 63  1  0  0  0
 63 64  1  0  0  0
 64 65  1  0  0  0
 31 32  1  0  0  0
 32 33  1  0  0  0
 33 34  1  0  0  0
 34 35  1  0  0  0
 35 36  1  0  0  0
  8 10  1  0  0  0
  9 17  1  0  0  0
 12 13  2  0  0  0
 12 17  1  0  0  0
 13 14  1  0  0  0
 14 15  2  0  0  0
 15 16  1  0  0  0
 16 17  2  0  0  0
M  END
> <minimizedAffinity>
-9.60701

> <CNNscore>
0.1538485587

> <CNNaffinity>
7.1579079628

> <CNN_VS>
1.1012338400

> <CNNaffinity_variance>
0.5742033720

$$$$
/media/chris/experiments/cd1a-new-docking/inputs/ligands/1xz0_ligand.pdb


 65 67  0  0  0  0  0  0  0  0999 V2000
  -41.7142   58.0032   62.8695 C   0  0  0  0  0  0  0  0  0  0  0  0
  -40.8570   58.4315   63.9767 N   0  0  0  0  0  0  0  0  0  0  0  0
  -40.4331   60.6109   63.4833 O   0  0  0  0  0  0  0  0  0  0  0  0
  -40.3001   59.6332   64.2075 C   0  0  0  0  0  0  0  0  0  0  0  0
  -40.6600   57.7397   64.6490 H   0  0  0  0  0  0  0  0  0  0  0  0
  -38.6018   61.0322   65.3645 N   0  0  0  0  0  0  0  0  0  0  0  0
  -36.9986   59.5011   65.6429 O   0  0  0  0  0  0  0  0  0  0  0  0
  -38.1985   58.7326   65.5658 C   0  0  0  0  0  0  0  0  0  0  0  0
  -37.3524   60.8905   65.4931 C   0  0  0  0  0  0  0  0  0  0  0  0
  -39.3501   59.7609   65.3895 C   0  0  0  0  0  0  0  0  0  0  0  0
  -36.9882   62.8673   63.4058 O   0  0  0  0  0  0  0  0  0  0  0  0
  -36.2376   62.9502   64.5110 C   0  0  0  0  0  0  0  0  0  0  0  0
  -35.3102   63.9923   64.6420 C   0  0  0  0  0  0  0  0  0  0  0  0
  -34.5040   64.0959   65.7879 C   0  0  0  0  0  0  0  0  0  0  0  0
  -34.6228   63.1642   66.8207 C   0  0  0  0  0  0  0  0  0  0  0  0
  -35.5509   62.1264   66.6977 C   0  0  0  0  0  0  0  0  0  0  0  0
  -36.3542   62.0150   65.5465 C   0  0  0  0  0  0  0  0  0  0  0  0
  -36.8928   63.5047   62.7258 H   0  0  0  0  0  0  0  0  0  0  0  0
  -41.6001   59.4376   60.9552 O   0  0  0  0  0  0  0  0  0  0  0  0
  -41.0790   58.5447   61.6029 C   0  0  0  0  0  0  0  0  0  0  0  0
  -39.8413   57.9452   61.0935 O   0  0  0  0  0  0  0  0  0  0  0  0
  -38.6829   58.7502   60.8035 C   0  0  0  0  0  0  0  0  0  0  0  0
  -38.3712   58.8987   59.3195 C   0  0  0  0  0  0  0  0  0  0  0  0
  -37.4958   58.1716   61.5586 C   0  0  0  0  0  0  0  0  0  0  0  0
  -35.5554   58.8387   62.8951 N   0  0  0  0  0  0  0  0  0  0  0  0
  -37.0843   60.3584   62.2107 O   0  0  0  0  0  0  0  0  0  0  0  0
  -36.6907   59.2172   62.2901 C   0  0  0  0  0  0  0  0  0  0  0  0
  -35.3362   57.8789   62.8974 H   0  0  0  0  0  0  0  0  0  0  0  0
  -32.6386   59.6739   62.0890 N   0  0  0  0  0  0  0  0  0  0  0  0
  -33.6796   61.6320   62.4730 O   0  0  0  0  0  0  0  0  0  0  0  0
  -32.6179   58.2051   62.0239 C   0  0  0  0  0  0  0  0  0  0  0  0
  -32.4202   57.6001   63.4266 C   0  0  0  0  0  0  0  0  0  0  0  0
  -32.4737   58.5938   64.5752 C   0  0  0  0  0  0  0  0  0  0  0  0
  -33.8641   59.2023   64.7760 C   0  0  0  0  0  0  0  0  0  0  0  0
  -34.6168   59.7542   63.5538 C   0  0  0  0  0  0  0  0  0  0  0  0
  -33.6060   60.4227   62.6427 C   0  0  0  0  0  0  0  0  0  0  0  0
  -31.7424   62.0498   61.0521 Si  0  0  0  0  0  0  0  0  0  0  0  0
  -31.5867   60.3340   61.5289 O   0  0  0  0  0  0  0  0  0  0  0  0
  -30.5152   62.5001   60.4975 H   0  0  0  0  0  0  0  0  0  0  0  0
  -32.0608   62.8315   62.1940 H   0  0  0  0  0  0  0  0  0  0  0  0
  -32.7748   62.1807   60.0859 H   0  0  0  0  0  0  0  0  0  0  0  0
  -43.6457   59.3921   63.9806 C   0  0  0  0  0  0  0  0  0  0  0  0
  -43.2283   58.3054   62.9822 C   0  0  0  0  0  0  0  0  0  0  0  0
  -45.1195   59.4023   64.4204 C   0  0  0  0  0  0  0  0  0  0  0  0
  -45.4156   59.2066   65.9216 C   0  0  0  0  0  0  0  0  0  0  0  0
  -45.9783   57.8656   66.1084 N   0  0  0  0  0  0  0  0  0  0  0  0
  -47.2506   57.4346   65.9003 C   0  0  0  0  0  0  0  0  0  0  0  0
  -45.0509   56.9184   66.5648 O   0  0  0  0  0  0  0  0  0  0  0  0
  -47.5678   56.2632   66.1054 O   0  0  0  0  0  0  0  0  0  0  0  0
  -45.4894   56.0591   66.6654 H   0  0  0  0  0  0  0  0  0  0  0  0
  -48.2984   58.4320   65.3955 C   0  0  0  0  0  0  0  0  0  0  0  0
  -49.7267   57.8744   65.3288 C   0  0  0  0  0  0  0  0  0  0  0  0
  -50.3842   58.2637   63.9907 C   0  0  0  0  0  0  0  0  0  0  0  0
  -51.1771   59.5829   64.0560 C   0  0  0  0  0  0  0  0  0  0  0  0
  -50.6821   60.6771   63.0918 C   0  0  0  0  0  0  0  0  0  0  0  0
  -49.4861   60.2215   62.2298 C   0  0  0  0  0  0  0  0  0  0  0  0
  -49.6822   60.4125   60.7078 C   0  0  0  0  0  0  0  0  0  0  0  0
  -49.7788   59.0922   59.9347 C   0  0  0  0  0  0  0  0  0  0  0  0
  -50.8397   58.1109   60.4431 C   0  0  0  0  0  0  0  0  0  0  0  0
  -50.2700   56.6866   60.5738 C   0  0  0  0  0  0  0  0  0  0  0  0
  -48.7349   56.6277   60.5750 C   0  0  0  0  0  0  0  0  0  0  0  0
  -48.0955   55.9069   59.3837 C   0  0  0  0  0  0  0  0  0  0  0  0
  -47.1551   56.7961   58.5324 C   0  0  0  0  0  0  0  0  0  0  0  0
  -47.9216   57.5042   57.3969 C   0  0  0  0  0  0  0  0  0  0  0  0
  -47.1099   58.4112   56.4643 C   0  0  0  0  0  0  0  0  0  0  0  0
 46 47  1  0  0  0
 46 48  1  0  0  0
 46 45  1  0  0  0
 47 49  2  0  0  0
 47 51  1  0  0  0
 19 20  2  0  0  0
 37 38  1  0  0  0
 37 39  1  0  0  0
 37 40  1  0  0  0
 37 41  1  0  0  0
 48 50  1  0  0  0
 38 29  1  0  0  0
 45 44  1  0  0  0
 25 27  1  0  0  0
 25 35  1  0  0  0
 25 28  1  0  0  0
 21 20  1  0  0  0
 21 22  1  0  0  0
 44 42  1  0  0  0
  2  1  1  0  0  0
  2  4  1  0  0  0
  2  5  1  0  0  0
 26 27  2  0  0  0
 42 43  2  0  0  0
 29 31  1  0  0  0
 29 36  1  0  0  0
  3  4  2  0  0  0
 43  1  1  0  0  0
  6  9  2  0  0  0
  6 10  1  0  0  0
  1 20  1  0  0  0
 30 36  2  0  0  0
  7  8  1  0  0  0
  7  9  1  0  0  0
 22 24  1  0  0  0
 22 23  1  0  0  0
 11 12  1  0  0  0
 11 18  1  0  0  0
 24 27  1  0  0  0
  4 10  1  0  0  0
 51 52  1  0  0  0
 52 53  1  0  0  0
 53 54  1  0  0  0
 54 55  1  0  0  0
 55 56  1  0  0  0
 56 57  1  0  0  0
 57 58  1  0  0  0
 58 59  1  0  0  0
 59 60  1  0  0  0
 60 61  1  0  0  0
 61 62  1  0  0  0
 62 63  1  0  0  0
 63 64  1  0  0  0
 64 65  1  0  0  0
 31 32  1  0  0  0
 32 33  1  0  0  0
 33 34  1  0  0  0
 34 35  1  0  0  0
 35 36  1  0  0  0
  8 10  1  0  0  0
  9 17  1  0  0  0
 12 13  2  0  0  0
 12 17  1  0  0  0
 13 14  1  0  0  0
 14 15  2  0  0  0
 15 16  1  0  0  0
 16 17  2  0  0  0
M  END
> <minimizedAffinity>
-10.23402

> <CNNscore>
0.1496385634

> <CNNaffinity>
7.3719153404

> <CNN_VS>
1.1031228304

> <CNNaffinity_variance>
0.5862194896

$$$$
/media/chris/experiments/cd1a-new-docking/inputs/ligands/1xz0_ligand.pdb


 65 67  0  0  0  0  0  0  0  0999 V2000
  -38.6217   59.3990   65.4530 C   0  0  0  0  0  0  0  0  0  0  0  0
  -37.9921   60.4882   64.7037 N   0  0  0  0  0  0  0  0  0  0  0  0
  -36.4526   61.2960   66.1700 O   0  0  0  0  0  0  0  0  0  0  0  0
  -37.0066   61.3221   65.0789 C   0  0  0  0  0  0  0  0  0  0  0  0
  -38.3408   60.6303   63.7940 H   0  0  0  0  0  0  0  0  0  0  0  0
  -35.4907   62.0787   63.2597 N   0  0  0  0  0  0  0  0  0  0  0  0
  -34.8726   64.0544   64.1002 O   0  0  0  0  0  0  0  0  0  0  0  0
  -36.1448   63.8091   64.6982 C   0  0  0  0  0  0  0  0  0  0  0  0
  -34.5580   62.9317   63.2525 C   0  0  0  0  0  0  0  0  0  0  0  0
  -36.6263   62.4467   64.1267 C   0  0  0  0  0  0  0  0  0  0  0  0
  -32.7127   60.6984   63.3180 O   0  0  0  0  0  0  0  0  0  0  0  0
  -32.4593   61.7207   62.4917 C   0  0  0  0  0  0  0  0  0  0  0  0
  -31.3250   61.6827   61.6702 C   0  0  0  0  0  0  0  0  0  0  0  0
  -31.0319   62.7472   60.8014 C   0  0  0  0  0  0  0  0  0  0  0  0
  -31.8753   63.8577   60.7368 C   0  0  0  0  0  0  0  0  0  0  0  0
  -33.0116   63.8976   61.5497 C   0  0  0  0  0  0  0  0  0  0  0  0
  -33.3032   62.8361   62.4278 C   0  0  0  0  0  0  0  0  0  0  0  0
  -32.1336   59.9623   63.3436 H   0  0  0  0  0  0  0  0  0  0  0  0
  -37.2251   57.4887   65.8211 O   0  0  0  0  0  0  0  0  0  0  0  0
  -37.9089   58.1263   65.0373 C   0  0  0  0  0  0  0  0  0  0  0  0
  -37.9782   57.6728   63.6442 O   0  0  0  0  0  0  0  0  0  0  0  0
  -36.7956   57.5751   62.8283 C   0  0  0  0  0  0  0  0  0  0  0  0
  -35.5443   57.1352   63.5781 C   0  0  0  0  0  0  0  0  0  0  0  0
  -36.5791   58.9123   62.1359 C   0  0  0  0  0  0  0  0  0  0  0  0
  -38.5393   58.4494   60.7432 N   0  0  0  0  0  0  0  0  0  0  0  0
  -38.0306   60.5575   61.3855 O   0  0  0  0  0  0  0  0  0  0  0  0
  -37.7804   59.3745   61.3487 C   0  0  0  0  0  0  0  0  0  0  0  0
  -38.2352   57.5137   60.7783 H   0  0  0  0  0  0  0  0  0  0  0  0
  -41.4569   58.8098   61.8443 N   0  0  0  0  0  0  0  0  0  0  0  0
  -41.1501   60.6016   60.5174 O   0  0  0  0  0  0  0  0  0  0  0  0
  -40.9979   57.5555   62.4594 C   0  0  0  0  0  0  0  0  0  0  0  0
  -41.1509   56.3790   61.4772 C   0  0  0  0  0  0  0  0  0  0  0  0
  -41.5512   56.7628   60.0622 C   0  0  0  0  0  0  0  0  0  0  0  0
  -40.4621   57.5451   59.3234 C   0  0  0  0  0  0  0  0  0  0  0  0
  -39.7910   58.7335   60.0321 C   0  0  0  0  0  0  0  0  0  0  0  0
  -40.8510   59.4592   60.8373 C   0  0  0  0  0  0  0  0  0  0  0  0
  -43.1389   60.9758   61.7899 Si  0  0  0  0  0  0  0  0  0  0  0  0
  -42.5933   59.3675   62.3479 O   0  0  0  0  0  0  0  0  0  0  0  0
  -44.3387   61.3282   62.4625 H   0  0  0  0  0  0  0  0  0  0  0  0
  -43.3751   60.9361   60.3902 H   0  0  0  0  0  0  0  0  0  0  0  0
  -42.1362   61.9404   62.0736 H   0  0  0  0  0  0  0  0  0  0  0  0
  -40.9577   60.1821   66.3606 C   0  0  0  0  0  0  0  0  0  0  0  0
  -40.1650   59.2929   65.3949 C   0  0  0  0  0  0  0  0  0  0  0  0
  -42.4207   59.7881   66.6258 C   0  0  0  0  0  0  0  0  0  0  0  0
  -43.2474   59.2745   65.4290 C   0  0  0  0  0  0  0  0  0  0  0  0
  -44.0894   58.1675   65.8930 N   0  0  0  0  0  0  0  0  0  0  0  0
  -45.4405   58.1206   66.0344 C   0  0  0  0  0  0  0  0  0  0  0  0
  -43.3727   57.0103   66.2291 O   0  0  0  0  0  0  0  0  0  0  0  0
  -46.0036   57.1041   66.4400 O   0  0  0  0  0  0  0  0  0  0  0  0
  -43.9894   56.3229   66.5258 H   0  0  0  0  0  0  0  0  0  0  0  0
  -46.2674   59.3590   65.6735 C   0  0  0  0  0  0  0  0  0  0  0  0
  -47.4974   59.5836   66.5636 C   0  0  0  0  0  0  0  0  0  0  0  0
  -48.7755   59.6061   65.7032 C   0  0  0  0  0  0  0  0  0  0  0  0
  -49.0178   58.2973   64.9276 C   0  0  0  0  0  0  0  0  0  0  0  0
  -50.3657   58.2317   64.1855 C   0  0  0  0  0  0  0  0  0  0  0  0
  -50.9137   59.6249   63.8118 C   0  0  0  0  0  0  0  0  0  0  0  0
  -50.9955   59.8957   62.2914 C   0  0  0  0  0  0  0  0  0  0  0  0
  -49.6265   60.1089   61.6353 C   0  0  0  0  0  0  0  0  0  0  0  0
  -49.4814   59.5386   60.2209 C   0  0  0  0  0  0  0  0  0  0  0  0
  -50.2553   58.2166   60.0668 C   0  0  0  0  0  0  0  0  0  0  0  0
  -49.3651   56.9654   60.1094 C   0  0  0  0  0  0  0  0  0  0  0  0
  -47.9045   57.1731   59.6958 C   0  0  0  0  0  0  0  0  0  0  0  0
  -47.4349   56.2573   58.5380 C   0  0  0  0  0  0  0  0  0  0  0  0
  -47.7521   56.8779   57.1623 C   0  0  0  0  0  0  0  0  0  0  0  0
  -47.2718   58.3129   56.9145 C   0  0  0  0  0  0  0  0  0  0  0  0
 46 47  1  0  0  0
 46 48  1  0  0  0
 46 45  1  0  0  0
 47 49  2  0  0  0
 47 51  1  0  0  0
 19 20  2  0  0  0
 37 38  1  0  0  0
 37 39  1  0  0  0
 37 40  1  0  0  0
 37 41  1  0  0  0
 48 50  1  0  0  0
 38 29  1  0  0  0
 45 44  1  0  0  0
 25 27  1  0  0  0
 25 35  1  0  0  0
 25 28  1  0  0  0
 21 20  1  0  0  0
 21 22  1  0  0  0
 44 42  1  0  0  0
  2  1  1  0  0  0
  2  4  1  0  0  0
  2  5  1  0  0  0
 26 27  2  0  0  0
 42 43  2  0  0  0
 29 31  1  0  0  0
 29 36  1  0  0  0
  3  4  2  0  0  0
 43  1  1  0  0  0
  6  9  2  0  0  0
  6 10  1  0  0  0
  1 20  1  0  0  0
 30 36  2  0  0  0
  7  8  1  0  0  0
  7  9  1  0  0  0
 22 24  1  0  0  0
 22 23  1  0  0  0
 11 12  1  0  0  0
 11 18  1  0  0  0
 24 27  1  0  0  0
  4 10  1  0  0  0
 51 52  1  0  0  0
 52 53  1  0  0  0
 53 54  1  0  0  0
 54 55  1  0  0  0
 55 56  1  0  0  0
 56 57  1  0  0  0
 57 58  1  0  0  0
 58 59  1  0  0  0
 59 60  1  0  0  0
 60 61  1  0  0  0
 61 62  1  0  0  0
 62 63  1  0  0  0
 63 64  1  0  0  0
 64 65  1  0  0  0
 31 32  1  0  0  0
 32 33  1  0  0  0
 33 34  1  0  0  0
 34 35  1  0  0  0
 35 36  1  0  0  0
  8 10  1  0  0  0
  9 17  1  0  0  0
 12 13  2  0  0  0
 12 17  1  0  0  0
 13 14  1  0  0  0
 14 15  2  0  0  0
 15 16  1  0  0  0
 16 17  2  0  0  0
M  END
> <minimizedAffinity>
-10.34501

> <CNNscore>
0.1353866905

> <CNNaffinity>
7.3714971542

> <CNN_VS>
0.9980025887

> <CNNaffinity_variance>
1.4005286694

$$$$
