/media/chris/experiments/cd1a-new-docking/inputs/ligands/1xz0_ligand.pdb


 65 67  0  0  0  0  0  0  0  0999 V2000
  -41.0960   58.8005   63.6280 C   0  0  0  0  0  0  0  0  0  0  0  0
  -40.4630   59.9180   64.3312 N   0  0  0  0  0  0  0  0  0  0  0  0
  -38.9127   60.9167   65.6625 O   0  0  0  0  0  0  0  0  0  0  0  0
  -39.3615   59.9255   65.1020 C   0  0  0  0  0  0  0  0  0  0  0  0
  -40.9082   60.7896   64.2242 H   0  0  0  0  0  0  0  0  0  0  0  0
  -37.1001   58.8980   65.2052 N   0  0  0  0  0  0  0  0  0  0  0  0
  -37.3351   57.3428   63.6182 O   0  0  0  0  0  0  0  0  0  0  0  0
  -38.6675   57.5726   64.0746 C   0  0  0  0  0  0  0  0  0  0  0  0
  -36.4569   58.2120   64.3607 C   0  0  0  0  0  0  0  0  0  0  0  0
  -38.5527   58.6399   65.1981 C   0  0  0  0  0  0  0  0  0  0  0  0
  -35.1141   58.5519   61.8154 O   0  0  0  0  0  0  0  0  0  0  0  0
  -34.3738   58.4244   62.9234 C   0  0  0  0  0  0  0  0  0  0  0  0
  -32.9766   58.4739   62.8324 C   0  0  0  0  0  0  0  0  0  0  0  0
  -32.1772   58.3331   63.9793 C   0  0  0  0  0  0  0  0  0  0  0  0
  -32.7662   58.1513   65.2318 C   0  0  0  0  0  0  0  0  0  0  0  0
  -34.1598   58.1075   65.3286 C   0  0  0  0  0  0  0  0  0  0  0  0
  -34.9634   58.2395   64.1799 C   0  0  0  0  0  0  0  0  0  0  0  0
  -34.6974   58.6748   60.9852 H   0  0  0  0  0  0  0  0  0  0  0  0
  -41.8116   59.7008   61.5273 O   0  0  0  0  0  0  0  0  0  0  0  0
  -40.9541   59.0925   62.1463 C   0  0  0  0  0  0  0  0  0  0  0  0
  -39.7945   58.5796   61.4092 O   0  0  0  0  0  0  0  0  0  0  0  0
  -38.9805   59.4457   60.5962 C   0  0  0  0  0  0  0  0  0  0  0  0
  -38.7338   58.9372   59.1812 C   0  0  0  0  0  0  0  0  0  0  0  0
  -37.6693   59.6956   61.3260 C   0  0  0  0  0  0  0  0  0  0  0  0
  -36.5690   61.3270   62.7834 N   0  0  0  0  0  0  0  0  0  0  0  0
  -38.7825   61.4600   62.3380 O   0  0  0  0  0  0  0  0  0  0  0  0
  -37.7150   60.9007   62.2328 C   0  0  0  0  0  0  0  0  0  0  0  0
  -35.7593   60.7884   62.6296 H   0  0  0  0  0  0  0  0  0  0  0  0
  -34.3285   63.5258   62.7937 N   0  0  0  0  0  0  0  0  0  0  0  0
  -36.2442   64.7006   62.6682 O   0  0  0  0  0  0  0  0  0  0  0  0
  -33.5842   62.2606   62.8769 C   0  0  0  0  0  0  0  0  0  0  0  0
  -33.5534   61.7406   64.3265 C   0  0  0  0  0  0  0  0  0  0  0  0
  -34.4228   62.5072   65.3094 C   0  0  0  0  0  0  0  0  0  0  0  0
  -35.9204   62.3477   65.0346 C   0  0  0  0  0  0  0  0  0  0  0  0
  -36.4366   62.5397   63.5989 C   0  0  0  0  0  0  0  0  0  0  0  0
  -35.6521   63.6721   62.9655 C   0  0  0  0  0  0  0  0  0  0  0  0
  -32.1045   65.0142   63.3959 Si  0  0  0  0  0  0  0  0  0  0  0  0
  -33.6121   64.6487   62.5073 O   0  0  0  0  0  0  0  0  0  0  0  0
  -31.5532   66.2302   62.9126 H   0  0  0  0  0  0  0  0  0  0  0  0
  -31.1724   63.9611   63.2001 H   0  0  0  0  0  0  0  0  0  0  0  0
  -32.3905   65.1416   64.7810 H   0  0  0  0  0  0  0  0  0  0  0  0
  -42.6780   57.4897   65.2629 C   0  0  0  0  0  0  0  0  0  0  0  0
  -42.5352   58.4166   64.0495 C   0  0  0  0  0  0  0  0  0  0  0  0
  -44.0230   56.7616   65.4264 C   0  0  0  0  0  0  0  0  0  0  0  0
  -44.9016   57.1523   66.6326 C   0  0  0  0  0  0  0  0  0  0  0  0
  -45.4544   58.4876   66.3855 N   0  0  0  0  0  0  0  0  0  0  0  0
  -46.7098   58.8361   65.9978 C   0  0  0  0  0  0  0  0  0  0  0  0
  -44.5372   59.5288   66.5863 O   0  0  0  0  0  0  0  0  0  0  0  0
  -47.0210   60.0153   65.8320 O   0  0  0  0  0  0  0  0  0  0  0  0
  -44.9683   60.3788   66.4059 H   0  0  0  0  0  0  0  0  0  0  0  0
  -47.7493   57.7333   65.7719 C   0  0  0  0  0  0  0  0  0  0  0  0
  -48.8431   58.0893   64.7557 C   0  0  0  0  0  0  0  0  0  0  0  0
  -50.1303   58.5104   65.4906 C   0  0  0  0  0  0  0  0  0  0  0  0
  -50.7196   59.8412   64.9855 C   0  0  0  0  0  0  0  0  0  0  0  0
  -49.8004   60.6294   64.0338 C   0  0  0  0  0  0  0  0  0  0  0  0
  -50.0484   60.2967   62.5475 C   0  0  0  0  0  0  0  0  0  0  0  0
  -51.1760   59.2677   62.2999 C   0  0  0  0  0  0  0  0  0  0  0  0
  -50.6685   57.9237   61.7647 C   0  0  0  0  0  0  0  0  0  0  0  0
  -50.7817   57.7369   60.2483 C   0  0  0  0  0  0  0  0  0  0  0  0
  -49.5908   58.3787   59.5135 C   0  0  0  0  0  0  0  0  0  0  0  0
  -48.2716   57.6080   59.6738 C   0  0  0  0  0  0  0  0  0  0  0  0
  -48.2435   56.2024   59.0646 C   0  0  0  0  0  0  0  0  0  0  0  0
  -47.3084   56.0595   57.8379 C   0  0  0  0  0  0  0  0  0  0  0  0
  -47.7483   56.9803   56.6817 C   0  0  0  0  0  0  0  0  0  0  0  0
  -47.0250   58.3255   56.5444 C   0  0  0  0  0  0  0  0  0  0  0  0
 46 47  1  0  0  0
 46 48  1  0  0  0
 46 45  1  0  0  0
 47 49  2  0  0  0
 47 51  1  0  0  0
 19 20  2  0  0  0
 37 38  1  0  0  0
 37 39  1  0  0  0
 37 40  1  0  0  0
 37 41  1  0  0  0
 48 50  1  0  0  0
 38 29  1  0  0  0
 45 44  1  0  0  0
 25 27  1  0  0  0
 25 35  1  0  0  0
 25 28  1  0  0  0
 21 20  1  0  0  0
 21 22  1  0  0  0
 44 42  1  0  0  0
  2  1  1  0  0  0
  2  4  1  0  0  0
  2  5  1  0  0  0
 26 27  2  0  0  0
 42 43  2  0  0  0
 29 31  1  0  0  0
 29 36  1  0  0  0
  3  4  2  0  0  0
 43  1  1  0  0  0
  6  9  2  0  0  0
  6 10  1  0  0  0
  1 20  1  0  0  0
 30 36  2  0  0  0
  7  8  1  0  0  0
  7  9  1  0  0  0
 22 24  1  0  0  0
 22 23  1  0  0  0
 11 12  1  0  0  0
 11 18  1  0  0  0
 24 27  1  0  0  0
  4 10  1  0  0  0
 51 52  1  0  0  0
 52 53  1  0  0  0
 53 54  1  0  0  0
 54 55  1  0  0  0
 55 56  1  0  0  0
 56 57  1  0  0  0
 57 58  1  0  0  0
 58 59  1  0  0  0
 59 60  1  0  0  0
 60 61  1  0  0  0
 61 62  1  0  0  0
 62 63  1  0  0  0
 63 64  1  0  0  0
 64 65  1  0  0  0
 31 32  1  0  0  0
 32 33  1  0  0  0
 33 34  1  0  0  0
 34 35  1  0  0  0
 35 36  1  0  0  0
  8 10  1  0  0  0
  9 17  1  0  0  0
 12 13  2  0  0  0
 12 17  1  0  0  0
 13 14  1  0  0  0
 14 15  2  0  0  0
 15 16  1  0  0  0
 16 17  2  0  0  0
M  END
> <minimizedAffinity>
-9.43889

> <CNNscore>
0.3951467872

> <CNNaffinity>
7.6559133530

> <CNN_VS>
3.0252096653

> <CNNaffinity_variance>
0.3306698799

$$$$
/media/chris/experiments/cd1a-new-docking/inputs/ligands/1xz0_ligand.pdb


 65 67  0  0  0  0  0  0  0  0999 V2000
  -39.9078   57.7231   64.1197 C   0  0  0  0  0  0  0  0  0  0  0  0
  -39.7624   59.1195   64.5358 N   0  0  0  0  0  0  0  0  0  0  0  0
  -38.7787   60.8724   65.6000 O   0  0  0  0  0  0  0  0  0  0  0  0
  -38.8083   59.6878   65.2935 C   0  0  0  0  0  0  0  0  0  0  0  0
  -40.4644   59.7301   64.2142 H   0  0  0  0  0  0  0  0  0  0  0  0
  -36.3598   59.2975   65.1135 N   0  0  0  0  0  0  0  0  0  0  0  0
  -36.3745   57.1172   64.6252 O   0  0  0  0  0  0  0  0  0  0  0  0
  -37.5980   57.3199   65.3310 C   0  0  0  0  0  0  0  0  0  0  0  0
  -35.7010   58.3885   64.5328 C   0  0  0  0  0  0  0  0  0  0  0  0
  -37.6245   58.8267   65.7097 C   0  0  0  0  0  0  0  0  0  0  0  0
  -33.1654   58.3406   65.9348 O   0  0  0  0  0  0  0  0  0  0  0  0
  -33.1661   58.5242   64.6088 C   0  0  0  0  0  0  0  0  0  0  0  0
  -31.9497   58.6719   63.9294 C   0  0  0  0  0  0  0  0  0  0  0  0
  -31.9241   58.8753   62.5393 C   0  0  0  0  0  0  0  0  0  0  0  0
  -33.1143   58.9233   61.8114 C   0  0  0  0  0  0  0  0  0  0  0  0
  -34.3300   58.7701   62.4837 C   0  0  0  0  0  0  0  0  0  0  0  0
  -34.3593   58.5750   63.8779 C   0  0  0  0  0  0  0  0  0  0  0  0
  -32.3544   58.3101   66.4030 H   0  0  0  0  0  0  0  0  0  0  0  0
  -38.7987   56.7807   62.2178 O   0  0  0  0  0  0  0  0  0  0  0  0
  -39.5101   57.6693   62.6569 C   0  0  0  0  0  0  0  0  0  0  0  0
  -39.9273   58.7414   61.7474 O   0  0  0  0  0  0  0  0  0  0  0  0
  -38.9866   59.3865   60.8682 C   0  0  0  0  0  0  0  0  0  0  0  0
  -38.6720   58.6075   59.5970 C   0  0  0  0  0  0  0  0  0  0  0  0
  -37.7202   59.6847   61.6567 C   0  0  0  0  0  0  0  0  0  0  0  0
  -36.6191   61.5817   62.7453 N   0  0  0  0  0  0  0  0  0  0  0  0
  -38.8701   61.4923   62.5437 O   0  0  0  0  0  0  0  0  0  0  0  0
  -37.7751   61.0008   62.3925 C   0  0  0  0  0  0  0  0  0  0  0  0
  -35.7864   61.0854   62.5731 H   0  0  0  0  0  0  0  0  0  0  0  0
  -34.2984   63.6919   62.6184 N   0  0  0  0  0  0  0  0  0  0  0  0
  -36.1453   64.8836   62.1342 O   0  0  0  0  0  0  0  0  0  0  0  0
  -33.6175   62.4363   62.9670 C   0  0  0  0  0  0  0  0  0  0  0  0
  -33.7344   62.1537   64.4767 C   0  0  0  0  0  0  0  0  0  0  0  0
  -34.6534   63.0908   65.2429 C   0  0  0  0  0  0  0  0  0  0  0  0
  -36.1267   62.9304   64.8592 C   0  0  0  0  0  0  0  0  0  0  0  0
  -36.5078   62.9049   63.3696 C   0  0  0  0  0  0  0  0  0  0  0  0
  -35.6246   63.8999   62.6422 C   0  0  0  0  0  0  0  0  0  0  0  0
  -34.2487   66.2866   61.7302 Si  0  0  0  0  0  0  0  0  0  0  0  0
  -33.5137   64.7346   62.2273 O   0  0  0  0  0  0  0  0  0  0  0  0
  -33.2243   67.2022   61.3717 H   0  0  0  0  0  0  0  0  0  0  0  0
  -35.0039   66.8195   62.8081 H   0  0  0  0  0  0  0  0  0  0  0  0
  -35.1019   66.0708   60.6157 H   0  0  0  0  0  0  0  0  0  0  0  0
  -42.5317   57.7996   64.0644 C   0  0  0  0  0  0  0  0  0  0  0  0
  -41.2566   57.0262   64.4218 C   0  0  0  0  0  0  0  0  0  0  0  0
  -43.8359   57.3375   64.7362 C   0  0  0  0  0  0  0  0  0  0  0  0
  -44.5626   58.3467   65.6489 C   0  0  0  0  0  0  0  0  0  0  0  0
  -45.2661   59.3120   64.7986 N   0  0  0  0  0  0  0  0  0  0  0  0
  -46.5365   59.7830   64.9084 C   0  0  0  0  0  0  0  0  0  0  0  0
  -44.4953   59.7995   63.7339 O   0  0  0  0  0  0  0  0  0  0  0  0
  -46.9841   60.6012   64.1051 O   0  0  0  0  0  0  0  0  0  0  0  0
  -45.0206   60.4296   63.2162 H   0  0  0  0  0  0  0  0  0  0  0  0
  -47.4157   59.2841   66.0599 C   0  0  0  0  0  0  0  0  0  0  0  0
  -48.6627   60.1391   66.3240 C   0  0  0  0  0  0  0  0  0  0  0  0
  -49.9345   59.3365   65.9883 C   0  0  0  0  0  0  0  0  0  0  0  0
  -49.6542   58.0369   65.2101 C   0  0  0  0  0  0  0  0  0  0  0  0
  -49.8008   58.1601   63.6820 C   0  0  0  0  0  0  0  0  0  0  0  0
  -51.1642   58.7431   63.2550 C   0  0  0  0  0  0  0  0  0  0  0  0
  -51.0748   60.0583   62.4462 C   0  0  0  0  0  0  0  0  0  0  0  0
  -49.7059   60.2806   61.7927 C   0  0  0  0  0  0  0  0  0  0  0  0
  -49.5768   59.7738   60.3527 C   0  0  0  0  0  0  0  0  0  0  0  0
  -48.6896   58.5178   60.2773 C   0  0  0  0  0  0  0  0  0  0  0  0
  -49.3722   57.3122   59.6135 C   0  0  0  0  0  0  0  0  0  0  0  0
  -48.4949   56.0700   59.4269 C   0  0  0  0  0  0  0  0  0  0  0  0
  -47.3722   56.2369   58.3727 C   0  0  0  0  0  0  0  0  0  0  0  0
  -47.8865   56.9545   57.1083 C   0  0  0  0  0  0  0  0  0  0  0  0
  -47.1517   58.2306   56.6802 C   0  0  0  0  0  0  0  0  0  0  0  0
 46 47  1  0  0  0
 46 48  1  0  0  0
 46 45  1  0  0  0
 47 49  2  0  0  0
 47 51  1  0  0  0
 19 20  2  0  0  0
 37 38  1  0  0  0
 37 39  1  0  0  0
 37 40  1  0  0  0
 37 41  1  0  0  0
 48 50  1  0  0  0
 38 29  1  0  0  0
 45 44  1  0  0  0
 25 27  1  0  0  0
 25 35  1  0  0  0
 25 28  1  0  0  0
 21 20  1  0  0  0
 21 22  1  0  0  0
 44 42  1  0  0  0
  2  1  1  0  0  0
  2  4  1  0  0  0
  2  5  1  0  0  0
 26 27  2  0  0  0
 42 43  2  0  0  0
 29 31  1  0  0  0
 29 36  1  0  0  0
  3  4  2  0  0  0
 43  1  1  0  0  0
  6  9  2  0  0  0
  6 10  1  0  0  0
  1 20  1  0  0  0
 30 36  2  0  0  0
  7  8  1  0  0  0
  7  9  1  0  0  0
 22 24  1  0  0  0
 22 23  1  0  0  0
 11 12  1  0  0  0
 11 18  1  0  0  0
 24 27  1  0  0  0
  4 10  1  0  0  0
 51 52  1  0  0  0
 52 53  1  0  0  0
 53 54  1  0  0  0
 54 55  1  0  0  0
 55 56  1  0  0  0
 56 57  1  0  0  0
 57 58  1  0  0  0
 58 59  1  0  0  0
 59 60  1  0  0  0
 60 61  1  0  0  0
 61 62  1  0  0  0
 62 63  1  0  0  0
 63 64  1  0  0  0
 64 65  1  0  0  0
 31 32  1  0  0  0
 32 33  1  0  0  0
 33 34  1  0  0  0
 34 35  1  0  0  0
 35 36  1  0  0  0
  8 10  1  0  0  0
  9 17  1  0  0  0
 12 13  2  0  0  0
 12 17  1  0  0  0
 13 14  1  0  0  0
 14 15  2  0  0  0
 15 16  1  0  0  0
 16 17  2  0  0  0
M  END
> <minimizedAffinity>
-9.70888

> <CNNscore>
0.2019373178

> <CNNaffinity>
7.3907585144

> <CNN_VS>
1.4924699068

> <CNNaffinity_variance>
0.4253269136

$$$$
/media/chris/experiments/cd1a-new-docking/inputs/ligands/1xz0_ligand.pdb


 65 67  0  0  0  0  0  0  0  0999 V2000
  -36.9084   57.2643   62.7447 C   0  0  0  0  0  0  0  0  0  0  0  0
  -37.1105   57.1826   64.1926 N   0  0  0  0  0  0  0  0  0  0  0  0
  -37.3517   58.0027   66.3003 O   0  0  0  0  0  0  0  0  0  0  0  0
  -37.1921   58.1724   65.0987 C   0  0  0  0  0  0  0  0  0  0  0  0
  -37.1995   56.2715   64.5548 H   0  0  0  0  0  0  0  0  0  0  0  0
  -36.0173   60.3627   65.0479 N   0  0  0  0  0  0  0  0  0  0  0  0
  -37.7243   61.7028   65.5793 O   0  0  0  0  0  0  0  0  0  0  0  0
  -38.3513   60.5636   64.9916 C   0  0  0  0  0  0  0  0  0  0  0  0
  -36.3011   61.4734   65.5801 C   0  0  0  0  0  0  0  0  0  0  0  0
  -37.1967   59.6057   64.5870 C   0  0  0  0  0  0  0  0  0  0  0  0
  -36.9358   64.1820   66.3912 O   0  0  0  0  0  0  0  0  0  0  0  0
  -35.6698   63.7588   66.4904 C   0  0  0  0  0  0  0  0  0  0  0  0
  -34.6885   64.6219   66.9956 C   0  0  0  0  0  0  0  0  0  0  0  0
  -33.3509   64.2047   67.1008 C   0  0  0  0  0  0  0  0  0  0  0  0
  -32.9811   62.9162   66.7113 C   0  0  0  0  0  0  0  0  0  0  0  0
  -33.9575   62.0493   66.2126 C   0  0  0  0  0  0  0  0  0  0  0  0
  -35.2972   62.4674   66.0977 C   0  0  0  0  0  0  0  0  0  0  0  0
  -37.1618   65.0507   66.6602 H   0  0  0  0  0  0  0  0  0  0  0  0
  -35.6434   59.0652   61.8003 O   0  0  0  0  0  0  0  0  0  0  0  0
  -35.6539   58.0906   62.5341 C   0  0  0  0  0  0  0  0  0  0  0  0
  -34.3962   57.6823   63.1685 O   0  0  0  0  0  0  0  0  0  0  0  0
  -33.1528   58.3389   62.8579 C   0  0  0  0  0  0  0  0  0  0  0  0
  -31.9183   57.4578   63.0043 C   0  0  0  0  0  0  0  0  0  0  0  0
  -33.0413   59.5873   63.7202 C   0  0  0  0  0  0  0  0  0  0  0  0
  -32.7160   61.9134   63.0279 N   0  0  0  0  0  0  0  0  0  0  0  0
  -31.0883   60.3688   62.7449 O   0  0  0  0  0  0  0  0  0  0  0  0
  -32.2079   60.6738   63.0868 C   0  0  0  0  0  0  0  0  0  0  0  0
  -33.6425   62.0432   63.3347 H   0  0  0  0  0  0  0  0  0  0  0  0
  -33.2026   64.9664   63.5730 N   0  0  0  0  0  0  0  0  0  0  0  0
  -31.0063   64.6844   63.9759 O   0  0  0  0  0  0  0  0  0  0  0  0
  -34.5268   64.4603   63.1829 C   0  0  0  0  0  0  0  0  0  0  0  0
  -34.6452   64.3681   61.6499 C   0  0  0  0  0  0  0  0  0  0  0  0
  -33.3590   64.6275   60.8831 C   0  0  0  0  0  0  0  0  0  0  0  0
  -32.3021   63.5418   61.1025 C   0  0  0  0  0  0  0  0  0  0  0  0
  -31.9885   63.0900   62.5385 C   0  0  0  0  0  0  0  0  0  0  0  0
  -32.0388   64.3109   63.4362 C   0  0  0  0  0  0  0  0  0  0  0  0
  -32.0360   66.5503   65.4846 Si  0  0  0  0  0  0  0  0  0  0  0  0
  -33.1536   66.2079   64.1319 O   0  0  0  0  0  0  0  0  0  0  0  0
  -32.1771   67.9058   65.8836 H   0  0  0  0  0  0  0  0  0  0  0  0
  -30.6996   66.3171   65.0651 H   0  0  0  0  0  0  0  0  0  0  0  0
  -32.3436   65.7001   66.5796 H   0  0  0  0  0  0  0  0  0  0  0  0
  -39.5029   57.2858   62.3422 C   0  0  0  0  0  0  0  0  0  0  0  0
  -38.1079   57.7271   61.8826 C   0  0  0  0  0  0  0  0  0  0  0  0
  -40.6316   57.3534   61.2994 C   0  0  0  0  0  0  0  0  0  0  0  0
  -41.6143   56.1661   61.2365 C   0  0  0  0  0  0  0  0  0  0  0  0
  -41.7003   55.5690   62.5729 N   0  0  0  0  0  0  0  0  0  0  0  0
  -42.2859   56.0636   63.6954 C   0  0  0  0  0  0  0  0  0  0  0  0
  -41.0847   54.3136   62.6753 O   0  0  0  0  0  0  0  0  0  0  0  0
  -42.2728   55.4322   64.7519 O   0  0  0  0  0  0  0  0  0  0  0  0
  -41.1795   53.9799   63.5812 H   0  0  0  0  0  0  0  0  0  0  0  0
  -42.9770   57.4297   63.6312 C   0  0  0  0  0  0  0  0  0  0  0  0
  -43.3485   58.0190   64.9988 C   0  0  0  0  0  0  0  0  0  0  0  0
  -44.2232   59.2740   64.8135 C   0  0  0  0  0  0  0  0  0  0  0  0
  -45.6503   58.9623   64.3243 C   0  0  0  0  0  0  0  0  0  0  0  0
  -46.6086   58.4601   65.4203 C   0  0  0  0  0  0  0  0  0  0  0  0
  -47.9871   59.1521   65.3755 C   0  0  0  0  0  0  0  0  0  0  0  0
  -48.5825   59.3049   63.9564 C   0  0  0  0  0  0  0  0  0  0  0  0
  -49.3189   58.0529   63.4658 C   0  0  0  0  0  0  0  0  0  0  0  0
  -50.8154   58.2368   63.1941 C   0  0  0  0  0  0  0  0  0  0  0  0
  -51.1137   58.2520   61.6838 C   0  0  0  0  0  0  0  0  0  0  0  0
  -49.9871   57.6642   60.8206 C   0  0  0  0  0  0  0  0  0  0  0  0
  -49.6469   58.4461   59.5476 C   0  0  0  0  0  0  0  0  0  0  0  0
  -48.2583   58.1117   58.9478 C   0  0  0  0  0  0  0  0  0  0  0  0
  -48.3604   57.7553   57.4509 C   0  0  0  0  0  0  0  0  0  0  0  0
  -47.1230   58.0159   56.5835 C   0  0  0  0  0  0  0  0  0  0  0  0
 46 47  1  0  0  0
 46 48  1  0  0  0
 46 45  1  0  0  0
 47 49  2  0  0  0
 47 51  1  0  0  0
 19 20  2  0  0  0
 37 38  1  0  0  0
 37 39  1  0  0  0
 37 40  1  0  0  0
 37 41  1  0  0  0
 48 50  1  0  0  0
 38 29  1  0  0  0
 45 44  1  0  0  0
 25 27  1  0  0  0
 25 35  1  0  0  0
 25 28  1  0  0  0
 21 20  1  0  0  0
 21 22  1  0  0  0
 44 42  1  0  0  0
  2  1  1  0  0  0
  2  4  1  0  0  0
  2  5  1  0  0  0
 26 27  2  0  0  0
 42 43  2  0  0  0
 29 31  1  0  0  0
 29 36  1  0  0  0
  3  4  2  0  0  0
 43  1  1  0  0  0
  6  9  2  0  0  0
  6 10  1  0  0  0
  1 20  1  0  0  0
 30 36  2  0  0  0
  7  8  1  0  0  0
  7  9  1  0  0  0
 22 24  1  0  0  0
 22 23  1  0  0  0
 11 12  1  0  0  0
 11 18  1  0  0  0
 24 27  1  0  0  0
  4 10  1  0  0  0
 51 52  1  0  0  0
 52 53  1  0  0  0
 53 54  1  0  0  0
 54 55  1  0  0  0
 55 56  1  0  0  0
 56 57  1  0  0  0
 57 58  1  0  0  0
 58 59  1  0  0  0
 59 60  1  0  0  0
 60 61  1  0  0  0
 61 62  1  0  0  0
 62 63  1  0  0  0
 63 64  1  0  0  0
 64 65  1  0  0  0
 31 32  1  0  0  0
 32 33  1  0  0  0
 33 34  1  0  0  0
 34 35  1  0  0  0
 35 36  1  0  0  0
  8 10  1  0  0  0
  9 17  1  0  0  0
 12 13  2  0  0  0
 12 17  1  0  0  0
 13 14  1  0  0  0
 14 15  2  0  0  0
 15 16  1  0  0  0
 16 17  2  0  0  0
M  END
> <minimizedAffinity>
-9.46405

> <CNNscore>
0.1858310103

> <CNNaffinity>
7.0701532364

> <CNN_VS>
1.3138537407

> <CNNaffinity_variance>
0.8548191190

$$$$
/media/chris/experiments/cd1a-new-docking/inputs/ligands/1xz0_ligand.pdb


 65 67  0  0  0  0  0  0  0  0999 V2000
  -41.6458   57.6903   65.6525 C   0  0  0  0  0  0  0  0  0  0  0  0
  -41.3260   59.0662   66.0383 N   0  0  0  0  0  0  0  0  0  0  0  0
  -41.0983   61.3069   65.7215 O   0  0  0  0  0  0  0  0  0  0  0  0
  -41.4019   60.1944   65.3112 C   0  0  0  0  0  0  0  0  0  0  0  0
  -41.0099   59.1816   66.9635 H   0  0  0  0  0  0  0  0  0  0  0  0
  -41.1507   59.3463   62.9878 N   0  0  0  0  0  0  0  0  0  0  0  0
  -41.5876   61.2280   61.8651 O   0  0  0  0  0  0  0  0  0  0  0  0
  -42.2702   61.4016   63.1062 C   0  0  0  0  0  0  0  0  0  0  0  0
  -40.9234   59.9491   61.9005 C   0  0  0  0  0  0  0  0  0  0  0  0
  -42.0094   60.1030   63.9188 C   0  0  0  0  0  0  0  0  0  0  0  0
  -38.2312   60.7841   61.2286 O   0  0  0  0  0  0  0  0  0  0  0  0
  -38.8132   59.8298   60.4922 C   0  0  0  0  0  0  0  0  0  0  0  0
  -38.1084   59.2475   59.4306 C   0  0  0  0  0  0  0  0  0  0  0  0
  -38.7007   58.2507   58.6369 C   0  0  0  0  0  0  0  0  0  0  0  0
  -40.0010   57.8177   58.9022 C   0  0  0  0  0  0  0  0  0  0  0  0
  -40.7060   58.3911   59.9641 C   0  0  0  0  0  0  0  0  0  0  0  0
  -40.1184   59.3964   60.7558 C   0  0  0  0  0  0  0  0  0  0  0  0
  -37.3566   61.0582   61.0335 H   0  0  0  0  0  0  0  0  0  0  0  0
  -40.7947   56.6044   63.6949 O   0  0  0  0  0  0  0  0  0  0  0  0
  -40.5494   57.2469   64.7026 C   0  0  0  0  0  0  0  0  0  0  0  0
  -39.1469   57.5315   65.0233 O   0  0  0  0  0  0  0  0  0  0  0  0
  -38.3410   58.3737   64.1777 C   0  0  0  0  0  0  0  0  0  0  0  0
  -37.4755   57.6205   63.1751 C   0  0  0  0  0  0  0  0  0  0  0  0
  -37.4951   59.2749   65.0648 C   0  0  0  0  0  0  0  0  0  0  0  0
  -36.4511   61.4859   64.9327 N   0  0  0  0  0  0  0  0  0  0  0  0
  -38.4462   61.0724   63.9510 O   0  0  0  0  0  0  0  0  0  0  0  0
  -37.5082   60.7190   64.6282 C   0  0  0  0  0  0  0  0  0  0  0  0
  -35.7451   61.0902   65.4934 H   0  0  0  0  0  0  0  0  0  0  0  0
  -34.3253   62.7318   62.9876 N   0  0  0  0  0  0  0  0  0  0  0  0
  -36.2916   63.5090   62.2157 O   0  0  0  0  0  0  0  0  0  0  0  0
  -33.5215   61.9449   63.9343 C   0  0  0  0  0  0  0  0  0  0  0  0
  -33.2888   62.7322   65.2377 C   0  0  0  0  0  0  0  0  0  0  0  0
  -34.0628   64.0347   65.3558 C   0  0  0  0  0  0  0  0  0  0  0  0
  -35.5744   63.8240   65.4757 C   0  0  0  0  0  0  0  0  0  0  0  0
  -36.2722   62.8731   64.4891 C   0  0  0  0  0  0  0  0  0  0  0  0
  -35.6226   63.0473   63.1302 C   0  0  0  0  0  0  0  0  0  0  0  0
  -34.6354   63.4971   60.3718 Si  0  0  0  0  0  0  0  0  0  0  0  0
  -33.6999   63.1723   61.8602 O   0  0  0  0  0  0  0  0  0  0  0  0
  -33.7573   63.9421   59.3485 H   0  0  0  0  0  0  0  0  0  0  0  0
  -35.6059   64.5004   60.6321 H   0  0  0  0  0  0  0  0  0  0  0  0
  -35.2862   62.3066   59.9525 H   0  0  0  0  0  0  0  0  0  0  0  0
  -44.2272   57.5857   66.1204 C   0  0  0  0  0  0  0  0  0  0  0  0
  -43.0740   57.4117   65.1246 C   0  0  0  0  0  0  0  0  0  0  0  0
  -45.5624   56.9116   65.7619 C   0  0  0  0  0  0  0  0  0  0  0  0
  -46.7584   57.1552   66.7051 C   0  0  0  0  0  0  0  0  0  0  0  0
  -47.1986   58.5439   66.5403 N   0  0  0  0  0  0  0  0  0  0  0  0
  -48.1289   59.0518   65.6891 C   0  0  0  0  0  0  0  0  0  0  0  0
  -46.5532   59.4501   67.3934 O   0  0  0  0  0  0  0  0  0  0  0  0
  -48.3882   60.2549   65.6730 O   0  0  0  0  0  0  0  0  0  0  0  0
  -46.8915   60.3445   67.2308 H   0  0  0  0  0  0  0  0  0  0  0  0
  -48.8657   58.0994   64.7415 C   0  0  0  0  0  0  0  0  0  0  0  0
  -50.3962   58.1741   64.8287 C   0  0  0  0  0  0  0  0  0  0  0  0
  -50.9793   58.6547   63.4858 C   0  0  0  0  0  0  0  0  0  0  0  0
  -51.1684   60.1817   63.4088 C   0  0  0  0  0  0  0  0  0  0  0  0
  -50.7142   60.8180   62.0818 C   0  0  0  0  0  0  0  0  0  0  0  0
  -49.3859   60.2321   61.5590 C   0  0  0  0  0  0  0  0  0  0  0  0
  -49.4505   59.6854   60.1137 C   0  0  0  0  0  0  0  0  0  0  0  0
  -50.4712   58.5557   59.9340 C   0  0  0  0  0  0  0  0  0  0  0  0
  -49.9729   57.1562   60.3087 C   0  0  0  0  0  0  0  0  0  0  0  0
  -48.4427   57.0512   60.1755 C   0  0  0  0  0  0  0  0  0  0  0  0
  -47.9710   55.8474   59.3458 C   0  0  0  0  0  0  0  0  0  0  0  0
  -47.0206   56.1685   58.1878 C   0  0  0  0  0  0  0  0  0  0  0  0
  -47.6700   56.0666   56.7850 C   0  0  0  0  0  0  0  0  0  0  0  0
  -47.8930   57.4601   56.1632 C   0  0  0  0  0  0  0  0  0  0  0  0
  -47.2625   58.6574   56.8846 C   0  0  0  0  0  0  0  0  0  0  0  0
 46 47  1  0  0  0
 46 48  1  0  0  0
 46 45  1  0  0  0
 47 49  2  0  0  0
 47 51  1  0  0  0
 19 20  2  0  0  0
 37 38  1  0  0  0
 37 39  1  0  0  0
 37 40  1  0  0  0
 37 41  1  0  0  0
 48 50  1  0  0  0
 38 29  1  0  0  0
 45 44  1  0  0  0
 25 27  1  0  0  0
 25 35  1  0  0  0
 25 28  1  0  0  0
 21 20  1  0  0  0
 21 22  1  0  0  0
 44 42  1  0  0  0
  2  1  1  0  0  0
  2  4  1  0  0  0
  2  5  1  0  0  0
 26 27  2  0  0  0
 42 43  2  0  0  0
 29 31  1  0  0  0
 29 36  1  0  0  0
  3  4  2  0  0  0
 43  1  1  0  0  0
  6  9  2  0  0  0
  6 10  1  0  0  0
  1 20  1  0  0  0
 30 36  2  0  0  0
  7  8  1  0  0  0
  7  9  1  0  0  0
 22 24  1  0  0  0
 22 23  1  0  0  0
 11 12  1  0  0  0
 11 18  1  0  0  0
 24 27  1  0  0  0
  4 10  1  0  0  0
 51 52  1  0  0  0
 52 53  1  0  0  0
 53 54  1  0  0  0
 54 55  1  0  0  0
 55 56  1  0  0  0
 56 57  1  0  0  0
 57 58  1  0  0  0
 58 59  1  0  0  0
 59 60  1  0  0  0
 60 61  1  0  0  0
 61 62  1  0  0  0
 62 63  1  0  0  0
 63 64  1  0  0  0
 64 65  1  0  0  0
 31 32  1  0  0  0
 32 33  1  0  0  0
 33 34  1  0  0  0
 34 35  1  0  0  0
 35 36  1  0  0  0
  8 10  1  0  0  0
  9 17  1  0  0  0
 12 13  2  0  0  0
 12 17  1  0  0  0
 13 14  1  0  0  0
 14 15  2  0  0  0
 15 16  1  0  0  0
 16 17  2  0  0  0
M  END
> <minimizedAffinity>
-10.20437

> <CNNscore>
0.1624765694

> <CNNaffinity>
7.4457511902

> <CNN_VS>
1.2097600698

> <CNNaffinity_variance>
1.0638837814

$$$$
/media/chris/experiments/cd1a-new-docking/inputs/ligands/1xz0_ligand.pdb


 65 67  0  0  0  0  0  0  0  0999 V2000
  -41.1040   57.3230   64.0173 C   0  0  0  0  0  0  0  0  0  0  0  0
  -41.2564   58.6817   63.4930 N   0  0  0  0  0  0  0  0  0  0  0  0
  -40.9480   60.9348   63.4562 O   0  0  0  0  0  0  0  0  0  0  0  0
  -40.7532   59.8370   63.9614 C   0  0  0  0  0  0  0  0  0  0  0  0
  -41.8066   58.7605   62.6804 H   0  0  0  0  0  0  0  0  0  0  0  0
  -38.9851   60.9991   65.2666 N   0  0  0  0  0  0  0  0  0  0  0  0
  -37.4455   59.3807   65.3136 O   0  0  0  0  0  0  0  0  0  0  0  0
  -38.6777   58.6787   65.1544 C   0  0  0  0  0  0  0  0  0  0  0  0
  -37.7417   60.7908   65.3552 C   0  0  0  0  0  0  0  0  0  0  0  0
  -39.7863   59.7673   65.1345 C   0  0  0  0  0  0  0  0  0  0  0  0
  -36.9947   62.7328   63.3384 O   0  0  0  0  0  0  0  0  0  0  0  0
  -36.3916   62.7785   64.5325 C   0  0  0  0  0  0  0  0  0  0  0  0
  -35.4311   63.7665   64.7862 C   0  0  0  0  0  0  0  0  0  0  0  0
  -34.7771   63.8296   66.0282 C   0  0  0  0  0  0  0  0  0  0  0  0
  -35.0833   62.9116   67.0342 C   0  0  0  0  0  0  0  0  0  0  0  0
  -36.0453   61.9280   66.7882 C   0  0  0  0  0  0  0  0  0  0  0  0
  -36.6961   61.8567   65.5416 C   0  0  0  0  0  0  0  0  0  0  0  0
  -36.7747   63.3603   62.6782 H   0  0  0  0  0  0  0  0  0  0  0  0
  -41.2899   55.5319   62.4384 O   0  0  0  0  0  0  0  0  0  0  0  0
  -40.6295   56.4681   62.8576 C   0  0  0  0  0  0  0  0  0  0  0  0
  -39.3149   56.7177   62.2571 O   0  0  0  0  0  0  0  0  0  0  0  0
  -39.0573   57.9056   61.4849 C   0  0  0  0  0  0  0  0  0  0  0  0
  -39.8445   57.9972   60.1835 C   0  0  0  0  0  0  0  0  0  0  0  0
  -37.5605   57.9955   61.2283 C   0  0  0  0  0  0  0  0  0  0  0  0
  -35.7371   58.7018   62.7023 N   0  0  0  0  0  0  0  0  0  0  0  0
  -37.3571   60.1471   62.0684 O   0  0  0  0  0  0  0  0  0  0  0  0
  -36.8745   59.0379   62.0764 C   0  0  0  0  0  0  0  0  0  0  0  0
  -35.4399   57.7652   62.6396 H   0  0  0  0  0  0  0  0  0  0  0  0
  -32.8312   59.7532   62.1503 N   0  0  0  0  0  0  0  0  0  0  0  0
  -34.0167   61.6209   62.5650 O   0  0  0  0  0  0  0  0  0  0  0  0
  -32.7137   58.2945   62.0078 C   0  0  0  0  0  0  0  0  0  0  0  0
  -32.5730   57.6217   63.3863 C   0  0  0  0  0  0  0  0  0  0  0  0
  -32.7659   58.5421   64.5801 C   0  0  0  0  0  0  0  0  0  0  0  0
  -34.2022   59.0547   64.7147 C   0  0  0  0  0  0  0  0  0  0  0  0
  -34.9043   59.6313   63.4740 C   0  0  0  0  0  0  0  0  0  0  0  0
  -33.8786   60.4101   62.6738 C   0  0  0  0  0  0  0  0  0  0  0  0
  -31.6445   62.2261   62.1668 Si  0  0  0  0  0  0  0  0  0  0  0  0
  -31.7876   60.5057   61.7023 O   0  0  0  0  0  0  0  0  0  0  0  0
  -30.4797   62.7811   61.5740 H   0  0  0  0  0  0  0  0  0  0  0  0
  -31.5512   62.3287   63.5800 H   0  0  0  0  0  0  0  0  0  0  0  0
  -32.7890   62.9351   61.7154 H   0  0  0  0  0  0  0  0  0  0  0  0
  -43.4247   57.6805   65.1922 C   0  0  0  0  0  0  0  0  0  0  0  0
  -42.3037   56.7165   64.7848 C   0  0  0  0  0  0  0  0  0  0  0  0
  -44.3798   57.2065   66.3008 C   0  0  0  0  0  0  0  0  0  0  0  0
  -45.8788   57.1022   65.9522 C   0  0  0  0  0  0  0  0  0  0  0  0
  -46.5483   58.3144   66.4338 N   0  0  0  0  0  0  0  0  0  0  0  0
  -47.7833   58.7907   66.1241 C   0  0  0  0  0  0  0  0  0  0  0  0
  -45.7842   59.0647   67.3386 O   0  0  0  0  0  0  0  0  0  0  0  0
  -48.2058   59.8352   66.6196 O   0  0  0  0  0  0  0  0  0  0  0  0
  -46.2860   59.8477   67.6141 H   0  0  0  0  0  0  0  0  0  0  0  0
  -48.6583   58.0019   65.1443 C   0  0  0  0  0  0  0  0  0  0  0  0
  -50.1345   57.8990   65.5516 C   0  0  0  0  0  0  0  0  0  0  0  0
  -50.7710   59.3017   65.5907 C   0  0  0  0  0  0  0  0  0  0  0  0
  -51.1685   59.8357   64.2014 C   0  0  0  0  0  0  0  0  0  0  0  0
  -50.2537   60.9481   63.6561 C   0  0  0  0  0  0  0  0  0  0  0  0
  -49.3072   60.4545   62.5418 C   0  0  0  0  0  0  0  0  0  0  0  0
  -49.7750   59.1654   61.8269 C   0  0  0  0  0  0  0  0  0  0  0  0
  -50.0476   59.3621   60.3312 C   0  0  0  0  0  0  0  0  0  0  0  0
  -49.1120   58.5988   59.3883 C   0  0  0  0  0  0  0  0  0  0  0  0
  -48.2914   57.5404   60.1478 C   0  0  0  0  0  0  0  0  0  0  0  0
  -48.2133   56.1826   59.4334 C   0  0  0  0  0  0  0  0  0  0  0  0
  -47.1540   56.0698   58.3321 C   0  0  0  0  0  0  0  0  0  0  0  0
  -47.7346   55.9531   56.9007 C   0  0  0  0  0  0  0  0  0  0  0  0
  -47.9928   57.3413   56.2808 C   0  0  0  0  0  0  0  0  0  0  0  0
  -46.9597   58.4381   56.5659 C   0  0  0  0  0  0  0  0  0  0  0  0
 46 47  1  0  0  0
 46 48  1  0  0  0
 46 45  1  0  0  0
 47 49  2  0  0  0
 47 51  1  0  0  0
 19 20  2  0  0  0
 37 38  1  0  0  0
 37 39  1  0  0  0
 37 40  1  0  0  0
 37 41  1  0  0  0
 48 50  1  0  0  0
 38 29  1  0  0  0
 45 44  1  0  0  0
 25 27  1  0  0  0
 25 35  1  0  0  0
 25 28  1  0  0  0
 21 20  1  0  0  0
 21 22  1  0  0  0
 44 42  1  0  0  0
  2  1  1  0  0  0
  2  4  1  0  0  0
  2  5  1  0  0  0
 26 27  2  0  0  0
 42 43  2  0  0  0
 29 31  1  0  0  0
 29 36  1  0  0  0
  3  4  2  0  0  0
 43  1  1  0  0  0
  6  9  2  0  0  0
  6 10  1  0  0  0
  1 20  1  0  0  0
 30 36  2  0  0  0
  7  8  1  0  0  0
  7  9  1  0  0  0
 22 24  1  0  0  0
 22 23  1  0  0  0
 11 12  1  0  0  0
 11 18  1  0  0  0
 24 27  1  0  0  0
  4 10  1  0  0  0
 51 52  1  0  0  0
 52 53  1  0  0  0
 53 54  1  0  0  0
 54 55  1  0  0  0
 55 56  1  0  0  0
 56 57  1  0  0  0
 57 58  1  0  0  0
 58 59  1  0  0  0
 59 60  1  0  0  0
 60 61  1  0  0  0
 61 62  1  0  0  0
 62 63  1  0  0  0
 63 64  1  0  0  0
 64 65  1  0  0  0
 31 32  1  0  0  0
 32 33  1  0  0  0
 33 34  1  0  0  0
 34 35  1  0  0  0
 35 36  1  0  0  0
  8 10  1  0  0  0
  9 17  1  0  0  0
 12 13  2  0  0  0
 12 17  1  0  0  0
 13 14  1  0  0  0
 14 15  2  0  0  0
 15 16  1  0  0  0
 16 17  2  0  0  0
M  END
> <minimizedAffinity>
-9.83777

> <CNNscore>
0.1456781030

> <CNNaffinity>
7.3245592117

> <CNN_VS>
1.0670279264

> <CNNaffinity_variance>
0.7073917389

$$$$
/media/chris/experiments/cd1a-new-docking/inputs/ligands/1xz0_ligand.pdb


 65 67  0  0  0  0  0  0  0  0999 V2000
  -36.6222   59.0950   62.6921 C   0  0  0  0  0  0  0  0  0  0  0  0
  -36.6946   60.4302   63.2888 N   0  0  0  0  0  0  0  0  0  0  0  0
  -37.3746   61.9917   64.7963 O   0  0  0  0  0  0  0  0  0  0  0  0
  -37.3658   60.8411   64.3788 C   0  0  0  0  0  0  0  0  0  0  0  0
  -36.1771   61.1276   62.8250 H   0  0  0  0  0  0  0  0  0  0  0  0
  -38.4966   58.6273   64.4064 N   0  0  0  0  0  0  0  0  0  0  0  0
  -40.3584   59.1843   65.5091 O   0  0  0  0  0  0  0  0  0  0  0  0
  -39.3990   60.1462   65.9460 C   0  0  0  0  0  0  0  0  0  0  0  0
  -39.7114   58.3137   64.5597 C   0  0  0  0  0  0  0  0  0  0  0  0
  -38.0753   59.7866   65.2159 C   0  0  0  0  0  0  0  0  0  0  0  0
  -42.0519   56.9642   65.6074 O   0  0  0  0  0  0  0  0  0  0  0  0
  -41.5361   56.5510   64.4433 C   0  0  0  0  0  0  0  0  0  0  0  0
  -42.1433   55.4938   63.7530 C   0  0  0  0  0  0  0  0  0  0  0  0
  -41.6155   55.0354   62.5341 C   0  0  0  0  0  0  0  0  0  0  0  0
  -40.4804   55.6357   61.9866 C   0  0  0  0  0  0  0  0  0  0  0  0
  -39.8747   56.6949   62.6684 C   0  0  0  0  0  0  0  0  0  0  0  0
  -40.3961   57.1507   63.8944 C   0  0  0  0  0  0  0  0  0  0  0  0
  -42.8157   56.5476   65.9555 H   0  0  0  0  0  0  0  0  0  0  0  0
  -34.8413   57.5189   62.9749 O   0  0  0  0  0  0  0  0  0  0  0  0
  -35.1662   58.6750   62.7597 C   0  0  0  0  0  0  0  0  0  0  0  0
  -34.1091   59.6836   62.6322 O   0  0  0  0  0  0  0  0  0  0  0  0
  -32.9793   59.7019   63.5249 C   0  0  0  0  0  0  0  0  0  0  0  0
  -32.1015   58.4580   63.4600 C   0  0  0  0  0  0  0  0  0  0  0  0
  -33.4889   59.9407   64.9383 C   0  0  0  0  0  0  0  0  0  0  0  0
  -33.7482   62.2592   64.1944 N   0  0  0  0  0  0  0  0  0  0  0  0
  -34.4330   61.6048   66.2482 O   0  0  0  0  0  0  0  0  0  0  0  0
  -33.9035   61.3701   65.1862 C   0  0  0  0  0  0  0  0  0  0  0  0
  -33.3006   61.9540   63.3723 H   0  0  0  0  0  0  0  0  0  0  0  0
  -34.2739   64.3080   61.8747 N   0  0  0  0  0  0  0  0  0  0  0  0
  -36.1334   64.4255   63.1373 O   0  0  0  0  0  0  0  0  0  0  0  0
  -32.9384   63.7699   61.5769 C   0  0  0  0  0  0  0  0  0  0  0  0
  -31.8634   64.4824   62.4192 C   0  0  0  0  0  0  0  0  0  0  0  0
  -32.3946   65.4281   63.4836 C   0  0  0  0  0  0  0  0  0  0  0  0
  -33.1351   64.7047   64.6114 C   0  0  0  0  0  0  0  0  0  0  0  0
  -34.1983   63.6547   64.2480 C   0  0  0  0  0  0  0  0  0  0  0  0
  -34.9470   64.1486   63.0255 C   0  0  0  0  0  0  0  0  0  0  0  0
  -35.9513   64.2122   59.7065 Si  0  0  0  0  0  0  0  0  0  0  0  0
  -34.8870   65.0243   60.8913 O   0  0  0  0  0  0  0  0  0  0  0  0
  -36.4629   65.1722   58.7938 H   0  0  0  0  0  0  0  0  0  0  0  0
  -37.0282   63.5866   60.3885 H   0  0  0  0  0  0  0  0  0  0  0  0
  -35.2081   63.2327   58.9960 H   0  0  0  0  0  0  0  0  0  0  0  0
  -38.4301   59.8255   60.9338 C   0  0  0  0  0  0  0  0  0  0  0  0
  -37.2587   58.9036   61.2941 C   0  0  0  0  0  0  0  0  0  0  0  0
  -39.3348   59.3781   59.7731 C   0  0  0  0  0  0  0  0  0  0  0  0
  -40.8189   59.1043   60.0924 C   0  0  0  0  0  0  0  0  0  0  0  0
  -41.4759   60.3874   60.3601 N   0  0  0  0  0  0  0  0  0  0  0  0
  -42.2404   60.7523   61.4233 C   0  0  0  0  0  0  0  0  0  0  0  0
  -41.2676   61.3516   59.3639 O   0  0  0  0  0  0  0  0  0  0  0  0
  -42.7253   61.8809   61.5017 O   0  0  0  0  0  0  0  0  0  0  0  0
  -41.7281   62.1705   59.6051 H   0  0  0  0  0  0  0  0  0  0  0  0
  -42.4912   59.7344   62.5408 C   0  0  0  0  0  0  0  0  0  0  0  0
  -43.7096   60.0442   63.4210 C   0  0  0  0  0  0  0  0  0  0  0  0
  -44.4261   58.7370   63.8109 C   0  0  0  0  0  0  0  0  0  0  0  0
  -45.8180   58.9602   64.4323 C   0  0  0  0  0  0  0  0  0  0  0  0
  -46.5292   60.2449   63.9679 C   0  0  0  0  0  0  0  0  0  0  0  0
  -47.9480   59.9814   63.4215 C   0  0  0  0  0  0  0  0  0  0  0  0
  -49.0909   60.3907   64.3797 C   0  0  0  0  0  0  0  0  0  0  0  0
  -50.3757   59.5789   64.1785 C   0  0  0  0  0  0  0  0  0  0  0  0
  -50.1946   58.2270   63.4808 C   0  0  0  0  0  0  0  0  0  0  0  0
  -51.0775   58.1216   62.2239 C   0  0  0  0  0  0  0  0  0  0  0  0
  -50.5029   57.2034   61.1346 C   0  0  0  0  0  0  0  0  0  0  0  0
  -49.0842   57.5379   60.6623 C   0  0  0  0  0  0  0  0  0  0  0  0
  -49.0272   58.3387   59.3375 C   0  0  0  0  0  0  0  0  0  0  0  0
  -48.2341   57.5814   58.2532 C   0  0  0  0  0  0  0  0  0  0  0  0
  -47.4557   58.4262   57.2373 C   0  0  0  0  0  0  0  0  0  0  0  0
 46 47  1  0  0  0
 46 48  1  0  0  0
 46 45  1  0  0  0
 47 49  2  0  0  0
 47 51  1  0  0  0
 19 20  2  0  0  0
 37 38  1  0  0  0
 37 39  1  0  0  0
 37 40  1  0  0  0
 37 41  1  0  0  0
 48 50  1  0  0  0
 38 29  1  0  0  0
 45 44  1  0  0  0
 25 27  1  0  0  0
 25 35  1  0  0  0
 25 28  1  0  0  0
 21 20  1  0  0  0
 21 22  1  0  0  0
 44 42  1  0  0  0
  2  1  1  0  0  0
  2  4  1  0  0  0
  2  5  1  0  0  0
 26 27  2  0  0  0
 42 43  2  0  0  0
 29 31  1  0  0  0
 29 36  1  0  0  0
  3  4  2  0  0  0
 43  1  1  0  0  0
  6  9  2  0  0  0
  6 10  1  0  0  0
  1 20  1  0  0  0
 30 36  2  0  0  0
  7  8  1  0  0  0
  7  9  1  0  0  0
 22 24  1  0  0  0
 22 23  1  0  0  0
 11 12  1  0  0  0
 11 18  1  0  0  0
 24 27  1  0  0  0
  4 10  1  0  0  0
 51 52  1  0  0  0
 52 53  1  0  0  0
 53 54  1  0  0  0
 54 55  1  0  0  0
 55 56  1  0  0  0
 56 57  1  0  0  0
 57 58  1  0  0  0
 58 59  1  0  0  0
 59 60  1  0  0  0
 60 61  1  0  0  0
 61 62  1  0  0  0
 62 63  1  0  0  0
 63 64  1  0  0  0
 64 65  1  0  0  0
 31 32  1  0  0  0
 32 33  1  0  0  0
 33 34  1  0  0  0
 34 35  1  0  0  0
 35 36  1  0  0  0
  8 10  1  0  0  0
  9 17  1  0  0  0
 12 13  2  0  0  0
 12 17  1  0  0  0
 13 14  1  0  0  0
 14 15  2  0  0  0
 15 16  1  0  0  0
 16 17  2  0  0  0
M  END
> <minimizedAffinity>
-9.48103

> <CNNscore>
0.1297580004

> <CNNaffinity>
7.4778947830

> <CNN_VS>
0.9703166485

> <CNNaffinity_variance>
0.8812881708

$$$$
/media/chris/experiments/cd1a-new-docking/inputs/ligands/1xz0_ligand.pdb


 65 67  0  0  0  0  0  0  0  0999 V2000
  -44.4806   59.0534   66.1012 C   0  0  0  0  0  0  0  0  0  0  0  0
  -45.6960   59.6005   66.7077 N   0  0  0  0  0  0  0  0  0  0  0  0
  -47.9382   59.8904   66.9549 O   0  0  0  0  0  0  0  0  0  0  0  0
  -46.9827   59.3718   66.3925 C   0  0  0  0  0  0  0  0  0  0  0  0
  -45.5496   60.2258   67.4539 H   0  0  0  0  0  0  0  0  0  0  0  0
  -47.5134   58.9078   64.0086 N   0  0  0  0  0  0  0  0  0  0  0  0
  -49.2742   57.5602   64.2842 O   0  0  0  0  0  0  0  0  0  0  0  0
  -48.5300   57.4052   65.4919 C   0  0  0  0  0  0  0  0  0  0  0  0
  -48.5769   58.5099   63.4536 C   0  0  0  0  0  0  0  0  0  0  0  0
  -47.2792   58.3144   65.3389 C   0  0  0  0  0  0  0  0  0  0  0  0
  -49.3407   56.6562   61.3613 O   0  0  0  0  0  0  0  0  0  0  0  0
  -49.4137   57.9703   61.1171 C   0  0  0  0  0  0  0  0  0  0  0  0
  -49.8696   58.4190   59.8706 C   0  0  0  0  0  0  0  0  0  0  0  0
  -49.9463   59.7929   59.5864 C   0  0  0  0  0  0  0  0  0  0  0  0
  -49.5773   60.7340   60.5491 C   0  0  0  0  0  0  0  0  0  0  0  0
  -49.1278   60.2916   61.7963 C   0  0  0  0  0  0  0  0  0  0  0  0
  -49.0415   58.9152   62.0811 C   0  0  0  0  0  0  0  0  0  0  0  0
  -49.5952   56.0422   60.7008 H   0  0  0  0  0  0  0  0  0  0  0  0
  -45.0518   57.0044   67.2017 O   0  0  0  0  0  0  0  0  0  0  0  0
  -44.5908   57.5444   66.2096 C   0  0  0  0  0  0  0  0  0  0  0  0
  -44.0730   56.6957   65.1314 O   0  0  0  0  0  0  0  0  0  0  0  0
  -43.0654   57.1734   64.2201 C   0  0  0  0  0  0  0  0  0  0  0  0
  -43.6128   57.8706   62.9807 C   0  0  0  0  0  0  0  0  0  0  0  0
  -42.1686   56.0044   63.8412 C   0  0  0  0  0  0  0  0  0  0  0  0
  -40.6885   57.3259   62.4063 N   0  0  0  0  0  0  0  0  0  0  0  0
  -41.4948   55.3241   61.7294 O   0  0  0  0  0  0  0  0  0  0  0  0
  -41.4321   56.2182   62.5419 C   0  0  0  0  0  0  0  0  0  0  0  0
  -40.7162   57.9876   63.1349 H   0  0  0  0  0  0  0  0  0  0  0  0
  -38.9908   59.8813   61.7411 N   0  0  0  0  0  0  0  0  0  0  0  0
  -37.5505   58.1776   61.4432 O   0  0  0  0  0  0  0  0  0  0  0  0
  -40.3171   60.4157   62.0829 C   0  0  0  0  0  0  0  0  0  0  0  0
  -41.2705   60.3206   60.8768 C   0  0  0  0  0  0  0  0  0  0  0  0
  -40.7305   59.5522   59.6820 C   0  0  0  0  0  0  0  0  0  0  0  0
  -40.5555   58.0571   59.9613 C   0  0  0  0  0  0  0  0  0  0  0  0
  -39.8364   57.6213   61.2488 C   0  0  0  0  0  0  0  0  0  0  0  0
  -38.7000   58.5923   61.5033 C   0  0  0  0  0  0  0  0  0  0  0  0
  -36.3243   60.3148   62.2166 Si  0  0  0  0  0  0  0  0  0  0  0  0
  -37.9632   60.7729   61.6686 O   0  0  0  0  0  0  0  0  0  0  0  0
  -35.4413   61.4123   62.0373 H   0  0  0  0  0  0  0  0  0  0  0  0
  -35.8634   59.2074   61.4567 H   0  0  0  0  0  0  0  0  0  0  0  0
  -36.3665   59.9608   63.5911 H   0  0  0  0  0  0  0  0  0  0  0  0
  -42.0904   59.9706   65.5188 C   0  0  0  0  0  0  0  0  0  0  0  0
  -43.1241   59.6132   66.5938 C   0  0  0  0  0  0  0  0  0  0  0  0
  -40.6285   60.1043   65.9778 C   0  0  0  0  0  0  0  0  0  0  0  0
  -39.6144   59.0782   65.4315 C   0  0  0  0  0  0  0  0  0  0  0  0
  -38.3367   59.7643   65.2164 N   0  0  0  0  0  0  0  0  0  0  0  0
  -37.1155   59.2336   64.9426 C   0  0  0  0  0  0  0  0  0  0  0  0
  -38.4179   61.1607   65.3117 O   0  0  0  0  0  0  0  0  0  0  0  0
  -36.1289   59.9527   64.7864 O   0  0  0  0  0  0  0  0  0  0  0  0
  -37.5413   61.5468   65.1592 H   0  0  0  0  0  0  0  0  0  0  0  0
  -36.9779   57.7122   64.8226 C   0  0  0  0  0  0  0  0  0  0  0  0
  -35.5297   57.2042   64.8075 C   0  0  0  0  0  0  0  0  0  0  0  0
  -34.9693   57.2477   63.3728 C   0  0  0  0  0  0  0  0  0  0  0  0
  -33.5501   57.8407   63.2846 C   0  0  0  0  0  0  0  0  0  0  0  0
  -33.4043   59.0105   62.2936 C   0  0  0  0  0  0  0  0  0  0  0  0
  -32.4540   60.1142   62.8035 C   0  0  0  0  0  0  0  0  0  0  0  0
  -31.4799   60.6656   61.7364 C   0  0  0  0  0  0  0  0  0  0  0  0
  -31.4091   62.1968   61.7083 C   0  0  0  0  0  0  0  0  0  0  0  0
  -31.2503   62.8710   63.0748 C   0  0  0  0  0  0  0  0  0  0  0  0
  -32.2002   64.0738   63.2207 C   0  0  0  0  0  0  0  0  0  0  0  0
  -33.6849   63.7193   63.0481 C   0  0  0  0  0  0  0  0  0  0  0  0
  -34.4867   63.5616   64.3442 C   0  0  0  0  0  0  0  0  0  0  0  0
  -33.8440   64.2453   65.5768 C   0  0  0  0  0  0  0  0  0  0  0  0
  -33.3619   63.2079   66.6110 C   0  0  0  0  0  0  0  0  0  0  0  0
  -33.5545   61.7277   66.2594 C   0  0  0  0  0  0  0  0  0  0  0  0
 46 47  1  0  0  0
 46 48  1  0  0  0
 46 45  1  0  0  0
 47 49  2  0  0  0
 47 51  1  0  0  0
 19 20  2  0  0  0
 37 38  1  0  0  0
 37 39  1  0  0  0
 37 40  1  0  0  0
 37 41  1  0  0  0
 48 50  1  0  0  0
 38 29  1  0  0  0
 45 44  1  0  0  0
 25 27  1  0  0  0
 25 35  1  0  0  0
 25 28  1  0  0  0
 21 20  1  0  0  0
 21 22  1  0  0  0
 44 42  1  0  0  0
  2  1  1  0  0  0
  2  4  1  0  0  0
  2  5  1  0  0  0
 26 27  2  0  0  0
 42 43  2  0  0  0
 29 31  1  0  0  0
 29 36  1  0  0  0
  3  4  2  0  0  0
 43  1  1  0  0  0
  6  9  2  0  0  0
  6 10  1  0  0  0
  1 20  1  0  0  0
 30 36  2  0  0  0
  7  8  1  0  0  0
  7  9  1  0  0  0
 22 24  1  0  0  0
 22 23  1  0  0  0
 11 12  1  0  0  0
 11 18  1  0  0  0
 24 27  1  0  0  0
  4 10  1  0  0  0
 51 52  1  0  0  0
 52 53  1  0  0  0
 53 54  1  0  0  0
 54 55  1  0  0  0
 55 56  1  0  0  0
 56 57  1  0  0  0
 57 58  1  0  0  0
 58 59  1  0  0  0
 59 60  1  0  0  0
 60 61  1  0  0  0
 61 62  1  0  0  0
 62 63  1  0  0  0
 63 64  1  0  0  0
 64 65  1  0  0  0
 31 32  1  0  0  0
 32 33  1  0  0  0
 33 34  1  0  0  0
 34 35  1  0  0  0
 35 36  1  0  0  0
  8 10  1  0  0  0
  9 17  1  0  0  0
 12 13  2  0  0  0
 12 17  1  0  0  0
 13 14  1  0  0  0
 14 15  2  0  0  0
 15 16  1  0  0  0
 16 17  2  0  0  0
M  END
> <minimizedAffinity>
-9.22052

> <CNNscore>
0.1270325184

> <CNNaffinity>
7.5052347183

> <CNN_VS>
0.9534088969

> <CNNaffinity_variance>
1.8951892853

$$$$
/media/chris/experiments/cd1a-new-docking/inputs/ligands/1xz0_ligand.pdb


 65 67  0  0  0  0  0  0  0  0999 V2000
  -41.4243   57.8065   65.6371 C   0  0  0  0  0  0  0  0  0  0  0  0
  -41.1872   59.2075   65.9906 N   0  0  0  0  0  0  0  0  0  0  0  0
  -41.1021   61.4507   65.6248 O   0  0  0  0  0  0  0  0  0  0  0  0
  -41.3397   60.3130   65.2410 C   0  0  0  0  0  0  0  0  0  0  0  0
  -40.8704   59.3622   66.9099 H   0  0  0  0  0  0  0  0  0  0  0  0
  -41.0721   59.4024   62.9433 N   0  0  0  0  0  0  0  0  0  0  0  0
  -41.5899   61.2294   61.7660 O   0  0  0  0  0  0  0  0  0  0  0  0
  -42.2699   61.4154   63.0067 C   0  0  0  0  0  0  0  0  0  0  0  0
  -40.8761   59.9789   61.8357 C   0  0  0  0  0  0  0  0  0  0  0  0
  -41.9530   60.1543   63.8572 C   0  0  0  0  0  0  0  0  0  0  0  0
  -38.1682   60.7952   61.2050 O   0  0  0  0  0  0  0  0  0  0  0  0
  -38.7462   59.8462   60.4587 C   0  0  0  0  0  0  0  0  0  0  0  0
  -38.0301   59.2602   59.4067 C   0  0  0  0  0  0  0  0  0  0  0  0
  -38.6178   58.2689   58.6028 C   0  0  0  0  0  0  0  0  0  0  0  0
  -39.9250   57.8450   58.8482 C   0  0  0  0  0  0  0  0  0  0  0  0
  -40.6414   58.4220   59.9005 C   0  0  0  0  0  0  0  0  0  0  0  0
  -40.0583   59.4220   60.7022 C   0  0  0  0  0  0  0  0  0  0  0  0
  -37.2889   61.0632   61.0233 H   0  0  0  0  0  0  0  0  0  0  0  0
  -40.3953   56.7327   63.7599 O   0  0  0  0  0  0  0  0  0  0  0  0
  -40.2450   57.3749   64.7863 C   0  0  0  0  0  0  0  0  0  0  0  0
  -38.8785   57.6708   65.2292 O   0  0  0  0  0  0  0  0  0  0  0  0
  -37.8244   57.9320   64.2835 C   0  0  0  0  0  0  0  0  0  0  0  0
  -38.0592   57.3459   62.8967 C   0  0  0  0  0  0  0  0  0  0  0  0
  -36.5147   57.4333   64.8754 C   0  0  0  0  0  0  0  0  0  0  0  0
  -35.4632   59.6447   64.8595 N   0  0  0  0  0  0  0  0  0  0  0  0
  -34.3361   57.8071   64.1753 O   0  0  0  0  0  0  0  0  0  0  0  0
  -35.3455   58.3391   64.5770 C   0  0  0  0  0  0  0  0  0  0  0  0
  -36.3365   59.9664   65.1809 H   0  0  0  0  0  0  0  0  0  0  0  0
  -35.1475   62.4966   66.1328 N   0  0  0  0  0  0  0  0  0  0  0  0
  -33.1844   61.4854   66.5679 O   0  0  0  0  0  0  0  0  0  0  0  0
  -36.5003   62.5130   65.5572 C   0  0  0  0  0  0  0  0  0  0  0  0
  -36.4465   62.8100   64.0467 C   0  0  0  0  0  0  0  0  0  0  0  0
  -35.0532   62.8380   63.4403 C   0  0  0  0  0  0  0  0  0  0  0  0
  -34.3754   61.4653   63.4339 C   0  0  0  0  0  0  0  0  0  0  0  0
  -34.3823   60.6276   64.7235 C   0  0  0  0  0  0  0  0  0  0  0  0
  -34.2039   61.5711   65.8969 C   0  0  0  0  0  0  0  0  0  0  0  0
  -33.5480   63.2803   68.2188 Si  0  0  0  0  0  0  0  0  0  0  0  0
  -34.8263   63.5061   66.9896 O   0  0  0  0  0  0  0  0  0  0  0  0
  -33.4070   64.4712   68.9792 H   0  0  0  0  0  0  0  0  0  0  0  0
  -32.3186   62.9820   67.5741 H   0  0  0  0  0  0  0  0  0  0  0  0
  -33.9033   62.2084   69.0797 H   0  0  0  0  0  0  0  0  0  0  0  0
  -44.0434   57.8681   65.8109 C   0  0  0  0  0  0  0  0  0  0  0  0
  -42.7982   57.4500   65.0194 C   0  0  0  0  0  0  0  0  0  0  0  0
  -45.3625   57.1618   65.4548 C   0  0  0  0  0  0  0  0  0  0  0  0
  -46.4537   57.1013   66.5435 C   0  0  0  0  0  0  0  0  0  0  0  0
  -46.9243   58.4661   66.7992 N   0  0  0  0  0  0  0  0  0  0  0  0
  -47.6490   59.2868   65.9936 C   0  0  0  0  0  0  0  0  0  0  0  0
  -46.5617   58.9661   68.0578 O   0  0  0  0  0  0  0  0  0  0  0  0
  -47.9694   60.4177   66.3589 O   0  0  0  0  0  0  0  0  0  0  0  0
  -46.9041   59.8681   68.1584 H   0  0  0  0  0  0  0  0  0  0  0  0
  -48.0744   58.7823   64.6106 C   0  0  0  0  0  0  0  0  0  0  0  0
  -49.2914   57.8473   64.6218 C   0  0  0  0  0  0  0  0  0  0  0  0
  -50.4770   58.5314   65.3293 C   0  0  0  0  0  0  0  0  0  0  0  0
  -51.1236   59.6558   64.4979 C   0  0  0  0  0  0  0  0  0  0  0  0
  -51.1736   59.3854   62.9826 C   0  0  0  0  0  0  0  0  0  0  0  0
  -50.7816   60.6172   62.1399 C   0  0  0  0  0  0  0  0  0  0  0  0
  -49.4425   60.4746   61.3795 C   0  0  0  0  0  0  0  0  0  0  0  0
  -49.4483   59.3478   60.3400 C   0  0  0  0  0  0  0  0  0  0  0  0
  -48.5402   58.1560   60.6598 C   0  0  0  0  0  0  0  0  0  0  0  0
  -49.3011   56.8229   60.5400 C   0  0  0  0  0  0  0  0  0  0  0  0
  -48.5388   55.7386   59.7633 C   0  0  0  0  0  0  0  0  0  0  0  0
  -47.4623   56.2442   58.7974 C   0  0  0  0  0  0  0  0  0  0  0  0
  -47.7779   55.9878   57.3026 C   0  0  0  0  0  0  0  0  0  0  0  0
  -47.4035   57.2027   56.4297 C   0  0  0  0  0  0  0  0  0  0  0  0
  -47.4098   58.5789   57.1061 C   0  0  0  0  0  0  0  0  0  0  0  0
 46 47  1  0  0  0
 46 48  1  0  0  0
 46 45  1  0  0  0
 47 49  2  0  0  0
 47 51  1  0  0  0
 19 20  2  0  0  0
 37 38  1  0  0  0
 37 39  1  0  0  0
 37 40  1  0  0  0
 37 41  1  0  0  0
 48 50  1  0  0  0
 38 29  1  0  0  0
 45 44  1  0  0  0
 25 27  1  0  0  0
 25 35  1  0  0  0
 25 28  1  0  0  0
 21 20  1  0  0  0
 21 22  1  0  0  0
 44 42  1  0  0  0
  2  1  1  0  0  0
  2  4  1  0  0  0
  2  5  1  0  0  0
 26 27  2  0  0  0
 42 43  2  0  0  0
 29 31  1  0  0  0
 29 36  1  0  0  0
  3  4  2  0  0  0
 43  1  1  0  0  0
  6  9  2  0  0  0
  6 10  1  0  0  0
  1 20  1  0  0  0
 30 36  2  0  0  0
  7  8  1  0  0  0
  7  9  1  0  0  0
 22 24  1  0  0  0
 22 23  1  0  0  0
 11 12  1  0  0  0
 11 18  1  0  0  0
 24 27  1  0  0  0
  4 10  1  0  0  0
 51 52  1  0  0  0
 52 53  1  0  0  0
 53 54  1  0  0  0
 54 55  1  0  0  0
 55 56  1  0  0  0
 56 57  1  0  0  0
 57 58  1  0  0  0
 58 59  1  0  0  0
 59 60  1  0  0  0
 60 61  1  0  0  0
 61 62  1  0  0  0
 62 63  1  0  0  0
 63 64  1  0  0  0
 64 65  1  0  0  0
 31 32  1  0  0  0
 32 33  1  0  0  0
 33 34  1  0  0  0
 34 35  1  0  0  0
 35 36  1  0  0  0
  8 10  1  0  0  0
  9 17  1  0  0  0
 12 13  2  0  0  0
 12 17  1  0  0  0
 13 14  1  0  0  0
 14 15  2  0  0  0
 15 16  1  0  0  0
 16 17  2  0  0  0
M  END
> <minimizedAffinity>
-9.98003

> <CNNscore>
0.1125519872

> <CNNaffinity>
7.5627088547

> <CNN_VS>
0.8511978984

> <CNNaffinity_variance>
1.0516903400

$$$$
/media/chris/experiments/cd1a-new-docking/inputs/ligands/1xz0_ligand.pdb


 65 67  0  0  0  0  0  0  0  0999 V2000
  -40.6119   58.4427   64.8180 C   0  0  0  0  0  0  0  0  0  0  0  0
  -39.8847   59.5574   65.4285 N   0  0  0  0  0  0  0  0  0  0  0  0
  -38.0971   60.5898   66.3833 O   0  0  0  0  0  0  0  0  0  0  0  0
  -38.6166   59.6064   65.8721 C   0  0  0  0  0  0  0  0  0  0  0  0
  -40.3986   60.3912   65.5284 H   0  0  0  0  0  0  0  0  0  0  0  0
  -36.3298   58.7770   65.3597 N   0  0  0  0  0  0  0  0  0  0  0  0
  -36.8131   57.4019   63.6663 O   0  0  0  0  0  0  0  0  0  0  0  0
  -38.0239   57.4590   64.4194 C   0  0  0  0  0  0  0  0  0  0  0  0
  -35.8476   58.2531   64.3155 C   0  0  0  0  0  0  0  0  0  0  0  0
  -37.7298   58.3946   65.6247 C   0  0  0  0  0  0  0  0  0  0  0  0
  -35.1106   58.7931   61.5655 O   0  0  0  0  0  0  0  0  0  0  0  0
  -34.1441   58.7092   62.4879 C   0  0  0  0  0  0  0  0  0  0  0  0
  -32.8082   58.8988   62.1106 C   0  0  0  0  0  0  0  0  0  0  0  0
  -31.7747   58.8064   63.0581 C   0  0  0  0  0  0  0  0  0  0  0  0
  -32.0663   58.5331   64.3956 C   0  0  0  0  0  0  0  0  0  0  0  0
  -33.3980   58.3494   64.7781 C   0  0  0  0  0  0  0  0  0  0  0  0
  -34.4351   58.4327   63.8293 C   0  0  0  0  0  0  0  0  0  0  0  0
  -34.8920   58.9792   60.6736 H   0  0  0  0  0  0  0  0  0  0  0  0
  -41.0462   57.9700   62.5107 O   0  0  0  0  0  0  0  0  0  0  0  0
  -40.8194   58.8140   63.3620 C   0  0  0  0  0  0  0  0  0  0  0  0
  -40.6808   60.2113   62.9383 O   0  0  0  0  0  0  0  0  0  0  0  0
  -39.6630   60.6128   62.0020 C   0  0  0  0  0  0  0  0  0  0  0  0
  -39.8385   60.0500   60.5970 C   0  0  0  0  0  0  0  0  0  0  0  0
  -38.3062   60.2370   62.5783 C   0  0  0  0  0  0  0  0  0  0  0  0
  -36.4632   61.5135   63.5632 N   0  0  0  0  0  0  0  0  0  0  0  0
  -37.2795   62.0246   61.5168 O   0  0  0  0  0  0  0  0  0  0  0  0
  -37.3079   61.3674   62.5320 C   0  0  0  0  0  0  0  0  0  0  0  0
  -36.5822   60.9201   64.3398 H   0  0  0  0  0  0  0  0  0  0  0  0
  -34.3035   62.0252   65.7832 N   0  0  0  0  0  0  0  0  0  0  0  0
  -33.1079   61.8893   63.8812 O   0  0  0  0  0  0  0  0  0  0  0  0
  -35.5739   62.0017   66.5230 C   0  0  0  0  0  0  0  0  0  0  0  0
  -36.2868   63.3637   66.4254 C   0  0  0  0  0  0  0  0  0  0  0  0
  -35.6546   64.3597   65.4672 C   0  0  0  0  0  0  0  0  0  0  0  0
  -35.7638   63.9320   64.0013 C   0  0  0  0  0  0  0  0  0  0  0  0
  -35.3740   62.4953   63.6157 C   0  0  0  0  0  0  0  0  0  0  0  0
  -34.1719   62.0956   64.4489 C   0  0  0  0  0  0  0  0  0  0  0  0
  -33.0375   62.8048   68.0884 Si  0  0  0  0  0  0  0  0  0  0  0  0
  -33.1576   61.9603   66.5173 O   0  0  0  0  0  0  0  0  0  0  0  0
  -31.7519   62.5818   68.6486 H   0  0  0  0  0  0  0  0  0  0  0  0
  -34.0315   62.3058   68.9712 H   0  0  0  0  0  0  0  0  0  0  0  0
  -33.2338   64.1976   67.8933 H   0  0  0  0  0  0  0  0  0  0  0  0
  -42.7490   56.9177   64.7858 C   0  0  0  0  0  0  0  0  0  0  0  0
  -41.9018   57.9606   65.5250 C   0  0  0  0  0  0  0  0  0  0  0  0
  -44.2084   56.7568   65.2440 C   0  0  0  0  0  0  0  0  0  0  0  0
  -44.8022   57.8696   66.1320 C   0  0  0  0  0  0  0  0  0  0  0  0
  -45.3779   58.8968   65.2585 N   0  0  0  0  0  0  0  0  0  0  0  0
  -46.6843   59.1505   64.9810 C   0  0  0  0  0  0  0  0  0  0  0  0
  -44.4239   59.7159   64.6385 O   0  0  0  0  0  0  0  0  0  0  0  0
  -47.0083   60.0606   64.2182 O   0  0  0  0  0  0  0  0  0  0  0  0
  -44.8728   60.3687   64.0789 H   0  0  0  0  0  0  0  0  0  0  0  0
  -47.7641   58.2858   65.6399 C   0  0  0  0  0  0  0  0  0  0  0  0
  -49.0063   59.0611   66.0997 C   0  0  0  0  0  0  0  0  0  0  0  0
  -50.1525   58.8711   65.0875 C   0  0  0  0  0  0  0  0  0  0  0  0
  -51.1720   60.0261   65.0889 C   0  0  0  0  0  0  0  0  0  0  0  0
  -51.1724   60.8827   63.8091 C   0  0  0  0  0  0  0  0  0  0  0  0
  -49.9546   60.6074   62.9022 C   0  0  0  0  0  0  0  0  0  0  0  0
  -50.2850   60.5166   61.3942 C   0  0  0  0  0  0  0  0  0  0  0  0
  -49.5922   59.3459   60.6873 C   0  0  0  0  0  0  0  0  0  0  0  0
  -49.0161   58.2695   61.6128 C   0  0  0  0  0  0  0  0  0  0  0  0
  -49.6054   56.8829   61.2958 C   0  0  0  0  0  0  0  0  0  0  0  0
  -49.4091   56.4415   59.8375 C   0  0  0  0  0  0  0  0  0  0  0  0
  -48.0361   55.8511   59.4999 C   0  0  0  0  0  0  0  0  0  0  0  0
  -47.1347   56.7821   58.6512 C   0  0  0  0  0  0  0  0  0  0  0  0
  -47.9680   57.6487   57.6853 C   0  0  0  0  0  0  0  0  0  0  0  0
  -47.1982   58.5176   56.6834 C   0  0  0  0  0  0  0  0  0  0  0  0
 46 47  1  0  0  0
 46 48  1  0  0  0
 46 45  1  0  0  0
 47 49  2  0  0  0
 47 51  1  0  0  0
 19 20  2  0  0  0
 37 38  1  0  0  0
 37 39  1  0  0  0
 37 40  1  0  0  0
 37 41  1  0  0  0
 48 50  1  0  0  0
 38 29  1  0  0  0
 45 44  1  0  0  0
 25 27  1  0  0  0
 25 35  1  0  0  0
 25 28  1  0  0  0
 21 20  1  0  0  0
 21 22  1  0  0  0
 44 42  1  0  0  0
  2  1  1  0  0  0
  2  4  1  0  0  0
  2  5  1  0  0  0
 26 27  2  0  0  0
 42 43  2  0  0  0
 29 31  1  0  0  0
 29 36  1  0  0  0
  3  4  2  0  0  0
 43  1  1  0  0  0
  6  9  2  0  0  0
  6 10  1  0  0  0
  1 20  1  0  0  0
 30 36  2  0  0  0
  7  8  1  0  0  0
  7  9  1  0  0  0
 22 24  1  0  0  0
 22 23  1  0  0  0
 11 12  1  0  0  0
 11 18  1  0  0  0
 24 27  1  0  0  0
  4 10  1  0  0  0
 51 52  1  0  0  0
 52 53  1  0  0  0
 53 54  1  0  0  0
 54 55  1  0  0  0
 55 56  1  0  0  0
 56 57  1  0  0  0
 57 58  1  0  0  0
 58 59  1  0  0  0
 59 60  1  0  0  0
 60 61  1  0  0  0
 61 62  1  0  0  0
 62 63  1  0  0  0
 63 64  1  0  0  0
 64 65  1  0  0  0
 31 32  1  0  0  0
 32 33  1  0  0  0
 33 34  1  0  0  0
 34 35  1  0  0  0
 35 36  1  0  0  0
  8 10  1  0  0  0
  9 17  1  0  0  0
 12 13  2  0  0  0
 12 17  1  0  0  0
 13 14  1  0  0  0
 14 15  2  0  0  0
 15 16  1  0  0  0
 16 17  2  0  0  0
M  END
> <minimizedAffinity>
-9.06835

> <CNNscore>
0.1084780246

> <CNNaffinity>
7.3903379440

> <CNN_VS>
0.8016892672

> <CNNaffinity_variance>
0.2398830950

$$$$
