/media/chris/experiments/cd1a-new-docking/inputs/ligands/1xz0_ligand.pdb


 65 67  0  0  0  0  0  0  0  0999 V2000
  -36.3777   60.9047   63.5396 C   0  0  0  0  0  0  0  0  0  0  0  0
  -34.9312   60.6795   63.5066 N   0  0  0  0  0  0  0  0  0  0  0  0
  -33.0288   59.4755   63.1836 O   0  0  0  0  0  0  0  0  0  0  0  0
  -34.2490   59.5716   63.1681 C   0  0  0  0  0  0  0  0  0  0  0  0
  -34.3786   61.4505   63.7703 H   0  0  0  0  0  0  0  0  0  0  0  0
  -36.1145   58.8161   61.7091 N   0  0  0  0  0  0  0  0  0  0  0  0
  -37.1658   57.4577   63.1379 O   0  0  0  0  0  0  0  0  0  0  0  0
  -35.8165   57.4674   63.6022 C   0  0  0  0  0  0  0  0  0  0  0  0
  -37.2448   58.3242   61.9886 C   0  0  0  0  0  0  0  0  0  0  0  0
  -35.0380   58.3898   62.6234 C   0  0  0  0  0  0  0  0  0  0  0  0
  -37.9169   60.7979   60.6372 O   0  0  0  0  0  0  0  0  0  0  0  0
  -38.7669   59.7670   60.5562 C   0  0  0  0  0  0  0  0  0  0  0  0
  -39.9467   59.8987   59.8121 C   0  0  0  0  0  0  0  0  0  0  0  0
  -40.8596   58.8345   59.7194 C   0  0  0  0  0  0  0  0  0  0  0  0
  -40.5981   57.6230   60.3618 C   0  0  0  0  0  0  0  0  0  0  0  0
  -39.4194   57.4845   61.1000 C   0  0  0  0  0  0  0  0  0  0  0  0
  -38.5070   58.5520   61.2019 C   0  0  0  0  0  0  0  0  0  0  0  0
  -38.1119   61.6014   60.1965 H   0  0  0  0  0  0  0  0  0  0  0  0
  -36.9242   63.0860   64.3633 O   0  0  0  0  0  0  0  0  0  0  0  0
  -36.5800   62.4027   63.4131 C   0  0  0  0  0  0  0  0  0  0  0  0
  -36.4274   63.0519   62.1068 O   0  0  0  0  0  0  0  0  0  0  0  0
  -35.6913   64.2812   61.9626 C   0  0  0  0  0  0  0  0  0  0  0  0
  -36.4607   65.4022   61.2750 C   0  0  0  0  0  0  0  0  0  0  0  0
  -34.3917   63.9788   61.2318 C   0  0  0  0  0  0  0  0  0  0  0  0
  -33.2393   63.6527   63.3675 N   0  0  0  0  0  0  0  0  0  0  0  0
  -32.8137   62.3185   61.5915 O   0  0  0  0  0  0  0  0  0  0  0  0
  -33.3795   63.2634   62.0920 C   0  0  0  0  0  0  0  0  0  0  0  0
  -33.7517   64.4389   63.6650 H   0  0  0  0  0  0  0  0  0  0  0  0
  -33.2746   63.7785   66.5041 N   0  0  0  0  0  0  0  0  0  0  0  0
  -33.2095   61.5755   66.0479 O   0  0  0  0  0  0  0  0  0  0  0  0
  -33.3057   65.1896   66.0921 C   0  0  0  0  0  0  0  0  0  0  0  0
  -31.8892   65.6889   65.7503 C   0  0  0  0  0  0  0  0  0  0  0  0
  -30.8120   64.6171   65.7250 C   0  0  0  0  0  0  0  0  0  0  0  0
  -30.9904   63.6160   64.5806 C   0  0  0  0  0  0  0  0  0  0  0  0
  -32.3758   62.9895   64.3513 C   0  0  0  0  0  0  0  0  0  0  0  0
  -33.0049   62.7325   65.7067 C   0  0  0  0  0  0  0  0  0  0  0  0
  -35.1313   62.8060   68.2735 Si  0  0  0  0  0  0  0  0  0  0  0  0
  -33.5538   63.5079   67.8097 O   0  0  0  0  0  0  0  0  0  0  0  0
  -35.1717   62.6211   69.6808 H   0  0  0  0  0  0  0  0  0  0  0  0
  -35.3006   61.5534   67.6264 H   0  0  0  0  0  0  0  0  0  0  0  0
  -36.1745   63.6860   67.8815 H   0  0  0  0  0  0  0  0  0  0  0  0
  -38.6716   60.0404   64.4803 C   0  0  0  0  0  0  0  0  0  0  0  0
  -37.1718   60.2679   64.7058 C   0  0  0  0  0  0  0  0  0  0  0  0
  -39.5384   59.8291   65.7333 C   0  0  0  0  0  0  0  0  0  0  0  0
  -40.8867   60.5753   65.7999 C   0  0  0  0  0  0  0  0  0  0  0  0
  -41.9053   59.7433   65.1518 N   0  0  0  0  0  0  0  0  0  0  0  0
  -42.5901   58.6820   65.6540 C   0  0  0  0  0  0  0  0  0  0  0  0
  -42.1916   60.1200   63.8320 O   0  0  0  0  0  0  0  0  0  0  0  0
  -42.4080   58.2948   66.8081 O   0  0  0  0  0  0  0  0  0  0  0  0
  -42.8698   59.5301   63.4674 H   0  0  0  0  0  0  0  0  0  0  0  0
  -43.5996   57.9586   64.7565 C   0  0  0  0  0  0  0  0  0  0  0  0
  -45.0331   57.9331   65.3043 C   0  0  0  0  0  0  0  0  0  0  0  0
  -45.5910   59.3668   65.3923 C   0  0  0  0  0  0  0  0  0  0  0  0
  -46.4017   59.7885   64.1521 C   0  0  0  0  0  0  0  0  0  0  0  0
  -47.9291   59.6799   64.3170 C   0  0  0  0  0  0  0  0  0  0  0  0
  -48.6943   59.9329   63.0011 C   0  0  0  0  0  0  0  0  0  0  0  0
  -50.1416   60.4445   63.1887 C   0  0  0  0  0  0  0  0  0  0  0  0
  -51.2040   59.4818   62.6455 C   0  0  0  0  0  0  0  0  0  0  0  0
  -50.7690   58.0167   62.5412 C   0  0  0  0  0  0  0  0  0  0  0  0
  -51.1425   57.4165   61.1734 C   0  0  0  0  0  0  0  0  0  0  0  0
  -49.9730   56.7249   60.4566 C   0  0  0  0  0  0  0  0  0  0  0  0
  -48.6946   57.5570   60.3129 C   0  0  0  0  0  0  0  0  0  0  0  0
  -48.6095   58.3701   58.9970 C   0  0  0  0  0  0  0  0  0  0  0  0
  -47.9330   57.5582   57.8739 C   0  0  0  0  0  0  0  0  0  0  0  0
  -47.2268   58.3495   56.7664 C   0  0  0  0  0  0  0  0  0  0  0  0
 46 47  1  0  0  0
 46 48  1  0  0  0
 46 45  1  0  0  0
 47 49  2  0  0  0
 47 51  1  0  0  0
 19 20  2  0  0  0
 37 38  1  0  0  0
 37 39  1  0  0  0
 37 40  1  0  0  0
 37 41  1  0  0  0
 48 50  1  0  0  0
 38 29  1  0  0  0
 45 44  1  0  0  0
 25 27  1  0  0  0
 25 35  1  0  0  0
 25 28  1  0  0  0
 21 20  1  0  0  0
 21 22  1  0  0  0
 44 42  1  0  0  0
  2  1  1  0  0  0
  2  4  1  0  0  0
  2  5  1  0  0  0
 26 27  2  0  0  0
 42 43  2  0  0  0
 29 31  1  0  0  0
 29 36  1  0  0  0
  3  4  2  0  0  0
 43  1  1  0  0  0
  6  9  2  0  0  0
  6 10  1  0  0  0
  1 20  1  0  0  0
 30 36  2  0  0  0
  7  8  1  0  0  0
  7  9  1  0  0  0
 22 24  1  0  0  0
 22 23  1  0  0  0
 11 12  1  0  0  0
 11 18  1  0  0  0
 24 27  1  0  0  0
  4 10  1  0  0  0
 51 52  1  0  0  0
 52 53  1  0  0  0
 53 54  1  0  0  0
 54 55  1  0  0  0
 55 56  1  0  0  0
 56 57  1  0  0  0
 57 58  1  0  0  0
 58 59  1  0  0  0
 59 60  1  0  0  0
 60 61  1  0  0  0
 61 62  1  0  0  0
 62 63  1  0  0  0
 63 64  1  0  0  0
 64 65  1  0  0  0
 31 32  1  0  0  0
 32 33  1  0  0  0
 33 34  1  0  0  0
 34 35  1  0  0  0
 35 36  1  0  0  0
  8 10  1  0  0  0
  9 17  1  0  0  0
 12 13  2  0  0  0
 12 17  1  0  0  0
 13 14  1  0  0  0
 14 15  2  0  0  0
 15 16  1  0  0  0
 16 17  2  0  0  0
M  END
> <minimizedAffinity>
-9.92345

> <CNNscore>
0.2707657814

> <CNNaffinity>
7.4341559410

> <CNN_VS>
2.0129151344

> <CNNaffinity_variance>
0.3888314366

$$$$
/media/chris/experiments/cd1a-new-docking/inputs/ligands/1xz0_ligand.pdb


 65 67  0  0  0  0  0  0  0  0999 V2000
  -36.7739   60.9343   65.1869 C   0  0  0  0  0  0  0  0  0  0  0  0
  -36.8847   62.1612   65.9784 N   0  0  0  0  0  0  0  0  0  0  0  0
  -36.1095   63.9096   67.2094 O   0  0  0  0  0  0  0  0  0  0  0  0
  -35.9154   62.8965   66.5505 C   0  0  0  0  0  0  0  0  0  0  0  0
  -37.8011   62.4959   66.1107 H   0  0  0  0  0  0  0  0  0  0  0  0
  -33.9244   63.2137   65.0961 N   0  0  0  0  0  0  0  0  0  0  0  0
  -33.4325   61.0740   64.6820 O   0  0  0  0  0  0  0  0  0  0  0  0
  -34.1221   61.0329   65.9307 C   0  0  0  0  0  0  0  0  0  0  0  0
  -33.3791   62.4485   64.2508 C   0  0  0  0  0  0  0  0  0  0  0  0
  -34.4706   62.5085   66.2713 C   0  0  0  0  0  0  0  0  0  0  0  0
  -31.2698   60.9885   62.9031 O   0  0  0  0  0  0  0  0  0  0  0  0
  -31.7001   62.1388   62.3706 C   0  0  0  0  0  0  0  0  0  0  0  0
  -31.1377   62.6012   61.1736 C   0  0  0  0  0  0  0  0  0  0  0  0
  -31.5654   63.8103   60.5995 C   0  0  0  0  0  0  0  0  0  0  0  0
  -32.5676   64.5658   61.2109 C   0  0  0  0  0  0  0  0  0  0  0  0
  -33.1362   64.1055   62.4018 C   0  0  0  0  0  0  0  0  0  0  0  0
  -32.7035   62.8987   62.9840 C   0  0  0  0  0  0  0  0  0  0  0  0
  -30.5971   60.4968   62.4747 H   0  0  0  0  0  0  0  0  0  0  0  0
  -37.0218   62.5083   63.3990 O   0  0  0  0  0  0  0  0  0  0  0  0
  -36.7620   61.3638   63.7321 C   0  0  0  0  0  0  0  0  0  0  0  0
  -36.4994   60.3748   62.6814 O   0  0  0  0  0  0  0  0  0  0  0  0
  -35.8706   59.1140   62.9795 C   0  0  0  0  0  0  0  0  0  0  0  0
  -34.4235   59.0034   62.5156 C   0  0  0  0  0  0  0  0  0  0  0  0
  -36.7232   58.0014   62.3881 C   0  0  0  0  0  0  0  0  0  0  0  0
  -39.0279   58.6681   61.8984 N   0  0  0  0  0  0  0  0  0  0  0  0
  -37.4079   58.8129   60.3268 O   0  0  0  0  0  0  0  0  0  0  0  0
  -37.7797   58.5054   61.4362 C   0  0  0  0  0  0  0  0  0  0  0  0
  -39.2154   58.3800   62.8209 H   0  0  0  0  0  0  0  0  0  0  0  0
  -42.1306   58.3716   62.2732 N   0  0  0  0  0  0  0  0  0  0  0  0
  -41.8132   60.5926   62.0946 O   0  0  0  0  0  0  0  0  0  0  0  0
  -41.6360   56.9872   62.3016 C   0  0  0  0  0  0  0  0  0  0  0  0
  -41.4166   56.4574   60.8720 C   0  0  0  0  0  0  0  0  0  0  0  0
  -41.5675   57.4900   59.7672 C   0  0  0  0  0  0  0  0  0  0  0  0
  -40.4710   58.5582   59.7923 C   0  0  0  0  0  0  0  0  0  0  0  0
  -40.1341   59.2452   61.1261 C   0  0  0  0  0  0  0  0  0  0  0  0
  -41.4284   59.4495   61.8889 C   0  0  0  0  0  0  0  0  0  0  0  0
  -43.8741   60.1135   63.4773 Si  0  0  0  0  0  0  0  0  0  0  0  0
  -43.4131   58.5799   62.6826 O   0  0  0  0  0  0  0  0  0  0  0  0
  -45.2555   60.0807   63.8041 H   0  0  0  0  0  0  0  0  0  0  0  0
  -43.6218   61.1978   62.5959 H   0  0  0  0  0  0  0  0  0  0  0  0
  -43.1109   60.2800   64.6631 H   0  0  0  0  0  0  0  0  0  0  0  0
  -39.2029   59.9673   64.9439 C   0  0  0  0  0  0  0  0  0  0  0  0
  -37.7798   59.7974   65.4898 C   0  0  0  0  0  0  0  0  0  0  0  0
  -40.3004   59.0996   65.5829 C   0  0  0  0  0  0  0  0  0  0  0  0
  -41.7176   59.7010   65.6781 C   0  0  0  0  0  0  0  0  0  0  0  0
  -42.6737   58.6014   65.8412 N   0  0  0  0  0  0  0  0  0  0  0  0
  -44.0206   58.6570   66.0160 C   0  0  0  0  0  0  0  0  0  0  0  0
  -42.0874   57.3283   65.8069 O   0  0  0  0  0  0  0  0  0  0  0  0
  -44.6152   59.7343   66.0448 O   0  0  0  0  0  0  0  0  0  0  0  0
  -42.7743   56.6529   65.9203 H   0  0  0  0  0  0  0  0  0  0  0  0
  -44.8013   57.3494   66.1853 C   0  0  0  0  0  0  0  0  0  0  0  0
  -46.1868   57.5145   66.8244 C   0  0  0  0  0  0  0  0  0  0  0  0
  -47.2781   57.0195   65.8558 C   0  0  0  0  0  0  0  0  0  0  0  0
  -48.1702   58.1485   65.3055 C   0  0  0  0  0  0  0  0  0  0  0  0
  -47.4981   59.0357   64.2411 C   0  0  0  0  0  0  0  0  0  0  0  0
  -48.0862   60.4615   64.1898 C   0  0  0  0  0  0  0  0  0  0  0  0
  -49.5880   60.5494   64.5484 C   0  0  0  0  0  0  0  0  0  0  0  0
  -50.5119   60.4760   63.3272 C   0  0  0  0  0  0  0  0  0  0  0  0
  -51.3428   59.1944   63.2099 C   0  0  0  0  0  0  0  0  0  0  0  0
  -50.7626   58.2449   62.1459 C   0  0  0  0  0  0  0  0  0  0  0  0
  -49.7426   58.9089   61.2086 C   0  0  0  0  0  0  0  0  0  0  0  0
  -48.8553   57.9522   60.4054 C   0  0  0  0  0  0  0  0  0  0  0  0
  -48.9279   58.1541   58.8713 C   0  0  0  0  0  0  0  0  0  0  0  0
  -47.6496   57.6467   58.1735 C   0  0  0  0  0  0  0  0  0  0  0  0
  -47.2766   58.2986   56.8365 C   0  0  0  0  0  0  0  0  0  0  0  0
 46 47  1  0  0  0
 46 48  1  0  0  0
 46 45  1  0  0  0
 47 49  2  0  0  0
 47 51  1  0  0  0
 19 20  2  0  0  0
 37 38  1  0  0  0
 37 39  1  0  0  0
 37 40  1  0  0  0
 37 41  1  0  0  0
 48 50  1  0  0  0
 38 29  1  0  0  0
 45 44  1  0  0  0
 25 27  1  0  0  0
 25 35  1  0  0  0
 25 28  1  0  0  0
 21 20  1  0  0  0
 21 22  1  0  0  0
 44 42  1  0  0  0
  2  1  1  0  0  0
  2  4  1  0  0  0
  2  5  1  0  0  0
 26 27  2  0  0  0
 42 43  2  0  0  0
 29 31  1  0  0  0
 29 36  1  0  0  0
  3  4  2  0  0  0
 43  1  1  0  0  0
  6  9  2  0  0  0
  6 10  1  0  0  0
  1 20  1  0  0  0
 30 36  2  0  0  0
  7  8  1  0  0  0
  7  9  1  0  0  0
 22 24  1  0  0  0
 22 23  1  0  0  0
 11 12  1  0  0  0
 11 18  1  0  0  0
 24 27  1  0  0  0
  4 10  1  0  0  0
 51 52  1  0  0  0
 52 53  1  0  0  0
 53 54  1  0  0  0
 54 55  1  0  0  0
 55 56  1  0  0  0
 56 57  1  0  0  0
 57 58  1  0  0  0
 58 59  1  0  0  0
 59 60  1  0  0  0
 60 61  1  0  0  0
 61 62  1  0  0  0
 62 63  1  0  0  0
 63 64  1  0  0  0
 64 65  1  0  0  0
 31 32  1  0  0  0
 32 33  1  0  0  0
 33 34  1  0  0  0
 34 35  1  0  0  0
 35 36  1  0  0  0
  8 10  1  0  0  0
  9 17  1  0  0  0
 12 13  2  0  0  0
 12 17  1  0  0  0
 13 14  1  0  0  0
 14 15  2  0  0  0
 15 16  1  0  0  0
 16 17  2  0  0  0
M  END
> <minimizedAffinity>
-9.64692

> <CNNscore>
0.2095504552

> <CNNaffinity>
7.4139771461

> <CNN_VS>
1.5536023378

> <CNNaffinity_variance>
1.3218138218

$$$$
/media/chris/experiments/cd1a-new-docking/inputs/ligands/1xz0_ligand.pdb


 65 67  0  0  0  0  0  0  0  0999 V2000
  -40.7279   59.5840   66.2989 C   0  0  0  0  0  0  0  0  0  0  0  0
  -41.1706   60.8814   65.7842 N   0  0  0  0  0  0  0  0  0  0  0  0
  -41.9986   62.3204   64.2295 O   0  0  0  0  0  0  0  0  0  0  0  0
  -41.6643   61.1942   64.5735 C   0  0  0  0  0  0  0  0  0  0  0  0
  -41.0960   61.6330   66.4158 H   0  0  0  0  0  0  0  0  0  0  0  0
  -40.7313   59.7100   62.8109 N   0  0  0  0  0  0  0  0  0  0  0  0
  -42.3127   59.9584   61.2523 O   0  0  0  0  0  0  0  0  0  0  0  0
  -42.9906   60.2351   62.4772 C   0  0  0  0  0  0  0  0  0  0  0  0
  -40.9364   59.6649   61.5646 C   0  0  0  0  0  0  0  0  0  0  0  0
  -41.9298   60.0562   63.5986 C   0  0  0  0  0  0  0  0  0  0  0  0
  -38.2272   60.6910   61.4998 O   0  0  0  0  0  0  0  0  0  0  0  0
  -38.6073   59.8137   60.5629 C   0  0  0  0  0  0  0  0  0  0  0  0
  -37.6900   59.4005   59.5879 C   0  0  0  0  0  0  0  0  0  0  0  0
  -38.0672   58.4879   58.5882 C   0  0  0  0  0  0  0  0  0  0  0  0
  -39.3634   57.9705   58.5583 C   0  0  0  0  0  0  0  0  0  0  0  0
  -40.2804   58.3748   59.5326 C   0  0  0  0  0  0  0  0  0  0  0  0
  -39.9078   59.2958   60.5303 C   0  0  0  0  0  0  0  0  0  0  0  0
  -37.3514   61.0241   61.5018 H   0  0  0  0  0  0  0  0  0  0  0  0
  -38.4629   60.2697   65.9313 O   0  0  0  0  0  0  0  0  0  0  0  0
  -39.3040   59.3942   65.8116 C   0  0  0  0  0  0  0  0  0  0  0  0
  -38.9294   58.1584   65.1163 O   0  0  0  0  0  0  0  0  0  0  0  0
  -38.0231   58.1736   63.9973 C   0  0  0  0  0  0  0  0  0  0  0  0
  -38.2957   57.1030   62.9479 C   0  0  0  0  0  0  0  0  0  0  0  0
  -36.6018   58.0708   64.5301 C   0  0  0  0  0  0  0  0  0  0  0  0
  -35.9422   60.3874   64.0896 N   0  0  0  0  0  0  0  0  0  0  0  0
  -34.6688   58.6540   63.3902 O   0  0  0  0  0  0  0  0  0  0  0  0
  -35.6654   59.0860   63.9228 C   0  0  0  0  0  0  0  0  0  0  0  0
  -36.7864   60.6218   64.5387 H   0  0  0  0  0  0  0  0  0  0  0  0
  -34.1040   62.3086   65.7586 N   0  0  0  0  0  0  0  0  0  0  0  0
  -32.7619   61.5643   64.1122 O   0  0  0  0  0  0  0  0  0  0  0  0
  -35.3981   62.3626   66.4545 C   0  0  0  0  0  0  0  0  0  0  0  0
  -36.3561   63.3407   65.7487 C   0  0  0  0  0  0  0  0  0  0  0  0
  -35.8608   63.8893   64.4208 C   0  0  0  0  0  0  0  0  0  0  0  0
  -35.7699   62.8207   63.3282 C   0  0  0  0  0  0  0  0  0  0  0  0
  -35.0756   61.4869   63.6500 C   0  0  0  0  0  0  0  0  0  0  0  0
  -33.8863   61.7804   64.5435 C   0  0  0  0  0  0  0  0  0  0  0  0
  -32.9393   62.7923   68.1944 Si  0  0  0  0  0  0  0  0  0  0  0  0
  -33.0282   62.8329   66.4093 O   0  0  0  0  0  0  0  0  0  0  0  0
  -31.7280   63.3974   68.6219 H   0  0  0  0  0  0  0  0  0  0  0  0
  -32.9781   61.4445   68.6397 H   0  0  0  0  0  0  0  0  0  0  0  0
  -34.0415   63.5027   68.7393 H   0  0  0  0  0  0  0  0  0  0  0  0
  -43.1520   58.6257   65.9831 C   0  0  0  0  0  0  0  0  0  0  0  0
  -41.6419   58.3629   66.0348 C   0  0  0  0  0  0  0  0  0  0  0  0
  -44.0754   57.4083   66.1592 C   0  0  0  0  0  0  0  0  0  0  0  0
  -45.3221   57.5840   67.0503 C   0  0  0  0  0  0  0  0  0  0  0  0
  -46.4075   58.1190   66.2224 N   0  0  0  0  0  0  0  0  0  0  0  0
  -47.5155   57.4880   65.7513 C   0  0  0  0  0  0  0  0  0  0  0  0
  -46.2533   59.4716   65.8874 O   0  0  0  0  0  0  0  0  0  0  0  0
  -47.7330   56.3045   66.0101 O   0  0  0  0  0  0  0  0  0  0  0  0
  -47.0030   59.7571   65.3421 H   0  0  0  0  0  0  0  0  0  0  0  0
  -48.5010   58.2721   64.8784 C   0  0  0  0  0  0  0  0  0  0  0  0
  -49.9795   57.9923   65.1804 C   0  0  0  0  0  0  0  0  0  0  0  0
  -50.6161   59.2097   65.8782 C   0  0  0  0  0  0  0  0  0  0  0  0
  -51.0035   60.3417   64.9079 C   0  0  0  0  0  0  0  0  0  0  0  0
  -51.5512   59.8634   63.5503 C   0  0  0  0  0  0  0  0  0  0  0  0
  -50.8156   60.4955   62.3500 C   0  0  0  0  0  0  0  0  0  0  0  0
  -49.8022   59.5582   61.6527 C   0  0  0  0  0  0  0  0  0  0  0  0
  -50.3221   58.1280   61.4668 C   0  0  0  0  0  0  0  0  0  0  0  0
  -50.2991   57.6041   60.0274 C   0  0  0  0  0  0  0  0  0  0  0  0
  -49.3141   56.4309   59.8730 C   0  0  0  0  0  0  0  0  0  0  0  0
  -47.8376   56.8547   59.8631 C   0  0  0  0  0  0  0  0  0  0  0  0
  -47.0655   56.5474   58.5760 C   0  0  0  0  0  0  0  0  0  0  0  0
  -47.9609   56.1441   57.3779 C   0  0  0  0  0  0  0  0  0  0  0  0
  -48.0616   57.2803   56.3401 C   0  0  0  0  0  0  0  0  0  0  0  0
  -47.1450   58.4934   56.5395 C   0  0  0  0  0  0  0  0  0  0  0  0
 46 47  1  0  0  0
 46 48  1  0  0  0
 46 45  1  0  0  0
 47 49  2  0  0  0
 47 51  1  0  0  0
 19 20  2  0  0  0
 37 38  1  0  0  0
 37 39  1  0  0  0
 37 40  1  0  0  0
 37 41  1  0  0  0
 48 50  1  0  0  0
 38 29  1  0  0  0
 45 44  1  0  0  0
 25 27  1  0  0  0
 25 35  1  0  0  0
 25 28  1  0  0  0
 21 20  1  0  0  0
 21 22  1  0  0  0
 44 42  1  0  0  0
  2  1  1  0  0  0
  2  4  1  0  0  0
  2  5  1  0  0  0
 26 27  2  0  0  0
 42 43  2  0  0  0
 29 31  1  0  0  0
 29 36  1  0  0  0
  3  4  2  0  0  0
 43  1  1  0  0  0
  6  9  2  0  0  0
  6 10  1  0  0  0
  1 20  1  0  0  0
 30 36  2  0  0  0
  7  8  1  0  0  0
  7  9  1  0  0  0
 22 24  1  0  0  0
 22 23  1  0  0  0
 11 12  1  0  0  0
 11 18  1  0  0  0
 24 27  1  0  0  0
  4 10  1  0  0  0
 51 52  1  0  0  0
 52 53  1  0  0  0
 53 54  1  0  0  0
 54 55  1  0  0  0
 55 56  1  0  0  0
 56 57  1  0  0  0
 57 58  1  0  0  0
 58 59  1  0  0  0
 59 60  1  0  0  0
 60 61  1  0  0  0
 61 62  1  0  0  0
 62 63  1  0  0  0
 63 64  1  0  0  0
 64 65  1  0  0  0
 31 32  1  0  0  0
 32 33  1  0  0  0
 33 34  1  0  0  0
 34 35  1  0  0  0
 35 36  1  0  0  0
  8 10  1  0  0  0
  9 17  1  0  0  0
 12 13  2  0  0  0
 12 17  1  0  0  0
 13 14  1  0  0  0
 14 15  2  0  0  0
 15 16  1  0  0  0
 16 17  2  0  0  0
M  END
> <minimizedAffinity>
-9.09465

> <CNNscore>
0.1769251823

> <CNNaffinity>
7.5394592285

> <CNN_VS>
1.3339202404

> <CNNaffinity_variance>
0.6266564131

$$$$
/media/chris/experiments/cd1a-new-docking/inputs/ligands/1xz0_ligand.pdb


 65 67  0  0  0  0  0  0  0  0999 V2000
  -42.1524   57.7726   65.7102 C   0  0  0  0  0  0  0  0  0  0  0  0
  -41.6614   59.1003   66.0849 N   0  0  0  0  0  0  0  0  0  0  0  0
  -41.1246   61.2836   65.7417 O   0  0  0  0  0  0  0  0  0  0  0  0
  -41.5633   60.2143   65.3388 C   0  0  0  0  0  0  0  0  0  0  0  0
  -41.3596   59.1900   67.0178 H   0  0  0  0  0  0  0  0  0  0  0  0
  -41.2933   59.3943   63.0076 N   0  0  0  0  0  0  0  0  0  0  0  0
  -41.6018   61.3151   61.9089 O   0  0  0  0  0  0  0  0  0  0  0  0
  -42.3080   61.5028   63.1346 C   0  0  0  0  0  0  0  0  0  0  0  0
  -41.0057   60.0029   61.9379 C   0  0  0  0  0  0  0  0  0  0  0  0
  -42.1368   60.1786   63.9296 C   0  0  0  0  0  0  0  0  0  0  0  0
  -38.2794   60.7584   61.3106 O   0  0  0  0  0  0  0  0  0  0  0  0
  -38.8780   59.8235   60.5628 C   0  0  0  0  0  0  0  0  0  0  0  0
  -38.1743   59.2225   59.5109 C   0  0  0  0  0  0  0  0  0  0  0  0
  -38.7833   58.2454   58.7054 C   0  0  0  0  0  0  0  0  0  0  0  0
  -40.1001   57.8511   58.9491 C   0  0  0  0  0  0  0  0  0  0  0  0
  -40.8043   58.4431   60.0013 C   0  0  0  0  0  0  0  0  0  0  0  0
  -40.1995   59.4287   60.8046 C   0  0  0  0  0  0  0  0  0  0  0  0
  -37.3941   61.0066   61.1302 H   0  0  0  0  0  0  0  0  0  0  0  0
  -41.4420   56.5672   63.7666 O   0  0  0  0  0  0  0  0  0  0  0  0
  -41.1192   57.1852   64.7677 C   0  0  0  0  0  0  0  0  0  0  0  0
  -39.6923   57.2960   65.0884 O   0  0  0  0  0  0  0  0  0  0  0  0
  -38.8306   58.1983   64.3693 C   0  0  0  0  0  0  0  0  0  0  0  0
  -37.9188   57.5253   63.3507 C   0  0  0  0  0  0  0  0  0  0  0  0
  -38.0259   59.0009   65.3805 C   0  0  0  0  0  0  0  0  0  0  0  0
  -36.9035   61.1632   65.6258 N   0  0  0  0  0  0  0  0  0  0  0  0
  -38.4478   60.8221   64.0089 O   0  0  0  0  0  0  0  0  0  0  0  0
  -37.8214   60.4382   64.9701 C   0  0  0  0  0  0  0  0  0  0  0  0
  -36.4556   60.7455   66.3965 H   0  0  0  0  0  0  0  0  0  0  0  0
  -34.4757   62.2186   63.9384 N   0  0  0  0  0  0  0  0  0  0  0  0
  -36.2560   63.2680   63.0468 O   0  0  0  0  0  0  0  0  0  0  0  0
  -33.8616   61.2966   64.9052 C   0  0  0  0  0  0  0  0  0  0  0  0
  -33.6549   61.9907   66.2647 C   0  0  0  0  0  0  0  0  0  0  0  0
  -34.2739   63.3732   66.3880 C   0  0  0  0  0  0  0  0  0  0  0  0
  -35.8045   63.3477   66.3681 C   0  0  0  0  0  0  0  0  0  0  0  0
  -36.5194   62.5355   65.2754 C   0  0  0  0  0  0  0  0  0  0  0  0
  -35.7331   62.6868   63.9879 C   0  0  0  0  0  0  0  0  0  0  0  0
  -34.4543   63.2694   61.4047 Si  0  0  0  0  0  0  0  0  0  0  0  0
  -33.7022   62.6265   62.8938 O   0  0  0  0  0  0  0  0  0  0  0  0
  -33.4396   63.6213   60.4759 H   0  0  0  0  0  0  0  0  0  0  0  0
  -35.2249   64.4190   61.7221 H   0  0  0  0  0  0  0  0  0  0  0  0
  -35.2958   62.2783   60.8337 H   0  0  0  0  0  0  0  0  0  0  0  0
  -44.6912   58.3757   66.0013 C   0  0  0  0  0  0  0  0  0  0  0  0
  -43.6033   57.6727   65.1801 C   0  0  0  0  0  0  0  0  0  0  0  0
  -46.1437   57.9359   65.7511 C   0  0  0  0  0  0  0  0  0  0  0  0
  -46.9118   58.6334   64.6098 C   0  0  0  0  0  0  0  0  0  0  0  0
  -48.3324   58.6762   64.9705 N   0  0  0  0  0  0  0  0  0  0  0  0
  -49.0004   59.6010   65.7095 C   0  0  0  0  0  0  0  0  0  0  0  0
  -49.0792   57.6013   64.4681 O   0  0  0  0  0  0  0  0  0  0  0  0
  -48.4219   60.5820   66.1764 O   0  0  0  0  0  0  0  0  0  0  0  0
  -50.0046   57.6937   64.7438 H   0  0  0  0  0  0  0  0  0  0  0  0
  -50.4986   59.4053   65.9646 C   0  0  0  0  0  0  0  0  0  0  0  0
  -51.4118   60.2585   65.0737 C   0  0  0  0  0  0  0  0  0  0  0  0
  -51.5528   59.6076   63.6842 C   0  0  0  0  0  0  0  0  0  0  0  0
  -51.2612   60.5736   62.5201 C   0  0  0  0  0  0  0  0  0  0  0  0
  -49.7717   60.7004   62.1498 C   0  0  0  0  0  0  0  0  0  0  0  0
  -49.2183   59.4421   61.4488 C   0  0  0  0  0  0  0  0  0  0  0  0
  -49.5694   59.3379   59.9463 C   0  0  0  0  0  0  0  0  0  0  0  0
  -50.3506   58.0680   59.5891 C   0  0  0  0  0  0  0  0  0  0  0  0
  -50.0827   56.8584   60.4902 C   0  0  0  0  0  0  0  0  0  0  0  0
  -49.0528   55.9046   59.8577 C   0  0  0  0  0  0  0  0  0  0  0  0
  -47.6862   56.5530   59.5897 C   0  0  0  0  0  0  0  0  0  0  0  0
  -46.9591   56.0760   58.3282 C   0  0  0  0  0  0  0  0  0  0  0  0
  -47.8541   56.0073   57.0657 C   0  0  0  0  0  0  0  0  0  0  0  0
  -48.2329   57.4156   56.5643 C   0  0  0  0  0  0  0  0  0  0  0  0
  -47.1157   58.4649   56.5152 C   0  0  0  0  0  0  0  0  0  0  0  0
 46 47  1  0  0  0
 46 48  1  0  0  0
 46 45  1  0  0  0
 47 49  2  0  0  0
 47 51  1  0  0  0
 19 20  2  0  0  0
 37 38  1  0  0  0
 37 39  1  0  0  0
 37 40  1  0  0  0
 37 41  1  0  0  0
 48 50  1  0  0  0
 38 29  1  0  0  0
 45 44  1  0  0  0
 25 27  1  0  0  0
 25 35  1  0  0  0
 25 28  1  0  0  0
 21 20  1  0  0  0
 21 22  1  0  0  0
 44 42  1  0  0  0
  2  1  1  0  0  0
  2  4  1  0  0  0
  2  5  1  0  0  0
 26 27  2  0  0  0
 42 43  2  0  0  0
 29 31  1  0  0  0
 29 36  1  0  0  0
  3  4  2  0  0  0
 43  1  1  0  0  0
  6  9  2  0  0  0
  6 10  1  0  0  0
  1 20  1  0  0  0
 30 36  2  0  0  0
  7  8  1  0  0  0
  7  9  1  0  0  0
 22 24  1  0  0  0
 22 23  1  0  0  0
 11 12  1  0  0  0
 11 18  1  0  0  0
 24 27  1  0  0  0
  4 10  1  0  0  0
 51 52  1  0  0  0
 52 53  1  0  0  0
 53 54  1  0  0  0
 54 55  1  0  0  0
 55 56  1  0  0  0
 56 57  1  0  0  0
 57 58  1  0  0  0
 58 59  1  0  0  0
 59 60  1  0  0  0
 60 61  1  0  0  0
 61 62  1  0  0  0
 62 63  1  0  0  0
 63 64  1  0  0  0
 64 65  1  0  0  0
 31 32  1  0  0  0
 32 33  1  0  0  0
 33 34  1  0  0  0
 34 35  1  0  0  0
 35 36  1  0  0  0
  8 10  1  0  0  0
  9 17  1  0  0  0
 12 13  2  0  0  0
 12 17  1  0  0  0
 13 14  1  0  0  0
 14 15  2  0  0  0
 15 16  1  0  0  0
 16 17  2  0  0  0
M  END
> <minimizedAffinity>
-10.38304

> <CNNscore>
0.1720490456

> <CNNaffinity>
7.5351729393

> <CNN_VS>
1.2964192629

> <CNNaffinity_variance>
1.1333992481

$$$$
/media/chris/experiments/cd1a-new-docking/inputs/ligands/1xz0_ligand.pdb


 65 67  0  0  0  0  0  0  0  0999 V2000
  -41.3041   59.3495   62.3059 C   0  0  0  0  0  0  0  0  0  0  0  0
  -40.4076   59.3735   61.1484 N   0  0  0  0  0  0  0  0  0  0  0  0
  -38.4275   59.1299   60.0562 O   0  0  0  0  0  0  0  0  0  0  0  0
  -39.1006   59.0668   61.0765 C   0  0  0  0  0  0  0  0  0  0  0  0
  -40.8215   59.6549   60.3006 H   0  0  0  0  0  0  0  0  0  0  0  0
  -37.0748   59.0346   62.5170 N   0  0  0  0  0  0  0  0  0  0  0  0
  -36.7801   56.8258   62.6800 O   0  0  0  0  0  0  0  0  0  0  0  0
  -38.1768   56.9685   62.4245 C   0  0  0  0  0  0  0  0  0  0  0  0
  -36.1971   58.1440   62.7014 C   0  0  0  0  0  0  0  0  0  0  0  0
  -38.4348   58.4974   62.3210 C   0  0  0  0  0  0  0  0  0  0  0  0
  -34.8668   57.6097   65.2197 O   0  0  0  0  0  0  0  0  0  0  0  0
  -34.1509   58.1103   64.2055 C   0  0  0  0  0  0  0  0  0  0  0  0
  -32.7808   58.3485   64.3758 C   0  0  0  0  0  0  0  0  0  0  0  0
  -32.0094   58.8823   63.3297 C   0  0  0  0  0  0  0  0  0  0  0  0
  -32.5976   59.1749   62.0979 C   0  0  0  0  0  0  0  0  0  0  0  0
  -33.9628   58.9331   61.9210 C   0  0  0  0  0  0  0  0  0  0  0  0
  -34.7401   58.4064   62.9702 C   0  0  0  0  0  0  0  0  0  0  0  0
  -34.4509   57.4192   66.0374 H   0  0  0  0  0  0  0  0  0  0  0  0
  -41.7045   61.5469   63.1698 O   0  0  0  0  0  0  0  0  0  0  0  0
  -40.9673   60.5756   63.1330 C   0  0  0  0  0  0  0  0  0  0  0  0
  -39.6949   60.6386   63.8597 O   0  0  0  0  0  0  0  0  0  0  0  0
  -39.4849   59.8858   65.0693 C   0  0  0  0  0  0  0  0  0  0  0  0
  -40.5192   60.1385   66.1592 C   0  0  0  0  0  0  0  0  0  0  0  0
  -38.0772   60.1693   65.5720 C   0  0  0  0  0  0  0  0  0  0  0  0
  -36.7788   62.2197   65.8971 N   0  0  0  0  0  0  0  0  0  0  0  0
  -37.7010   61.7231   63.8926 O   0  0  0  0  0  0  0  0  0  0  0  0
  -37.5162   61.4736   65.0618 C   0  0  0  0  0  0  0  0  0  0  0  0
  -36.6985   61.9175   66.8307 H   0  0  0  0  0  0  0  0  0  0  0  0
  -34.1430   62.6329   64.2428 N   0  0  0  0  0  0  0  0  0  0  0  0
  -35.6176   64.0323   63.2768 O   0  0  0  0  0  0  0  0  0  0  0  0
  -33.7752   61.6275   65.2506 C   0  0  0  0  0  0  0  0  0  0  0  0
  -33.4392   62.3007   66.5947 C   0  0  0  0  0  0  0  0  0  0  0  0
  -33.7256   63.7917   66.6630 C   0  0  0  0  0  0  0  0  0  0  0  0
  -35.2205   64.1173   66.6049 C   0  0  0  0  0  0  0  0  0  0  0  0
  -36.0830   63.4547   65.5179 C   0  0  0  0  0  0  0  0  0  0  0  0
  -35.2596   63.3784   64.2471 C   0  0  0  0  0  0  0  0  0  0  0  0
  -33.8880   63.0097   61.5378 Si  0  0  0  0  0  0  0  0  0  0  0  0
  -33.2775   62.8174   63.2070 O   0  0  0  0  0  0  0  0  0  0  0  0
  -32.7934   63.1862   60.6508 H   0  0  0  0  0  0  0  0  0  0  0  0
  -34.7379   64.1454   61.4726 H   0  0  0  0  0  0  0  0  0  0  0  0
  -34.6179   61.8503   61.1643 H   0  0  0  0  0  0  0  0  0  0  0  0
  -42.7611   57.4865   63.4463 C   0  0  0  0  0  0  0  0  0  0  0  0
  -41.3665   58.0419   63.1321 C   0  0  0  0  0  0  0  0  0  0  0  0
  -42.8616   56.4725   64.5985 C   0  0  0  0  0  0  0  0  0  0  0  0
  -43.0440   57.0315   66.0245 C   0  0  0  0  0  0  0  0  0  0  0  0
  -44.0170   58.1269   65.9680 N   0  0  0  0  0  0  0  0  0  0  0  0
  -45.3729   58.0724   66.0473 C   0  0  0  0  0  0  0  0  0  0  0  0
  -43.4380   59.3941   65.8107 O   0  0  0  0  0  0  0  0  0  0  0  0
  -45.9595   57.0011   66.1987 O   0  0  0  0  0  0  0  0  0  0  0  0
  -44.1360   60.0670   65.7814 H   0  0  0  0  0  0  0  0  0  0  0  0
  -46.1751   59.3735   65.9390 C   0  0  0  0  0  0  0  0  0  0  0  0
  -47.4175   59.4309   66.8384 C   0  0  0  0  0  0  0  0  0  0  0  0
  -48.6775   59.6713   65.9847 C   0  0  0  0  0  0  0  0  0  0  0  0
  -48.9481   58.5539   64.9594 C   0  0  0  0  0  0  0  0  0  0  0  0
  -50.4368   58.2140   64.7592 C   0  0  0  0  0  0  0  0  0  0  0  0
  -50.8471   58.1674   63.2723 C   0  0  0  0  0  0  0  0  0  0  0  0
  -51.4757   59.4758   62.7389 C   0  0  0  0  0  0  0  0  0  0  0  0
  -50.4443   60.4684   62.1899 C   0  0  0  0  0  0  0  0  0  0  0  0
  -49.2757   59.8421   61.4225 C   0  0  0  0  0  0  0  0  0  0  0  0
  -49.6276   59.6315   59.9385 C   0  0  0  0  0  0  0  0  0  0  0  0
  -49.7617   58.1557   59.5338 C   0  0  0  0  0  0  0  0  0  0  0  0
  -48.5271   57.5310   58.8759 C   0  0  0  0  0  0  0  0  0  0  0  0
  -47.8015   58.4617   57.8724 C   0  0  0  0  0  0  0  0  0  0  0  0
  -47.4064   57.7078   56.5864 C   0  0  0  0  0  0  0  0  0  0  0  0
  -47.2468   56.1860   56.6885 C   0  0  0  0  0  0  0  0  0  0  0  0
 46 47  1  0  0  0
 46 48  1  0  0  0
 46 45  1  0  0  0
 47 49  2  0  0  0
 47 51  1  0  0  0
 19 20  2  0  0  0
 37 38  1  0  0  0
 37 39  1  0  0  0
 37 40  1  0  0  0
 37 41  1  0  0  0
 48 50  1  0  0  0
 38 29  1  0  0  0
 45 44  1  0  0  0
 25 27  1  0  0  0
 25 35  1  0  0  0
 25 28  1  0  0  0
 21 20  1  0  0  0
 21 22  1  0  0  0
 44 42  1  0  0  0
  2  1  1  0  0  0
  2  4  1  0  0  0
  2  5  1  0  0  0
 26 27  2  0  0  0
 42 43  2  0  0  0
 29 31  1  0  0  0
 29 36  1  0  0  0
  3  4  2  0  0  0
 43  1  1  0  0  0
  6  9  2  0  0  0
  6 10  1  0  0  0
  1 20  1  0  0  0
 30 36  2  0  0  0
  7  8  1  0  0  0
  7  9  1  0  0  0
 22 24  1  0  0  0
 22 23  1  0  0  0
 11 12  1  0  0  0
 11 18  1  0  0  0
 24 27  1  0  0  0
  4 10  1  0  0  0
 51 52  1  0  0  0
 52 53  1  0  0  0
 53 54  1  0  0  0
 54 55  1  0  0  0
 55 56  1  0  0  0
 56 57  1  0  0  0
 57 58  1  0  0  0
 58 59  1  0  0  0
 59 60  1  0  0  0
 60 61  1  0  0  0
 61 62  1  0  0  0
 62 63  1  0  0  0
 63 64  1  0  0  0
 64 65  1  0  0  0
 31 32  1  0  0  0
 32 33  1  0  0  0
 33 34  1  0  0  0
 34 35  1  0  0  0
 35 36  1  0  0  0
  8 10  1  0  0  0
  9 17  1  0  0  0
 12 13  2  0  0  0
 12 17  1  0  0  0
 13 14  1  0  0  0
 14 15  2  0  0  0
 15 16  1  0  0  0
 16 17  2  0  0  0
M  END
> <minimizedAffinity>
-10.08664

> <CNNscore>
0.1517222822

> <CNNaffinity>
7.4455657005

> <CNN_VS>
1.1296582222

> <CNNaffinity_variance>
0.6307840943

$$$$
/media/chris/experiments/cd1a-new-docking/inputs/ligands/1xz0_ligand.pdb


 65 67  0  0  0  0  0  0  0  0999 V2000
  -40.7083   57.0326   62.9458 C   0  0  0  0  0  0  0  0  0  0  0  0
  -39.4455   56.7395   63.6266 N   0  0  0  0  0  0  0  0  0  0  0  0
  -37.5626   57.2338   64.8027 O   0  0  0  0  0  0  0  0  0  0  0  0
  -38.6109   57.5740   64.2703 C   0  0  0  0  0  0  0  0  0  0  0  0
  -39.1676   55.7951   63.6107 H   0  0  0  0  0  0  0  0  0  0  0  0
  -37.9092   59.9561   64.3856 N   0  0  0  0  0  0  0  0  0  0  0  0
  -38.9616   60.5543   66.2635 O   0  0  0  0  0  0  0  0  0  0  0  0
  -39.7351   59.4618   65.7689 C   0  0  0  0  0  0  0  0  0  0  0  0
  -37.8622   60.7653   65.3554 C   0  0  0  0  0  0  0  0  0  0  0  0
  -39.0487   59.0209   64.4463 C   0  0  0  0  0  0  0  0  0  0  0  0
  -37.1851   62.7220   63.3281 O   0  0  0  0  0  0  0  0  0  0  0  0
  -36.5662   62.7807   64.5136 C   0  0  0  0  0  0  0  0  0  0  0  0
  -35.6233   63.7888   64.7536 C   0  0  0  0  0  0  0  0  0  0  0  0
  -34.9531   63.8662   65.9862 C   0  0  0  0  0  0  0  0  0  0  0  0
  -35.2256   62.9422   66.9964 C   0  0  0  0  0  0  0  0  0  0  0  0
  -36.1701   61.9384   66.7641 C   0  0  0  0  0  0  0  0  0  0  0  0
  -36.8368   61.8531   65.5269 C   0  0  0  0  0  0  0  0  0  0  0  0
  -36.9879   63.3538   62.6649 H   0  0  0  0  0  0  0  0  0  0  0  0
  -40.4126   56.6847   60.5948 O   0  0  0  0  0  0  0  0  0  0  0  0
  -40.3450   57.4582   61.5359 C   0  0  0  0  0  0  0  0  0  0  0  0
  -39.8336   58.8108   61.2909 O   0  0  0  0  0  0  0  0  0  0  0  0
  -38.7001   59.0391   60.4324 C   0  0  0  0  0  0  0  0  0  0  0  0
  -38.8778   58.5398   59.0039 C   0  0  0  0  0  0  0  0  0  0  0  0
  -37.4733   58.4173   61.0826 C   0  0  0  0  0  0  0  0  0  0  0  0
  -35.6985   58.9190   62.6933 N   0  0  0  0  0  0  0  0  0  0  0  0
  -36.9477   60.5664   61.7762 O   0  0  0  0  0  0  0  0  0  0  0  0
  -36.6867   59.3941   61.9212 C   0  0  0  0  0  0  0  0  0  0  0  0
  -35.5793   57.9427   62.7345 H   0  0  0  0  0  0  0  0  0  0  0  0
  -32.7202   59.7393   62.1348 N   0  0  0  0  0  0  0  0  0  0  0  0
  -33.7400   61.6864   62.6188 O   0  0  0  0  0  0  0  0  0  0  0  0
  -32.7274   58.2808   61.9483 C   0  0  0  0  0  0  0  0  0  0  0  0
  -32.6296   57.5575   63.3047 C   0  0  0  0  0  0  0  0  0  0  0  0
  -32.7320   58.4544   64.5272 C   0  0  0  0  0  0  0  0  0  0  0  0
  -34.1186   59.0814   64.6952 C   0  0  0  0  0  0  0  0  0  0  0  0
  -34.7824   59.7518   63.4809 C   0  0  0  0  0  0  0  0  0  0  0  0
  -33.7032   60.4656   62.6906 C   0  0  0  0  0  0  0  0  0  0  0  0
  -31.3120   62.0911   62.2340 Si  0  0  0  0  0  0  0  0  0  0  0  0
  -31.6217   60.4147   61.6955 O   0  0  0  0  0  0  0  0  0  0  0  0
  -30.1138   62.5659   61.6381 H   0  0  0  0  0  0  0  0  0  0  0  0
  -31.1803   62.1174   63.6476 H   0  0  0  0  0  0  0  0  0  0  0  0
  -32.3960   62.9213   61.8441 H   0  0  0  0  0  0  0  0  0  0  0  0
  -43.1051   58.0980   63.0662 C   0  0  0  0  0  0  0  0  0  0  0  0
  -41.6910   57.9984   63.6514 C   0  0  0  0  0  0  0  0  0  0  0  0
  -43.9342   59.3326   63.4588 C   0  0  0  0  0  0  0  0  0  0  0  0
  -43.9501   59.7348   64.9478 C   0  0  0  0  0  0  0  0  0  0  0  0
  -45.2008   59.2517   65.5413 N   0  0  0  0  0  0  0  0  0  0  0  0
  -45.4478   58.0771   66.1792 C   0  0  0  0  0  0  0  0  0  0  0  0
  -46.2718   60.1480   65.4187 O   0  0  0  0  0  0  0  0  0  0  0  0
  -44.5593   57.2408   66.3406 O   0  0  0  0  0  0  0  0  0  0  0  0
  -47.0622   59.7656   65.8308 H   0  0  0  0  0  0  0  0  0  0  0  0
  -46.8626   57.7974   66.6969 C   0  0  0  0  0  0  0  0  0  0  0  0
  -47.7261   56.9443   65.7576 C   0  0  0  0  0  0  0  0  0  0  0  0
  -48.6567   57.8493   64.9274 C   0  0  0  0  0  0  0  0  0  0  0  0
  -50.0856   57.9474   65.4946 C   0  0  0  0  0  0  0  0  0  0  0  0
  -50.5552   59.3808   65.8055 C   0  0  0  0  0  0  0  0  0  0  0  0
  -50.5181   60.3056   64.5707 C   0  0  0  0  0  0  0  0  0  0  0  0
  -51.5514   59.9547   63.4749 C   0  0  0  0  0  0  0  0  0  0  0  0
  -50.9155   59.4303   62.1823 C   0  0  0  0  0  0  0  0  0  0  0  0
  -51.0662   57.9250   61.9413 C   0  0  0  0  0  0  0  0  0  0  0  0
  -50.7493   57.5561   60.4805 C   0  0  0  0  0  0  0  0  0  0  0  0
  -49.6256   56.5196   60.3298 C   0  0  0  0  0  0  0  0  0  0  0  0
  -48.2383   57.0839   60.0069 C   0  0  0  0  0  0  0  0  0  0  0  0
  -48.2053   58.0270   58.7784 C   0  0  0  0  0  0  0  0  0  0  0  0
  -48.3838   57.2453   57.4611 C   0  0  0  0  0  0  0  0  0  0  0  0
  -47.8110   57.8797   56.1879 C   0  0  0  0  0  0  0  0  0  0  0  0
 46 47  1  0  0  0
 46 48  1  0  0  0
 46 45  1  0  0  0
 47 49  2  0  0  0
 47 51  1  0  0  0
 19 20  2  0  0  0
 37 38  1  0  0  0
 37 39  1  0  0  0
 37 40  1  0  0  0
 37 41  1  0  0  0
 48 50  1  0  0  0
 38 29  1  0  0  0
 45 44  1  0  0  0
 25 27  1  0  0  0
 25 35  1  0  0  0
 25 28  1  0  0  0
 21 20  1  0  0  0
 21 22  1  0  0  0
 44 42  1  0  0  0
  2  1  1  0  0  0
  2  4  1  0  0  0
  2  5  1  0  0  0
 26 27  2  0  0  0
 42 43  2  0  0  0
 29 31  1  0  0  0
 29 36  1  0  0  0
  3  4  2  0  0  0
 43  1  1  0  0  0
  6  9  2  0  0  0
  6 10  1  0  0  0
  1 20  1  0  0  0
 30 36  2  0  0  0
  7  8  1  0  0  0
  7  9  1  0  0  0
 22 24  1  0  0  0
 22 23  1  0  0  0
 11 12  1  0  0  0
 11 18  1  0  0  0
 24 27  1  0  0  0
  4 10  1  0  0  0
 51 52  1  0  0  0
 52 53  1  0  0  0
 53 54  1  0  0  0
 54 55  1  0  0  0
 55 56  1  0  0  0
 56 57  1  0  0  0
 57 58  1  0  0  0
 58 59  1  0  0  0
 59 60  1  0  0  0
 60 61  1  0  0  0
 61 62  1  0  0  0
 62 63  1  0  0  0
 63 64  1  0  0  0
 64 65  1  0  0  0
 31 32  1  0  0  0
 32 33  1  0  0  0
 33 34  1  0  0  0
 34 35  1  0  0  0
 35 36  1  0  0  0
  8 10  1  0  0  0
  9 17  1  0  0  0
 12 13  2  0  0  0
 12 17  1  0  0  0
 13 14  1  0  0  0
 14 15  2  0  0  0
 15 16  1  0  0  0
 16 17  2  0  0  0
M  END
> <minimizedAffinity>
-8.93686

> <CNNscore>
0.1414454728

> <CNNaffinity>
7.3031373024

> <CNN_VS>
1.0329957008

> <CNNaffinity_variance>
0.7835065126

$$$$
/media/chris/experiments/cd1a-new-docking/inputs/ligands/1xz0_ligand.pdb


 65 67  0  0  0  0  0  0  0  0999 V2000
  -41.6019   57.5311   62.7718 C   0  0  0  0  0  0  0  0  0  0  0  0
  -40.4233   57.0761   63.5122 N   0  0  0  0  0  0  0  0  0  0  0  0
  -38.5385   57.3228   64.7610 O   0  0  0  0  0  0  0  0  0  0  0  0
  -39.5043   57.7972   64.1775 C   0  0  0  0  0  0  0  0  0  0  0  0
  -40.2839   56.1015   63.5244 H   0  0  0  0  0  0  0  0  0  0  0  0
  -38.5619   60.0781   63.8788 N   0  0  0  0  0  0  0  0  0  0  0  0
  -39.0369   60.9333   65.8875 O   0  0  0  0  0  0  0  0  0  0  0  0
  -40.0160   59.9106   65.7089 C   0  0  0  0  0  0  0  0  0  0  0  0
  -38.1892   60.9431   64.7217 C   0  0  0  0  0  0  0  0  0  0  0  0
  -39.7361   59.2955   64.3096 C   0  0  0  0  0  0  0  0  0  0  0  0
  -37.2490   61.8809   62.1461 O   0  0  0  0  0  0  0  0  0  0  0  0
  -36.6536   62.3364   63.2551 C   0  0  0  0  0  0  0  0  0  0  0  0
  -35.6075   63.2623   63.1493 C   0  0  0  0  0  0  0  0  0  0  0  0
  -34.9602   63.7484   64.2978 C   0  0  0  0  0  0  0  0  0  0  0  0
  -35.3584   63.3216   65.5659 C   0  0  0  0  0  0  0  0  0  0  0  0
  -36.4058   62.4028   65.6770 C   0  0  0  0  0  0  0  0  0  0  0  0
  -37.0505   61.9073   64.5275 C   0  0  0  0  0  0  0  0  0  0  0  0
  -36.9664   62.1823   61.3052 H   0  0  0  0  0  0  0  0  0  0  0  0
  -41.6833   59.3660   61.2349 O   0  0  0  0  0  0  0  0  0  0  0  0
  -41.0850   58.3761   61.6231 C   0  0  0  0  0  0  0  0  0  0  0  0
  -39.8721   57.9692   60.9059 O   0  0  0  0  0  0  0  0  0  0  0  0
  -39.3045   58.7902   59.8678 C   0  0  0  0  0  0  0  0  0  0  0  0
  -39.1856   58.1040   58.5126 C   0  0  0  0  0  0  0  0  0  0  0  0
  -37.9531   59.3004   60.3452 C   0  0  0  0  0  0  0  0  0  0  0  0
  -36.2362   58.8544   62.0332 N   0  0  0  0  0  0  0  0  0  0  0  0
  -37.8428   57.3325   61.5665 O   0  0  0  0  0  0  0  0  0  0  0  0
  -37.3022   58.3952   61.3617 C   0  0  0  0  0  0  0  0  0  0  0  0
  -35.8803   59.7363   61.7787 H   0  0  0  0  0  0  0  0  0  0  0  0
  -34.0813   59.8478   64.0887 N   0  0  0  0  0  0  0  0  0  0  0  0
  -35.6358   58.8450   65.3708 O   0  0  0  0  0  0  0  0  0  0  0  0
  -33.5518   60.2751   62.7852 C   0  0  0  0  0  0  0  0  0  0  0  0
  -32.8334   59.1093   62.0800 C   0  0  0  0  0  0  0  0  0  0  0  0
  -32.9730   57.7562   62.7577 C   0  0  0  0  0  0  0  0  0  0  0  0
  -34.4028   57.2104   62.7158 C   0  0  0  0  0  0  0  0  0  0  0  0
  -35.5627   58.1351   63.1205 C   0  0  0  0  0  0  0  0  0  0  0  0
  -35.0971   58.9913   64.2820 C   0  0  0  0  0  0  0  0  0  0  0  0
  -33.1803   59.3538   66.6319 Si  0  0  0  0  0  0  0  0  0  0  0  0
  -33.4947   60.3757   65.1991 O   0  0  0  0  0  0  0  0  0  0  0  0
  -32.5667   60.1360   67.6457 H   0  0  0  0  0  0  0  0  0  0  0  0
  -32.3175   58.2853   66.2710 H   0  0  0  0  0  0  0  0  0  0  0  0
  -34.4072   58.8283   67.1168 H   0  0  0  0  0  0  0  0  0  0  0  0
  -43.2053   57.4905   64.8506 C   0  0  0  0  0  0  0  0  0  0  0  0
  -42.7336   58.2099   63.5809 C   0  0  0  0  0  0  0  0  0  0  0  0
  -44.5787   57.8983   65.4106 C   0  0  0  0  0  0  0  0  0  0  0  0
  -44.8848   59.4064   65.5163 C   0  0  0  0  0  0  0  0  0  0  0  0
  -46.3363   59.5890   65.4184 N   0  0  0  0  0  0  0  0  0  0  0  0
  -47.2887   59.4015   66.3699 C   0  0  0  0  0  0  0  0  0  0  0  0
  -46.7716   60.0176   64.1565 O   0  0  0  0  0  0  0  0  0  0  0  0
  -46.9899   59.0387   67.5074 O   0  0  0  0  0  0  0  0  0  0  0  0
  -47.7364   60.1170   64.1639 H   0  0  0  0  0  0  0  0  0  0  0  0
  -48.7576   59.6433   66.0069 C   0  0  0  0  0  0  0  0  0  0  0  0
  -49.5006   58.3990   65.5016 C   0  0  0  0  0  0  0  0  0  0  0  0
  -50.7262   58.8177   64.6668 C   0  0  0  0  0  0  0  0  0  0  0  0
  -51.0915   60.3069   64.8150 C   0  0  0  0  0  0  0  0  0  0  0  0
  -51.3406   61.0416   63.4845 C   0  0  0  0  0  0  0  0  0  0  0  0
  -51.0402   60.1659   62.2500 C   0  0  0  0  0  0  0  0  0  0  0  0
  -49.5879   60.2688   61.7284 C   0  0  0  0  0  0  0  0  0  0  0  0
  -49.4588   59.9953   60.2254 C   0  0  0  0  0  0  0  0  0  0  0  0
  -49.6586   58.5358   59.8052 C   0  0  0  0  0  0  0  0  0  0  0  0
  -48.5321   57.6367   60.3467 C   0  0  0  0  0  0  0  0  0  0  0  0
  -48.3715   56.3126   59.5845 C   0  0  0  0  0  0  0  0  0  0  0  0
  -47.2491   56.2765   58.5423 C   0  0  0  0  0  0  0  0  0  0  0  0
  -47.7318   55.9972   57.0970 C   0  0  0  0  0  0  0  0  0  0  0  0
  -47.8830   57.3025   56.2897 C   0  0  0  0  0  0  0  0  0  0  0  0
  -47.2409   58.5659   56.8754 C   0  0  0  0  0  0  0  0  0  0  0  0
 46 47  1  0  0  0
 46 48  1  0  0  0
 46 45  1  0  0  0
 47 49  2  0  0  0
 47 51  1  0  0  0
 19 20  2  0  0  0
 37 38  1  0  0  0
 37 39  1  0  0  0
 37 40  1  0  0  0
 37 41  1  0  0  0
 48 50  1  0  0  0
 38 29  1  0  0  0
 45 44  1  0  0  0
 25 27  1  0  0  0
 25 35  1  0  0  0
 25 28  1  0  0  0
 21 20  1  0  0  0
 21 22  1  0  0  0
 44 42  1  0  0  0
  2  1  1  0  0  0
  2  4  1  0  0  0
  2  5  1  0  0  0
 26 27  2  0  0  0
 42 43  2  0  0  0
 29 31  1  0  0  0
 29 36  1  0  0  0
  3  4  2  0  0  0
 43  1  1  0  0  0
  6  9  2  0  0  0
  6 10  1  0  0  0
  1 20  1  0  0  0
 30 36  2  0  0  0
  7  8  1  0  0  0
  7  9  1  0  0  0
 22 24  1  0  0  0
 22 23  1  0  0  0
 11 12  1  0  0  0
 11 18  1  0  0  0
 24 27  1  0  0  0
  4 10  1  0  0  0
 51 52  1  0  0  0
 52 53  1  0  0  0
 53 54  1  0  0  0
 54 55  1  0  0  0
 55 56  1  0  0  0
 56 57  1  0  0  0
 57 58  1  0  0  0
 58 59  1  0  0  0
 59 60  1  0  0  0
 60 61  1  0  0  0
 61 62  1  0  0  0
 62 63  1  0  0  0
 63 64  1  0  0  0
 64 65  1  0  0  0
 31 32  1  0  0  0
 32 33  1  0  0  0
 33 34  1  0  0  0
 34 35  1  0  0  0
 35 36  1  0  0  0
  8 10  1  0  0  0
  9 17  1  0  0  0
 12 13  2  0  0  0
 12 17  1  0  0  0
 13 14  1  0  0  0
 14 15  2  0  0  0
 15 16  1  0  0  0
 16 17  2  0  0  0
M  END
> <minimizedAffinity>
-9.77204

> <CNNscore>
0.1327366829

> <CNNaffinity>
7.3621964455

> <CNN_VS>
0.9772335291

> <CNNaffinity_variance>
0.9524896741

$$$$
/media/chris/experiments/cd1a-new-docking/inputs/ligands/1xz0_ligand.pdb


 65 67  0  0  0  0  0  0  0  0999 V2000
  -42.4488   57.7331   63.5211 C   0  0  0  0  0  0  0  0  0  0  0  0
  -42.6352   58.6924   64.6116 N   0  0  0  0  0  0  0  0  0  0  0  0
  -43.7550   59.7004   66.3154 O   0  0  0  0  0  0  0  0  0  0  0  0
  -43.6868   58.8545   65.4333 C   0  0  0  0  0  0  0  0  0  0  0  0
  -41.8818   59.3074   64.7651 H   0  0  0  0  0  0  0  0  0  0  0  0
  -46.0697   58.4692   64.8392 N   0  0  0  0  0  0  0  0  0  0  0  0
  -46.7344   57.3952   66.6823 O   0  0  0  0  0  0  0  0  0  0  0  0
  -45.3328   57.1347   66.6190 C   0  0  0  0  0  0  0  0  0  0  0  0
  -47.0805   58.2308   65.5598 C   0  0  0  0  0  0  0  0  0  0  0  0
  -44.8261   57.8502   65.3361 C   0  0  0  0  0  0  0  0  0  0  0  0
  -48.5434   60.1464   67.1683 O   0  0  0  0  0  0  0  0  0  0  0  0
  -49.1292   59.6401   66.0764 C   0  0  0  0  0  0  0  0  0  0  0  0
  -50.4208   60.0557   65.7273 C   0  0  0  0  0  0  0  0  0  0  0  0
  -51.0611   59.5321   64.5914 C   0  0  0  0  0  0  0  0  0  0  0  0
  -50.4128   58.5942   63.7859 C   0  0  0  0  0  0  0  0  0  0  0  0
  -49.1216   58.1812   64.1262 C   0  0  0  0  0  0  0  0  0  0  0  0
  -48.4810   58.6976   65.2689 C   0  0  0  0  0  0  0  0  0  0  0  0
  -48.9965   60.7762   67.6936 H   0  0  0  0  0  0  0  0  0  0  0  0
  -41.3110   55.9574   64.6559 O   0  0  0  0  0  0  0  0  0  0  0  0
  -41.2342   56.9012   63.8866 C   0  0  0  0  0  0  0  0  0  0  0  0
  -39.9141   57.2681   63.3634 O   0  0  0  0  0  0  0  0  0  0  0  0
  -38.8116   57.5530   64.2449 C   0  0  0  0  0  0  0  0  0  0  0  0
  -38.9694   58.8283   65.0636 C   0  0  0  0  0  0  0  0  0  0  0  0
  -37.5339   57.5851   63.4195 C   0  0  0  0  0  0  0  0  0  0  0  0
  -35.3386   58.5183   63.9722 N   0  0  0  0  0  0  0  0  0  0  0  0
  -36.2512   56.8596   65.2096 O   0  0  0  0  0  0  0  0  0  0  0  0
  -36.2831   57.6119   64.2627 C   0  0  0  0  0  0  0  0  0  0  0  0
  -35.4718   59.0779   63.1733 H   0  0  0  0  0  0  0  0  0  0  0  0
  -33.2748   60.8829   63.9029 N   0  0  0  0  0  0  0  0  0  0  0  0
  -33.7717   60.6572   66.0864 O   0  0  0  0  0  0  0  0  0  0  0  0
  -33.4148   60.4927   62.4922 C   0  0  0  0  0  0  0  0  0  0  0  0
  -32.5357   59.2681   62.1756 C   0  0  0  0  0  0  0  0  0  0  0  0
  -31.8721   58.6175   63.3781 C   0  0  0  0  0  0  0  0  0  0  0  0
  -32.8724   57.9496   64.3253 C   0  0  0  0  0  0  0  0  0  0  0  0
  -34.1205   58.7350   64.7612 C   0  0  0  0  0  0  0  0  0  0  0  0
  -33.7181   60.1833   64.9597 C   0  0  0  0  0  0  0  0  0  0  0  0
  -31.6585   62.8592   62.9002 Si  0  0  0  0  0  0  0  0  0  0  0  0
  -32.6475   62.0645   64.1597 O   0  0  0  0  0  0  0  0  0  0  0  0
  -31.1175   64.0669   63.4150 H   0  0  0  0  0  0  0  0  0  0  0  0
  -32.4714   63.1478   61.7722 H   0  0  0  0  0  0  0  0  0  0  0  0
  -30.6013   61.9941   62.5127 H   0  0  0  0  0  0  0  0  0  0  0  0
  -41.6751   57.4475   61.0283 C   0  0  0  0  0  0  0  0  0  0  0  0
  -42.4057   58.2931   62.0787 C   0  0  0  0  0  0  0  0  0  0  0  0
  -41.2480   58.1626   59.7353 C   0  0  0  0  0  0  0  0  0  0  0  0
  -40.9952   59.6822   59.8128 C   0  0  0  0  0  0  0  0  0  0  0  0
  -39.6573   59.8979   60.3724 N   0  0  0  0  0  0  0  0  0  0  0  0
  -39.3081   60.3653   61.6001 C   0  0  0  0  0  0  0  0  0  0  0  0
  -38.6142   59.5660   59.4963 O   0  0  0  0  0  0  0  0  0  0  0  0
  -40.1622   60.6672   62.4333 O   0  0  0  0  0  0  0  0  0  0  0  0
  -37.7626   59.7327   59.9297 H   0  0  0  0  0  0  0  0  0  0  0  0
  -37.8219   60.5209   61.9395 C   0  0  0  0  0  0  0  0  0  0  0  0
  -37.4401   61.8945   62.5077 C   0  0  0  0  0  0  0  0  0  0  0  0
  -36.8519   61.7362   63.9231 C   0  0  0  0  0  0  0  0  0  0  0  0
  -36.3957   63.0664   64.5518 C   0  0  0  0  0  0  0  0  0  0  0  0
  -35.8958   62.9513   66.0040 C   0  0  0  0  0  0  0  0  0  0  0  0
  -35.2113   64.2396   66.5070 C   0  0  0  0  0  0  0  0  0  0  0  0
  -33.8245   64.0184   67.1548 C   0  0  0  0  0  0  0  0  0  0  0  0
  -32.6589   64.4828   66.2739 C   0  0  0  0  0  0  0  0  0  0  0  0
  -32.9504   65.6979   65.3878 C   0  0  0  0  0  0  0  0  0  0  0  0
  -32.1998   65.6073   64.0466 C   0  0  0  0  0  0  0  0  0  0  0  0
  -32.6497   66.6477   63.0097 C   0  0  0  0  0  0  0  0  0  0  0  0
  -33.6136   66.1400   61.9323 C   0  0  0  0  0  0  0  0  0  0  0  0
  -34.9515   66.9173   61.8585 C   0  0  0  0  0  0  0  0  0  0  0  0
  -36.0759   66.0507   61.2559 C   0  0  0  0  0  0  0  0  0  0  0  0
  -35.7593   64.5722   61.0007 C   0  0  0  0  0  0  0  0  0  0  0  0
 46 47  1  0  0  0
 46 48  1  0  0  0
 46 45  1  0  0  0
 47 49  2  0  0  0
 47 51  1  0  0  0
 19 20  2  0  0  0
 37 38  1  0  0  0
 37 39  1  0  0  0
 37 40  1  0  0  0
 37 41  1  0  0  0
 48 50  1  0  0  0
 38 29  1  0  0  0
 45 44  1  0  0  0
 25 27  1  0  0  0
 25 35  1  0  0  0
 25 28  1  0  0  0
 21 20  1  0  0  0
 21 22  1  0  0  0
 44 42  1  0  0  0
  2  1  1  0  0  0
  2  4  1  0  0  0
  2  5  1  0  0  0
 26 27  2  0  0  0
 42 43  2  0  0  0
 29 31  1  0  0  0
 29 36  1  0  0  0
  3  4  2  0  0  0
 43  1  1  0  0  0
  6  9  2  0  0  0
  6 10  1  0  0  0
  1 20  1  0  0  0
 30 36  2  0  0  0
  7  8  1  0  0  0
  7  9  1  0  0  0
 22 24  1  0  0  0
 22 23  1  0  0  0
 11 12  1  0  0  0
 11 18  1  0  0  0
 24 27  1  0  0  0
  4 10  1  0  0  0
 51 52  1  0  0  0
 52 53  1  0  0  0
 53 54  1  0  0  0
 54 55  1  0  0  0
 55 56  1  0  0  0
 56 57  1  0  0  0
 57 58  1  0  0  0
 58 59  1  0  0  0
 59 60  1  0  0  0
 60 61  1  0  0  0
 61 62  1  0  0  0
 62 63  1  0  0  0
 63 64  1  0  0  0
 64 65  1  0  0  0
 31 32  1  0  0  0
 32 33  1  0  0  0
 33 34  1  0  0  0
 34 35  1  0  0  0
 35 36  1  0  0  0
  8 10  1  0  0  0
  9 17  1  0  0  0
 12 13  2  0  0  0
 12 17  1  0  0  0
 13 14  1  0  0  0
 14 15  2  0  0  0
 15 16  1  0  0  0
 16 17  2  0  0  0
M  END
> <minimizedAffinity>
-8.88868

> <CNNscore>
0.1185112819

> <CNNaffinity>
7.4310655594

> <CNN_VS>
0.8806651235

> <CNNaffinity_variance>
1.2595417500

$$$$
/media/chris/experiments/cd1a-new-docking/inputs/ligands/1xz0_ligand.pdb


 65 67  0  0  0  0  0  0  0  0999 V2000
  -35.1615   61.4142   64.8452 C   0  0  0  0  0  0  0  0  0  0  0  0
  -34.1449   60.5336   65.4242 N   0  0  0  0  0  0  0  0  0  0  0  0
  -32.7697   58.7234   65.4958 O   0  0  0  0  0  0  0  0  0  0  0  0
  -33.6134   59.4034   64.9267 C   0  0  0  0  0  0  0  0  0  0  0  0
  -33.8011   60.8088   66.3047 H   0  0  0  0  0  0  0  0  0  0  0  0
  -35.4287   59.2577   63.2345 N   0  0  0  0  0  0  0  0  0  0  0  0
  -35.1653   57.1313   62.6013 O   0  0  0  0  0  0  0  0  0  0  0  0
  -33.8743   57.5113   63.0759 C   0  0  0  0  0  0  0  0  0  0  0  0
  -36.0446   58.2630   62.7561 C   0  0  0  0  0  0  0  0  0  0  0  0
  -34.0036   58.9969   63.5129 C   0  0  0  0  0  0  0  0  0  0  0  0
  -37.4944   60.5904   61.8189 O   0  0  0  0  0  0  0  0  0  0  0  0
  -38.1312   59.4145   61.8784 C   0  0  0  0  0  0  0  0  0  0  0  0
  -39.4700   59.3304   61.4742 C   0  0  0  0  0  0  0  0  0  0  0  0
  -40.1634   58.1098   61.5360 C   0  0  0  0  0  0  0  0  0  0  0  0
  -39.5226   56.9571   61.9936 C   0  0  0  0  0  0  0  0  0  0  0  0
  -38.1851   57.0344   62.3920 C   0  0  0  0  0  0  0  0  0  0  0  0
  -37.4904   58.2580   62.3394 C   0  0  0  0  0  0  0  0  0  0  0  0
  -37.9437   61.3511   61.5068 H   0  0  0  0  0  0  0  0  0  0  0  0
  -35.1320   63.7429   64.2872 O   0  0  0  0  0  0  0  0  0  0  0  0
  -34.5049   62.7709   64.6749 C   0  0  0  0  0  0  0  0  0  0  0  0
  -33.0656   62.9202   64.9138 O   0  0  0  0  0  0  0  0  0  0  0  0
  -32.5593   63.3617   66.1876 C   0  0  0  0  0  0  0  0  0  0  0  0
  -33.6332   63.6529   67.2286 C   0  0  0  0  0  0  0  0  0  0  0  0
  -31.6748   64.5777   65.9565 C   0  0  0  0  0  0  0  0  0  0  0  0
  -31.7257   65.2035   63.5897 N   0  0  0  0  0  0  0  0  0  0  0  0
  -32.9841   66.2977   65.1177 O   0  0  0  0  0  0  0  0  0  0  0  0
  -32.1597   65.4594   64.8324 C   0  0  0  0  0  0  0  0  0  0  0  0
  -31.0503   64.4960   63.4776 H   0  0  0  0  0  0  0  0  0  0  0  0
  -33.5658   64.2093   61.2486 N   0  0  0  0  0  0  0  0  0  0  0  0
  -34.4695   66.1801   61.8525 O   0  0  0  0  0  0  0  0  0  0  0  0
  -32.5566   63.1482   61.3818 C   0  0  0  0  0  0  0  0  0  0  0  0
  -31.2583   63.5358   60.6492 C   0  0  0  0  0  0  0  0  0  0  0  0
  -31.2135   64.9587   60.1174 C   0  0  0  0  0  0  0  0  0  0  0  0
  -31.1797   66.0121   61.2279 C   0  0  0  0  0  0  0  0  0  0  0  0
  -32.1864   65.9035   62.3852 C   0  0  0  0  0  0  0  0  0  0  0  0
  -33.5073   65.4252   61.8149 C   0  0  0  0  0  0  0  0  0  0  0  0
  -36.2580   64.6151   60.9157 Si  0  0  0  0  0  0  0  0  0  0  0  0
  -34.6625   63.9297   60.4905 O   0  0  0  0  0  0  0  0  0  0  0  0
  -37.2276   64.1754   59.9761 H   0  0  0  0  0  0  0  0  0  0  0  0
  -36.1854   66.0330   60.8926 H   0  0  0  0  0  0  0  0  0  0  0  0
  -36.6281   64.1812   62.2161 H   0  0  0  0  0  0  0  0  0  0  0  0
  -37.2975   60.1520   65.7048 C   0  0  0  0  0  0  0  0  0  0  0  0
  -36.5375   61.4753   65.5517 C   0  0  0  0  0  0  0  0  0  0  0  0
  -38.8055   60.2462   65.9925 C   0  0  0  0  0  0  0  0  0  0  0  0
  -39.7384   59.2921   65.2188 C   0  0  0  0  0  0  0  0  0  0  0  0
  -41.1213   59.5853   65.6079 N   0  0  0  0  0  0  0  0  0  0  0  0
  -42.2228   58.7943   65.5147 C   0  0  0  0  0  0  0  0  0  0  0  0
  -41.3004   60.8663   66.1488 O   0  0  0  0  0  0  0  0  0  0  0  0
  -42.1499   57.6514   65.0637 O   0  0  0  0  0  0  0  0  0  0  0  0
  -42.2335   60.9910   66.3825 H   0  0  0  0  0  0  0  0  0  0  0  0
  -43.5749   59.3479   65.9765 C   0  0  0  0  0  0  0  0  0  0  0  0
  -44.7930   58.6441   65.3631 C   0  0  0  0  0  0  0  0  0  0  0  0
  -45.3574   59.4821   64.1997 C   0  0  0  0  0  0  0  0  0  0  0  0
  -46.8762   59.3161   64.0024 C   0  0  0  0  0  0  0  0  0  0  0  0
  -47.7396   59.9471   65.1106 C   0  0  0  0  0  0  0  0  0  0  0  0
  -49.0040   60.6425   64.5636 C   0  0  0  0  0  0  0  0  0  0  0  0
  -49.1640   60.5670   63.0272 C   0  0  0  0  0  0  0  0  0  0  0  0
  -50.5879   60.2183   62.5787 C   0  0  0  0  0  0  0  0  0  0  0  0
  -51.1579   58.9194   63.1573 C   0  0  0  0  0  0  0  0  0  0  0  0
  -50.6742   57.6919   62.3638 C   0  0  0  0  0  0  0  0  0  0  0  0
  -51.2277   57.6181   60.9326 C   0  0  0  0  0  0  0  0  0  0  0  0
  -50.2374   57.9679   59.8171 C   0  0  0  0  0  0  0  0  0  0  0  0
  -48.7487   57.8666   60.2332 C   0  0  0  0  0  0  0  0  0  0  0  0
  -47.8894   57.2477   59.1120 C   0  0  0  0  0  0  0  0  0  0  0  0
  -48.2001   57.6787   57.6736 C   0  0  0  0  0  0  0  0  0  0  0  0
 46 47  1  0  0  0
 46 48  1  0  0  0
 46 45  1  0  0  0
 47 49  2  0  0  0
 47 51  1  0  0  0
 19 20  2  0  0  0
 37 38  1  0  0  0
 37 39  1  0  0  0
 37 40  1  0  0  0
 37 41  1  0  0  0
 48 50  1  0  0  0
 38 29  1  0  0  0
 45 44  1  0  0  0
 25 27  1  0  0  0
 25 35  1  0  0  0
 25 28  1  0  0  0
 21 20  1  0  0  0
 21 22  1  0  0  0
 44 42  1  0  0  0
  2  1  1  0  0  0
  2  4  1  0  0  0
  2  5  1  0  0  0
 26 27  2  0  0  0
 42 43  2  0  0  0
 29 31  1  0  0  0
 29 36  1  0  0  0
  3  4  2  0  0  0
 43  1  1  0  0  0
  6  9  2  0  0  0
  6 10  1  0  0  0
  1 20  1  0  0  0
 30 36  2  0  0  0
  7  8  1  0  0  0
  7  9  1  0  0  0
 22 24  1  0  0  0
 22 23  1  0  0  0
 11 12  1  0  0  0
 11 18  1  0  0  0
 24 27  1  0  0  0
  4 10  1  0  0  0
 51 52  1  0  0  0
 52 53  1  0  0  0
 53 54  1  0  0  0
 54 55  1  0  0  0
 55 56  1  0  0  0
 56 57  1  0  0  0
 57 58  1  0  0  0
 58 59  1  0  0  0
 59 60  1  0  0  0
 60 61  1  0  0  0
 61 62  1  0  0  0
 62 63  1  0  0  0
 63 64  1  0  0  0
 64 65  1  0  0  0
 31 32  1  0  0  0
 32 33  1  0  0  0
 33 34  1  0  0  0
 34 35  1  0  0  0
 35 36  1  0  0  0
  8 10  1  0  0  0
  9 17  1  0  0  0
 12 13  2  0  0  0
 12 17  1  0  0  0
 13 14  1  0  0  0
 14 15  2  0  0  0
 15 16  1  0  0  0
 16 17  2  0  0  0
M  END
> <minimizedAffinity>
-9.45122

> <CNNscore>
0.1141830683

> <CNNaffinity>
6.7897796631

> <CNN_VS>
0.7752778530

> <CNNaffinity_variance>
0.4672993124

$$$$
