/media/chris/experiments/cd1a-new-docking/inputs/ligands/1xz0_ligand.pdb


 65 67  0  0  0  0  0  0  0  0999 V2000
  -42.1944   59.2955   63.2421 C   0  0  0  0  0  0  0  0  0  0  0  0
  -41.1588   59.4772   64.2612 N   0  0  0  0  0  0  0  0  0  0  0  0
  -39.6618   60.8459   63.2325 O   0  0  0  0  0  0  0  0  0  0  0  0
  -40.0239   60.1954   64.2040 C   0  0  0  0  0  0  0  0  0  0  0  0
  -41.3164   59.0054   65.1108 H   0  0  0  0  0  0  0  0  0  0  0  0
  -38.0731   61.1982   65.3740 N   0  0  0  0  0  0  0  0  0  0  0  0
  -36.8203   59.3656   65.6277 O   0  0  0  0  0  0  0  0  0  0  0  0
  -38.1530   58.8624   65.5442 C   0  0  0  0  0  0  0  0  0  0  0  0
  -36.8797   60.8000   65.4970 C   0  0  0  0  0  0  0  0  0  0  0  0
  -39.0676   60.1085   65.3847 C   0  0  0  0  0  0  0  0  0  0  0  0
  -36.9570   63.6294   66.1181 O   0  0  0  0  0  0  0  0  0  0  0  0
  -35.7720   63.0522   65.8846 C   0  0  0  0  0  0  0  0  0  0  0  0
  -34.6015   63.8183   65.9609 C   0  0  0  0  0  0  0  0  0  0  0  0
  -33.3463   63.2382   65.7111 C   0  0  0  0  0  0  0  0  0  0  0  0
  -33.2467   61.8829   65.3918 C   0  0  0  0  0  0  0  0  0  0  0  0
  -34.4110   61.1129   65.3206 C   0  0  0  0  0  0  0  0  0  0  0  0
  -35.6709   61.6935   65.5620 C   0  0  0  0  0  0  0  0  0  0  0  0
  -37.0002   64.5405   66.3323 H   0  0  0  0  0  0  0  0  0  0  0  0
  -42.1688   56.9058   63.0877 O   0  0  0  0  0  0  0  0  0  0  0  0
  -42.7639   57.9057   63.4544 C   0  0  0  0  0  0  0  0  0  0  0  0
  -44.0929   57.7453   64.0535 O   0  0  0  0  0  0  0  0  0  0  0  0
  -44.3077   57.9417   65.4638 C   0  0  0  0  0  0  0  0  0  0  0  0
  -43.3504   57.1692   66.3630 C   0  0  0  0  0  0  0  0  0  0  0  0
  -45.7556   57.5988   65.7806 C   0  0  0  0  0  0  0  0  0  0  0  0
  -47.7460   59.0195   65.9071 N   0  0  0  0  0  0  0  0  0  0  0  0
  -46.0059   59.3130   67.3218 O   0  0  0  0  0  0  0  0  0  0  0  0
  -46.5208   58.7517   66.3819 C   0  0  0  0  0  0  0  0  0  0  0  0
  -48.2621   59.7322   66.3486 H   0  0  0  0  0  0  0  0  0  0  0  0
  -49.0631   60.1725   63.3013 N   0  0  0  0  0  0  0  0  0  0  0  0
  -47.6497   58.5932   62.5443 O   0  0  0  0  0  0  0  0  0  0  0  0
  -49.6911   60.9411   64.3861 C   0  0  0  0  0  0  0  0  0  0  0  0
  -50.8447   60.1430   65.0226 C   0  0  0  0  0  0  0  0  0  0  0  0
  -50.9768   58.7047   64.5497 C   0  0  0  0  0  0  0  0  0  0  0  0
  -49.8079   57.8198   64.9906 C   0  0  0  0  0  0  0  0  0  0  0  0
  -48.3715   58.3252   64.7758 C   0  0  0  0  0  0  0  0  0  0  0  0
  -48.3260   59.0603   63.4504 C   0  0  0  0  0  0  0  0  0  0  0  0
  -48.8806   59.5899   60.6271 Si  0  0  0  0  0  0  0  0  0  0  0  0
  -49.2372   60.6362   62.0321 O   0  0  0  0  0  0  0  0  0  0  0  0
  -49.1419   60.3032   59.4273 H   0  0  0  0  0  0  0  0  0  0  0  0
  -49.7018   58.4326   60.6781 H   0  0  0  0  0  0  0  0  0  0  0  0
  -47.5148   59.2029   60.6597 H   0  0  0  0  0  0  0  0  0  0  0  0
  -41.6301   58.3794   60.8470 C   0  0  0  0  0  0  0  0  0  0  0  0
  -41.8075   59.5894   61.7724 C   0  0  0  0  0  0  0  0  0  0  0  0
  -40.8417   58.6089   59.5464 C   0  0  0  0  0  0  0  0  0  0  0  0
  -39.4858   57.8882   59.3997 C   0  0  0  0  0  0  0  0  0  0  0  0
  -38.5104   58.5636   60.2612 N   0  0  0  0  0  0  0  0  0  0  0  0
  -38.0525   58.1965   61.4874 C   0  0  0  0  0  0  0  0  0  0  0  0
  -37.9961   59.7490   59.7173 O   0  0  0  0  0  0  0  0  0  0  0  0
  -38.4432   57.1632   62.0301 O   0  0  0  0  0  0  0  0  0  0  0  0
  -37.3608   60.1401   60.3371 H   0  0  0  0  0  0  0  0  0  0  0  0
  -37.0368   59.0960   62.1996 C   0  0  0  0  0  0  0  0  0  0  0  0
  -35.5937   58.5746   62.1677 C   0  0  0  0  0  0  0  0  0  0  0  0
  -35.3207   57.6984   63.4054 C   0  0  0  0  0  0  0  0  0  0  0  0
  -33.9154   57.8996   64.0035 C   0  0  0  0  0  0  0  0  0  0  0  0
  -32.7727   57.8982   62.9709 C   0  0  0  0  0  0  0  0  0  0  0  0
  -31.8089   59.0912   63.1406 C   0  0  0  0  0  0  0  0  0  0  0  0
  -31.7548   60.0500   61.9284 C   0  0  0  0  0  0  0  0  0  0  0  0
  -31.5370   61.5162   62.3198 C   0  0  0  0  0  0  0  0  0  0  0  0
  -31.9625   62.5455   61.2680 C   0  0  0  0  0  0  0  0  0  0  0  0
  -31.4855   63.9607   61.6428 C   0  0  0  0  0  0  0  0  0  0  0  0
  -32.5564   65.0471   61.4614 C   0  0  0  0  0  0  0  0  0  0  0  0
  -33.6566   65.0816   62.5272 C   0  0  0  0  0  0  0  0  0  0  0  0
  -34.7461   63.9945   62.3522 C   0  0  0  0  0  0  0  0  0  0  0  0
  -36.1524   64.6171   62.2379 C   0  0  0  0  0  0  0  0  0  0  0  0
  -36.2668   65.9569   61.5010 C   0  0  0  0  0  0  0  0  0  0  0  0
 46 47  1  0  0  0
 46 48  1  0  0  0
 46 45  1  0  0  0
 47 49  2  0  0  0
 47 51  1  0  0  0
 19 20  2  0  0  0
 37 38  1  0  0  0
 37 39  1  0  0  0
 37 40  1  0  0  0
 37 41  1  0  0  0
 48 50  1  0  0  0
 38 29  1  0  0  0
 45 44  1  0  0  0
 25 27  1  0  0  0
 25 35  1  0  0  0
 25 28  1  0  0  0
 21 20  1  0  0  0
 21 22  1  0  0  0
 44 42  1  0  0  0
  2  1  1  0  0  0
  2  4  1  0  0  0
  2  5  1  0  0  0
 26 27  2  0  0  0
 42 43  2  0  0  0
 29 31  1  0  0  0
 29 36  1  0  0  0
  3  4  2  0  0  0
 43  1  1  0  0  0
  6  9  2  0  0  0
  6 10  1  0  0  0
  1 20  1  0  0  0
 30 36  2  0  0  0
  7  8  1  0  0  0
  7  9  1  0  0  0
 22 24  1  0  0  0
 22 23  1  0  0  0
 11 12  1  0  0  0
 11 18  1  0  0  0
 24 27  1  0  0  0
  4 10  1  0  0  0
 51 52  1  0  0  0
 52 53  1  0  0  0
 53 54  1  0  0  0
 54 55  1  0  0  0
 55 56  1  0  0  0
 56 57  1  0  0  0
 57 58  1  0  0  0
 58 59  1  0  0  0
 59 60  1  0  0  0
 60 61  1  0  0  0
 61 62  1  0  0  0
 62 63  1  0  0  0
 63 64  1  0  0  0
 64 65  1  0  0  0
 31 32  1  0  0  0
 32 33  1  0  0  0
 33 34  1  0  0  0
 34 35  1  0  0  0
 35 36  1  0  0  0
  8 10  1  0  0  0
  9 17  1  0  0  0
 12 13  2  0  0  0
 12 17  1  0  0  0
 13 14  1  0  0  0
 14 15  2  0  0  0
 15 16  1  0  0  0
 16 17  2  0  0  0
M  END
> <minimizedAffinity>
-9.01608

> <CNNscore>
0.2152804732

> <CNNaffinity>
7.4473915100

> <CNN_VS>
1.6032779217

> <CNNaffinity_variance>
1.7043755054

$$$$
/media/chris/experiments/cd1a-new-docking/inputs/ligands/1xz0_ligand.pdb


 65 67  0  0  0  0  0  0  0  0999 V2000
  -35.3154   61.3533   65.7252 C   0  0  0  0  0  0  0  0  0  0  0  0
  -34.5262   62.5795   65.5924 N   0  0  0  0  0  0  0  0  0  0  0  0
  -35.5724   64.0184   67.0094 O   0  0  0  0  0  0  0  0  0  0  0  0
  -34.6877   63.7668   66.2020 C   0  0  0  0  0  0  0  0  0  0  0  0
  -33.7681   62.5269   64.9665 H   0  0  0  0  0  0  0  0  0  0  0  0
  -33.6275   64.9896   64.3149 N   0  0  0  0  0  0  0  0  0  0  0  0
  -31.5171   65.0291   65.0476 O   0  0  0  0  0  0  0  0  0  0  0  0
  -32.2935   64.9242   66.2403 C   0  0  0  0  0  0  0  0  0  0  0  0
  -32.4254   65.0456   63.9283 C   0  0  0  0  0  0  0  0  0  0  0  0
  -33.7777   64.9116   65.7805 C   0  0  0  0  0  0  0  0  0  0  0  0
  -31.0206   62.9866   62.4503 O   0  0  0  0  0  0  0  0  0  0  0  0
  -31.3197   64.1351   61.8311 C   0  0  0  0  0  0  0  0  0  0  0  0
  -30.9647   64.3102   60.4871 C   0  0  0  0  0  0  0  0  0  0  0  0
  -31.2590   65.5098   59.8173 C   0  0  0  0  0  0  0  0  0  0  0  0
  -31.9206   66.5443   60.4813 C   0  0  0  0  0  0  0  0  0  0  0  0
  -32.2824   66.3721   61.8203 C   0  0  0  0  0  0  0  0  0  0  0  0
  -31.9811   65.1744   62.4966 C   0  0  0  0  0  0  0  0  0  0  0  0
  -30.5774   62.3050   61.9847 H   0  0  0  0  0  0  0  0  0  0  0  0
  -33.7285   59.5797   65.4580 O   0  0  0  0  0  0  0  0  0  0  0  0
  -34.5795   60.2842   64.9403 C   0  0  0  0  0  0  0  0  0  0  0  0
  -34.8371   60.1251   63.5052 O   0  0  0  0  0  0  0  0  0  0  0  0
  -34.9837   58.8219   62.9103 C   0  0  0  0  0  0  0  0  0  0  0  0
  -33.8303   58.4063   62.0054 C   0  0  0  0  0  0  0  0  0  0  0  0
  -36.3087   58.7819   62.1639 C   0  0  0  0  0  0  0  0  0  0  0  0
  -38.4872   57.6637   62.1611 N   0  0  0  0  0  0  0  0  0  0  0  0
  -36.8378   57.0114   63.5645 O   0  0  0  0  0  0  0  0  0  0  0  0
  -37.2674   57.7533   62.7109 C   0  0  0  0  0  0  0  0  0  0  0  0
  -39.0821   56.9478   62.4817 H   0  0  0  0  0  0  0  0  0  0  0  0
  -41.3203   58.9724   61.8212 N   0  0  0  0  0  0  0  0  0  0  0  0
  -39.8918   60.6937   61.5732 O   0  0  0  0  0  0  0  0  0  0  0  0
  -41.6122   57.5507   62.0568 C   0  0  0  0  0  0  0  0  0  0  0  0
  -41.4569   56.7397   60.7564 C   0  0  0  0  0  0  0  0  0  0  0  0
  -40.8734   57.5050   59.5802 C   0  0  0  0  0  0  0  0  0  0  0  0
  -39.4082   57.8969   59.7887 C   0  0  0  0  0  0  0  0  0  0  0  0
  -38.9977   58.5575   61.1153 C   0  0  0  0  0  0  0  0  0  0  0  0
  -40.1143   59.4912   61.5399 C   0  0  0  0  0  0  0  0  0  0  0  0
  -42.1270   61.4866   62.5644 Si  0  0  0  0  0  0  0  0  0  0  0  0
  -42.3657   59.8419   61.9055 O   0  0  0  0  0  0  0  0  0  0  0  0
  -43.3614   62.1883   62.5443 H   0  0  0  0  0  0  0  0  0  0  0  0
  -41.1752   62.1806   61.7715 H   0  0  0  0  0  0  0  0  0  0  0  0
  -41.6549   61.3973   63.9006 H   0  0  0  0  0  0  0  0  0  0  0  0
  -37.6581   60.1716   65.6276 C   0  0  0  0  0  0  0  0  0  0  0  0
  -36.8251   61.4378   65.3934 C   0  0  0  0  0  0  0  0  0  0  0  0
  -39.0188   60.0934   64.9146 C   0  0  0  0  0  0  0  0  0  0  0  0
  -39.9585   58.9324   65.3002 C   0  0  0  0  0  0  0  0  0  0  0  0
  -41.3420   59.4066   65.1958 N   0  0  0  0  0  0  0  0  0  0  0  0
  -42.4977   58.7367   65.4477 C   0  0  0  0  0  0  0  0  0  0  0  0
  -41.4561   60.7396   64.7769 O   0  0  0  0  0  0  0  0  0  0  0  0
  -42.4855   57.5675   65.8318 O   0  0  0  0  0  0  0  0  0  0  0  0
  -42.3934   60.9847   64.7303 H   0  0  0  0  0  0  0  0  0  0  0  0
  -43.8335   59.4583   65.2402 C   0  0  0  0  0  0  0  0  0  0  0  0
  -45.0472   58.7327   65.8366 C   0  0  0  0  0  0  0  0  0  0  0  0
  -46.3331   59.5330   65.5536 C   0  0  0  0  0  0  0  0  0  0  0  0
  -46.7361   59.5438   64.0667 C   0  0  0  0  0  0  0  0  0  0  0  0
  -47.7703   60.6211   63.6904 C   0  0  0  0  0  0  0  0  0  0  0  0
  -48.8829   60.7803   64.7477 C   0  0  0  0  0  0  0  0  0  0  0  0
  -50.2900   60.3540   64.2678 C   0  0  0  0  0  0  0  0  0  0  0  0
  -50.4927   58.8346   64.2465 C   0  0  0  0  0  0  0  0  0  0  0  0
  -50.8242   58.2366   62.8756 C   0  0  0  0  0  0  0  0  0  0  0  0
  -49.5478   57.9631   62.0592 C   0  0  0  0  0  0  0  0  0  0  0  0
  -49.5260   58.6546   60.6876 C   0  0  0  0  0  0  0  0  0  0  0  0
  -49.5513   57.7225   59.4718 C   0  0  0  0  0  0  0  0  0  0  0  0
  -48.7260   58.2306   58.2634 C   0  0  0  0  0  0  0  0  0  0  0  0
  -47.4061   57.4475   58.1113 C   0  0  0  0  0  0  0  0  0  0  0  0
  -47.3574   56.0356   58.7074 C   0  0  0  0  0  0  0  0  0  0  0  0
 46 47  1  0  0  0
 46 48  1  0  0  0
 46 45  1  0  0  0
 47 49  2  0  0  0
 47 51  1  0  0  0
 19 20  2  0  0  0
 37 38  1  0  0  0
 37 39  1  0  0  0
 37 40  1  0  0  0
 37 41  1  0  0  0
 48 50  1  0  0  0
 38 29  1  0  0  0
 45 44  1  0  0  0
 25 27  1  0  0  0
 25 35  1  0  0  0
 25 28  1  0  0  0
 21 20  1  0  0  0
 21 22  1  0  0  0
 44 42  1  0  0  0
  2  1  1  0  0  0
  2  4  1  0  0  0
  2  5  1  0  0  0
 26 27  2  0  0  0
 42 43  2  0  0  0
 29 31  1  0  0  0
 29 36  1  0  0  0
  3  4  2  0  0  0
 43  1  1  0  0  0
  6  9  2  0  0  0
  6 10  1  0  0  0
  1 20  1  0  0  0
 30 36  2  0  0  0
  7  8  1  0  0  0
  7  9  1  0  0  0
 22 24  1  0  0  0
 22 23  1  0  0  0
 11 12  1  0  0  0
 11 18  1  0  0  0
 24 27  1  0  0  0
  4 10  1  0  0  0
 51 52  1  0  0  0
 52 53  1  0  0  0
 53 54  1  0  0  0
 54 55  1  0  0  0
 55 56  1  0  0  0
 56 57  1  0  0  0
 57 58  1  0  0  0
 58 59  1  0  0  0
 59 60  1  0  0  0
 60 61  1  0  0  0
 61 62  1  0  0  0
 62 63  1  0  0  0
 63 64  1  0  0  0
 64 65  1  0  0  0
 31 32  1  0  0  0
 32 33  1  0  0  0
 33 34  1  0  0  0
 34 35  1  0  0  0
 35 36  1  0  0  0
  8 10  1  0  0  0
  9 17  1  0  0  0
 12 13  2  0  0  0
 12 17  1  0  0  0
 13 14  1  0  0  0
 14 15  2  0  0  0
 15 16  1  0  0  0
 16 17  2  0  0  0
M  END
> <minimizedAffinity>
-9.23455

> <CNNscore>
0.1796612591

> <CNNaffinity>
7.1473684311

> <CNN_VS>
1.2841051817

> <CNNaffinity_variance>
0.8850990534

$$$$
/media/chris/experiments/cd1a-new-docking/inputs/ligands/1xz0_ligand.pdb


 65 67  0  0  0  0  0  0  0  0999 V2000
  -38.4975   59.7758   66.1197 C   0  0  0  0  0  0  0  0  0  0  0  0
  -37.4700   60.8190   66.1337 N   0  0  0  0  0  0  0  0  0  0  0  0
  -37.6866   61.7794   64.0835 O   0  0  0  0  0  0  0  0  0  0  0  0
  -37.1427   61.7053   65.1774 C   0  0  0  0  0  0  0  0  0  0  0  0
  -36.9430   60.8802   66.9631 H   0  0  0  0  0  0  0  0  0  0  0  0
  -35.5765   63.3856   64.2266 N   0  0  0  0  0  0  0  0  0  0  0  0
  -33.6371   62.4695   64.8523 O   0  0  0  0  0  0  0  0  0  0  0  0
  -34.5742   61.9793   65.8105 C   0  0  0  0  0  0  0  0  0  0  0  0
  -34.3526   63.3054   63.9210 C   0  0  0  0  0  0  0  0  0  0  0  0
  -35.9423   62.6074   65.4254 C   0  0  0  0  0  0  0  0  0  0  0  0
  -32.4781   62.0968   62.0709 O   0  0  0  0  0  0  0  0  0  0  0  0
  -32.8105   63.3828   61.9047 C   0  0  0  0  0  0  0  0  0  0  0  0
  -32.2622   64.1076   60.8384 C   0  0  0  0  0  0  0  0  0  0  0  0
  -32.5878   65.4611   60.6477 C   0  0  0  0  0  0  0  0  0  0  0  0
  -33.4733   66.1025   61.5156 C   0  0  0  0  0  0  0  0  0  0  0  0
  -34.0278   65.3820   62.5772 C   0  0  0  0  0  0  0  0  0  0  0  0
  -33.6967   64.0279   62.7758 C   0  0  0  0  0  0  0  0  0  0  0  0
  -31.8830   61.6860   61.4753 H   0  0  0  0  0  0  0  0  0  0  0  0
  -38.5366   57.5758   65.1745 O   0  0  0  0  0  0  0  0  0  0  0  0
  -37.9101   58.6077   65.3508 C   0  0  0  0  0  0  0  0  0  0  0  0
  -36.5306   58.6782   64.8578 O   0  0  0  0  0  0  0  0  0  0  0  0
  -35.8709   57.5217   64.3093 C   0  0  0  0  0  0  0  0  0  0  0  0
  -34.4650   57.2817   64.8458 C   0  0  0  0  0  0  0  0  0  0  0  0
  -35.8658   57.6466   62.7932 C   0  0  0  0  0  0  0  0  0  0  0  0
  -37.1643   59.2716   61.5011 N   0  0  0  0  0  0  0  0  0  0  0  0
  -35.4031   59.9185   62.7641 O   0  0  0  0  0  0  0  0  0  0  0  0
  -36.1192   59.0542   62.3127 C   0  0  0  0  0  0  0  0  0  0  0  0
  -37.3587   60.2020   61.2448 H   0  0  0  0  0  0  0  0  0  0  0  0
  -40.0003   59.4778   60.1709 N   0  0  0  0  0  0  0  0  0  0  0  0
  -38.8190   58.2036   58.7405 O   0  0  0  0  0  0  0  0  0  0  0  0
  -40.1312   60.2609   61.4085 C   0  0  0  0  0  0  0  0  0  0  0  0
  -40.3900   59.3368   62.6134 C   0  0  0  0  0  0  0  0  0  0  0  0
  -40.2747   57.8488   62.3264 C   0  0  0  0  0  0  0  0  0  0  0  0
  -38.8447   57.4115   61.9981 C   0  0  0  0  0  0  0  0  0  0  0  0
  -38.0386   58.2205   60.9683 C   0  0  0  0  0  0  0  0  0  0  0  0
  -38.9856   58.6531   59.8661 C   0  0  0  0  0  0  0  0  0  0  0  0
  -41.8112   58.1639   58.5841 Si  0  0  0  0  0  0  0  0  0  0  0  0
  -40.9930   59.6085   59.2470 O   0  0  0  0  0  0  0  0  0  0  0  0
  -42.7991   58.5676   57.6473 H   0  0  0  0  0  0  0  0  0  0  0  0
  -42.4277   57.4425   59.6406 H   0  0  0  0  0  0  0  0  0  0  0  0
  -40.8571   57.3341   57.9380 H   0  0  0  0  0  0  0  0  0  0  0  0
  -41.0990   59.5362   66.3822 C   0  0  0  0  0  0  0  0  0  0  0  0
  -39.9157   60.1786   65.6479 C   0  0  0  0  0  0  0  0  0  0  0  0
  -42.4619   59.5741   65.6703 C   0  0  0  0  0  0  0  0  0  0  0  0
  -42.9998   58.2489   65.0922 C   0  0  0  0  0  0  0  0  0  0  0  0
  -44.4353   58.1707   65.3801 N   0  0  0  0  0  0  0  0  0  0  0  0
  -45.4577   58.8812   64.8344 C   0  0  0  0  0  0  0  0  0  0  0  0
  -44.7685   57.2220   66.3570 O   0  0  0  0  0  0  0  0  0  0  0  0
  -45.2528   59.7243   63.9614 O   0  0  0  0  0  0  0  0  0  0  0  0
  -45.7284   57.2244   66.4959 H   0  0  0  0  0  0  0  0  0  0  0  0
  -46.8857   58.6240   65.3272 C   0  0  0  0  0  0  0  0  0  0  0  0
  -47.9821   58.9907   64.3179 C   0  0  0  0  0  0  0  0  0  0  0  0
  -49.1417   57.9799   64.4067 C   0  0  0  0  0  0  0  0  0  0  0  0
  -50.5254   58.6075   64.1520 C   0  0  0  0  0  0  0  0  0  0  0  0
  -50.4911   60.0931   63.7474 C   0  0  0  0  0  0  0  0  0  0  0  0
  -50.8793   60.3224   62.2717 C   0  0  0  0  0  0  0  0  0  0  0  0
  -49.6808   60.3979   61.2972 C   0  0  0  0  0  0  0  0  0  0  0  0
  -49.6792   59.2829   60.2450 C   0  0  0  0  0  0  0  0  0  0  0  0
  -50.6343   58.1179   60.5230 C   0  0  0  0  0  0  0  0  0  0  0  0
  -49.8632   56.8166   60.8109 C   0  0  0  0  0  0  0  0  0  0  0  0
  -48.4686   56.7643   60.1688 C   0  0  0  0  0  0  0  0  0  0  0  0
  -48.3953   56.1010   58.7896 C   0  0  0  0  0  0  0  0  0  0  0  0
  -46.9964   56.1636   58.1272 C   0  0  0  0  0  0  0  0  0  0  0  0
  -47.0116   57.0370   56.8563 C   0  0  0  0  0  0  0  0  0  0  0  0
  -47.4048   58.5096   57.0239 C   0  0  0  0  0  0  0  0  0  0  0  0
 46 47  1  0  0  0
 46 48  1  0  0  0
 46 45  1  0  0  0
 47 49  2  0  0  0
 47 51  1  0  0  0
 19 20  2  0  0  0
 37 38  1  0  0  0
 37 39  1  0  0  0
 37 40  1  0  0  0
 37 41  1  0  0  0
 48 50  1  0  0  0
 38 29  1  0  0  0
 45 44  1  0  0  0
 25 27  1  0  0  0
 25 35  1  0  0  0
 25 28  1  0  0  0
 21 20  1  0  0  0
 21 22  1  0  0  0
 44 42  1  0  0  0
  2  1  1  0  0  0
  2  4  1  0  0  0
  2  5  1  0  0  0
 26 27  2  0  0  0
 42 43  2  0  0  0
 29 31  1  0  0  0
 29 36  1  0  0  0
  3  4  2  0  0  0
 43  1  1  0  0  0
  6  9  2  0  0  0
  6 10  1  0  0  0
  1 20  1  0  0  0
 30 36  2  0  0  0
  7  8  1  0  0  0
  7  9  1  0  0  0
 22 24  1  0  0  0
 22 23  1  0  0  0
 11 12  1  0  0  0
 11 18  1  0  0  0
 24 27  1  0  0  0
  4 10  1  0  0  0
 51 52  1  0  0  0
 52 53  1  0  0  0
 53 54  1  0  0  0
 54 55  1  0  0  0
 55 56  1  0  0  0
 56 57  1  0  0  0
 57 58  1  0  0  0
 58 59  1  0  0  0
 59 60  1  0  0  0
 60 61  1  0  0  0
 61 62  1  0  0  0
 62 63  1  0  0  0
 63 64  1  0  0  0
 64 65  1  0  0  0
 31 32  1  0  0  0
 32 33  1  0  0  0
 33 34  1  0  0  0
 34 35  1  0  0  0
 35 36  1  0  0  0
  8 10  1  0  0  0
  9 17  1  0  0  0
 12 13  2  0  0  0
 12 17  1  0  0  0
 13 14  1  0  0  0
 14 15  2  0  0  0
 15 16  1  0  0  0
 16 17  2  0  0  0
M  END
> <minimizedAffinity>
-9.43803

> <CNNscore>
0.1494895369

> <CNNaffinity>
7.2971587181

> <CNN_VS>
1.0908489227

> <CNNaffinity_variance>
0.9815663099

$$$$
/media/chris/experiments/cd1a-new-docking/inputs/ligands/1xz0_ligand.pdb


 65 67  0  0  0  0  0  0  0  0999 V2000
  -42.6218   59.2456   65.0131 C   0  0  0  0  0  0  0  0  0  0  0  0
  -43.9554   58.9969   65.5642 N   0  0  0  0  0  0  0  0  0  0  0  0
  -44.1812   56.7428   65.3625 O   0  0  0  0  0  0  0  0  0  0  0  0
  -44.6183   57.8352   65.6997 C   0  0  0  0  0  0  0  0  0  0  0  0
  -44.4359   59.7956   65.8813 H   0  0  0  0  0  0  0  0  0  0  0  0
  -47.0090   58.2028   65.1258 N   0  0  0  0  0  0  0  0  0  0  0  0
  -47.5448   59.6695   66.7239 O   0  0  0  0  0  0  0  0  0  0  0  0
  -46.4506   58.9406   67.2788 C   0  0  0  0  0  0  0  0  0  0  0  0
  -47.7962   59.1525   65.4020 C   0  0  0  0  0  0  0  0  0  0  0  0
  -46.0528   57.8903   66.2049 C   0  0  0  0  0  0  0  0  0  0  0  0
  -50.4262   59.9515   66.3194 O   0  0  0  0  0  0  0  0  0  0  0  0
  -50.1437   60.0402   65.0140 C   0  0  0  0  0  0  0  0  0  0  0  0
  -51.1123   60.5290   64.1274 C   0  0  0  0  0  0  0  0  0  0  0  0
  -50.8437   60.6231   62.7514 C   0  0  0  0  0  0  0  0  0  0  0  0
  -49.5999   60.2386   62.2477 C   0  0  0  0  0  0  0  0  0  0  0  0
  -48.6282   59.7561   63.1288 C   0  0  0  0  0  0  0  0  0  0  0  0
  -48.8974   59.6527   64.5071 C   0  0  0  0  0  0  0  0  0  0  0  0
  -51.2672   60.2168   66.6358 H   0  0  0  0  0  0  0  0  0  0  0  0
  -42.2724   60.7387   66.8526 O   0  0  0  0  0  0  0  0  0  0  0  0
  -41.8083   59.8729   66.1291 C   0  0  0  0  0  0  0  0  0  0  0  0
  -40.4050   59.4885   66.3140 O   0  0  0  0  0  0  0  0  0  0  0  0
  -39.5139   59.3431   65.1923 C   0  0  0  0  0  0  0  0  0  0  0  0
  -39.2869   57.9035   64.7473 C   0  0  0  0  0  0  0  0  0  0  0  0
  -38.1980   60.0259   65.5336 C   0  0  0  0  0  0  0  0  0  0  0  0
  -36.5896   61.6555   64.6655 N   0  0  0  0  0  0  0  0  0  0  0  0
  -38.4751   61.1486   63.5238 O   0  0  0  0  0  0  0  0  0  0  0  0
  -37.7644   61.0316   64.4958 C   0  0  0  0  0  0  0  0  0  0  0  0
  -36.2862   62.2617   63.9516 H   0  0  0  0  0  0  0  0  0  0  0  0
  -35.1971   63.8229   66.4593 N   0  0  0  0  0  0  0  0  0  0  0  0
  -36.2153   62.4649   67.9372 O   0  0  0  0  0  0  0  0  0  0  0  0
  -34.8441   64.2176   65.0876 C   0  0  0  0  0  0  0  0  0  0  0  0
  -33.6519   63.3897   64.5719 C   0  0  0  0  0  0  0  0  0  0  0  0
  -33.2168   62.2469   65.4745 C   0  0  0  0  0  0  0  0  0  0  0  0
  -34.2573   61.1277   65.5669 C   0  0  0  0  0  0  0  0  0  0  0  0
  -35.7245   61.4983   65.8402 C   0  0  0  0  0  0  0  0  0  0  0  0
  -35.7417   62.6513   66.8247 C   0  0  0  0  0  0  0  0  0  0  0  0
  -33.3247   64.8964   68.1521 Si  0  0  0  0  0  0  0  0  0  0  0  0
  -34.9588   64.7313   67.4462 O   0  0  0  0  0  0  0  0  0  0  0  0
  -33.3411   65.9033   69.1533 H   0  0  0  0  0  0  0  0  0  0  0  0
  -32.4032   65.2568   67.1336 H   0  0  0  0  0  0  0  0  0  0  0  0
  -32.9317   63.6605   68.7303 H   0  0  0  0  0  0  0  0  0  0  0  0
  -41.9381   59.2667   62.4781 C   0  0  0  0  0  0  0  0  0  0  0  0
  -42.5366   60.0175   63.6740 C   0  0  0  0  0  0  0  0  0  0  0  0
  -41.4496   60.1204   61.2956 C   0  0  0  0  0  0  0  0  0  0  0  0
  -40.5571   59.4325   60.2421 C   0  0  0  0  0  0  0  0  0  0  0  0
  -39.1828   59.4031   60.7522 N   0  0  0  0  0  0  0  0  0  0  0  0
  -38.4775   58.3540   61.2520 C   0  0  0  0  0  0  0  0  0  0  0  0
  -38.5318   60.6438   60.7039 O   0  0  0  0  0  0  0  0  0  0  0  0
  -38.9707   57.2282   61.3174 O   0  0  0  0  0  0  0  0  0  0  0  0
  -37.6323   60.5508   61.0548 H   0  0  0  0  0  0  0  0  0  0  0  0
  -37.0462   58.5904   61.7455 C   0  0  0  0  0  0  0  0  0  0  0  0
  -36.5556   57.5723   62.7838 C   0  0  0  0  0  0  0  0  0  0  0  0
  -35.4657   58.2048   63.6705 C   0  0  0  0  0  0  0  0  0  0  0  0
  -34.0372   57.7651   63.2971 C   0  0  0  0  0  0  0  0  0  0  0  0
  -33.3713   58.6146   62.1986 C   0  0  0  0  0  0  0  0  0  0  0  0
  -32.0372   59.2435   62.6522 C   0  0  0  0  0  0  0  0  0  0  0  0
  -31.6097   60.4924   61.8465 C   0  0  0  0  0  0  0  0  0  0  0  0
  -30.9562   61.5794   62.7076 C   0  0  0  0  0  0  0  0  0  0  0  0
  -30.9279   62.9793   62.0861 C   0  0  0  0  0  0  0  0  0  0  0  0
  -32.1720   63.2317   61.2149 C   0  0  0  0  0  0  0  0  0  0  0  0
  -32.3528   64.6992   60.7980 C   0  0  0  0  0  0  0  0  0  0  0  0
  -32.3378   65.7218   61.9388 C   0  0  0  0  0  0  0  0  0  0  0  0
  -33.7327   66.2879   62.3040 C   0  0  0  0  0  0  0  0  0  0  0  0
  -34.7826   65.9404   61.2292 C   0  0  0  0  0  0  0  0  0  0  0  0
  -35.8662   64.9251   61.6119 C   0  0  0  0  0  0  0  0  0  0  0  0
 46 47  1  0  0  0
 46 48  1  0  0  0
 46 45  1  0  0  0
 47 49  2  0  0  0
 47 51  1  0  0  0
 19 20  2  0  0  0
 37 38  1  0  0  0
 37 39  1  0  0  0
 37 40  1  0  0  0
 37 41  1  0  0  0
 48 50  1  0  0  0
 38 29  1  0  0  0
 45 44  1  0  0  0
 25 27  1  0  0  0
 25 35  1  0  0  0
 25 28  1  0  0  0
 21 20  1  0  0  0
 21 22  1  0  0  0
 44 42  1  0  0  0
  2  1  1  0  0  0
  2  4  1  0  0  0
  2  5  1  0  0  0
 26 27  2  0  0  0
 42 43  2  0  0  0
 29 31  1  0  0  0
 29 36  1  0  0  0
  3  4  2  0  0  0
 43  1  1  0  0  0
  6  9  2  0  0  0
  6 10  1  0  0  0
  1 20  1  0  0  0
 30 36  2  0  0  0
  7  8  1  0  0  0
  7  9  1  0  0  0
 22 24  1  0  0  0
 22 23  1  0  0  0
 11 12  1  0  0  0
 11 18  1  0  0  0
 24 27  1  0  0  0
  4 10  1  0  0  0
 51 52  1  0  0  0
 52 53  1  0  0  0
 53 54  1  0  0  0
 54 55  1  0  0  0
 55 56  1  0  0  0
 56 57  1  0  0  0
 57 58  1  0  0  0
 58 59  1  0  0  0
 59 60  1  0  0  0
 60 61  1  0  0  0
 61 62  1  0  0  0
 62 63  1  0  0  0
 63 64  1  0  0  0
 64 65  1  0  0  0
 31 32  1  0  0  0
 32 33  1  0  0  0
 33 34  1  0  0  0
 34 35  1  0  0  0
 35 36  1  0  0  0
  8 10  1  0  0  0
  9 17  1  0  0  0
 12 13  2  0  0  0
 12 17  1  0  0  0
 13 14  1  0  0  0
 14 15  2  0  0  0
 15 16  1  0  0  0
 16 17  2  0  0  0
M  END
> <minimizedAffinity>
-9.08174

> <CNNscore>
0.1393718570

> <CNNaffinity>
7.3685770035

> <CNN_VS>
1.0269722939

> <CNNaffinity_variance>
1.1013053656

$$$$
/media/chris/experiments/cd1a-new-docking/inputs/ligands/1xz0_ligand.pdb


 65 67  0  0  0  0  0  0  0  0999 V2000
  -39.6869   59.6619   65.4196 C   0  0  0  0  0  0  0  0  0  0  0  0
  -38.8316   60.8424   65.5571 N   0  0  0  0  0  0  0  0  0  0  0  0
  -36.7399   59.9531   65.6391 O   0  0  0  0  0  0  0  0  0  0  0  0
  -37.4928   60.9180   65.6530 C   0  0  0  0  0  0  0  0  0  0  0  0
  -39.3052   61.7052   65.5830 H   0  0  0  0  0  0  0  0  0  0  0  0
  -36.5989   63.0103   64.6512 N   0  0  0  0  0  0  0  0  0  0  0  0
  -34.6596   63.1409   65.7532 O   0  0  0  0  0  0  0  0  0  0  0  0
  -35.5010   62.3876   66.6256 C   0  0  0  0  0  0  0  0  0  0  0  0
  -35.4197   63.4582   64.5701 C   0  0  0  0  0  0  0  0  0  0  0  0
  -36.8746   62.2854   65.9062 C   0  0  0  0  0  0  0  0  0  0  0  0
  -36.4486   63.3734   61.8624 O   0  0  0  0  0  0  0  0  0  0  0  0
  -35.4310   64.1975   62.1405 C   0  0  0  0  0  0  0  0  0  0  0  0
  -34.8994   65.0075   61.1285 C   0  0  0  0  0  0  0  0  0  0  0  0
  -33.8252   65.8740   61.3924 C   0  0  0  0  0  0  0  0  0  0  0  0
  -33.2768   65.9474   62.6741 C   0  0  0  0  0  0  0  0  0  0  0  0
  -33.8077   65.1459   63.6886 C   0  0  0  0  0  0  0  0  0  0  0  0
  -34.8786   64.2703   63.4250 C   0  0  0  0  0  0  0  0  0  0  0  0
  -36.8022   63.3416   60.9954 H   0  0  0  0  0  0  0  0  0  0  0  0
  -40.5418   59.7754   63.1854 O   0  0  0  0  0  0  0  0  0  0  0  0
  -39.7033   59.3156   63.9429 C   0  0  0  0  0  0  0  0  0  0  0  0
  -38.7347   58.3525   63.4085 O   0  0  0  0  0  0  0  0  0  0  0  0
  -38.7267   57.9934   62.0140 C   0  0  0  0  0  0  0  0  0  0  0  0
  -38.9121   56.5054   61.7430 C   0  0  0  0  0  0  0  0  0  0  0  0
  -37.4362   58.5075   61.3938 C   0  0  0  0  0  0  0  0  0  0  0  0
  -35.7954   59.8273   62.6438 N   0  0  0  0  0  0  0  0  0  0  0  0
  -37.6493   60.7854   61.7715 O   0  0  0  0  0  0  0  0  0  0  0  0
  -36.9678   59.8107   61.9929 C   0  0  0  0  0  0  0  0  0  0  0  0
  -35.4685   60.6947   62.9753 H   0  0  0  0  0  0  0  0  0  0  0  0
  -33.5972   59.3244   64.8276 N   0  0  0  0  0  0  0  0  0  0  0  0
  -34.9306   57.5170   64.9706 O   0  0  0  0  0  0  0  0  0  0  0  0
  -33.2215   60.6177   64.2374 C   0  0  0  0  0  0  0  0  0  0  0  0
  -32.4449   60.4120   62.9231 C   0  0  0  0  0  0  0  0  0  0  0  0
  -32.3881   58.9788   62.4206 C   0  0  0  0  0  0  0  0  0  0  0  0
  -33.7521   58.4470   61.9728 C   0  0  0  0  0  0  0  0  0  0  0  0
  -34.9657   58.6438   62.8965 C   0  0  0  0  0  0  0  0  0  0  0  0
  -34.4996   58.4648   64.3282 C   0  0  0  0  0  0  0  0  0  0  0  0
  -32.8570   57.2527   66.4660 Si  0  0  0  0  0  0  0  0  0  0  0  0
  -32.9810   58.9716   65.9903 O   0  0  0  0  0  0  0  0  0  0  0  0
  -32.1762   57.1534   67.7082 H   0  0  0  0  0  0  0  0  0  0  0  0
  -32.1366   56.5376   65.4730 H   0  0  0  0  0  0  0  0  0  0  0  0
  -34.1594   56.7020   66.5946 H   0  0  0  0  0  0  0  0  0  0  0  0
  -41.8149   58.3885   66.2822 C   0  0  0  0  0  0  0  0  0  0  0  0
  -41.0959   59.7244   66.0576 C   0  0  0  0  0  0  0  0  0  0  0  0
  -43.3372   58.4459   66.4948 C   0  0  0  0  0  0  0  0  0  0  0  0
  -44.2220   57.6343   65.5263 C   0  0  0  0  0  0  0  0  0  0  0  0
  -45.4629   58.3820   65.3010 N   0  0  0  0  0  0  0  0  0  0  0  0
  -46.7007   58.1623   65.8182 C   0  0  0  0  0  0  0  0  0  0  0  0
  -45.3210   59.4691   64.4271 O   0  0  0  0  0  0  0  0  0  0  0  0
  -46.9080   57.2371   66.6030 O   0  0  0  0  0  0  0  0  0  0  0  0
  -46.1761   59.9154   64.3248 H   0  0  0  0  0  0  0  0  0  0  0  0
  -47.8519   59.0852   65.4048 C   0  0  0  0  0  0  0  0  0  0  0  0
  -48.7013   58.5594   64.2398 C   0  0  0  0  0  0  0  0  0  0  0  0
  -50.1465   58.3074   64.7109 C   0  0  0  0  0  0  0  0  0  0  0  0
  -51.1752   59.2637   64.0781 C   0  0  0  0  0  0  0  0  0  0  0  0
  -50.5676   60.5228   63.4321 C   0  0  0  0  0  0  0  0  0  0  0  0
  -50.7848   60.5786   61.9054 C   0  0  0  0  0  0  0  0  0  0  0  0
  -49.5110   60.3235   61.0664 C   0  0  0  0  0  0  0  0  0  0  0  0
  -49.6973   59.2532   59.9847 C   0  0  0  0  0  0  0  0  0  0  0  0
  -50.6372   58.1021   60.3566 C   0  0  0  0  0  0  0  0  0  0  0  0
  -49.9018   57.0151   61.1618 C   0  0  0  0  0  0  0  0  0  0  0  0
  -49.4008   55.8400   60.3083 C   0  0  0  0  0  0  0  0  0  0  0  0
  -48.0195   56.0219   59.6707 C   0  0  0  0  0  0  0  0  0  0  0  0
  -48.0482   56.2066   58.1329 C   0  0  0  0  0  0  0  0  0  0  0  0
  -47.2643   57.4621   57.6999 C   0  0  0  0  0  0  0  0  0  0  0  0
  -47.5802   58.0415   56.3157 C   0  0  0  0  0  0  0  0  0  0  0  0
 46 47  1  0  0  0
 46 48  1  0  0  0
 46 45  1  0  0  0
 47 49  2  0  0  0
 47 51  1  0  0  0
 19 20  2  0  0  0
 37 38  1  0  0  0
 37 39  1  0  0  0
 37 40  1  0  0  0
 37 41  1  0  0  0
 48 50  1  0  0  0
 38 29  1  0  0  0
 45 44  1  0  0  0
 25 27  1  0  0  0
 25 35  1  0  0  0
 25 28  1  0  0  0
 21 20  1  0  0  0
 21 22  1  0  0  0
 44 42  1  0  0  0
  2  1  1  0  0  0
  2  4  1  0  0  0
  2  5  1  0  0  0
 26 27  2  0  0  0
 42 43  2  0  0  0
 29 31  1  0  0  0
 29 36  1  0  0  0
  3  4  2  0  0  0
 43  1  1  0  0  0
  6  9  2  0  0  0
  6 10  1  0  0  0
  1 20  1  0  0  0
 30 36  2  0  0  0
  7  8  1  0  0  0
  7  9  1  0  0  0
 22 24  1  0  0  0
 22 23  1  0  0  0
 11 12  1  0  0  0
 11 18  1  0  0  0
 24 27  1  0  0  0
  4 10  1  0  0  0
 51 52  1  0  0  0
 52 53  1  0  0  0
 53 54  1  0  0  0
 54 55  1  0  0  0
 55 56  1  0  0  0
 56 57  1  0  0  0
 57 58  1  0  0  0
 58 59  1  0  0  0
 59 60  1  0  0  0
 60 61  1  0  0  0
 61 62  1  0  0  0
 62 63  1  0  0  0
 63 64  1  0  0  0
 64 65  1  0  0  0
 31 32  1  0  0  0
 32 33  1  0  0  0
 33 34  1  0  0  0
 34 35  1  0  0  0
 35 36  1  0  0  0
  8 10  1  0  0  0
  9 17  1  0  0  0
 12 13  2  0  0  0
 12 17  1  0  0  0
 13 14  1  0  0  0
 14 15  2  0  0  0
 15 16  1  0  0  0
 16 17  2  0  0  0
M  END
> <minimizedAffinity>
-9.11009

> <CNNscore>
0.1386630982

> <CNNaffinity>
6.9711732864

> <CNN_VS>
0.9666444659

> <CNNaffinity_variance>
0.4996446669

$$$$
/media/chris/experiments/cd1a-new-docking/inputs/ligands/1xz0_ligand.pdb


 65 67  0  0  0  0  0  0  0  0999 V2000
  -41.4384   58.9720   63.8960 C   0  0  0  0  0  0  0  0  0  0  0  0
  -40.1823   58.8995   64.6449 N   0  0  0  0  0  0  0  0  0  0  0  0
  -40.1466   60.8711   65.7781 O   0  0  0  0  0  0  0  0  0  0  0  0
  -39.6410   59.7945   65.4895 C   0  0  0  0  0  0  0  0  0  0  0  0
  -39.6586   58.0767   64.5107 H   0  0  0  0  0  0  0  0  0  0  0  0
  -37.5119   60.7366   66.3613 N   0  0  0  0  0  0  0  0  0  0  0  0
  -36.0647   59.5809   65.1115 O   0  0  0  0  0  0  0  0  0  0  0  0
  -37.2196   58.7442   65.1629 C   0  0  0  0  0  0  0  0  0  0  0  0
  -36.3520   60.7785   65.8607 C   0  0  0  0  0  0  0  0  0  0  0  0
  -38.2533   59.5017   66.0416 C   0  0  0  0  0  0  0  0  0  0  0  0
  -37.0533   63.5841   66.0446 O   0  0  0  0  0  0  0  0  0  0  0  0
  -35.7667   63.2319   66.1570 C   0  0  0  0  0  0  0  0  0  0  0  0
  -34.7954   64.2175   66.3758 C   0  0  0  0  0  0  0  0  0  0  0  0
  -33.4373   63.8747   66.4878 C   0  0  0  0  0  0  0  0  0  0  0  0
  -33.0364   62.5410   66.3923 C   0  0  0  0  0  0  0  0  0  0  0  0
  -34.0023   61.5533   66.1803 C   0  0  0  0  0  0  0  0  0  0  0  0
  -35.3630   61.8948   66.0590 C   0  0  0  0  0  0  0  0  0  0  0  0
  -37.3000   64.4853   66.1136 H   0  0  0  0  0  0  0  0  0  0  0  0
  -41.6786   56.6494   64.4282 O   0  0  0  0  0  0  0  0  0  0  0  0
  -42.2251   57.7270   64.2593 C   0  0  0  0  0  0  0  0  0  0  0  0
  -43.6878   57.7880   64.3479 O   0  0  0  0  0  0  0  0  0  0  0  0
  -44.3601   58.9603   64.8454 C   0  0  0  0  0  0  0  0  0  0  0  0
  -44.1427   59.2323   66.3289 C   0  0  0  0  0  0  0  0  0  0  0  0
  -45.8413   58.8373   64.5213 C   0  0  0  0  0  0  0  0  0  0  0  0
  -47.7852   60.2715   64.1205 N   0  0  0  0  0  0  0  0  0  0  0  0
  -45.6860   60.9985   63.6958 O   0  0  0  0  0  0  0  0  0  0  0  0
  -46.4538   60.1307   64.0435 C   0  0  0  0  0  0  0  0  0  0  0  0
  -48.1687   61.1418   63.8662 H   0  0  0  0  0  0  0  0  0  0  0  0
  -50.3511   59.1239   62.7228 N   0  0  0  0  0  0  0  0  0  0  0  0
  -49.1648   57.2921   63.2726 O   0  0  0  0  0  0  0  0  0  0  0  0
  -50.5470   60.5806   62.6831 C   0  0  0  0  0  0  0  0  0  0  0  0
  -51.0960   61.0936   64.0278 C   0  0  0  0  0  0  0  0  0  0  0  0
  -51.1451   60.0634   65.1440 C   0  0  0  0  0  0  0  0  0  0  0  0
  -49.7561   59.6205   65.6112 C   0  0  0  0  0  0  0  0  0  0  0  0
  -48.7106   59.2198   64.5571 C   0  0  0  0  0  0  0  0  0  0  0  0
  -49.4254   58.4746   63.4468 C   0  0  0  0  0  0  0  0  0  0  0  0
  -50.7939   56.6507   61.6223 Si  0  0  0  0  0  0  0  0  0  0  0  0
  -51.1768   58.3663   61.9481 O   0  0  0  0  0  0  0  0  0  0  0  0
  -51.8031   56.0890   60.7962 H   0  0  0  0  0  0  0  0  0  0  0  0
  -50.7353   55.9376   62.8489 H   0  0  0  0  0  0  0  0  0  0  0  0
  -49.5393   56.5626   60.9632 H   0  0  0  0  0  0  0  0  0  0  0  0
  -41.7641   58.0709   61.4514 C   0  0  0  0  0  0  0  0  0  0  0  0
  -41.3459   59.2244   62.3716 C   0  0  0  0  0  0  0  0  0  0  0  0
  -41.2793   58.1346   59.9931 C   0  0  0  0  0  0  0  0  0  0  0  0
  -39.8539   57.6261   59.6943 C   0  0  0  0  0  0  0  0  0  0  0  0
  -38.8968   58.5949   60.2376 N   0  0  0  0  0  0  0  0  0  0  0  0
  -38.2058   58.5518   61.4075 C   0  0  0  0  0  0  0  0  0  0  0  0
  -38.6852   59.7088   59.4130 O   0  0  0  0  0  0  0  0  0  0  0  0
  -38.3240   57.6030   62.1825 O   0  0  0  0  0  0  0  0  0  0  0  0
  -38.0445   60.3043   59.8321 H   0  0  0  0  0  0  0  0  0  0  0  0
  -37.2708   59.7136   61.7599 C   0  0  0  0  0  0  0  0  0  0  0  0
  -37.9881   60.9879   62.2256 C   0  0  0  0  0  0  0  0  0  0  0  0
  -36.9957   61.9189   62.9486 C   0  0  0  0  0  0  0  0  0  0  0  0
  -36.4264   63.0304   62.0465 C   0  0  0  0  0  0  0  0  0  0  0  0
  -36.2211   64.3850   62.7500 C   0  0  0  0  0  0  0  0  0  0  0  0
  -35.8946   65.5285   61.7668 C   0  0  0  0  0  0  0  0  0  0  0  0
  -34.4098   65.9609   61.7558 C   0  0  0  0  0  0  0  0  0  0  0  0
  -33.6645   65.6160   63.0503 C   0  0  0  0  0  0  0  0  0  0  0  0
  -32.4913   64.6437   62.8921 C   0  0  0  0  0  0  0  0  0  0  0  0
  -32.6060   63.8334   61.5879 C   0  0  0  0  0  0  0  0  0  0  0  0
  -31.7880   62.5331   61.5890 C   0  0  0  0  0  0  0  0  0  0  0  0
  -31.9616   61.6386   62.8207 C   0  0  0  0  0  0  0  0  0  0  0  0
  -33.3165   60.8897   62.8771 C   0  0  0  0  0  0  0  0  0  0  0  0
  -33.1312   59.4171   63.2959 C   0  0  0  0  0  0  0  0  0  0  0  0
  -33.8943   58.3591   62.4900 C   0  0  0  0  0  0  0  0  0  0  0  0
 46 47  1  0  0  0
 46 48  1  0  0  0
 46 45  1  0  0  0
 47 49  2  0  0  0
 47 51  1  0  0  0
 19 20  2  0  0  0
 37 38  1  0  0  0
 37 39  1  0  0  0
 37 40  1  0  0  0
 37 41  1  0  0  0
 48 50  1  0  0  0
 38 29  1  0  0  0
 45 44  1  0  0  0
 25 27  1  0  0  0
 25 35  1  0  0  0
 25 28  1  0  0  0
 21 20  1  0  0  0
 21 22  1  0  0  0
 44 42  1  0  0  0
  2  1  1  0  0  0
  2  4  1  0  0  0
  2  5  1  0  0  0
 26 27  2  0  0  0
 42 43  2  0  0  0
 29 31  1  0  0  0
 29 36  1  0  0  0
  3  4  2  0  0  0
 43  1  1  0  0  0
  6  9  2  0  0  0
  6 10  1  0  0  0
  1 20  1  0  0  0
 30 36  2  0  0  0
  7  8  1  0  0  0
  7  9  1  0  0  0
 22 24  1  0  0  0
 22 23  1  0  0  0
 11 12  1  0  0  0
 11 18  1  0  0  0
 24 27  1  0  0  0
  4 10  1  0  0  0
 51 52  1  0  0  0
 52 53  1  0  0  0
 53 54  1  0  0  0
 54 55  1  0  0  0
 55 56  1  0  0  0
 56 57  1  0  0  0
 57 58  1  0  0  0
 58 59  1  0  0  0
 59 60  1  0  0  0
 60 61  1  0  0  0
 61 62  1  0  0  0
 62 63  1  0  0  0
 63 64  1  0  0  0
 64 65  1  0  0  0
 31 32  1  0  0  0
 32 33  1  0  0  0
 33 34  1  0  0  0
 34 35  1  0  0  0
 35 36  1  0  0  0
  8 10  1  0  0  0
  9 17  1  0  0  0
 12 13  2  0  0  0
 12 17  1  0  0  0
 13 14  1  0  0  0
 14 15  2  0  0  0
 15 16  1  0  0  0
 16 17  2  0  0  0
M  END
> <minimizedAffinity>
-8.62002

> <CNNscore>
0.1324665695

> <CNNaffinity>
7.4656248093

> <CNN_VS>
0.9889457226

> <CNNaffinity_variance>
1.0986257792

$$$$
/media/chris/experiments/cd1a-new-docking/inputs/ligands/1xz0_ligand.pdb


 65 67  0  0  0  0  0  0  0  0999 V2000
  -42.0953   59.3735   65.1329 C   0  0  0  0  0  0  0  0  0  0  0  0
  -40.7627   59.4003   65.7393 N   0  0  0  0  0  0  0  0  0  0  0  0
  -39.5627   60.6708   64.2838 O   0  0  0  0  0  0  0  0  0  0  0  0
  -39.6432   60.0078   65.3095 C   0  0  0  0  0  0  0  0  0  0  0  0
  -40.6739   58.9017   66.5836 H   0  0  0  0  0  0  0  0  0  0  0  0
  -37.5802   61.0064   66.2725 N   0  0  0  0  0  0  0  0  0  0  0  0
  -36.0711   59.5679   65.4690 O   0  0  0  0  0  0  0  0  0  0  0  0
  -37.2785   58.8087   65.5174 C   0  0  0  0  0  0  0  0  0  0  0  0
  -36.3666   60.8994   65.9357 C   0  0  0  0  0  0  0  0  0  0  0  0
  -38.3593   59.7668   66.0903 C   0  0  0  0  0  0  0  0  0  0  0  0
  -36.9735   63.7273   66.1136 O   0  0  0  0  0  0  0  0  0  0  0  0
  -35.6933   63.3383   66.1547 C   0  0  0  0  0  0  0  0  0  0  0  0
  -34.6823   64.2976   66.2983 C   0  0  0  0  0  0  0  0  0  0  0  0
  -33.3305   63.9158   66.3348 C   0  0  0  0  0  0  0  0  0  0  0  0
  -32.9750   62.5694   66.2381 C   0  0  0  0  0  0  0  0  0  0  0  0
  -33.9803   61.6080   66.1010 C   0  0  0  0  0  0  0  0  0  0  0  0
  -35.3353   61.9884   66.0555 C   0  0  0  0  0  0  0  0  0  0  0  0
  -37.1893   64.6365   66.1819 H   0  0  0  0  0  0  0  0  0  0  0  0
  -42.8886   60.1367   67.2598 O   0  0  0  0  0  0  0  0  0  0  0  0
  -43.0875   59.4399   66.2783 C   0  0  0  0  0  0  0  0  0  0  0  0
  -44.2897   58.6002   66.2519 O   0  0  0  0  0  0  0  0  0  0  0  0
  -45.6078   59.1765   66.3163 C   0  0  0  0  0  0  0  0  0  0  0  0
  -46.4037   58.7977   67.5592 C   0  0  0  0  0  0  0  0  0  0  0  0
  -46.3584   58.7994   65.0480 C   0  0  0  0  0  0  0  0  0  0  0  0
  -47.6476   60.3705   63.6819 N   0  0  0  0  0  0  0  0  0  0  0  0
  -45.3863   60.4158   63.6993 O   0  0  0  0  0  0  0  0  0  0  0  0
  -46.4363   59.9259   64.0472 C   0  0  0  0  0  0  0  0  0  0  0  0
  -47.6869   61.1470   63.0780 H   0  0  0  0  0  0  0  0  0  0  0  0
  -49.5294   58.3149   62.2371 N   0  0  0  0  0  0  0  0  0  0  0  0
  -49.2616   57.4526   64.2986 O   0  0  0  0  0  0  0  0  0  0  0  0
  -49.2811   59.3455   61.2182 C   0  0  0  0  0  0  0  0  0  0  0  0
  -50.2069   60.5578   61.4323 C   0  0  0  0  0  0  0  0  0  0  0  0
  -51.0260   60.5306   62.7122 C   0  0  0  0  0  0  0  0  0  0  0  0
  -50.1693   60.6637   63.9741 C   0  0  0  0  0  0  0  0  0  0  0  0
  -48.9183   59.7812   64.1190 C   0  0  0  0  0  0  0  0  0  0  0  0
  -49.2385   58.4153   63.5440 C   0  0  0  0  0  0  0  0  0  0  0  0
  -50.4245   56.8778   60.0790 Si  0  0  0  0  0  0  0  0  0  0  0  0
  -50.0966   57.1503   61.8151 O   0  0  0  0  0  0  0  0  0  0  0  0
  -51.0137   55.5977   59.9038 H   0  0  0  0  0  0  0  0  0  0  0  0
  -49.2066   56.9417   59.3515 H   0  0  0  0  0  0  0  0  0  0  0  0
  -51.3135   57.8772   59.6025 H   0  0  0  0  0  0  0  0  0  0  0  0
  -41.8598   58.4322   62.6931 C   0  0  0  0  0  0  0  0  0  0  0  0
  -42.3940   58.2433   64.1182 C   0  0  0  0  0  0  0  0  0  0  0  0
  -42.4979   57.5687   61.5917 C   0  0  0  0  0  0  0  0  0  0  0  0
  -41.5536   56.7165   60.7190 C   0  0  0  0  0  0  0  0  0  0  0  0
  -40.3838   57.5313   60.3763 N   0  0  0  0  0  0  0  0  0  0  0  0
  -39.1394   57.5152   60.9231 C   0  0  0  0  0  0  0  0  0  0  0  0
  -40.6112   58.4435   59.3363 O   0  0  0  0  0  0  0  0  0  0  0  0
  -38.8529   56.7357   61.8316 O   0  0  0  0  0  0  0  0  0  0  0  0
  -39.7997   58.9458   59.1636 H   0  0  0  0  0  0  0  0  0  0  0  0
  -38.0845   58.4933   60.3955 C   0  0  0  0  0  0  0  0  0  0  0  0
  -37.9981   59.8145   61.1715 C   0  0  0  0  0  0  0  0  0  0  0  0
  -36.9218   59.7132   62.2695 C   0  0  0  0  0  0  0  0  0  0  0  0
  -35.8789   58.6099   62.0084 C   0  0  0  0  0  0  0  0  0  0  0  0
  -34.6852   58.6125   62.9816 C   0  0  0  0  0  0  0  0  0  0  0  0
  -33.3283   58.4389   62.2676 C   0  0  0  0  0  0  0  0  0  0  0  0
  -32.0958   58.7566   63.1460 C   0  0  0  0  0  0  0  0  0  0  0  0
  -31.1803   59.8304   62.5469 C   0  0  0  0  0  0  0  0  0  0  0  0
  -31.8924   60.9309   61.7540 C   0  0  0  0  0  0  0  0  0  0  0  0
  -32.7384   61.8285   62.6754 C   0  0  0  0  0  0  0  0  0  0  0  0
  -32.4331   63.3276   62.5357 C   0  0  0  0  0  0  0  0  0  0  0  0
  -33.6394   64.2657   62.6465 C   0  0  0  0  0  0  0  0  0  0  0  0
  -35.0075   63.5403   62.6878 C   0  0  0  0  0  0  0  0  0  0  0  0
  -36.0612   64.2722   61.8320 C   0  0  0  0  0  0  0  0  0  0  0  0
  -35.7702   65.7312   61.4604 C   0  0  0  0  0  0  0  0  0  0  0  0
 46 47  1  0  0  0
 46 48  1  0  0  0
 46 45  1  0  0  0
 47 49  2  0  0  0
 47 51  1  0  0  0
 19 20  2  0  0  0
 37 38  1  0  0  0
 37 39  1  0  0  0
 37 40  1  0  0  0
 37 41  1  0  0  0
 48 50  1  0  0  0
 38 29  1  0  0  0
 45 44  1  0  0  0
 25 27  1  0  0  0
 25 35  1  0  0  0
 25 28  1  0  0  0
 21 20  1  0  0  0
 21 22  1  0  0  0
 44 42  1  0  0  0
  2  1  1  0  0  0
  2  4  1  0  0  0
  2  5  1  0  0  0
 26 27  2  0  0  0
 42 43  2  0  0  0
 29 31  1  0  0  0
 29 36  1  0  0  0
  3  4  2  0  0  0
 43  1  1  0  0  0
  6  9  2  0  0  0
  6 10  1  0  0  0
  1 20  1  0  0  0
 30 36  2  0  0  0
  7  8  1  0  0  0
  7  9  1  0  0  0
 22 24  1  0  0  0
 22 23  1  0  0  0
 11 12  1  0  0  0
 11 18  1  0  0  0
 24 27  1  0  0  0
  4 10  1  0  0  0
 51 52  1  0  0  0
 52 53  1  0  0  0
 53 54  1  0  0  0
 54 55  1  0  0  0
 55 56  1  0  0  0
 56 57  1  0  0  0
 57 58  1  0  0  0
 58 59  1  0  0  0
 59 60  1  0  0  0
 60 61  1  0  0  0
 61 62  1  0  0  0
 62 63  1  0  0  0
 63 64  1  0  0  0
 64 65  1  0  0  0
 31 32  1  0  0  0
 32 33  1  0  0  0
 33 34  1  0  0  0
 34 35  1  0  0  0
 35 36  1  0  0  0
  8 10  1  0  0  0
  9 17  1  0  0  0
 12 13  2  0  0  0
 12 17  1  0  0  0
 13 14  1  0  0  0
 14 15  2  0  0  0
 15 16  1  0  0  0
 16 17  2  0  0  0
M  END
> <minimizedAffinity>
-8.86905

> <CNNscore>
0.1165020093

> <CNNaffinity>
7.4206533432

> <CNN_VS>
0.8645210266

> <CNNaffinity_variance>
1.1421993971

$$$$
/media/chris/experiments/cd1a-new-docking/inputs/ligands/1xz0_ligand.pdb


 65 67  0  0  0  0  0  0  0  0999 V2000
  -41.3728   59.0597   64.1051 C   0  0  0  0  0  0  0  0  0  0  0  0
  -40.0487   58.9758   64.7248 N   0  0  0  0  0  0  0  0  0  0  0  0
  -39.9126   60.9137   65.9075 O   0  0  0  0  0  0  0  0  0  0  0  0
  -39.4320   59.8502   65.5386 C   0  0  0  0  0  0  0  0  0  0  0  0
  -39.5363   58.1616   64.5154 H   0  0  0  0  0  0  0  0  0  0  0  0
  -37.2913   60.7602   66.4160 N   0  0  0  0  0  0  0  0  0  0  0  0
  -35.8870   59.9111   64.8997 O   0  0  0  0  0  0  0  0  0  0  0  0
  -36.9944   59.0111   64.8851 C   0  0  0  0  0  0  0  0  0  0  0  0
  -36.1746   60.9512   65.8555 C   0  0  0  0  0  0  0  0  0  0  0  0
  -37.9952   59.5530   65.9431 C   0  0  0  0  0  0  0  0  0  0  0  0
  -36.9846   63.6798   66.3995 O   0  0  0  0  0  0  0  0  0  0  0  0
  -35.6826   63.3722   66.4439 C   0  0  0  0  0  0  0  0  0  0  0  0
  -34.7471   64.3643   66.7660 C   0  0  0  0  0  0  0  0  0  0  0  0
  -33.3740   64.0692   66.8100 C   0  0  0  0  0  0  0  0  0  0  0  0
  -32.9217   62.7761   66.5420 C   0  0  0  0  0  0  0  0  0  0  0  0
  -33.8515   61.7813   66.2264 C   0  0  0  0  0  0  0  0  0  0  0  0
  -35.2273   62.0761   66.1731 C   0  0  0  0  0  0  0  0  0  0  0  0
  -37.2660   64.5541   66.5845 H   0  0  0  0  0  0  0  0  0  0  0  0
  -41.7933   56.8427   64.9073 O   0  0  0  0  0  0  0  0  0  0  0  0
  -42.2160   57.9763   64.7502 C   0  0  0  0  0  0  0  0  0  0  0  0
  -43.6005   58.2640   65.1395 O   0  0  0  0  0  0  0  0  0  0  0  0
  -43.9134   59.3155   66.0723 C   0  0  0  0  0  0  0  0  0  0  0  0
  -42.8221   59.5967   67.0978 C   0  0  0  0  0  0  0  0  0  0  0  0
  -45.2314   58.9767   66.7523 C   0  0  0  0  0  0  0  0  0  0  0  0
  -46.9256   57.9947   65.2820 N   0  0  0  0  0  0  0  0  0  0  0  0
  -45.4642   56.6942   66.4172 O   0  0  0  0  0  0  0  0  0  0  0  0
  -45.9221   57.7805   66.1454 C   0  0  0  0  0  0  0  0  0  0  0  0
  -47.3271   57.2101   64.8434 H   0  0  0  0  0  0  0  0  0  0  0  0
  -49.8970   59.0038   65.1983 N   0  0  0  0  0  0  0  0  0  0  0  0
  -48.8265   60.5626   66.4186 O   0  0  0  0  0  0  0  0  0  0  0  0
  -49.9231   57.7585   64.4169 C   0  0  0  0  0  0  0  0  0  0  0  0
  -49.4408   58.0092   62.9756 C   0  0  0  0  0  0  0  0  0  0  0  0
  -48.8776   59.3959   62.7119 C   0  0  0  0  0  0  0  0  0  0  0  0
  -47.5614   59.6575   63.4486 C   0  0  0  0  0  0  0  0  0  0  0  0
  -47.4673   59.3161   64.9451 C   0  0  0  0  0  0  0  0  0  0  0  0
  -48.7950   59.6631   65.5900 C   0  0  0  0  0  0  0  0  0  0  0  0
  -51.1778   61.0878   66.4393 Si  0  0  0  0  0  0  0  0  0  0  0  0
  -51.0987   59.5301   65.5656 O   0  0  0  0  0  0  0  0  0  0  0  0
  -52.5344   61.4135   66.7043 H   0  0  0  0  0  0  0  0  0  0  0  0
  -50.5932   62.1076   65.6427 H   0  0  0  0  0  0  0  0  0  0  0  0
  -50.4689   60.9797   67.6649 H   0  0  0  0  0  0  0  0  0  0  0  0
  -41.5292   57.6900   61.8705 C   0  0  0  0  0  0  0  0  0  0  0  0
  -41.4373   59.0576   62.5585 C   0  0  0  0  0  0  0  0  0  0  0  0
  -41.1598   57.6366   60.3784 C   0  0  0  0  0  0  0  0  0  0  0  0
  -39.6605   57.6505   60.0156 C   0  0  0  0  0  0  0  0  0  0  0  0
  -39.1520   59.0113   60.2138 N   0  0  0  0  0  0  0  0  0  0  0  0
  -38.3424   59.4879   61.1963 C   0  0  0  0  0  0  0  0  0  0  0  0
  -39.5761   59.9245   59.2383 O   0  0  0  0  0  0  0  0  0  0  0  0
  -37.9151   58.7497   62.0836 O   0  0  0  0  0  0  0  0  0  0  0  0
  -39.2042   60.7994   59.4309 H   0  0  0  0  0  0  0  0  0  0  0  0
  -37.9668   60.9735   61.1923 C   0  0  0  0  0  0  0  0  0  0  0  0
  -37.6652   61.5566   62.5795 C   0  0  0  0  0  0  0  0  0  0  0  0
  -36.2546   62.1764   62.5971 C   0  0  0  0  0  0  0  0  0  0  0  0
  -36.2449   63.6727   62.9635 C   0  0  0  0  0  0  0  0  0  0  0  0
  -34.8427   64.2686   63.1887 C   0  0  0  0  0  0  0  0  0  0  0  0
  -34.1676   64.7262   61.8788 C   0  0  0  0  0  0  0  0  0  0  0  0
  -32.6234   64.7858   61.9396 C   0  0  0  0  0  0  0  0  0  0  0  0
  -32.0277   63.9888   63.1058 C   0  0  0  0  0  0  0  0  0  0  0  0
  -31.3124   62.6915   62.7156 C   0  0  0  0  0  0  0  0  0  0  0  0
  -32.2857   61.6848   62.0754 C   0  0  0  0  0  0  0  0  0  0  0  0
  -31.7196   60.2617   61.9553 C   0  0  0  0  0  0  0  0  0  0  0  0
  -32.7537   59.1488   61.7564 C   0  0  0  0  0  0  0  0  0  0  0  0
  -33.4336   58.6713   63.0638 C   0  0  0  0  0  0  0  0  0  0  0  0
  -32.4864   58.8020   64.2738 C   0  0  0  0  0  0  0  0  0  0  0  0
  -32.9619   58.2030   65.6028 C   0  0  0  0  0  0  0  0  0  0  0  0
 46 47  1  0  0  0
 46 48  1  0  0  0
 46 45  1  0  0  0
 47 49  2  0  0  0
 47 51  1  0  0  0
 19 20  2  0  0  0
 37 38  1  0  0  0
 37 39  1  0  0  0
 37 40  1  0  0  0
 37 41  1  0  0  0
 48 50  1  0  0  0
 38 29  1  0  0  0
 45 44  1  0  0  0
 25 27  1  0  0  0
 25 35  1  0  0  0
 25 28  1  0  0  0
 21 20  1  0  0  0
 21 22  1  0  0  0
 44 42  1  0  0  0
  2  1  1  0  0  0
  2  4  1  0  0  0
  2  5  1  0  0  0
 26 27  2  0  0  0
 42 43  2  0  0  0
 29 31  1  0  0  0
 29 36  1  0  0  0
  3  4  2  0  0  0
 43  1  1  0  0  0
  6  9  2  0  0  0
  6 10  1  0  0  0
  1 20  1  0  0  0
 30 36  2  0  0  0
  7  8  1  0  0  0
  7  9  1  0  0  0
 22 24  1  0  0  0
 22 23  1  0  0  0
 11 12  1  0  0  0
 11 18  1  0  0  0
 24 27  1  0  0  0
  4 10  1  0  0  0
 51 52  1  0  0  0
 52 53  1  0  0  0
 53 54  1  0  0  0
 54 55  1  0  0  0
 55 56  1  0  0  0
 56 57  1  0  0  0
 57 58  1  0  0  0
 58 59  1  0  0  0
 59 60  1  0  0  0
 60 61  1  0  0  0
 61 62  1  0  0  0
 62 63  1  0  0  0
 63 64  1  0  0  0
 64 65  1  0  0  0
 31 32  1  0  0  0
 32 33  1  0  0  0
 33 34  1  0  0  0
 34 35  1  0  0  0
 35 36  1  0  0  0
  8 10  1  0  0  0
  9 17  1  0  0  0
 12 13  2  0  0  0
 12 17  1  0  0  0
 13 14  1  0  0  0
 14 15  2  0  0  0
 15 16  1  0  0  0
 16 17  2  0  0  0
M  END
> <minimizedAffinity>
-8.14436

> <CNNscore>
0.1103892550

> <CNNaffinity>
7.6152963638

> <CNN_VS>
0.8406468630

> <CNNaffinity_variance>
1.0899945498

$$$$
/media/chris/experiments/cd1a-new-docking/inputs/ligands/1xz0_ligand.pdb


 65 67  0  0  0  0  0  0  0  0999 V2000
  -37.4115   58.0536   64.2318 C   0  0  0  0  0  0  0  0  0  0  0  0
  -36.0841   58.6481   64.4008 N   0  0  0  0  0  0  0  0  0  0  0  0
  -34.7091   57.1140   63.4370 O   0  0  0  0  0  0  0  0  0  0  0  0
  -34.8845   58.1764   64.0190 C   0  0  0  0  0  0  0  0  0  0  0  0
  -36.0677   59.5187   64.8601 H   0  0  0  0  0  0  0  0  0  0  0  0
  -33.9822   60.1036   65.3043 N   0  0  0  0  0  0  0  0  0  0  0  0
  -32.6967   61.0234   63.7252 O   0  0  0  0  0  0  0  0  0  0  0  0
  -32.7739   59.6491   63.3486 C   0  0  0  0  0  0  0  0  0  0  0  0
  -33.4807   61.1991   64.9221 C   0  0  0  0  0  0  0  0  0  0  0  0
  -33.6478   58.9606   64.4334 C   0  0  0  0  0  0  0  0  0  0  0  0
  -35.8868   62.0879   66.2704 O   0  0  0  0  0  0  0  0  0  0  0  0
  -34.8071   62.8790   66.2889 C   0  0  0  0  0  0  0  0  0  0  0  0
  -34.8571   64.1033   66.9683 C   0  0  0  0  0  0  0  0  0  0  0  0
  -33.7405   64.9558   66.9946 C   0  0  0  0  0  0  0  0  0  0  0  0
  -32.5578   64.5891   66.3500 C   0  0  0  0  0  0  0  0  0  0  0  0
  -32.5009   63.3659   65.6761 C   0  0  0  0  0  0  0  0  0  0  0  0
  -33.6210   62.5134   65.6408 C   0  0  0  0  0  0  0  0  0  0  0  0
  -36.6697   62.3534   66.7113 H   0  0  0  0  0  0  0  0  0  0  0  0
  -38.1641   57.0988   62.1685 O   0  0  0  0  0  0  0  0  0  0  0  0
  -37.7011   58.0705   62.7430 C   0  0  0  0  0  0  0  0  0  0  0  0
  -37.3594   59.2536   61.9464 O   0  0  0  0  0  0  0  0  0  0  0  0
  -38.1708   60.4426   61.9848 C   0  0  0  0  0  0  0  0  0  0  0  0
  -39.3724   60.4187   61.0481 C   0  0  0  0  0  0  0  0  0  0  0  0
  -37.2782   61.6415   61.7019 C   0  0  0  0  0  0  0  0  0  0  0  0
  -35.8569   63.2817   62.8361 N   0  0  0  0  0  0  0  0  0  0  0  0
  -37.3501   62.0316   63.9865 O   0  0  0  0  0  0  0  0  0  0  0  0
  -36.7938   62.3296   62.9543 C   0  0  0  0  0  0  0  0  0  0  0  0
  -35.5940   63.7684   63.6504 H   0  0  0  0  0  0  0  0  0  0  0  0
  -33.1489   64.7888   62.3367 N   0  0  0  0  0  0  0  0  0  0  0  0
  -33.0053   62.9628   61.0289 O   0  0  0  0  0  0  0  0  0  0  0  0
  -33.8572   65.6425   63.3017 C   0  0  0  0  0  0  0  0  0  0  0  0
  -34.8814   66.5422   62.5844 C   0  0  0  0  0  0  0  0  0  0  0  0
  -35.0823   66.2466   61.1072 C   0  0  0  0  0  0  0  0  0  0  0  0
  -35.7435   64.8894   60.8529 C   0  0  0  0  0  0  0  0  0  0  0  0
  -35.1961   63.6490   61.5785 C   0  0  0  0  0  0  0  0  0  0  0  0
  -33.6862   63.7718   61.6440 C   0  0  0  0  0  0  0  0  0  0  0  0
  -31.2089   65.3853   60.4915 Si  0  0  0  0  0  0  0  0  0  0  0  0
  -31.8265   65.0470   62.1347 O   0  0  0  0  0  0  0  0  0  0  0  0
  -29.8097   65.6202   60.5508 H   0  0  0  0  0  0  0  0  0  0  0  0
  -31.8598   66.5338   59.9683 H   0  0  0  0  0  0  0  0  0  0  0  0
  -31.4665   64.2708   59.6502 H   0  0  0  0  0  0  0  0  0  0  0  0
  -39.9891   58.4265   64.5654 C   0  0  0  0  0  0  0  0  0  0  0  0
  -38.5632   58.6246   65.0943 C   0  0  0  0  0  0  0  0  0  0  0  0
  -41.0809   59.3365   65.1533 C   0  0  0  0  0  0  0  0  0  0  0  0
  -41.7907   58.8586   66.4368 C   0  0  0  0  0  0  0  0  0  0  0  0
  -43.0072   58.1381   66.0484 N   0  0  0  0  0  0  0  0  0  0  0  0
  -44.3040   58.5344   66.1436 C   0  0  0  0  0  0  0  0  0  0  0  0
  -42.7670   56.8677   65.5062 O   0  0  0  0  0  0  0  0  0  0  0  0
  -44.6006   59.6399   66.5960 O   0  0  0  0  0  0  0  0  0  0  0  0
  -43.6112   56.4508   65.2731 H   0  0  0  0  0  0  0  0  0  0  0  0
  -45.4079   57.5770   65.6822 C   0  0  0  0  0  0  0  0  0  0  0  0
  -46.7116   58.2671   65.2585 C   0  0  0  0  0  0  0  0  0  0  0  0
  -46.4508   59.1989   64.0593 C   0  0  0  0  0  0  0  0  0  0  0  0
  -47.4841   60.3338   63.9263 C   0  0  0  0  0  0  0  0  0  0  0  0
  -48.4767   60.4380   65.0993 C   0  0  0  0  0  0  0  0  0  0  0  0
  -49.9060   59.9999   64.7168 C   0  0  0  0  0  0  0  0  0  0  0  0
  -50.7126   61.0586   63.9292 C   0  0  0  0  0  0  0  0  0  0  0  0
  -51.1743   60.5722   62.5507 C   0  0  0  0  0  0  0  0  0  0  0  0
  -50.6338   59.2040   62.1234 C   0  0  0  0  0  0  0  0  0  0  0  0
  -49.5828   59.3398   61.0064 C   0  0  0  0  0  0  0  0  0  0  0  0
  -48.6104   58.1537   60.9191 C   0  0  0  0  0  0  0  0  0  0  0  0
  -49.1602   56.8903   60.2490 C   0  0  0  0  0  0  0  0  0  0  0  0
  -48.9485   56.8403   58.7152 C   0  0  0  0  0  0  0  0  0  0  0  0
  -47.5436   57.3402   58.3221 C   0  0  0  0  0  0  0  0  0  0  0  0
  -47.4664   58.4636   57.2812 C   0  0  0  0  0  0  0  0  0  0  0  0
 46 47  1  0  0  0
 46 48  1  0  0  0
 46 45  1  0  0  0
 47 49  2  0  0  0
 47 51  1  0  0  0
 19 20  2  0  0  0
 37 38  1  0  0  0
 37 39  1  0  0  0
 37 40  1  0  0  0
 37 41  1  0  0  0
 48 50  1  0  0  0
 38 29  1  0  0  0
 45 44  1  0  0  0
 25 27  1  0  0  0
 25 35  1  0  0  0
 25 28  1  0  0  0
 21 20  1  0  0  0
 21 22  1  0  0  0
 44 42  1  0  0  0
  2  1  1  0  0  0
  2  4  1  0  0  0
  2  5  1  0  0  0
 26 27  2  0  0  0
 42 43  2  0  0  0
 29 31  1  0  0  0
 29 36  1  0  0  0
  3  4  2  0  0  0
 43  1  1  0  0  0
  6  9  2  0  0  0
  6 10  1  0  0  0
  1 20  1  0  0  0
 30 36  2  0  0  0
  7  8  1  0  0  0
  7  9  1  0  0  0
 22 24  1  0  0  0
 22 23  1  0  0  0
 11 12  1  0  0  0
 11 18  1  0  0  0
 24 27  1  0  0  0
  4 10  1  0  0  0
 51 52  1  0  0  0
 52 53  1  0  0  0
 53 54  1  0  0  0
 54 55  1  0  0  0
 55 56  1  0  0  0
 56 57  1  0  0  0
 57 58  1  0  0  0
 58 59  1  0  0  0
 59 60  1  0  0  0
 60 61  1  0  0  0
 61 62  1  0  0  0
 62 63  1  0  0  0
 63 64  1  0  0  0
 64 65  1  0  0  0
 31 32  1  0  0  0
 32 33  1  0  0  0
 33 34  1  0  0  0
 34 35  1  0  0  0
 35 36  1  0  0  0
  8 10  1  0  0  0
  9 17  1  0  0  0
 12 13  2  0  0  0
 12 17  1  0  0  0
 13 14  1  0  0  0
 14 15  2  0  0  0
 15 16  1  0  0  0
 16 17  2  0  0  0
M  END
> <minimizedAffinity>
-8.22983

> <CNNscore>
0.1097624078

> <CNNaffinity>
6.7911443710

> <CNN_VS>
0.7454123497

> <CNNaffinity_variance>
0.5661697984

$$$$
