/media/chris/experiments/cd1a-new-docking/inputs/ligands/1xz0_ligand.pdb


 65 67  0  0  0  0  0  0  0  0999 V2000
  -40.2749   59.4377   65.2086 C   0  0  0  0  0  0  0  0  0  0  0  0
  -39.2460   59.9123   66.1360 N   0  0  0  0  0  0  0  0  0  0  0  0
  -37.1702   60.6153   66.7442 O   0  0  0  0  0  0  0  0  0  0  0  0
  -37.9640   60.2362   65.8931 C   0  0  0  0  0  0  0  0  0  0  0  0
  -39.5346   60.0080   67.0724 H   0  0  0  0  0  0  0  0  0  0  0  0
  -36.1403   59.6688   64.3018 N   0  0  0  0  0  0  0  0  0  0  0  0
  -35.9961   61.6111   63.2070 O   0  0  0  0  0  0  0  0  0  0  0  0
  -37.3391   61.5868   63.6888 C   0  0  0  0  0  0  0  0  0  0  0  0
  -35.3454   60.4031   63.6486 C   0  0  0  0  0  0  0  0  0  0  0  0
  -37.4936   60.2384   64.4457 C   0  0  0  0  0  0  0  0  0  0  0  0
  -33.4943   62.1699   62.2891 O   0  0  0  0  0  0  0  0  0  0  0  0
  -33.0693   60.9586   62.6684 C   0  0  0  0  0  0  0  0  0  0  0  0
  -31.7443   60.5792   62.4169 C   0  0  0  0  0  0  0  0  0  0  0  0
  -31.2766   59.3098   62.7967 C   0  0  0  0  0  0  0  0  0  0  0  0
  -32.1262   58.4089   63.4413 C   0  0  0  0  0  0  0  0  0  0  0  0
  -33.4471   58.7850   63.7001 C   0  0  0  0  0  0  0  0  0  0  0  0
  -33.9211   60.0532   63.3129 C   0  0  0  0  0  0  0  0  0  0  0  0
  -32.9062   62.7593   61.8592 H   0  0  0  0  0  0  0  0  0  0  0  0
  -41.6280   61.3871   65.5316 O   0  0  0  0  0  0  0  0  0  0  0  0
  -41.0336   60.6671   64.7462 C   0  0  0  0  0  0  0  0  0  0  0  0
  -41.1212   60.9752   63.3150 O   0  0  0  0  0  0  0  0  0  0  0  0
  -42.3654   61.3735   62.7091 C   0  0  0  0  0  0  0  0  0  0  0  0
  -43.5197   60.4061   62.9401 C   0  0  0  0  0  0  0  0  0  0  0  0
  -42.1253   61.5969   61.2235 C   0  0  0  0  0  0  0  0  0  0  0  0
  -41.3452   59.2759   61.2457 N   0  0  0  0  0  0  0  0  0  0  0  0
  -41.3403   60.4949   59.3405 O   0  0  0  0  0  0  0  0  0  0  0  0
  -41.5324   60.3949   60.5306 C   0  0  0  0  0  0  0  0  0  0  0  0
  -41.5347   59.3127   62.2111 H   0  0  0  0  0  0  0  0  0  0  0  0
  -38.6526   57.7305   61.7107 N   0  0  0  0  0  0  0  0  0  0  0  0
  -40.2403   56.1688   62.0363 O   0  0  0  0  0  0  0  0  0  0  0  0
  -38.2246   59.0999   61.3891 C   0  0  0  0  0  0  0  0  0  0  0  0
  -38.2244   59.3274   59.8657 C   0  0  0  0  0  0  0  0  0  0  0  0
  -38.8228   58.1996   59.0412 C   0  0  0  0  0  0  0  0  0  0  0  0
  -40.3303   58.0374   59.2540 C   0  0  0  0  0  0  0  0  0  0  0  0
  -40.8778   58.0005   60.6906 C   0  0  0  0  0  0  0  0  0  0  0  0
  -39.8903   57.2354   61.5497 C   0  0  0  0  0  0  0  0  0  0  0  0
  -36.1459   57.5325   62.8066 Si  0  0  0  0  0  0  0  0  0  0  0  0
  -37.7110   56.8921   62.2269 O   0  0  0  0  0  0  0  0  0  0  0  0
  -35.3480   56.4635   63.2932 H   0  0  0  0  0  0  0  0  0  0  0  0
  -36.3744   58.4664   63.8517 H   0  0  0  0  0  0  0  0  0  0  0  0
  -35.4720   58.1765   61.7353 H   0  0  0  0  0  0  0  0  0  0  0  0
  -42.0534   57.5962   64.6254 C   0  0  0  0  0  0  0  0  0  0  0  0
  -41.1922   58.2873   65.6897 C   0  0  0  0  0  0  0  0  0  0  0  0
  -43.2565   56.7800   65.1276 C   0  0  0  0  0  0  0  0  0  0  0  0
  -44.0097   57.3104   66.3647 C   0  0  0  0  0  0  0  0  0  0  0  0
  -45.4146   57.5116   65.9964 N   0  0  0  0  0  0  0  0  0  0  0  0
  -46.0392   58.6494   65.5928 C   0  0  0  0  0  0  0  0  0  0  0  0
  -46.1965   56.3511   66.0815 O   0  0  0  0  0  0  0  0  0  0  0  0
  -45.4226   59.7086   65.4791 O   0  0  0  0  0  0  0  0  0  0  0  0
  -47.1092   56.5565   65.8252 H   0  0  0  0  0  0  0  0  0  0  0  0
  -47.5391   58.6022   65.2824 C   0  0  0  0  0  0  0  0  0  0  0  0
  -48.4142   59.4108   66.2497 C   0  0  0  0  0  0  0  0  0  0  0  0
  -49.8938   59.3142   65.8306 C   0  0  0  0  0  0  0  0  0  0  0  0
  -50.2255   58.0372   65.0353 C   0  0  0  0  0  0  0  0  0  0  0  0
  -50.7315   58.2872   63.6023 C   0  0  0  0  0  0  0  0  0  0  0  0
  -51.1752   59.7464   63.3686 C   0  0  0  0  0  0  0  0  0  0  0  0
  -50.4454   60.4609   62.2073 C   0  0  0  0  0  0  0  0  0  0  0  0
  -49.3340   59.6161   61.5738 C   0  0  0  0  0  0  0  0  0  0  0  0
  -49.3708   59.5245   60.0450 C   0  0  0  0  0  0  0  0  0  0  0  0
  -50.1528   58.2841   59.5759 C   0  0  0  0  0  0  0  0  0  0  0  0
  -49.3723   56.9679   59.7116 C   0  0  0  0  0  0  0  0  0  0  0  0
  -47.8576   57.0676   59.5032 C   0  0  0  0  0  0  0  0  0  0  0  0
  -47.3171   56.1988   58.3401 C   0  0  0  0  0  0  0  0  0  0  0  0
  -47.5397   56.8807   56.9749 C   0  0  0  0  0  0  0  0  0  0  0  0
  -47.3496   58.4010   56.9127 C   0  0  0  0  0  0  0  0  0  0  0  0
 46 47  1  0  0  0
 46 48  1  0  0  0
 46 45  1  0  0  0
 47 49  2  0  0  0
 47 51  1  0  0  0
 19 20  2  0  0  0
 37 38  1  0  0  0
 37 39  1  0  0  0
 37 40  1  0  0  0
 37 41  1  0  0  0
 48 50  1  0  0  0
 38 29  1  0  0  0
 45 44  1  0  0  0
 25 27  1  0  0  0
 25 35  1  0  0  0
 25 28  1  0  0  0
 21 20  1  0  0  0
 21 22  1  0  0  0
 44 42  1  0  0  0
  2  1  1  0  0  0
  2  4  1  0  0  0
  2  5  1  0  0  0
 26 27  2  0  0  0
 42 43  2  0  0  0
 29 31  1  0  0  0
 29 36  1  0  0  0
  3  4  2  0  0  0
 43  1  1  0  0  0
  6  9  2  0  0  0
  6 10  1  0  0  0
  1 20  1  0  0  0
 30 36  2  0  0  0
  7  8  1  0  0  0
  7  9  1  0  0  0
 22 24  1  0  0  0
 22 23  1  0  0  0
 11 12  1  0  0  0
 11 18  1  0  0  0
 24 27  1  0  0  0
  4 10  1  0  0  0
 51 52  1  0  0  0
 52 53  1  0  0  0
 53 54  1  0  0  0
 54 55  1  0  0  0
 55 56  1  0  0  0
 56 57  1  0  0  0
 57 58  1  0  0  0
 58 59  1  0  0  0
 59 60  1  0  0  0
 60 61  1  0  0  0
 61 62  1  0  0  0
 62 63  1  0  0  0
 63 64  1  0  0  0
 64 65  1  0  0  0
 31 32  1  0  0  0
 32 33  1  0  0  0
 33 34  1  0  0  0
 34 35  1  0  0  0
 35 36  1  0  0  0
  8 10  1  0  0  0
  9 17  1  0  0  0
 12 13  2  0  0  0
 12 17  1  0  0  0
 13 14  1  0  0  0
 14 15  2  0  0  0
 15 16  1  0  0  0
 16 17  2  0  0  0
M  END
> <minimizedAffinity>
-10.35691

> <CNNscore>
0.3411037624

> <CNNaffinity>
7.8802618980

> <CNN_VS>
2.6879870892

> <CNNaffinity_variance>
2.1286561489

$$$$
/media/chris/experiments/cd1a-new-docking/inputs/ligands/1xz0_ligand.pdb


 65 67  0  0  0  0  0  0  0  0999 V2000
  -35.8118   57.8043   62.5863 C   0  0  0  0  0  0  0  0  0  0  0  0
  -36.5153   57.3909   63.8022 N   0  0  0  0  0  0  0  0  0  0  0  0
  -37.7091   57.7035   65.7128 O   0  0  0  0  0  0  0  0  0  0  0  0
  -37.1562   58.1436   64.7133 C   0  0  0  0  0  0  0  0  0  0  0  0
  -36.5196   56.4222   63.9778 H   0  0  0  0  0  0  0  0  0  0  0  0
  -36.1087   60.3941   64.8481 N   0  0  0  0  0  0  0  0  0  0  0  0
  -37.7918   61.5223   65.7895 O   0  0  0  0  0  0  0  0  0  0  0  0
  -38.4359   60.4393   65.1196 C   0  0  0  0  0  0  0  0  0  0  0  0
  -36.3722   61.3940   65.5750 C   0  0  0  0  0  0  0  0  0  0  0  0
  -37.3009   59.6319   64.4306 C   0  0  0  0  0  0  0  0  0  0  0  0
  -36.9563   64.1334   66.3176 O   0  0  0  0  0  0  0  0  0  0  0  0
  -35.7062   63.6779   66.4641 C   0  0  0  0  0  0  0  0  0  0  0  0
  -34.7175   64.5231   66.9846 C   0  0  0  0  0  0  0  0  0  0  0  0
  -33.3958   64.0718   67.1393 C   0  0  0  0  0  0  0  0  0  0  0  0
  -33.0501   62.7667   66.7844 C   0  0  0  0  0  0  0  0  0  0  0  0
  -34.0342   61.9176   66.2706 C   0  0  0  0  0  0  0  0  0  0  0  0
  -35.3576   62.3698   66.1063 C   0  0  0  0  0  0  0  0  0  0  0  0
  -37.1664   65.0127   66.5639 H   0  0  0  0  0  0  0  0  0  0  0  0
  -33.8408   57.6842   63.9413 O   0  0  0  0  0  0  0  0  0  0  0  0
  -34.4234   58.2336   63.0209 C   0  0  0  0  0  0  0  0  0  0  0  0
  -33.7779   59.3802   62.3730 O   0  0  0  0  0  0  0  0  0  0  0  0
  -32.3816   59.3539   62.0217 C   0  0  0  0  0  0  0  0  0  0  0  0
  -31.4594   58.8636   63.1311 C   0  0  0  0  0  0  0  0  0  0  0  0
  -31.9802   60.7429   61.5481 C   0  0  0  0  0  0  0  0  0  0  0  0
  -33.5131   62.5339   62.2102 N   0  0  0  0  0  0  0  0  0  0  0  0
  -31.7499   61.9626   63.5066 O   0  0  0  0  0  0  0  0  0  0  0  0
  -32.4027   61.8383   62.4957 C   0  0  0  0  0  0  0  0  0  0  0  0
  -33.9625   62.3474   61.3544 H   0  0  0  0  0  0  0  0  0  0  0  0
  -35.3079   65.0106   61.5037 N   0  0  0  0  0  0  0  0  0  0  0  0
  -36.4247   63.9854   63.1672 O   0  0  0  0  0  0  0  0  0  0  0  0
  -34.1701   65.1219   60.5790 C   0  0  0  0  0  0  0  0  0  0  0  0
  -32.9606   65.7701   61.2786 C   0  0  0  0  0  0  0  0  0  0  0  0
  -33.1146   65.9839   62.7754 C   0  0  0  0  0  0  0  0  0  0  0  0
  -33.1674   64.6732   63.5648 C   0  0  0  0  0  0  0  0  0  0  0  0
  -34.1054   63.5536   63.0836 C   0  0  0  0  0  0  0  0  0  0  0  0
  -35.3784   64.1966   62.5692 C   0  0  0  0  0  0  0  0  0  0  0  0
  -37.5636   66.1708   62.5476 Si  0  0  0  0  0  0  0  0  0  0  0  0
  -36.3911   65.7973   61.2508 O   0  0  0  0  0  0  0  0  0  0  0  0
  -38.5922   67.0020   62.0307 H   0  0  0  0  0  0  0  0  0  0  0  0
  -36.8993   66.8433   63.6072 H   0  0  0  0  0  0  0  0  0  0  0  0
  -38.1307   64.9636   63.0350 H   0  0  0  0  0  0  0  0  0  0  0  0
  -37.8310   58.3830   61.0108 C   0  0  0  0  0  0  0  0  0  0  0  0
  -36.5190   58.8298   61.6674 C   0  0  0  0  0  0  0  0  0  0  0  0
  -38.3061   59.1882   59.7895 C   0  0  0  0  0  0  0  0  0  0  0  0
  -39.7292   59.7811   59.8377 C   0  0  0  0  0  0  0  0  0  0  0  0
  -40.6039   58.8224   60.5201 N   0  0  0  0  0  0  0  0  0  0  0  0
  -41.2557   58.9519   61.7058 C   0  0  0  0  0  0  0  0  0  0  0  0
  -40.7725   57.6145   59.8287 O   0  0  0  0  0  0  0  0  0  0  0  0
  -41.1714   59.9851   62.3696 O   0  0  0  0  0  0  0  0  0  0  0  0
  -41.3595   57.0313   60.3350 H   0  0  0  0  0  0  0  0  0  0  0  0
  -42.1026   57.7823   62.2185 C   0  0  0  0  0  0  0  0  0  0  0  0
  -42.8044   58.0448   63.5580 C   0  0  0  0  0  0  0  0  0  0  0  0
  -44.2876   58.3878   63.3193 C   0  0  0  0  0  0  0  0  0  0  0  0
  -44.8038   59.5360   64.2072 C   0  0  0  0  0  0  0  0  0  0  0  0
  -44.9946   59.1643   65.6896 C   0  0  0  0  0  0  0  0  0  0  0  0
  -46.4501   58.7810   66.0296 C   0  0  0  0  0  0  0  0  0  0  0  0
  -47.5220   59.5643   65.2366 C   0  0  0  0  0  0  0  0  0  0  0  0
  -48.9143   58.9255   65.2981 C   0  0  0  0  0  0  0  0  0  0  0  0
  -49.3593   58.1997   64.0245 C   0  0  0  0  0  0  0  0  0  0  0  0
  -50.8288   58.5104   63.6860 C   0  0  0  0  0  0  0  0  0  0  0  0
  -51.1029   58.6602   62.1819 C   0  0  0  0  0  0  0  0  0  0  0  0
  -51.1716   57.3537   61.3844 C   0  0  0  0  0  0  0  0  0  0  0  0
  -49.8639   56.9970   60.6343 C   0  0  0  0  0  0  0  0  0  0  0  0
  -49.3948   58.1574   59.7334 C   0  0  0  0  0  0  0  0  0  0  0  0
  -48.7052   57.7853   58.4153 C   0  0  0  0  0  0  0  0  0  0  0  0
 46 47  1  0  0  0
 46 48  1  0  0  0
 46 45  1  0  0  0
 47 49  2  0  0  0
 47 51  1  0  0  0
 19 20  2  0  0  0
 37 38  1  0  0  0
 37 39  1  0  0  0
 37 40  1  0  0  0
 37 41  1  0  0  0
 48 50  1  0  0  0
 38 29  1  0  0  0
 45 44  1  0  0  0
 25 27  1  0  0  0
 25 35  1  0  0  0
 25 28  1  0  0  0
 21 20  1  0  0  0
 21 22  1  0  0  0
 44 42  1  0  0  0
  2  1  1  0  0  0
  2  4  1  0  0  0
  2  5  1  0  0  0
 26 27  2  0  0  0
 42 43  2  0  0  0
 29 31  1  0  0  0
 29 36  1  0  0  0
  3  4  2  0  0  0
 43  1  1  0  0  0
  6  9  2  0  0  0
  6 10  1  0  0  0
  1 20  1  0  0  0
 30 36  2  0  0  0
  7  8  1  0  0  0
  7  9  1  0  0  0
 22 24  1  0  0  0
 22 23  1  0  0  0
 11 12  1  0  0  0
 11 18  1  0  0  0
 24 27  1  0  0  0
  4 10  1  0  0  0
 51 52  1  0  0  0
 52 53  1  0  0  0
 53 54  1  0  0  0
 54 55  1  0  0  0
 55 56  1  0  0  0
 56 57  1  0  0  0
 57 58  1  0  0  0
 58 59  1  0  0  0
 59 60  1  0  0  0
 60 61  1  0  0  0
 61 62  1  0  0  0
 62 63  1  0  0  0
 63 64  1  0  0  0
 64 65  1  0  0  0
 31 32  1  0  0  0
 32 33  1  0  0  0
 33 34  1  0  0  0
 34 35  1  0  0  0
 35 36  1  0  0  0
  8 10  1  0  0  0
  9 17  1  0  0  0
 12 13  2  0  0  0
 12 17  1  0  0  0
 13 14  1  0  0  0
 14 15  2  0  0  0
 15 16  1  0  0  0
 16 17  2  0  0  0
M  END
> <minimizedAffinity>
-9.44944

> <CNNscore>
0.2333895117

> <CNNaffinity>
7.1568861008

> <CNN_VS>
1.6703422070

> <CNNaffinity_variance>
1.0554338694

$$$$
/media/chris/experiments/cd1a-new-docking/inputs/ligands/1xz0_ligand.pdb


 65 67  0  0  0  0  0  0  0  0999 V2000
  -40.3518   59.6156   65.2193 C   0  0  0  0  0  0  0  0  0  0  0  0
  -39.2970   60.0830   66.1210 N   0  0  0  0  0  0  0  0  0  0  0  0
  -37.1783   60.6725   66.7013 O   0  0  0  0  0  0  0  0  0  0  0  0
  -37.9920   60.2884   65.8715 C   0  0  0  0  0  0  0  0  0  0  0  0
  -39.5850   60.2745   67.0428 H   0  0  0  0  0  0  0  0  0  0  0  0
  -36.1337   59.6160   64.3633 N   0  0  0  0  0  0  0  0  0  0  0  0
  -36.0639   61.4196   63.0465 O   0  0  0  0  0  0  0  0  0  0  0  0
  -37.4083   61.3945   63.5244 C   0  0  0  0  0  0  0  0  0  0  0  0
  -35.3658   60.3015   63.6298 C   0  0  0  0  0  0  0  0  0  0  0  0
  -37.5110   60.1397   64.4353 C   0  0  0  0  0  0  0  0  0  0  0  0
  -34.2213   57.6428   63.7643 O   0  0  0  0  0  0  0  0  0  0  0  0
  -33.4356   58.6660   63.4074 C   0  0  0  0  0  0  0  0  0  0  0  0
  -32.0908   58.4299   63.0929 C   0  0  0  0  0  0  0  0  0  0  0  0
  -31.2432   59.4883   62.7246 C   0  0  0  0  0  0  0  0  0  0  0  0
  -31.7334   60.7937   62.6570 C   0  0  0  0  0  0  0  0  0  0  0  0
  -33.0757   61.0335   62.9636 C   0  0  0  0  0  0  0  0  0  0  0  0
  -33.9254   59.9762   63.3415 C   0  0  0  0  0  0  0  0  0  0  0  0
  -33.8715   56.7743   63.8015 H   0  0  0  0  0  0  0  0  0  0  0  0
  -41.7849   61.4645   65.7323 O   0  0  0  0  0  0  0  0  0  0  0  0
  -41.1900   60.8321   64.8751 C   0  0  0  0  0  0  0  0  0  0  0  0
  -41.3547   61.2322   63.4737 O   0  0  0  0  0  0  0  0  0  0  0  0
  -42.6552   61.2855   62.8577 C   0  0  0  0  0  0  0  0  0  0  0  0
  -43.5696   60.1182   63.2083 C   0  0  0  0  0  0  0  0  0  0  0  0
  -42.4681   61.4032   61.3524 C   0  0  0  0  0  0  0  0  0  0  0  0
  -40.5735   59.8852   61.6717 N   0  0  0  0  0  0  0  0  0  0  0  0
  -40.8837   60.9755   59.7144 O   0  0  0  0  0  0  0  0  0  0  0  0
  -41.2037   60.7450   60.8581 C   0  0  0  0  0  0  0  0  0  0  0  0
  -40.9246   59.7786   62.5852 H   0  0  0  0  0  0  0  0  0  0  0  0
  -40.1900   57.8047   59.3524 N   0  0  0  0  0  0  0  0  0  0  0  0
  -38.4194   59.1793   59.1495 O   0  0  0  0  0  0  0  0  0  0  0  0
  -41.4319   57.3754   60.0121 C   0  0  0  0  0  0  0  0  0  0  0  0
  -41.1210   56.5409   61.2689 C   0  0  0  0  0  0  0  0  0  0  0  0
  -39.6552   56.4886   61.6668 C   0  0  0  0  0  0  0  0  0  0  0  0
  -39.1157   57.8398   62.1432 C   0  0  0  0  0  0  0  0  0  0  0  0
  -39.3972   59.0922   61.2963 C   0  0  0  0  0  0  0  0  0  0  0  0
  -39.3122   58.6991   59.8345 C   0  0  0  0  0  0  0  0  0  0  0  0
  -38.4774   57.7818   57.2099 Si  0  0  0  0  0  0  0  0  0  0  0  0
  -39.9101   57.2524   58.1389 O   0  0  0  0  0  0  0  0  0  0  0  0
  -38.4106   57.0585   55.9898 H   0  0  0  0  0  0  0  0  0  0  0  0
  -37.3032   57.5369   57.9701 H   0  0  0  0  0  0  0  0  0  0  0  0
  -38.5802   59.1705   56.9319 H   0  0  0  0  0  0  0  0  0  0  0  0
  -41.9151   57.6064   64.5765 C   0  0  0  0  0  0  0  0  0  0  0  0
  -41.1878   58.3944   65.6729 C   0  0  0  0  0  0  0  0  0  0  0  0
  -43.0672   56.6919   65.0260 C   0  0  0  0  0  0  0  0  0  0  0  0
  -43.6282   56.9004   66.4476 C   0  0  0  0  0  0  0  0  0  0  0  0
  -44.9644   57.4930   66.3323 N   0  0  0  0  0  0  0  0  0  0  0  0
  -45.3230   58.8041   66.3418 C   0  0  0  0  0  0  0  0  0  0  0  0
  -45.9939   56.5516   66.1935 O   0  0  0  0  0  0  0  0  0  0  0  0
  -44.4796   59.6945   66.4467 O   0  0  0  0  0  0  0  0  0  0  0  0
  -46.8451   57.0113   66.1230 H   0  0  0  0  0  0  0  0  0  0  0  0
  -46.8069   59.1682   66.2254 C   0  0  0  0  0  0  0  0  0  0  0  0
  -47.1995   59.8164   64.8908 C   0  0  0  0  0  0  0  0  0  0  0  0
  -48.5276   60.5824   65.0457 C   0  0  0  0  0  0  0  0  0  0  0  0
  -49.4952   59.9374   66.0561 C   0  0  0  0  0  0  0  0  0  0  0  0
  -50.8373   59.4785   65.4560 C   0  0  0  0  0  0  0  0  0  0  0  0
  -51.0126   59.9036   63.9831 C   0  0  0  0  0  0  0  0  0  0  0  0
  -51.1743   58.7285   62.9909 C   0  0  0  0  0  0  0  0  0  0  0  0
  -49.8795   57.9398   62.7633 C   0  0  0  0  0  0  0  0  0  0  0  0
  -48.8543   58.6135   61.8456 C   0  0  0  0  0  0  0  0  0  0  0  0
  -49.3365   58.6315   60.3835 C   0  0  0  0  0  0  0  0  0  0  0  0
  -49.7784   57.2578   59.8567 C   0  0  0  0  0  0  0  0  0  0  0  0
  -48.6745   56.2011   59.7449 C   0  0  0  0  0  0  0  0  0  0  0  0
  -47.3717   56.7104   59.0790 C   0  0  0  0  0  0  0  0  0  0  0  0
  -47.5612   56.9342   57.5650 C   0  0  0  0  0  0  0  0  0  0  0  0
  -47.3116   58.3495   57.0302 C   0  0  0  0  0  0  0  0  0  0  0  0
 46 47  1  0  0  0
 46 48  1  0  0  0
 46 45  1  0  0  0
 47 49  2  0  0  0
 47 51  1  0  0  0
 19 20  2  0  0  0
 37 38  1  0  0  0
 37 39  1  0  0  0
 37 40  1  0  0  0
 37 41  1  0  0  0
 48 50  1  0  0  0
 38 29  1  0  0  0
 45 44  1  0  0  0
 25 27  1  0  0  0
 25 35  1  0  0  0
 25 28  1  0  0  0
 21 20  1  0  0  0
 21 22  1  0  0  0
 44 42  1  0  0  0
  2  1  1  0  0  0
  2  4  1  0  0  0
  2  5  1  0  0  0
 26 27  2  0  0  0
 42 43  2  0  0  0
 29 31  1  0  0  0
 29 36  1  0  0  0
  3  4  2  0  0  0
 43  1  1  0  0  0
  6  9  2  0  0  0
  6 10  1  0  0  0
  1 20  1  0  0  0
 30 36  2  0  0  0
  7  8  1  0  0  0
  7  9  1  0  0  0
 22 24  1  0  0  0
 22 23  1  0  0  0
 11 12  1  0  0  0
 11 18  1  0  0  0
 24 27  1  0  0  0
  4 10  1  0  0  0
 51 52  1  0  0  0
 52 53  1  0  0  0
 53 54  1  0  0  0
 54 55  1  0  0  0
 55 56  1  0  0  0
 56 57  1  0  0  0
 57 58  1  0  0  0
 58 59  1  0  0  0
 59 60  1  0  0  0
 60 61  1  0  0  0
 61 62  1  0  0  0
 62 63  1  0  0  0
 63 64  1  0  0  0
 64 65  1  0  0  0
 31 32  1  0  0  0
 32 33  1  0  0  0
 33 34  1  0  0  0
 34 35  1  0  0  0
 35 36  1  0  0  0
  8 10  1  0  0  0
  9 17  1  0  0  0
 12 13  2  0  0  0
 12 17  1  0  0  0
 13 14  1  0  0  0
 14 15  2  0  0  0
 15 16  1  0  0  0
 16 17  2  0  0  0
M  END
> <minimizedAffinity>
-9.58410

> <CNNscore>
0.1748052835

> <CNNaffinity>
7.5460767746

> <CNN_VS>
1.3190940619

> <CNNaffinity_variance>
2.4173092842

$$$$
/media/chris/experiments/cd1a-new-docking/inputs/ligands/1xz0_ligand.pdb


 65 67  0  0  0  0  0  0  0  0999 V2000
  -43.5331   57.6550   65.0481 C   0  0  0  0  0  0  0  0  0  0  0  0
  -43.5296   57.9929   63.6233 N   0  0  0  0  0  0  0  0  0  0  0  0
  -42.7116   58.0141   61.5012 O   0  0  0  0  0  0  0  0  0  0  0  0
  -42.6337   57.6718   62.6738 C   0  0  0  0  0  0  0  0  0  0  0  0
  -44.2934   58.5331   63.3166 H   0  0  0  0  0  0  0  0  0  0  0  0
  -40.2700   57.4549   63.4127 N   0  0  0  0  0  0  0  0  0  0  0  0
  -39.5598   55.9505   61.9214 O   0  0  0  0  0  0  0  0  0  0  0  0
  -40.9639   55.7113   62.0091 C   0  0  0  0  0  0  0  0  0  0  0  0
  -39.2409   57.0440   62.8047 C   0  0  0  0  0  0  0  0  0  0  0  0
  -41.5025   56.7275   63.0542 C   0  0  0  0  0  0  0  0  0  0  0  0
  -37.7394   58.5265   60.8186 O   0  0  0  0  0  0  0  0  0  0  0  0
  -37.1792   58.2978   62.0126 C   0  0  0  0  0  0  0  0  0  0  0  0
  -35.8952   58.7900   62.2810 C   0  0  0  0  0  0  0  0  0  0  0  0
  -35.2816   58.5553   63.5231 C   0  0  0  0  0  0  0  0  0  0  0  0
  -35.9492   57.8340   64.5145 C   0  0  0  0  0  0  0  0  0  0  0  0
  -37.2327   57.3463   64.2539 C   0  0  0  0  0  0  0  0  0  0  0  0
  -37.8468   57.5724   63.0070 C   0  0  0  0  0  0  0  0  0  0  0  0
  -37.2737   59.0146   60.1684 H   0  0  0  0  0  0  0  0  0  0  0  0
  -45.3437   57.2262   66.5558 O   0  0  0  0  0  0  0  0  0  0  0  0
  -44.9807   57.7127   65.4975 C   0  0  0  0  0  0  0  0  0  0  0  0
  -45.9946   58.3053   64.6188 O   0  0  0  0  0  0  0  0  0  0  0  0
  -46.5308   59.6175   64.8721 C   0  0  0  0  0  0  0  0  0  0  0  0
  -47.3450   59.7313   66.1550 C   0  0  0  0  0  0  0  0  0  0  0  0
  -47.3501   60.0423   63.6626 C   0  0  0  0  0  0  0  0  0  0  0  0
  -48.5557   58.6412   62.0565 N   0  0  0  0  0  0  0  0  0  0  0  0
  -49.1310   58.6758   64.2437 O   0  0  0  0  0  0  0  0  0  0  0  0
  -48.4539   59.0715   63.3226 C   0  0  0  0  0  0  0  0  0  0  0  0
  -47.9499   59.0366   61.3888 H   0  0  0  0  0  0  0  0  0  0  0  0
  -48.4083   56.6980   59.5955 N   0  0  0  0  0  0  0  0  0  0  0  0
  -48.9257   55.3512   61.3229 O   0  0  0  0  0  0  0  0  0  0  0  0
  -48.1071   58.0185   59.0232 C   0  0  0  0  0  0  0  0  0  0  0  0
  -49.4041   58.8050   58.7550 C   0  0  0  0  0  0  0  0  0  0  0  0
  -50.6742   58.1630   59.2882 C   0  0  0  0  0  0  0  0  0  0  0  0
  -50.7318   58.1303   60.8177 C   0  0  0  0  0  0  0  0  0  0  0  0
  -49.5066   57.6228   61.5963 C   0  0  0  0  0  0  0  0  0  0  0  0
  -48.9040   56.4671   60.8218 C   0  0  0  0  0  0  0  0  0  0  0  0
  -47.6203   55.8165   57.1204 Si  0  0  0  0  0  0  0  0  0  0  0  0
  -48.1525   55.6113   58.8147 O   0  0  0  0  0  0  0  0  0  0  0  0
  -47.4224   54.5410   56.5286 H   0  0  0  0  0  0  0  0  0  0  0  0
  -46.4022   56.5457   57.0918 H   0  0  0  0  0  0  0  0  0  0  0  0
  -48.6138   56.5259   56.3948 H   0  0  0  0  0  0  0  0  0  0  0  0
  -41.9837   59.7432   65.4122 C   0  0  0  0  0  0  0  0  0  0  0  0
  -42.5661   58.4382   65.9688 C   0  0  0  0  0  0  0  0  0  0  0  0
  -40.7236   60.2919   66.1028 C   0  0  0  0  0  0  0  0  0  0  0  0
  -39.4285   59.4626   65.9837 C   0  0  0  0  0  0  0  0  0  0  0  0
  -38.3264   60.3746   65.6621 N   0  0  0  0  0  0  0  0  0  0  0  0
  -38.0515   61.0052   64.4897 C   0  0  0  0  0  0  0  0  0  0  0  0
  -37.4524   60.6100   66.7327 O   0  0  0  0  0  0  0  0  0  0  0  0
  -38.7758   60.8628   63.5048 O   0  0  0  0  0  0  0  0  0  0  0  0
  -36.7517   61.2185   66.4503 H   0  0  0  0  0  0  0  0  0  0  0  0
  -36.8119   61.9017   64.4025 C   0  0  0  0  0  0  0  0  0  0  0  0
  -36.6231   62.5951   63.0463 C   0  0  0  0  0  0  0  0  0  0  0  0
  -35.9219   63.9534   63.2403 C   0  0  0  0  0  0  0  0  0  0  0  0
  -36.0358   64.8843   62.0182 C   0  0  0  0  0  0  0  0  0  0  0  0
  -34.9202   64.7078   60.9712 C   0  0  0  0  0  0  0  0  0  0  0  0
  -33.5136   64.6286   61.6006 C   0  0  0  0  0  0  0  0  0  0  0  0
  -32.8375   63.2423   61.4882 C   0  0  0  0  0  0  0  0  0  0  0  0
  -31.6015   63.0922   62.3828 C   0  0  0  0  0  0  0  0  0  0  0  0
  -31.8905   62.9313   63.8786 C   0  0  0  0  0  0  0  0  0  0  0  0
  -31.0802   63.9360   64.7178 C   0  0  0  0  0  0  0  0  0  0  0  0
  -31.6727   65.3533   64.7353 C   0  0  0  0  0  0  0  0  0  0  0  0
  -33.1018   65.4709   65.2753 C   0  0  0  0  0  0  0  0  0  0  0  0
  -33.2742   64.9722   66.7319 C   0  0  0  0  0  0  0  0  0  0  0  0
  -34.1869   63.7309   66.7997 C   0  0  0  0  0  0  0  0  0  0  0  0
  -35.6972   63.9774   66.8971 C   0  0  0  0  0  0  0  0  0  0  0  0
 46 47  1  0  0  0
 46 48  1  0  0  0
 46 45  1  0  0  0
 47 49  2  0  0  0
 47 51  1  0  0  0
 19 20  2  0  0  0
 37 38  1  0  0  0
 37 39  1  0  0  0
 37 40  1  0  0  0
 37 41  1  0  0  0
 48 50  1  0  0  0
 38 29  1  0  0  0
 45 44  1  0  0  0
 25 27  1  0  0  0
 25 35  1  0  0  0
 25 28  1  0  0  0
 21 20  1  0  0  0
 21 22  1  0  0  0
 44 42  1  0  0  0
  2  1  1  0  0  0
  2  4  1  0  0  0
  2  5  1  0  0  0
 26 27  2  0  0  0
 42 43  2  0  0  0
 29 31  1  0  0  0
 29 36  1  0  0  0
  3  4  2  0  0  0
 43  1  1  0  0  0
  6  9  2  0  0  0
  6 10  1  0  0  0
  1 20  1  0  0  0
 30 36  2  0  0  0
  7  8  1  0  0  0
  7  9  1  0  0  0
 22 24  1  0  0  0
 22 23  1  0  0  0
 11 12  1  0  0  0
 11 18  1  0  0  0
 24 27  1  0  0  0
  4 10  1  0  0  0
 51 52  1  0  0  0
 52 53  1  0  0  0
 53 54  1  0  0  0
 54 55  1  0  0  0
 55 56  1  0  0  0
 56 57  1  0  0  0
 57 58  1  0  0  0
 58 59  1  0  0  0
 59 60  1  0  0  0
 60 61  1  0  0  0
 61 62  1  0  0  0
 62 63  1  0  0  0
 63 64  1  0  0  0
 64 65  1  0  0  0
 31 32  1  0  0  0
 32 33  1  0  0  0
 33 34  1  0  0  0
 34 35  1  0  0  0
 35 36  1  0  0  0
  8 10  1  0  0  0
  9 17  1  0  0  0
 12 13  2  0  0  0
 12 17  1  0  0  0
 13 14  1  0  0  0
 14 15  2  0  0  0
 15 16  1  0  0  0
 16 17  2  0  0  0
M  END
> <minimizedAffinity>
-8.36501

> <CNNscore>
0.1457100362

> <CNNaffinity>
7.1766099930

> <CNN_VS>
1.0457041264

> <CNNaffinity_variance>
0.7379617095

$$$$
/media/chris/experiments/cd1a-new-docking/inputs/ligands/1xz0_ligand.pdb


 65 67  0  0  0  0  0  0  0  0999 V2000
  -43.3733   57.7630   65.5586 C   0  0  0  0  0  0  0  0  0  0  0  0
  -43.5643   58.0105   64.1281 N   0  0  0  0  0  0  0  0  0  0  0  0
  -43.0535   57.8753   61.9158 O   0  0  0  0  0  0  0  0  0  0  0  0
  -42.8176   57.6053   63.0862 C   0  0  0  0  0  0  0  0  0  0  0  0
  -44.3534   58.5516   63.8957 H   0  0  0  0  0  0  0  0  0  0  0  0
  -40.4104   57.3777   63.6641 N   0  0  0  0  0  0  0  0  0  0  0  0
  -39.7955   55.9165   62.0897 O   0  0  0  0  0  0  0  0  0  0  0  0
  -41.1904   55.6698   62.2619 C   0  0  0  0  0  0  0  0  0  0  0  0
  -39.4221   56.9871   62.9797 C   0  0  0  0  0  0  0  0  0  0  0  0
  -41.6621   56.6555   63.3668 C   0  0  0  0  0  0  0  0  0  0  0  0
  -38.0036   58.4024   60.8865 O   0  0  0  0  0  0  0  0  0  0  0  0
  -37.3928   58.2073   62.0615 C   0  0  0  0  0  0  0  0  0  0  0  0
  -36.0969   58.7017   62.2590 C   0  0  0  0  0  0  0  0  0  0  0  0
  -35.4307   58.5018   63.4799 C   0  0  0  0  0  0  0  0  0  0  0  0
  -36.0568   57.8137   64.5207 C   0  0  0  0  0  0  0  0  0  0  0  0
  -37.3520   57.3241   64.3308 C   0  0  0  0  0  0  0  0  0  0  0  0
  -38.0189   57.5152   63.1054 C   0  0  0  0  0  0  0  0  0  0  0  0
  -37.5650   58.8686   60.2022 H   0  0  0  0  0  0  0  0  0  0  0  0
  -44.9270   59.2170   66.6574 O   0  0  0  0  0  0  0  0  0  0  0  0
  -44.6913   58.0988   66.2302 C   0  0  0  0  0  0  0  0  0  0  0  0
  -45.6924   57.0475   66.4395 O   0  0  0  0  0  0  0  0  0  0  0  0
  -47.0915   57.2862   66.1965 C   0  0  0  0  0  0  0  0  0  0  0  0
  -47.8991   56.0360   65.8701 C   0  0  0  0  0  0  0  0  0  0  0  0
  -47.2159   58.3241   65.0912 C   0  0  0  0  0  0  0  0  0  0  0  0
  -49.0287   58.0101   63.4753 N   0  0  0  0  0  0  0  0  0  0  0  0
  -49.3675   59.1266   65.4129 O   0  0  0  0  0  0  0  0  0  0  0  0
  -48.6392   58.5450   64.6417 C   0  0  0  0  0  0  0  0  0  0  0  0
  -48.3459   57.5590   62.9281 H   0  0  0  0  0  0  0  0  0  0  0  0
  -50.0759   58.4364   60.5468 N   0  0  0  0  0  0  0  0  0  0  0  0
  -51.1762   56.6063   61.2578 O   0  0  0  0  0  0  0  0  0  0  0  0
  -49.1225   59.5378   60.7463 C   0  0  0  0  0  0  0  0  0  0  0  0
  -49.7834   60.6985   61.5135 C   0  0  0  0  0  0  0  0  0  0  0  0
  -51.1739   60.4101   62.0547 C   0  0  0  0  0  0  0  0  0  0  0  0
  -51.1765   59.3607   63.1695 C   0  0  0  0  0  0  0  0  0  0  0  0
  -50.4010   58.0498   62.9571 C   0  0  0  0  0  0  0  0  0  0  0  0
  -50.5656   57.6366   61.5077 C   0  0  0  0  0  0  0  0  0  0  0  0
  -49.3616   57.5362   58.0561 Si  0  0  0  0  0  0  0  0  0  0  0  0
  -50.4922   58.2006   59.2712 O   0  0  0  0  0  0  0  0  0  0  0  0
  -50.0356   57.3844   56.8156 H   0  0  0  0  0  0  0  0  0  0  0  0
  -48.8855   56.2721   58.4939 H   0  0  0  0  0  0  0  0  0  0  0  0
  -48.2656   58.4244   57.8938 H   0  0  0  0  0  0  0  0  0  0  0  0
  -41.6643   59.7539   65.6577 C   0  0  0  0  0  0  0  0  0  0  0  0
  -42.1464   58.4186   66.2377 C   0  0  0  0  0  0  0  0  0  0  0  0
  -40.2331   60.1901   66.0143 C   0  0  0  0  0  0  0  0  0  0  0  0
  -39.2520   60.4329   64.8492 C   0  0  0  0  0  0  0  0  0  0  0  0
  -37.9314   60.7281   65.4139 N   0  0  0  0  0  0  0  0  0  0  0  0
  -36.9384   61.5060   64.9077 C   0  0  0  0  0  0  0  0  0  0  0  0
  -37.6894   60.1083   66.6479 O   0  0  0  0  0  0  0  0  0  0  0  0
  -37.0748   62.0958   63.8360 O   0  0  0  0  0  0  0  0  0  0  0  0
  -36.8025   60.3461   66.9608 H   0  0  0  0  0  0  0  0  0  0  0  0
  -35.6278   61.6387   65.6905 C   0  0  0  0  0  0  0  0  0  0  0  0
  -35.6465   62.7160   66.7835 C   0  0  0  0  0  0  0  0  0  0  0  0
  -34.9938   64.0104   66.2610 C   0  0  0  0  0  0  0  0  0  0  0  0
  -33.7621   64.4499   67.0751 C   0  0  0  0  0  0  0  0  0  0  0  0
  -32.8162   65.4153   66.3366 C   0  0  0  0  0  0  0  0  0  0  0  0
  -32.7519   65.1481   64.8183 C   0  0  0  0  0  0  0  0  0  0  0  0
  -31.7591   64.0372   64.4036 C   0  0  0  0  0  0  0  0  0  0  0  0
  -32.4322   62.6855   64.1386 C   0  0  0  0  0  0  0  0  0  0  0  0
  -32.9349   62.4730   62.7071 C   0  0  0  0  0  0  0  0  0  0  0  0
  -32.0946   63.2705   61.6932 C   0  0  0  0  0  0  0  0  0  0  0  0
  -32.9096   64.2703   60.8587 C   0  0  0  0  0  0  0  0  0  0  0  0
  -33.0549   65.6736   61.4564 C   0  0  0  0  0  0  0  0  0  0  0  0
  -34.4043   66.3643   61.1370 C   0  0  0  0  0  0  0  0  0  0  0  0
  -35.5904   65.3937   61.3089 C   0  0  0  0  0  0  0  0  0  0  0  0
  -35.8181   64.8079   62.7076 C   0  0  0  0  0  0  0  0  0  0  0  0
 46 47  1  0  0  0
 46 48  1  0  0  0
 46 45  1  0  0  0
 47 49  2  0  0  0
 47 51  1  0  0  0
 19 20  2  0  0  0
 37 38  1  0  0  0
 37 39  1  0  0  0
 37 40  1  0  0  0
 37 41  1  0  0  0
 48 50  1  0  0  0
 38 29  1  0  0  0
 45 44  1  0  0  0
 25 27  1  0  0  0
 25 35  1  0  0  0
 25 28  1  0  0  0
 21 20  1  0  0  0
 21 22  1  0  0  0
 44 42  1  0  0  0
  2  1  1  0  0  0
  2  4  1  0  0  0
  2  5  1  0  0  0
 26 27  2  0  0  0
 42 43  2  0  0  0
 29 31  1  0  0  0
 29 36  1  0  0  0
  3  4  2  0  0  0
 43  1  1  0  0  0
  6  9  2  0  0  0
  6 10  1  0  0  0
  1 20  1  0  0  0
 30 36  2  0  0  0
  7  8  1  0  0  0
  7  9  1  0  0  0
 22 24  1  0  0  0
 22 23  1  0  0  0
 11 12  1  0  0  0
 11 18  1  0  0  0
 24 27  1  0  0  0
  4 10  1  0  0  0
 51 52  1  0  0  0
 52 53  1  0  0  0
 53 54  1  0  0  0
 54 55  1  0  0  0
 55 56  1  0  0  0
 56 57  1  0  0  0
 57 58  1  0  0  0
 58 59  1  0  0  0
 59 60  1  0  0  0
 60 61  1  0  0  0
 61 62  1  0  0  0
 62 63  1  0  0  0
 63 64  1  0  0  0
 64 65  1  0  0  0
 31 32  1  0  0  0
 32 33  1  0  0  0
 33 34  1  0  0  0
 34 35  1  0  0  0
 35 36  1  0  0  0
  8 10  1  0  0  0
  9 17  1  0  0  0
 12 13  2  0  0  0
 12 17  1  0  0  0
 13 14  1  0  0  0
 14 15  2  0  0  0
 15 16  1  0  0  0
 16 17  2  0  0  0
M  END
> <minimizedAffinity>
-8.51552

> <CNNscore>
0.1261495650

> <CNNaffinity>
6.9066963196

> <CNN_VS>
0.8712767363

> <CNNaffinity_variance>
0.6909511685

$$$$
/media/chris/experiments/cd1a-new-docking/inputs/ligands/1xz0_ligand.pdb


 65 67  0  0  0  0  0  0  0  0999 V2000
  -36.1597   59.0814   63.6420 C   0  0  0  0  0  0  0  0  0  0  0  0
  -36.5154   60.4302   64.0873 N   0  0  0  0  0  0  0  0  0  0  0  0
  -37.7228   61.9845   65.2273 O   0  0  0  0  0  0  0  0  0  0  0  0
  -37.4939   60.8214   64.9221 C   0  0  0  0  0  0  0  0  0  0  0  0
  -35.9577   61.1550   63.7229 H   0  0  0  0  0  0  0  0  0  0  0  0
  -38.5923   58.5992   64.7337 N   0  0  0  0  0  0  0  0  0  0  0  0
  -40.5992   59.1139   65.5699 O   0  0  0  0  0  0  0  0  0  0  0  0
  -39.7234   60.0718   66.1633 C   0  0  0  0  0  0  0  0  0  0  0  0
  -39.8129   58.2726   64.7030 C   0  0  0  0  0  0  0  0  0  0  0  0
  -38.3045   59.7407   65.6229 C   0  0  0  0  0  0  0  0  0  0  0  0
  -42.1620   56.7598   65.4712 O   0  0  0  0  0  0  0  0  0  0  0  0
  -41.5321   56.4399   64.3342 C   0  0  0  0  0  0  0  0  0  0  0  0
  -42.0271   55.3994   63.5372 C   0  0  0  0  0  0  0  0  0  0  0  0
  -41.3786   55.0382   62.3441 C   0  0  0  0  0  0  0  0  0  0  0  0
  -40.2333   55.7202   61.9295 C   0  0  0  0  0  0  0  0  0  0  0  0
  -39.7392   56.7632   62.7179 C   0  0  0  0  0  0  0  0  0  0  0  0
  -40.3819   57.1216   63.9184 C   0  0  0  0  0  0  0  0  0  0  0  0
  -42.9302   56.2896   65.7294 H   0  0  0  0  0  0  0  0  0  0  0  0
  -34.2486   57.9012   64.4726 O   0  0  0  0  0  0  0  0  0  0  0  0
  -34.6822   58.9090   63.9390 C   0  0  0  0  0  0  0  0  0  0  0  0
  -33.7466   59.9995   63.6449 O   0  0  0  0  0  0  0  0  0  0  0  0
  -32.7914   59.8983   62.5720 C   0  0  0  0  0  0  0  0  0  0  0  0
  -31.7846   58.7650   62.7263 C   0  0  0  0  0  0  0  0  0  0  0  0
  -32.0894   61.2402   62.4269 C   0  0  0  0  0  0  0  0  0  0  0  0
  -33.0267   63.0226   63.8200 N   0  0  0  0  0  0  0  0  0  0  0  0
  -33.6252   62.7944   61.6508 O   0  0  0  0  0  0  0  0  0  0  0  0
  -33.0125   62.4173   62.6233 C   0  0  0  0  0  0  0  0  0  0  0  0
  -32.4873   62.6241   64.5407 H   0  0  0  0  0  0  0  0  0  0  0  0
  -32.9513   64.8672   66.3589 N   0  0  0  0  0  0  0  0  0  0  0  0
  -32.7676   66.3038   64.6361 O   0  0  0  0  0  0  0  0  0  0  0  0
  -33.0919   63.5113   66.9098 C   0  0  0  0  0  0  0  0  0  0  0  0
  -34.5627   63.0556   66.8672 C   0  0  0  0  0  0  0  0  0  0  0  0
  -35.5081   63.9833   66.1221 C   0  0  0  0  0  0  0  0  0  0  0  0
  -35.2345   64.0334   64.6166 C   0  0  0  0  0  0  0  0  0  0  0  0
  -33.7897   64.2369   64.1308 C   0  0  0  0  0  0  0  0  0  0  0  0
  -33.1113   65.2134   65.0715 C   0  0  0  0  0  0  0  0  0  0  0  0
  -33.0853   65.7457   68.9540 Si  0  0  0  0  0  0  0  0  0  0  0  0
  -32.6196   65.8593   67.2317 O   0  0  0  0  0  0  0  0  0  0  0  0
  -32.6248   66.8971   69.6457 H   0  0  0  0  0  0  0  0  0  0  0  0
  -32.5017   64.5847   69.5266 H   0  0  0  0  0  0  0  0  0  0  0  0
  -34.4992   65.6651   69.0576 H   0  0  0  0  0  0  0  0  0  0  0  0
  -37.5996   59.5546   61.4980 C   0  0  0  0  0  0  0  0  0  0  0  0
  -36.5534   58.6799   62.1998 C   0  0  0  0  0  0  0  0  0  0  0  0
  -38.3105   58.9440   60.2783 C   0  0  0  0  0  0  0  0  0  0  0  0
  -39.5073   59.7193   59.6903 C   0  0  0  0  0  0  0  0  0  0  0  0
  -40.7208   59.2962   60.3962 N   0  0  0  0  0  0  0  0  0  0  0  0
  -41.2661   59.7963   61.5364 C   0  0  0  0  0  0  0  0  0  0  0  0
  -41.3899   58.2261   59.7857 O   0  0  0  0  0  0  0  0  0  0  0  0
  -40.7487   60.7438   62.1277 O   0  0  0  0  0  0  0  0  0  0  0  0
  -42.1786   58.0003   60.3033 H   0  0  0  0  0  0  0  0  0  0  0  0
  -42.5443   59.1574   62.0897 C   0  0  0  0  0  0  0  0  0  0  0  0
  -43.0893   59.8236   63.3604 C   0  0  0  0  0  0  0  0  0  0  0  0
  -44.3459   59.0785   63.8505 C   0  0  0  0  0  0  0  0  0  0  0  0
  -44.6224   59.2626   65.3547 C   0  0  0  0  0  0  0  0  0  0  0  0
  -45.7648   58.3906   65.9083 C   0  0  0  0  0  0  0  0  0  0  0  0
  -46.9190   59.2222   66.5060 C   0  0  0  0  0  0  0  0  0  0  0  0
  -48.2968   58.9724   65.8496 C   0  0  0  0  0  0  0  0  0  0  0  0
  -49.2863   60.1261   66.0503 C   0  0  0  0  0  0  0  0  0  0  0  0
  -50.7361   59.8216   65.6604 C   0  0  0  0  0  0  0  0  0  0  0  0
  -51.1719   60.6442   64.4341 C   0  0  0  0  0  0  0  0  0  0  0  0
  -50.9791   59.9157   63.0953 C   0  0  0  0  0  0  0  0  0  0  0  0
  -49.6779   60.2278   62.3490 C   0  0  0  0  0  0  0  0  0  0  0  0
  -49.7682   60.0521   60.8125 C   0  0  0  0  0  0  0  0  0  0  0  0
  -49.1846   58.6970   60.3635 C   0  0  0  0  0  0  0  0  0  0  0  0
  -49.7780   58.0640   59.0991 C   0  0  0  0  0  0  0  0  0  0  0  0
 46 47  1  0  0  0
 46 48  1  0  0  0
 46 45  1  0  0  0
 47 49  2  0  0  0
 47 51  1  0  0  0
 19 20  2  0  0  0
 37 38  1  0  0  0
 37 39  1  0  0  0
 37 40  1  0  0  0
 37 41  1  0  0  0
 48 50  1  0  0  0
 38 29  1  0  0  0
 45 44  1  0  0  0
 25 27  1  0  0  0
 25 35  1  0  0  0
 25 28  1  0  0  0
 21 20  1  0  0  0
 21 22  1  0  0  0
 44 42  1  0  0  0
  2  1  1  0  0  0
  2  4  1  0  0  0
  2  5  1  0  0  0
 26 27  2  0  0  0
 42 43  2  0  0  0
 29 31  1  0  0  0
 29 36  1  0  0  0
  3  4  2  0  0  0
 43  1  1  0  0  0
  6  9  2  0  0  0
  6 10  1  0  0  0
  1 20  1  0  0  0
 30 36  2  0  0  0
  7  8  1  0  0  0
  7  9  1  0  0  0
 22 24  1  0  0  0
 22 23  1  0  0  0
 11 12  1  0  0  0
 11 18  1  0  0  0
 24 27  1  0  0  0
  4 10  1  0  0  0
 51 52  1  0  0  0
 52 53  1  0  0  0
 53 54  1  0  0  0
 54 55  1  0  0  0
 55 56  1  0  0  0
 56 57  1  0  0  0
 57 58  1  0  0  0
 58 59  1  0  0  0
 59 60  1  0  0  0
 60 61  1  0  0  0
 61 62  1  0  0  0
 62 63  1  0  0  0
 63 64  1  0  0  0
 64 65  1  0  0  0
 31 32  1  0  0  0
 32 33  1  0  0  0
 33 34  1  0  0  0
 34 35  1  0  0  0
 35 36  1  0  0  0
  8 10  1  0  0  0
  9 17  1  0  0  0
 12 13  2  0  0  0
 12 17  1  0  0  0
 13 14  1  0  0  0
 14 15  2  0  0  0
 15 16  1  0  0  0
 16 17  2  0  0  0
M  END
> <minimizedAffinity>
-9.66894

> <CNNscore>
0.1071306467

> <CNNaffinity>
7.4306535721

> <CNN_VS>
0.7960507274

> <CNNaffinity_variance>
0.9306060672

$$$$
/media/chris/experiments/cd1a-new-docking/inputs/ligands/1xz0_ligand.pdb


 65 67  0  0  0  0  0  0  0  0999 V2000
  -41.2050   58.4983   64.1166 C   0  0  0  0  0  0  0  0  0  0  0  0
  -41.6213   59.4461   63.0810 N   0  0  0  0  0  0  0  0  0  0  0  0
  -41.3105   60.9741   61.4252 O   0  0  0  0  0  0  0  0  0  0  0  0
  -40.8665   60.1947   62.2581 C   0  0  0  0  0  0  0  0  0  0  0  0
  -42.5942   59.5501   62.9716 H   0  0  0  0  0  0  0  0  0  0  0  0
  -38.6893   60.8803   63.2430 N   0  0  0  0  0  0  0  0  0  0  0  0
  -37.5156   61.1693   61.3639 O   0  0  0  0  0  0  0  0  0  0  0  0
  -38.5247   60.2290   60.9979 C   0  0  0  0  0  0  0  0  0  0  0  0
  -37.7139   61.5147   62.7492 C   0  0  0  0  0  0  0  0  0  0  0  0
  -39.3600   59.9811   62.2847 C   0  0  0  0  0  0  0  0  0  0  0  0
  -37.3823   61.5144   65.6279 O   0  0  0  0  0  0  0  0  0  0  0  0
  -36.6949   62.4025   64.8995 C   0  0  0  0  0  0  0  0  0  0  0  0
  -35.8239   63.2955   65.5372 C   0  0  0  0  0  0  0  0  0  0  0  0
  -35.0982   64.2433   64.7960 C   0  0  0  0  0  0  0  0  0  0  0  0
  -35.2280   64.3022   63.4073 C   0  0  0  0  0  0  0  0  0  0  0  0
  -36.0909   63.4093   62.7657 C   0  0  0  0  0  0  0  0  0  0  0  0
  -36.8259   62.4642   63.5067 C   0  0  0  0  0  0  0  0  0  0  0  0
  -37.2785   61.4915   66.5589 H   0  0  0  0  0  0  0  0  0  0  0  0
  -41.2341   56.7001   62.5352 O   0  0  0  0  0  0  0  0  0  0  0  0
  -40.6107   57.3061   63.3911 C   0  0  0  0  0  0  0  0  0  0  0  0
  -39.2797   56.8149   63.7629 O   0  0  0  0  0  0  0  0  0  0  0  0
  -38.1203   57.6660   63.6924 C   0  0  0  0  0  0  0  0  0  0  0  0
  -37.0466   57.1931   62.7201 C   0  0  0  0  0  0  0  0  0  0  0  0
  -37.5571   57.8262   65.0966 C   0  0  0  0  0  0  0  0  0  0  0  0
  -35.5207   59.1811   64.9819 N   0  0  0  0  0  0  0  0  0  0  0  0
  -35.4249   56.9521   65.3535 O   0  0  0  0  0  0  0  0  0  0  0  0
  -36.0544   57.9588   65.1219 C   0  0  0  0  0  0  0  0  0  0  0  0
  -36.1328   59.9289   64.7941 H   0  0  0  0  0  0  0  0  0  0  0  0
  -33.5238   60.3120   62.8399 N   0  0  0  0  0  0  0  0  0  0  0  0
  -33.1868   61.6177   64.6419 O   0  0  0  0  0  0  0  0  0  0  0  0
  -34.1935   59.2005   62.1485 C   0  0  0  0  0  0  0  0  0  0  0  0
  -33.5508   57.8541   62.5314 C   0  0  0  0  0  0  0  0  0  0  0  0
  -32.5196   57.9209   63.6457 C   0  0  0  0  0  0  0  0  0  0  0  0
  -33.1275   58.2850   65.0029 C   0  0  0  0  0  0  0  0  0  0  0  0
  -34.0885   59.4824   65.0889 C   0  0  0  0  0  0  0  0  0  0  0  0
  -33.5758   60.5636   64.1578 C   0  0  0  0  0  0  0  0  0  0  0  0
  -31.3745   62.0142   62.7576 Si  0  0  0  0  0  0  0  0  0  0  0  0
  -32.7929   61.1684   62.0729 O   0  0  0  0  0  0  0  0  0  0  0  0
  -30.7909   62.8418   61.7622 H   0  0  0  0  0  0  0  0  0  0  0  0
  -30.4206   61.0588   63.1977 H   0  0  0  0  0  0  0  0  0  0  0  0
  -31.7854   62.8138   63.8568 H   0  0  0  0  0  0  0  0  0  0  0  0
  -43.7104   58.4813   64.9021 C   0  0  0  0  0  0  0  0  0  0  0  0
  -42.2501   58.1124   65.1914 C   0  0  0  0  0  0  0  0  0  0  0  0
  -44.6711   58.5087   66.1030 C   0  0  0  0  0  0  0  0  0  0  0  0
  -45.9524   57.6552   66.0090 C   0  0  0  0  0  0  0  0  0  0  0  0
  -47.1002   58.5130   66.3200 N   0  0  0  0  0  0  0  0  0  0  0  0
  -48.2986   58.6028   65.6850 C   0  0  0  0  0  0  0  0  0  0  0  0
  -46.9043   59.3437   67.4322 O   0  0  0  0  0  0  0  0  0  0  0  0
  -48.5563   57.8996   64.7082 O   0  0  0  0  0  0  0  0  0  0  0  0
  -47.6990   59.8802   67.5791 H   0  0  0  0  0  0  0  0  0  0  0  0
  -49.3374   59.6051   66.1992 C   0  0  0  0  0  0  0  0  0  0  0  0
  -50.7759   59.3174   65.7483 C   0  0  0  0  0  0  0  0  0  0  0  0
  -51.1761   60.2789   64.6125 C   0  0  0  0  0  0  0  0  0  0  0  0
  -51.1740   59.6202   63.2199 C   0  0  0  0  0  0  0  0  0  0  0  0
  -50.4979   60.4552   62.1164 C   0  0  0  0  0  0  0  0  0  0  0  0
  -49.3032   59.7302   61.4622 C   0  0  0  0  0  0  0  0  0  0  0  0
  -49.3790   59.6305   59.9208 C   0  0  0  0  0  0  0  0  0  0  0  0
  -50.0461   58.3423   59.4250 C   0  0  0  0  0  0  0  0  0  0  0  0
  -49.9346   57.1410   60.3691 C   0  0  0  0  0  0  0  0  0  0  0  0
  -49.1463   55.9887   59.7203 C   0  0  0  0  0  0  0  0  0  0  0  0
  -47.6295   56.2260   59.6644 C   0  0  0  0  0  0  0  0  0  0  0  0
  -46.9973   56.1663   58.2700 C   0  0  0  0  0  0  0  0  0  0  0  0
  -48.0216   56.0976   57.1098 C   0  0  0  0  0  0  0  0  0  0  0  0
  -48.0508   57.4118   56.3033 C   0  0  0  0  0  0  0  0  0  0  0  0
  -47.2345   58.5881   56.8525 C   0  0  0  0  0  0  0  0  0  0  0  0
 46 47  1  0  0  0
 46 48  1  0  0  0
 46 45  1  0  0  0
 47 49  2  0  0  0
 47 51  1  0  0  0
 19 20  2  0  0  0
 37 38  1  0  0  0
 37 39  1  0  0  0
 37 40  1  0  0  0
 37 41  1  0  0  0
 48 50  1  0  0  0
 38 29  1  0  0  0
 45 44  1  0  0  0
 25 27  1  0  0  0
 25 35  1  0  0  0
 25 28  1  0  0  0
 21 20  1  0  0  0
 21 22  1  0  0  0
 44 42  1  0  0  0
  2  1  1  0  0  0
  2  4  1  0  0  0
  2  5  1  0  0  0
 26 27  2  0  0  0
 42 43  2  0  0  0
 29 31  1  0  0  0
 29 36  1  0  0  0
  3  4  2  0  0  0
 43  1  1  0  0  0
  6  9  2  0  0  0
  6 10  1  0  0  0
  1 20  1  0  0  0
 30 36  2  0  0  0
  7  8  1  0  0  0
  7  9  1  0  0  0
 22 24  1  0  0  0
 22 23  1  0  0  0
 11 12  1  0  0  0
 11 18  1  0  0  0
 24 27  1  0  0  0
  4 10  1  0  0  0
 51 52  1  0  0  0
 52 53  1  0  0  0
 53 54  1  0  0  0
 54 55  1  0  0  0
 55 56  1  0  0  0
 56 57  1  0  0  0
 57 58  1  0  0  0
 58 59  1  0  0  0
 59 60  1  0  0  0
 60 61  1  0  0  0
 61 62  1  0  0  0
 62 63  1  0  0  0
 63 64  1  0  0  0
 64 65  1  0  0  0
 31 32  1  0  0  0
 32 33  1  0  0  0
 33 34  1  0  0  0
 34 35  1  0  0  0
 35 36  1  0  0  0
  8 10  1  0  0  0
  9 17  1  0  0  0
 12 13  2  0  0  0
 12 17  1  0  0  0
 13 14  1  0  0  0
 14 15  2  0  0  0
 15 16  1  0  0  0
 16 17  2  0  0  0
M  END
> <minimizedAffinity>
-9.89593

> <CNNscore>
0.1018706039

> <CNNaffinity>
7.0973563194

> <CNN_VS>
0.7230119705

> <CNNaffinity_variance>
0.5545192361

$$$$
/media/chris/experiments/cd1a-new-docking/inputs/ligands/1xz0_ligand.pdb


 65 67  0  0  0  0  0  0  0  0999 V2000
  -41.6671   58.0100   64.0187 C   0  0  0  0  0  0  0  0  0  0  0  0
  -40.3792   57.3585   64.2658 N   0  0  0  0  0  0  0  0  0  0  0  0
  -38.1365   57.2755   64.6354 O   0  0  0  0  0  0  0  0  0  0  0  0
  -39.1662   57.9096   64.4454 C   0  0  0  0  0  0  0  0  0  0  0  0
  -40.4054   56.3751   64.3062 H   0  0  0  0  0  0  0  0  0  0  0  0
  -37.6906   59.9101   64.4166 N   0  0  0  0  0  0  0  0  0  0  0  0
  -38.4464   60.9453   66.2466 O   0  0  0  0  0  0  0  0  0  0  0  0
  -39.5542   60.1555   65.8159 C   0  0  0  0  0  0  0  0  0  0  0  0
  -37.3551   60.7117   65.3344 C   0  0  0  0  0  0  0  0  0  0  0  0
  -39.0800   59.4267   64.5279 C   0  0  0  0  0  0  0  0  0  0  0  0
  -36.9799   63.5091   65.9905 O   0  0  0  0  0  0  0  0  0  0  0  0
  -35.9007   62.7450   65.7822 C   0  0  0  0  0  0  0  0  0  0  0  0
  -34.6220   63.3052   65.9007 C   0  0  0  0  0  0  0  0  0  0  0  0
  -33.4738   62.5266   65.6778 C   0  0  0  0  0  0  0  0  0  0  0  0
  -33.5911   61.1763   65.3434 C   0  0  0  0  0  0  0  0  0  0  0  0
  -34.8644   60.6113   65.2301 C   0  0  0  0  0  0  0  0  0  0  0  0
  -36.0171   61.3911   65.4444 C   0  0  0  0  0  0  0  0  0  0  0  0
  -36.8776   64.4129   66.2156 H   0  0  0  0  0  0  0  0  0  0  0  0
  -42.2377   57.3449   66.2475 O   0  0  0  0  0  0  0  0  0  0  0  0
  -42.6106   57.5150   65.0984 C   0  0  0  0  0  0  0  0  0  0  0  0
  -43.9924   57.1632   64.7548 O   0  0  0  0  0  0  0  0  0  0  0  0
  -45.0978   57.9989   65.1462 C   0  0  0  0  0  0  0  0  0  0  0  0
  -44.7003   59.3884   65.6289 C   0  0  0  0  0  0  0  0  0  0  0  0
  -45.9059   57.2611   66.2031 C   0  0  0  0  0  0  0  0  0  0  0  0
  -47.9745   58.0344   65.1455 N   0  0  0  0  0  0  0  0  0  0  0  0
  -47.8235   55.9665   66.0492 O   0  0  0  0  0  0  0  0  0  0  0  0
  -47.3475   57.0526   65.8098 C   0  0  0  0  0  0  0  0  0  0  0  0
  -47.4869   58.8787   65.0093 H   0  0  0  0  0  0  0  0  0  0  0  0
  -49.2756   59.4513   62.6647 N   0  0  0  0  0  0  0  0  0  0  0  0
  -49.7990   57.2798   62.3883 O   0  0  0  0  0  0  0  0  0  0  0  0
  -48.6421   60.5499   63.4087 C   0  0  0  0  0  0  0  0  0  0  0  0
  -49.5417   61.0111   64.5709 C   0  0  0  0  0  0  0  0  0  0  0  0
  -50.7679   60.1496   64.8235 C   0  0  0  0  0  0  0  0  0  0  0  0
  -50.4205   58.7497   65.3370 C   0  0  0  0  0  0  0  0  0  0  0  0
  -49.3364   57.9390   64.6074 C   0  0  0  0  0  0  0  0  0  0  0  0
  -49.4729   58.2039   63.1208 C   0  0  0  0  0  0  0  0  0  0  0  0
  -49.2893   61.2818   60.6218 Si  0  0  0  0  0  0  0  0  0  0  0  0
  -49.6910   59.7210   61.3955 O   0  0  0  0  0  0  0  0  0  0  0  0
  -49.8338   61.3141   59.3108 H   0  0  0  0  0  0  0  0  0  0  0  0
  -47.8784   61.4263   60.5521 H   0  0  0  0  0  0  0  0  0  0  0  0
  -49.8367   62.3446   61.3881 H   0  0  0  0  0  0  0  0  0  0  0  0
  -41.5590   56.9460   61.6208 C   0  0  0  0  0  0  0  0  0  0  0  0
  -42.2534   57.9111   62.5895 C   0  0  0  0  0  0  0  0  0  0  0  0
  -41.8334   57.1498   60.1211 C   0  0  0  0  0  0  0  0  0  0  0  0
  -41.3886   58.4857   59.4913 C   0  0  0  0  0  0  0  0  0  0  0  0
  -39.9482   58.6429   59.7157 N   0  0  0  0  0  0  0  0  0  0  0  0
  -39.3034   59.4235   60.6226 C   0  0  0  0  0  0  0  0  0  0  0  0
  -39.1517   57.8671   58.8618 O   0  0  0  0  0  0  0  0  0  0  0  0
  -39.9282   60.1252   61.4177 O   0  0  0  0  0  0  0  0  0  0  0  0
  -38.2156   58.0200   59.0651 H   0  0  0  0  0  0  0  0  0  0  0  0
  -37.7711   59.4268   60.6422 C   0  0  0  0  0  0  0  0  0  0  0  0
  -37.1436   58.2938   61.4656 C   0  0  0  0  0  0  0  0  0  0  0  0
  -35.8699   58.7969   62.1722 C   0  0  0  0  0  0  0  0  0  0  0  0
  -35.1644   57.7149   63.0117 C   0  0  0  0  0  0  0  0  0  0  0  0
  -33.6284   57.7159   62.8992 C   0  0  0  0  0  0  0  0  0  0  0  0
  -33.0678   59.0443   62.3497 C   0  0  0  0  0  0  0  0  0  0  0  0
  -31.6064   59.3422   62.7587 C   0  0  0  0  0  0  0  0  0  0  0  0
  -31.1753   60.7855   62.4738 C   0  0  0  0  0  0  0  0  0  0  0  0
  -32.3070   61.7439   62.0894 C   0  0  0  0  0  0  0  0  0  0  0  0
  -31.7623   63.0055   61.3951 C   0  0  0  0  0  0  0  0  0  0  0  0
  -32.8521   63.9993   60.9654 C   0  0  0  0  0  0  0  0  0  0  0  0
  -33.4194   64.8872   62.0777 C   0  0  0  0  0  0  0  0  0  0  0  0
  -34.7251   65.6286   61.6960 C   0  0  0  0  0  0  0  0  0  0  0  0
  -35.8531   64.6392   61.3400 C   0  0  0  0  0  0  0  0  0  0  0  0
  -36.2220   63.5894   62.3951 C   0  0  0  0  0  0  0  0  0  0  0  0
 46 47  1  0  0  0
 46 48  1  0  0  0
 46 45  1  0  0  0
 47 49  2  0  0  0
 47 51  1  0  0  0
 19 20  2  0  0  0
 37 38  1  0  0  0
 37 39  1  0  0  0
 37 40  1  0  0  0
 37 41  1  0  0  0
 48 50  1  0  0  0
 38 29  1  0  0  0
 45 44  1  0  0  0
 25 27  1  0  0  0
 25 35  1  0  0  0
 25 28  1  0  0  0
 21 20  1  0  0  0
 21 22  1  0  0  0
 44 42  1  0  0  0
  2  1  1  0  0  0
  2  4  1  0  0  0
  2  5  1  0  0  0
 26 27  2  0  0  0
 42 43  2  0  0  0
 29 31  1  0  0  0
 29 36  1  0  0  0
  3  4  2  0  0  0
 43  1  1  0  0  0
  6  9  2  0  0  0
  6 10  1  0  0  0
  1 20  1  0  0  0
 30 36  2  0  0  0
  7  8  1  0  0  0
  7  9  1  0  0  0
 22 24  1  0  0  0
 22 23  1  0  0  0
 11 12  1  0  0  0
 11 18  1  0  0  0
 24 27  1  0  0  0
  4 10  1  0  0  0
 51 52  1  0  0  0
 52 53  1  0  0  0
 53 54  1  0  0  0
 54 55  1  0  0  0
 55 56  1  0  0  0
 56 57  1  0  0  0
 57 58  1  0  0  0
 58 59  1  0  0  0
 59 60  1  0  0  0
 60 61  1  0  0  0
 61 62  1  0  0  0
 62 63  1  0  0  0
 63 64  1  0  0  0
 64 65  1  0  0  0
 31 32  1  0  0  0
 32 33  1  0  0  0
 33 34  1  0  0  0
 34 35  1  0  0  0
 35 36  1  0  0  0
  8 10  1  0  0  0
  9 17  1  0  0  0
 12 13  2  0  0  0
 12 17  1  0  0  0
 13 14  1  0  0  0
 14 15  2  0  0  0
 15 16  1  0  0  0
 16 17  2  0  0  0
M  END
> <minimizedAffinity>
-8.76211

> <CNNscore>
0.1017028764

> <CNNaffinity>
7.4178757668

> <CNN_VS>
0.7544193268

> <CNNaffinity_variance>
1.1049435139

$$$$
/media/chris/experiments/cd1a-new-docking/inputs/ligands/1xz0_ligand.pdb


 65 67  0  0  0  0  0  0  0  0999 V2000
  -36.7880   59.3040   62.8815 C   0  0  0  0  0  0  0  0  0  0  0  0
  -36.8256   60.5927   63.5757 N   0  0  0  0  0  0  0  0  0  0  0  0
  -37.4694   62.0570   65.1926 O   0  0  0  0  0  0  0  0  0  0  0  0
  -37.4911   60.9408   64.6907 C   0  0  0  0  0  0  0  0  0  0  0  0
  -36.2856   61.3074   63.1669 H   0  0  0  0  0  0  0  0  0  0  0  0
  -38.5457   58.6922   64.5816 N   0  0  0  0  0  0  0  0  0  0  0  0
  -40.5141   59.1680   65.5255 O   0  0  0  0  0  0  0  0  0  0  0  0
  -39.6292   60.1512   66.0612 C   0  0  0  0  0  0  0  0  0  0  0  0
  -39.7581   58.3373   64.6222 C   0  0  0  0  0  0  0  0  0  0  0  0
  -38.2354   59.8481   65.4443 C   0  0  0  0  0  0  0  0  0  0  0  0
  -42.1384   56.8977   65.4339 O   0  0  0  0  0  0  0  0  0  0  0  0
  -41.5076   56.5221   64.3145 C   0  0  0  0  0  0  0  0  0  0  0  0
  -42.0164   55.4599   63.5559 C   0  0  0  0  0  0  0  0  0  0  0  0
  -41.3675   55.0405   62.3822 C   0  0  0  0  0  0  0  0  0  0  0  0
  -40.2077   55.6852   61.9486 C   0  0  0  0  0  0  0  0  0  0  0  0
  -39.6997   56.7496   62.6986 C   0  0  0  0  0  0  0  0  0  0  0  0
  -40.3429   57.1665   63.8798 C   0  0  0  0  0  0  0  0  0  0  0  0
  -42.9164   56.4517   65.7053 H   0  0  0  0  0  0  0  0  0  0  0  0
  -34.7514   58.7055   61.7728 O   0  0  0  0  0  0  0  0  0  0  0  0
  -35.3302   58.8880   62.8312 C   0  0  0  0  0  0  0  0  0  0  0  0
  -34.6017   58.6290   64.0775 O   0  0  0  0  0  0  0  0  0  0  0  0
  -33.2912   59.1797   64.3077 C   0  0  0  0  0  0  0  0  0  0  0  0
  -32.1596   58.1603   64.2613 C   0  0  0  0  0  0  0  0  0  0  0  0
  -33.3089   59.9201   65.6366 C   0  0  0  0  0  0  0  0  0  0  0  0
  -33.7753   61.9571   64.3602 N   0  0  0  0  0  0  0  0  0  0  0  0
  -34.4709   61.7311   66.5005 O   0  0  0  0  0  0  0  0  0  0  0  0
  -33.8780   61.3135   65.5323 C   0  0  0  0  0  0  0  0  0  0  0  0
  -33.2661   61.5188   63.6406 H   0  0  0  0  0  0  0  0  0  0  0  0
  -33.7805   63.6443   61.7130 N   0  0  0  0  0  0  0  0  0  0  0  0
  -35.9395   63.6212   62.3485 O   0  0  0  0  0  0  0  0  0  0  0  0
  -32.3681   63.2804   61.8988 C   0  0  0  0  0  0  0  0  0  0  0  0
  -31.6882   64.2301   62.9030 C   0  0  0  0  0  0  0  0  0  0  0  0
  -32.6202   65.1961   63.6157 C   0  0  0  0  0  0  0  0  0  0  0  0
  -33.5889   64.4969   64.5731 C   0  0  0  0  0  0  0  0  0  0  0  0
  -34.3684   63.2686   64.0747 C   0  0  0  0  0  0  0  0  0  0  0  0
  -34.7535   63.5120   62.6287 C   0  0  0  0  0  0  0  0  0  0  0  0
  -35.6797   63.6790   59.7341 Si  0  0  0  0  0  0  0  0  0  0  0  0
  -34.1350   64.1523   60.4996 O   0  0  0  0  0  0  0  0  0  0  0  0
  -35.8118   64.3418   58.4853 H   0  0  0  0  0  0  0  0  0  0  0  0
  -36.7593   64.0452   60.5808 H   0  0  0  0  0  0  0  0  0  0  0  0
  -35.6951   62.2740   59.5284 H   0  0  0  0  0  0  0  0  0  0  0  0
  -38.7105   60.1361   61.2986 C   0  0  0  0  0  0  0  0  0  0  0  0
  -37.5075   59.2096   61.5142 C   0  0  0  0  0  0  0  0  0  0  0  0
  -39.6798   59.7636   60.1639 C   0  0  0  0  0  0  0  0  0  0  0  0
  -41.0814   60.4073   60.1852 C   0  0  0  0  0  0  0  0  0  0  0  0
  -41.8863   59.7230   61.2019 N   0  0  0  0  0  0  0  0  0  0  0  0
  -42.5037   60.2413   62.2964 C   0  0  0  0  0  0  0  0  0  0  0  0
  -42.0202   58.3440   60.9878 O   0  0  0  0  0  0  0  0  0  0  0  0
  -42.4465   61.4444   62.5501 O   0  0  0  0  0  0  0  0  0  0  0  0
  -42.5616   57.9581   61.6941 H   0  0  0  0  0  0  0  0  0  0  0  0
  -43.2764   59.3008   63.2272 C   0  0  0  0  0  0  0  0  0  0  0  0
  -44.4917   59.9412   63.9117 C   0  0  0  0  0  0  0  0  0  0  0  0
  -44.6562   59.3744   65.3351 C   0  0  0  0  0  0  0  0  0  0  0  0
  -45.4630   58.0631   65.3854 C   0  0  0  0  0  0  0  0  0  0  0  0
  -46.8591   58.1930   66.0228 C   0  0  0  0  0  0  0  0  0  0  0  0
  -47.9244   58.7105   65.0338 C   0  0  0  0  0  0  0  0  0  0  0  0
  -48.4752   60.1178   65.3623 C   0  0  0  0  0  0  0  0  0  0  0  0
  -49.5129   60.6181   64.3508 C   0  0  0  0  0  0  0  0  0  0  0  0
  -50.8047   59.7979   64.2767 C   0  0  0  0  0  0  0  0  0  0  0  0
  -51.1756   59.4657   62.8199 C   0  0  0  0  0  0  0  0  0  0  0  0
  -51.0728   57.9719   62.4764 C   0  0  0  0  0  0  0  0  0  0  0  0
  -50.9363   57.6392   60.9870 C   0  0  0  0  0  0  0  0  0  0  0  0
  -49.9567   56.4785   60.6818 C   0  0  0  0  0  0  0  0  0  0  0  0
  -48.6528   56.9937   60.0394 C   0  0  0  0  0  0  0  0  0  0  0  0
  -48.7770   58.1358   59.0237 C   0  0  0  0  0  0  0  0  0  0  0  0
 46 47  1  0  0  0
 46 48  1  0  0  0
 46 45  1  0  0  0
 47 49  2  0  0  0
 47 51  1  0  0  0
 19 20  2  0  0  0
 37 38  1  0  0  0
 37 39  1  0  0  0
 37 40  1  0  0  0
 37 41  1  0  0  0
 48 50  1  0  0  0
 38 29  1  0  0  0
 45 44  1  0  0  0
 25 27  1  0  0  0
 25 35  1  0  0  0
 25 28  1  0  0  0
 21 20  1  0  0  0
 21 22  1  0  0  0
 44 42  1  0  0  0
  2  1  1  0  0  0
  2  4  1  0  0  0
  2  5  1  0  0  0
 26 27  2  0  0  0
 42 43  2  0  0  0
 29 31  1  0  0  0
 29 36  1  0  0  0
  3  4  2  0  0  0
 43  1  1  0  0  0
  6  9  2  0  0  0
  6 10  1  0  0  0
  1 20  1  0  0  0
 30 36  2  0  0  0
  7  8  1  0  0  0
  7  9  1  0  0  0
 22 24  1  0  0  0
 22 23  1  0  0  0
 11 12  1  0  0  0
 11 18  1  0  0  0
 24 27  1  0  0  0
  4 10  1  0  0  0
 51 52  1  0  0  0
 52 53  1  0  0  0
 53 54  1  0  0  0
 54 55  1  0  0  0
 55 56  1  0  0  0
 56 57  1  0  0  0
 57 58  1  0  0  0
 58 59  1  0  0  0
 59 60  1  0  0  0
 60 61  1  0  0  0
 61 62  1  0  0  0
 62 63  1  0  0  0
 63 64  1  0  0  0
 64 65  1  0  0  0
 31 32  1  0  0  0
 32 33  1  0  0  0
 33 34  1  0  0  0
 34 35  1  0  0  0
 35 36  1  0  0  0
  8 10  1  0  0  0
  9 17  1  0  0  0
 12 13  2  0  0  0
 12 17  1  0  0  0
 13 14  1  0  0  0
 14 15  2  0  0  0
 15 16  1  0  0  0
 16 17  2  0  0  0
M  END
> <minimizedAffinity>
-9.10152

> <CNNscore>
0.0955837443

> <CNNaffinity>
7.3833832741

> <CNN_VS>
0.7057313919

> <CNNaffinity_variance>
0.9096641541

$$$$
