/media/chris/experiments/cd1a-new-docking/inputs/ligands/1xz0_ligand.pdb


 65 67  0  0  0  0  0  0  0  0999 V2000
  -40.7611   58.4549   64.2651 C   0  0  0  0  0  0  0  0  0  0  0  0
  -41.2811   57.0900   64.1612 N   0  0  0  0  0  0  0  0  0  0  0  0
  -42.5581   55.3078   64.7663 O   0  0  0  0  0  0  0  0  0  0  0  0
  -42.1935   56.4654   64.9258 C   0  0  0  0  0  0  0  0  0  0  0  0
  -40.9088   56.5522   63.4254 H   0  0  0  0  0  0  0  0  0  0  0  0
  -44.2973   57.5926   65.6213 N   0  0  0  0  0  0  0  0  0  0  0  0
  -43.4679   59.5853   66.1988 O   0  0  0  0  0  0  0  0  0  0  0  0
  -42.3679   58.6923   66.3692 C   0  0  0  0  0  0  0  0  0  0  0  0
  -44.5919   58.8174   65.7247 C   0  0  0  0  0  0  0  0  0  0  0  0
  -42.9041   57.2827   65.9950 C   0  0  0  0  0  0  0  0  0  0  0  0
  -46.7239   59.0113   67.6776 O   0  0  0  0  0  0  0  0  0  0  0  0
  -46.9333   59.4882   66.4446 C   0  0  0  0  0  0  0  0  0  0  0  0
  -48.1632   60.0813   66.1308 C   0  0  0  0  0  0  0  0  0  0  0  0
  -48.4111   60.5808   64.8412 C   0  0  0  0  0  0  0  0  0  0  0  0
  -47.4279   60.5020   63.8533 C   0  0  0  0  0  0  0  0  0  0  0  0
  -46.1970   59.9169   64.1630 C   0  0  0  0  0  0  0  0  0  0  0  0
  -45.9489   59.4076   65.4521 C   0  0  0  0  0  0  0  0  0  0  0  0
  -47.3975   59.0764   68.3258 H   0  0  0  0  0  0  0  0  0  0  0  0
  -41.5850   59.9813   62.6139 O   0  0  0  0  0  0  0  0  0  0  0  0
  -40.8406   59.0498   62.8721 C   0  0  0  0  0  0  0  0  0  0  0  0
  -40.0594   58.4588   61.7805 O   0  0  0  0  0  0  0  0  0  0  0  0
  -39.2945   59.2790   60.8772 C   0  0  0  0  0  0  0  0  0  0  0  0
  -38.7950   58.5541   59.6335 C   0  0  0  0  0  0  0  0  0  0  0  0
  -38.1410   59.8982   61.6520 C   0  0  0  0  0  0  0  0  0  0  0  0
  -35.8703   59.3031   62.3492 N   0  0  0  0  0  0  0  0  0  0  0  0
  -37.5267   57.7632   62.3158 O   0  0  0  0  0  0  0  0  0  0  0  0
  -37.1219   58.8845   62.1106 C   0  0  0  0  0  0  0  0  0  0  0  0
  -35.6543   60.2410   62.1424 H   0  0  0  0  0  0  0  0  0  0  0  0
  -33.8041   59.8889   64.6387 N   0  0  0  0  0  0  0  0  0  0  0  0
  -34.6624   57.8800   65.1803 O   0  0  0  0  0  0  0  0  0  0  0  0
  -33.7084   61.0673   63.7647 C   0  0  0  0  0  0  0  0  0  0  0  0
  -32.7992   60.7768   62.5557 C   0  0  0  0  0  0  0  0  0  0  0  0
  -32.3524   59.3313   62.4123 C   0  0  0  0  0  0  0  0  0  0  0  0
  -33.5033   58.3798   62.0742 C   0  0  0  0  0  0  0  0  0  0  0  0
  -34.8002   58.4614   62.8966 C   0  0  0  0  0  0  0  0  0  0  0  0
  -34.4245   58.7363   64.3395 C   0  0  0  0  0  0  0  0  0  0  0  0
  -33.6504   61.3059   66.9822 Si  0  0  0  0  0  0  0  0  0  0  0  0
  -33.2187   59.9782   65.8657 O   0  0  0  0  0  0  0  0  0  0  0  0
  -32.9067   61.1737   68.1848 H   0  0  0  0  0  0  0  0  0  0  0  0
  -35.0385   61.2454   67.2752 H   0  0  0  0  0  0  0  0  0  0  0  0
  -33.3488   62.5530   66.3739 H   0  0  0  0  0  0  0  0  0  0  0  0
  -39.0679   60.0354   65.5017 C   0  0  0  0  0  0  0  0  0  0  0  0
  -39.3816   58.6425   64.9419 C   0  0  0  0  0  0  0  0  0  0  0  0
  -37.5886   60.3587   65.7716 C   0  0  0  0  0  0  0  0  0  0  0  0
  -36.9614   61.5292   64.9868 C   0  0  0  0  0  0  0  0  0  0  0  0
  -36.1861   62.3482   65.9238 N   0  0  0  0  0  0  0  0  0  0  0  0
  -35.5139   63.5071   65.6941 C   0  0  0  0  0  0  0  0  0  0  0  0
  -36.1530   61.8402   67.2301 O   0  0  0  0  0  0  0  0  0  0  0  0
  -35.5033   64.0271   64.5786 O   0  0  0  0  0  0  0  0  0  0  0  0
  -35.6260   62.4289   67.7928 H   0  0  0  0  0  0  0  0  0  0  0  0
  -34.7542   64.1656   66.8504 C   0  0  0  0  0  0  0  0  0  0  0  0
  -33.5333   64.9905   66.4209 C   0  0  0  0  0  0  0  0  0  0  0  0
  -32.3630   64.0547   66.0616 C   0  0  0  0  0  0  0  0  0  0  0  0
  -31.1061   64.8008   65.5749 C   0  0  0  0  0  0  0  0  0  0  0  0
  -29.9578   63.8866   65.1087 C   0  0  0  0  0  0  0  0  0  0  0  0
  -30.3137   63.0718   63.8475 C   0  0  0  0  0  0  0  0  0  0  0  0
  -29.1461   62.8914   62.8495 C   0  0  0  0  0  0  0  0  0  0  0  0
  -29.0528   64.0149   61.8106 C   0  0  0  0  0  0  0  0  0  0  0  0
  -30.2862   64.9180   61.7091 C   0  0  0  0  0  0  0  0  0  0  0  0
  -31.1865   64.5077   60.5295 C   0  0  0  0  0  0  0  0  0  0  0  0
  -32.6143   64.1187   60.9420 C   0  0  0  0  0  0  0  0  0  0  0  0
  -33.0393   64.5443   62.3512 C   0  0  0  0  0  0  0  0  0  0  0  0
  -33.8068   65.8888   62.4053 C   0  0  0  0  0  0  0  0  0  0  0  0
  -34.7926   66.0247   61.2271 C   0  0  0  0  0  0  0  0  0  0  0  0
  -36.2892   65.9956   61.5599 C   0  0  0  0  0  0  0  0  0  0  0  0
 46 47  1  0  0  0
 46 48  1  0  0  0
 46 45  1  0  0  0
 47 49  2  0  0  0
 47 51  1  0  0  0
 19 20  2  0  0  0
 37 38  1  0  0  0
 37 39  1  0  0  0
 37 40  1  0  0  0
 37 41  1  0  0  0
 48 50  1  0  0  0
 38 29  1  0  0  0
 45 44  1  0  0  0
 25 27  1  0  0  0
 25 35  1  0  0  0
 25 28  1  0  0  0
 21 20  1  0  0  0
 21 22  1  0  0  0
 44 42  1  0  0  0
  2  1  1  0  0  0
  2  4  1  0  0  0
  2  5  1  0  0  0
 26 27  2  0  0  0
 42 43  2  0  0  0
 29 31  1  0  0  0
 29 36  1  0  0  0
  3  4  2  0  0  0
 43  1  1  0  0  0
  6  9  2  0  0  0
  6 10  1  0  0  0
  1 20  1  0  0  0
 30 36  2  0  0  0
  7  8  1  0  0  0
  7  9  1  0  0  0
 22 24  1  0  0  0
 22 23  1  0  0  0
 11 12  1  0  0  0
 11 18  1  0  0  0
 24 27  1  0  0  0
  4 10  1  0  0  0
 51 52  1  0  0  0
 52 53  1  0  0  0
 53 54  1  0  0  0
 54 55  1  0  0  0
 55 56  1  0  0  0
 56 57  1  0  0  0
 57 58  1  0  0  0
 58 59  1  0  0  0
 59 60  1  0  0  0
 60 61  1  0  0  0
 61 62  1  0  0  0
 62 63  1  0  0  0
 63 64  1  0  0  0
 64 65  1  0  0  0
 31 32  1  0  0  0
 32 33  1  0  0  0
 33 34  1  0  0  0
 34 35  1  0  0  0
 35 36  1  0  0  0
  8 10  1  0  0  0
  9 17  1  0  0  0
 12 13  2  0  0  0
 12 17  1  0  0  0
 13 14  1  0  0  0
 14 15  2  0  0  0
 15 16  1  0  0  0
 16 17  2  0  0  0
M  END
> <minimizedAffinity>
-9.12890

> <CNNscore>
0.2423958331

> <CNNaffinity>
7.5692710876

> <CNN_VS>
1.8347597122

> <CNNaffinity_variance>
1.7652702332

$$$$
/media/chris/experiments/cd1a-new-docking/inputs/ligands/1xz0_ligand.pdb


 65 67  0  0  0  0  0  0  0  0999 V2000
  -42.2684   58.9349   65.4464 C   0  0  0  0  0  0  0  0  0  0  0  0
  -42.0335   57.5010   65.6276 N   0  0  0  0  0  0  0  0  0  0  0  0
  -41.9497   55.3188   64.9919 O   0  0  0  0  0  0  0  0  0  0  0  0
  -42.1590   56.4983   64.7408 C   0  0  0  0  0  0  0  0  0  0  0  0
  -41.7416   57.2324   66.5287 H   0  0  0  0  0  0  0  0  0  0  0  0
  -41.2550   57.0536   62.4926 N   0  0  0  0  0  0  0  0  0  0  0  0
  -42.4404   58.8999   62.0703 O   0  0  0  0  0  0  0  0  0  0  0  0
  -43.2552   58.1700   62.9867 C   0  0  0  0  0  0  0  0  0  0  0  0
  -41.2361   58.1399   61.8467 C   0  0  0  0  0  0  0  0  0  0  0  0
  -42.4765   56.8617   63.2975 C   0  0  0  0  0  0  0  0  0  0  0  0
  -39.6496   60.5419   62.1786 O   0  0  0  0  0  0  0  0  0  0  0  0
  -39.3944   59.7389   61.1385 C   0  0  0  0  0  0  0  0  0  0  0  0
  -38.3631   60.0652   60.2482 C   0  0  0  0  0  0  0  0  0  0  0  0
  -38.0817   59.2439   59.1435 C   0  0  0  0  0  0  0  0  0  0  0  0
  -38.8221   58.0813   58.9222 C   0  0  0  0  0  0  0  0  0  0  0  0
  -39.8479   57.7481   59.8111 C   0  0  0  0  0  0  0  0  0  0  0  0
  -40.1379   58.5738   60.9141 C   0  0  0  0  0  0  0  0  0  0  0  0
  -39.1387   61.3165   62.3089 H   0  0  0  0  0  0  0  0  0  0  0  0
  -40.9432   60.8357   66.0514 O   0  0  0  0  0  0  0  0  0  0  0  0
  -40.9840   59.6329   65.8512 C   0  0  0  0  0  0  0  0  0  0  0  0
  -39.7357   58.8684   65.9437 O   0  0  0  0  0  0  0  0  0  0  0  0
  -38.7063   58.9909   64.9442 C   0  0  0  0  0  0  0  0  0  0  0  0
  -38.3191   57.6801   64.2709 C   0  0  0  0  0  0  0  0  0  0  0  0
  -37.4969   59.6591   65.5811 C   0  0  0  0  0  0  0  0  0  0  0  0
  -36.5330   61.8878   65.8966 N   0  0  0  0  0  0  0  0  0  0  0  0
  -37.8322   61.4165   64.1061 O   0  0  0  0  0  0  0  0  0  0  0  0
  -37.3174   61.0944   65.1523 C   0  0  0  0  0  0  0  0  0  0  0  0
  -36.1684   61.5168   66.7324 H   0  0  0  0  0  0  0  0  0  0  0  0
  -34.1968   62.9991   64.1185 N   0  0  0  0  0  0  0  0  0  0  0  0
  -36.0272   64.0430   63.3277 O   0  0  0  0  0  0  0  0  0  0  0  0
  -33.5291   62.0681   65.0400 C   0  0  0  0  0  0  0  0  0  0  0  0
  -33.2675   62.7415   66.4004 C   0  0  0  0  0  0  0  0  0  0  0  0
  -33.8948   64.1146   66.5760 C   0  0  0  0  0  0  0  0  0  0  0  0
  -35.4244   64.0719   66.6257 C   0  0  0  0  0  0  0  0  0  0  0  0
  -36.1801   63.2701   65.5529 C   0  0  0  0  0  0  0  0  0  0  0  0
  -35.4556   63.4520   64.2336 C   0  0  0  0  0  0  0  0  0  0  0  0
  -34.1819   63.3966   61.4045 Si  0  0  0  0  0  0  0  0  0  0  0  0
  -33.4765   63.4335   63.0468 O   0  0  0  0  0  0  0  0  0  0  0  0
  -33.2361   63.8985   60.4717 H   0  0  0  0  0  0  0  0  0  0  0  0
  -35.3508   64.2022   61.3733 H   0  0  0  0  0  0  0  0  0  0  0  0
  -34.5190   62.0599   61.0640 H   0  0  0  0  0  0  0  0  0  0  0  0
  -44.6563   58.5597   66.4716 C   0  0  0  0  0  0  0  0  0  0  0  0
  -43.5349   59.5380   66.1008 C   0  0  0  0  0  0  0  0  0  0  0  0
  -46.0530   59.1601   66.7054 C   0  0  0  0  0  0  0  0  0  0  0  0
  -46.8387   59.6374   65.4668 C   0  0  0  0  0  0  0  0  0  0  0  0
  -48.2661   59.6433   65.8019 N   0  0  0  0  0  0  0  0  0  0  0  0
  -49.2738   58.9037   65.2677 C   0  0  0  0  0  0  0  0  0  0  0  0
  -48.6078   60.5465   66.8183 O   0  0  0  0  0  0  0  0  0  0  0  0
  -49.0573   58.0787   64.3804 O   0  0  0  0  0  0  0  0  0  0  0  0
  -49.5617   60.4975   66.9871 H   0  0  0  0  0  0  0  0  0  0  0  0
  -50.7015   59.1138   65.7827 C   0  0  0  0  0  0  0  0  0  0  0  0
  -51.5053   60.1717   65.0143 C   0  0  0  0  0  0  0  0  0  0  0  0
  -51.7334   59.7102   63.5620 C   0  0  0  0  0  0  0  0  0  0  0  0
  -51.2278   60.7162   62.5105 C   0  0  0  0  0  0  0  0  0  0  0  0
  -49.8297   60.4043   61.9448 C   0  0  0  0  0  0  0  0  0  0  0  0
  -49.7604   60.5369   60.4090 C   0  0  0  0  0  0  0  0  0  0  0  0
  -49.5157   59.2060   59.6604 C   0  0  0  0  0  0  0  0  0  0  0  0
  -50.6403   58.1821   59.8534 C   0  0  0  0  0  0  0  0  0  0  0  0
  -50.2675   56.9469   60.6794 C   0  0  0  0  0  0  0  0  0  0  0  0
  -48.7508   56.6847   60.6434 C   0  0  0  0  0  0  0  0  0  0  0  0
  -48.3031   55.7765   59.4881 C   0  0  0  0  0  0  0  0  0  0  0  0
  -47.2614   56.3744   58.5368 C   0  0  0  0  0  0  0  0  0  0  0  0
  -47.5537   56.1260   57.0360 C   0  0  0  0  0  0  0  0  0  0  0  0
  -47.7919   57.4489   56.2801 C   0  0  0  0  0  0  0  0  0  0  0  0
  -47.2312   58.7278   56.9138 C   0  0  0  0  0  0  0  0  0  0  0  0
 46 47  1  0  0  0
 46 48  1  0  0  0
 46 45  1  0  0  0
 47 49  2  0  0  0
 47 51  1  0  0  0
 19 20  2  0  0  0
 37 38  1  0  0  0
 37 39  1  0  0  0
 37 40  1  0  0  0
 37 41  1  0  0  0
 48 50  1  0  0  0
 38 29  1  0  0  0
 45 44  1  0  0  0
 25 27  1  0  0  0
 25 35  1  0  0  0
 25 28  1  0  0  0
 21 20  1  0  0  0
 21 22  1  0  0  0
 44 42  1  0  0  0
  2  1  1  0  0  0
  2  4  1  0  0  0
  2  5  1  0  0  0
 26 27  2  0  0  0
 42 43  2  0  0  0
 29 31  1  0  0  0
 29 36  1  0  0  0
  3  4  2  0  0  0
 43  1  1  0  0  0
  6  9  2  0  0  0
  6 10  1  0  0  0
  1 20  1  0  0  0
 30 36  2  0  0  0
  7  8  1  0  0  0
  7  9  1  0  0  0
 22 24  1  0  0  0
 22 23  1  0  0  0
 11 12  1  0  0  0
 11 18  1  0  0  0
 24 27  1  0  0  0
  4 10  1  0  0  0
 51 52  1  0  0  0
 52 53  1  0  0  0
 53 54  1  0  0  0
 54 55  1  0  0  0
 55 56  1  0  0  0
 56 57  1  0  0  0
 57 58  1  0  0  0
 58 59  1  0  0  0
 59 60  1  0  0  0
 60 61  1  0  0  0
 61 62  1  0  0  0
 62 63  1  0  0  0
 63 64  1  0  0  0
 64 65  1  0  0  0
 31 32  1  0  0  0
 32 33  1  0  0  0
 33 34  1  0  0  0
 34 35  1  0  0  0
 35 36  1  0  0  0
  8 10  1  0  0  0
  9 17  1  0  0  0
 12 13  2  0  0  0
 12 17  1  0  0  0
 13 14  1  0  0  0
 14 15  2  0  0  0
 15 16  1  0  0  0
 16 17  2  0  0  0
M  END
> <minimizedAffinity>
-11.09075

> <CNNscore>
0.2036793828

> <CNNaffinity>
7.2943944931

> <CNN_VS>
1.4857177734

> <CNNaffinity_variance>
1.2231996059

$$$$
/media/chris/experiments/cd1a-new-docking/inputs/ligands/1xz0_ligand.pdb


 65 67  0  0  0  0  0  0  0  0999 V2000
  -36.6052   61.0521   65.0696 C   0  0  0  0  0  0  0  0  0  0  0  0
  -36.5602   62.4187   65.5938 N   0  0  0  0  0  0  0  0  0  0  0  0
  -35.5803   64.2538   66.5130 O   0  0  0  0  0  0  0  0  0  0  0  0
  -35.5159   63.1096   66.0830 C   0  0  0  0  0  0  0  0  0  0  0  0
  -37.4185   62.9010   65.5869 H   0  0  0  0  0  0  0  0  0  0  0  0
  -33.4217   62.8583   64.7671 N   0  0  0  0  0  0  0  0  0  0  0  0
  -33.2533   60.6303   64.7744 O   0  0  0  0  0  0  0  0  0  0  0  0
  -34.0094   60.9221   65.9491 C   0  0  0  0  0  0  0  0  0  0  0  0
  -32.9585   61.8786   64.1166 C   0  0  0  0  0  0  0  0  0  0  0  0
  -34.1377   62.4699   65.9972 C   0  0  0  0  0  0  0  0  0  0  0  0
  -33.0147   64.1450   62.3118 O   0  0  0  0  0  0  0  0  0  0  0  0
  -32.2087   63.1146   62.0285 C   0  0  0  0  0  0  0  0  0  0  0  0
  -31.4032   63.1599   60.8830 C   0  0  0  0  0  0  0  0  0  0  0  0
  -30.5557   62.0871   60.5586 C   0  0  0  0  0  0  0  0  0  0  0  0
  -30.4967   60.9610   61.3815 C   0  0  0  0  0  0  0  0  0  0  0  0
  -31.2937   60.9137   62.5286 C   0  0  0  0  0  0  0  0  0  0  0  0
  -32.1504   61.9834   62.8517 C   0  0  0  0  0  0  0  0  0  0  0  0
  -33.0370   64.8918   61.7463 H   0  0  0  0  0  0  0  0  0  0  0  0
  -37.4820   62.0192   63.0619 O   0  0  0  0  0  0  0  0  0  0  0  0
  -36.7584   61.1760   63.5656 C   0  0  0  0  0  0  0  0  0  0  0  0
  -36.0788   60.2230   62.6819 O   0  0  0  0  0  0  0  0  0  0  0  0
  -35.7022   58.9116   63.1424 C   0  0  0  0  0  0  0  0  0  0  0  0
  -34.2942   58.4829   62.7482 C   0  0  0  0  0  0  0  0  0  0  0  0
  -36.7385   57.9138   62.6474 C   0  0  0  0  0  0  0  0  0  0  0  0
  -38.9904   58.6623   62.0432 N   0  0  0  0  0  0  0  0  0  0  0  0
  -37.2557   58.8932   60.6103 O   0  0  0  0  0  0  0  0  0  0  0  0
  -37.7136   58.5100   61.6623 C   0  0  0  0  0  0  0  0  0  0  0  0
  -39.2502   58.3087   62.9245 H   0  0  0  0  0  0  0  0  0  0  0  0
  -42.1159   58.3937   62.1595 N   0  0  0  0  0  0  0  0  0  0  0  0
  -41.7587   60.6158   62.1835 O   0  0  0  0  0  0  0  0  0  0  0  0
  -41.6419   57.0027   62.1139 C   0  0  0  0  0  0  0  0  0  0  0  0
  -41.3207   56.5834   60.6669 C   0  0  0  0  0  0  0  0  0  0  0  0
  -41.3745   57.7025   59.6401 C   0  0  0  0  0  0  0  0  0  0  0  0
  -40.2701   58.7452   59.8327 C   0  0  0  0  0  0  0  0  0  0  0  0
  -40.0274   59.3186   61.2388 C   0  0  0  0  0  0  0  0  0  0  0  0
  -41.3734   59.4857   61.9164 C   0  0  0  0  0  0  0  0  0  0  0  0
  -43.9697   60.1723   63.1206 Si  0  0  0  0  0  0  0  0  0  0  0  0
  -43.4233   58.5925   62.4870 O   0  0  0  0  0  0  0  0  0  0  0  0
  -45.3645   60.1205   63.3823 H   0  0  0  0  0  0  0  0  0  0  0  0
  -43.7058   61.1844   62.1601 H   0  0  0  0  0  0  0  0  0  0  0  0
  -43.2733   60.4669   64.3224 H   0  0  0  0  0  0  0  0  0  0  0  0
  -39.0594   60.1289   65.2066 C   0  0  0  0  0  0  0  0  0  0  0  0
  -37.6144   60.0732   65.7173 C   0  0  0  0  0  0  0  0  0  0  0  0
  -40.1389   59.5039   66.1066 C   0  0  0  0  0  0  0  0  0  0  0  0
  -41.0819   58.4631   65.4687 C   0  0  0  0  0  0  0  0  0  0  0  0
  -42.4529   58.9774   65.5442 N   0  0  0  0  0  0  0  0  0  0  0  0
  -43.5694   58.3703   66.0265 C   0  0  0  0  0  0  0  0  0  0  0  0
  -42.6006   60.2783   65.0429 O   0  0  0  0  0  0  0  0  0  0  0  0
  -43.5241   57.2336   66.4963 O   0  0  0  0  0  0  0  0  0  0  0  0
  -43.5274   60.5527   65.1238 H   0  0  0  0  0  0  0  0  0  0  0  0
  -44.9038   59.1216   65.9732 C   0  0  0  0  0  0  0  0  0  0  0  0
  -46.0025   58.4098   65.1720 C   0  0  0  0  0  0  0  0  0  0  0  0
  -46.9844   59.4436   64.5876 C   0  0  0  0  0  0  0  0  0  0  0  0
  -48.3383   59.4890   65.3213 C   0  0  0  0  0  0  0  0  0  0  0  0
  -49.2808   60.6159   64.8589 C   0  0  0  0  0  0  0  0  0  0  0  0
  -49.5529   60.5853   63.3402 C   0  0  0  0  0  0  0  0  0  0  0  0
  -51.0400   60.3993   62.9585 C   0  0  0  0  0  0  0  0  0  0  0  0
  -51.4903   58.9338   62.9561 C   0  0  0  0  0  0  0  0  0  0  0  0
  -51.3021   58.1923   61.6288 C   0  0  0  0  0  0  0  0  0  0  0  0
  -50.1044   57.2269   61.6904 C   0  0  0  0  0  0  0  0  0  0  0  0
  -48.7820   57.8439   61.2102 C   0  0  0  0  0  0  0  0  0  0  0  0
  -48.2097   57.2644   59.9124 C   0  0  0  0  0  0  0  0  0  0  0  0
  -48.6570   58.0110   58.6308 C   0  0  0  0  0  0  0  0  0  0  0  0
  -47.9307   57.4734   57.3811 C   0  0  0  0  0  0  0  0  0  0  0  0
  -47.1317   58.4826   56.5478 C   0  0  0  0  0  0  0  0  0  0  0  0
 46 47  1  0  0  0
 46 48  1  0  0  0
 46 45  1  0  0  0
 47 49  2  0  0  0
 47 51  1  0  0  0
 19 20  2  0  0  0
 37 38  1  0  0  0
 37 39  1  0  0  0
 37 40  1  0  0  0
 37 41  1  0  0  0
 48 50  1  0  0  0
 38 29  1  0  0  0
 45 44  1  0  0  0
 25 27  1  0  0  0
 25 35  1  0  0  0
 25 28  1  0  0  0
 21 20  1  0  0  0
 21 22  1  0  0  0
 44 42  1  0  0  0
  2  1  1  0  0  0
  2  4  1  0  0  0
  2  5  1  0  0  0
 26 27  2  0  0  0
 42 43  2  0  0  0
 29 31  1  0  0  0
 29 36  1  0  0  0
  3  4  2  0  0  0
 43  1  1  0  0  0
  6  9  2  0  0  0
  6 10  1  0  0  0
  1 20  1  0  0  0
 30 36  2  0  0  0
  7  8  1  0  0  0
  7  9  1  0  0  0
 22 24  1  0  0  0
 22 23  1  0  0  0
 11 12  1  0  0  0
 11 18  1  0  0  0
 24 27  1  0  0  0
  4 10  1  0  0  0
 51 52  1  0  0  0
 52 53  1  0  0  0
 53 54  1  0  0  0
 54 55  1  0  0  0
 55 56  1  0  0  0
 56 57  1  0  0  0
 57 58  1  0  0  0
 58 59  1  0  0  0
 59 60  1  0  0  0
 60 61  1  0  0  0
 61 62  1  0  0  0
 62 63  1  0  0  0
 63 64  1  0  0  0
 64 65  1  0  0  0
 31 32  1  0  0  0
 32 33  1  0  0  0
 33 34  1  0  0  0
 34 35  1  0  0  0
 35 36  1  0  0  0
  8 10  1  0  0  0
  9 17  1  0  0  0
 12 13  2  0  0  0
 12 17  1  0  0  0
 13 14  1  0  0  0
 14 15  2  0  0  0
 15 16  1  0  0  0
 16 17  2  0  0  0
M  END
> <minimizedAffinity>
-9.73079

> <CNNscore>
0.1882289201

> <CNNaffinity>
7.4142951965

> <CNN_VS>
1.3955848217

> <CNNaffinity_variance>
0.9178673625

$$$$
/media/chris/experiments/cd1a-new-docking/inputs/ligands/1xz0_ligand.pdb


 65 67  0  0  0  0  0  0  0  0999 V2000
  -33.2571   61.6055   64.3448 C   0  0  0  0  0  0  0  0  0  0  0  0
  -34.1508   62.7471   64.1394 N   0  0  0  0  0  0  0  0  0  0  0  0
  -36.1424   63.7761   63.7551 O   0  0  0  0  0  0  0  0  0  0  0  0
  -35.4787   62.7626   63.9297 C   0  0  0  0  0  0  0  0  0  0  0  0
  -33.7167   63.6306   64.1574 H   0  0  0  0  0  0  0  0  0  0  0  0
  -36.9861   61.1452   62.7932 N   0  0  0  0  0  0  0  0  0  0  0  0
  -38.5058   60.8688   64.4077 O   0  0  0  0  0  0  0  0  0  0  0  0
  -37.3246   61.2548   65.1094 C   0  0  0  0  0  0  0  0  0  0  0  0
  -38.1970   60.8472   62.9998 C   0  0  0  0  0  0  0  0  0  0  0  0
  -36.2285   61.4417   64.0239 C   0  0  0  0  0  0  0  0  0  0  0  0
  -41.0751   61.0192   63.2887 O   0  0  0  0  0  0  0  0  0  0  0  0
  -40.5682   60.5812   62.1300 C   0  0  0  0  0  0  0  0  0  0  0  0
  -41.4322   60.2331   61.0834 C   0  0  0  0  0  0  0  0  0  0  0  0
  -40.9252   59.7617   59.8607 C   0  0  0  0  0  0  0  0  0  0  0  0
  -39.5479   59.6424   59.6672 C   0  0  0  0  0  0  0  0  0  0  0  0
  -38.6816   59.9942   60.7060 C   0  0  0  0  0  0  0  0  0  0  0  0
  -39.1869   60.4588   61.9354 C   0  0  0  0  0  0  0  0  0  0  0  0
  -42.0030   61.0931   63.3961 H   0  0  0  0  0  0  0  0  0  0  0  0
  -33.0141   61.6606   61.9630 O   0  0  0  0  0  0  0  0  0  0  0  0
  -32.5029   61.4134   63.0428 C   0  0  0  0  0  0  0  0  0  0  0  0
  -31.1474   60.8536   63.0604 O   0  0  0  0  0  0  0  0  0  0  0  0
  -30.0411   61.5504   62.4569 C   0  0  0  0  0  0  0  0  0  0  0  0
  -29.0538   60.6529   61.7211 C   0  0  0  0  0  0  0  0  0  0  0  0
  -29.3432   62.3665   63.5346 C   0  0  0  0  0  0  0  0  0  0  0  0
  -30.3451   64.5028   62.8802 N   0  0  0  0  0  0  0  0  0  0  0  0
  -30.4303   63.7762   65.0204 O   0  0  0  0  0  0  0  0  0  0  0  0
  -30.0682   63.6455   63.8736 C   0  0  0  0  0  0  0  0  0  0  0  0
  -29.9962   64.2927   61.9839 H   0  0  0  0  0  0  0  0  0  0  0  0
  -33.0758   65.3380   61.5762 N   0  0  0  0  0  0  0  0  0  0  0  0
  -33.3744   65.7399   63.7705 O   0  0  0  0  0  0  0  0  0  0  0  0
  -32.2613   64.8896   60.4372 C   0  0  0  0  0  0  0  0  0  0  0  0
  -31.3097   66.0087   59.9736 C   0  0  0  0  0  0  0  0  0  0  0  0
  -31.2686   67.2371   60.8674 C   0  0  0  0  0  0  0  0  0  0  0  0
  -30.6512   66.9580   62.2403 C   0  0  0  0  0  0  0  0  0  0  0  0
  -31.1313   65.7322   63.0351 C   0  0  0  0  0  0  0  0  0  0  0  0
  -32.6244   65.5861   62.8162 C   0  0  0  0  0  0  0  0  0  0  0  0
  -35.5389   65.6982   62.7283 Si  0  0  0  0  0  0  0  0  0  0  0  0
  -34.4094   65.5076   61.3557 O   0  0  0  0  0  0  0  0  0  0  0  0
  -36.8608   65.8581   62.2348 H   0  0  0  0  0  0  0  0  0  0  0  0
  -35.1747   66.8429   63.4855 H   0  0  0  0  0  0  0  0  0  0  0  0
  -35.4784   64.5450   63.5547 H   0  0  0  0  0  0  0  0  0  0  0  0
  -34.0185   59.1290   63.9191 C   0  0  0  0  0  0  0  0  0  0  0  0
  -33.8818   60.3017   64.8980 C   0  0  0  0  0  0  0  0  0  0  0  0
  -35.0045   58.0133   64.3049 C   0  0  0  0  0  0  0  0  0  0  0  0
  -35.9615   57.4994   63.2098 C   0  0  0  0  0  0  0  0  0  0  0  0
  -37.3290   57.5424   63.7368 N   0  0  0  0  0  0  0  0  0  0  0  0
  -38.4969   57.2354   63.1128 C   0  0  0  0  0  0  0  0  0  0  0  0
  -37.4107   57.9609   65.0724 O   0  0  0  0  0  0  0  0  0  0  0  0
  -38.5124   56.8477   61.9447 O   0  0  0  0  0  0  0  0  0  0  0  0
  -38.3390   57.9657   65.3536 H   0  0  0  0  0  0  0  0  0  0  0  0
  -39.8120   57.3845   63.8849 C   0  0  0  0  0  0  0  0  0  0  0  0
  -40.9270   56.4324   63.4314 C   0  0  0  0  0  0  0  0  0  0  0  0
  -42.1356   57.2395   62.9194 C   0  0  0  0  0  0  0  0  0  0  0  0
  -43.1221   57.6421   64.0321 C   0  0  0  0  0  0  0  0  0  0  0  0
  -43.9308   58.9199   63.7407 C   0  0  0  0  0  0  0  0  0  0  0  0
  -45.4499   58.7248   63.9296 C   0  0  0  0  0  0  0  0  0  0  0  0
  -46.1444   59.8429   64.7415 C   0  0  0  0  0  0  0  0  0  0  0  0
  -47.2650   60.5502   63.9707 C   0  0  0  0  0  0  0  0  0  0  0  0
  -48.2874   59.6245   63.3039 C   0  0  0  0  0  0  0  0  0  0  0  0
  -49.6126   60.3581   63.0283 C   0  0  0  0  0  0  0  0  0  0  0  0
  -50.5333   59.6296   62.0375 C   0  0  0  0  0  0  0  0  0  0  0  0
  -50.8900   58.1842   62.3998 C   0  0  0  0  0  0  0  0  0  0  0  0
  -50.8526   57.2008   61.2034 C   0  0  0  0  0  0  0  0  0  0  0  0
  -49.5926   57.4099   60.3391 C   0  0  0  0  0  0  0  0  0  0  0  0
  -49.8060   57.8496   58.8857 C   0  0  0  0  0  0  0  0  0  0  0  0
 46 47  1  0  0  0
 46 48  1  0  0  0
 46 45  1  0  0  0
 47 49  2  0  0  0
 47 51  1  0  0  0
 19 20  2  0  0  0
 37 38  1  0  0  0
 37 39  1  0  0  0
 37 40  1  0  0  0
 37 41  1  0  0  0
 48 50  1  0  0  0
 38 29  1  0  0  0
 45 44  1  0  0  0
 25 27  1  0  0  0
 25 35  1  0  0  0
 25 28  1  0  0  0
 21 20  1  0  0  0
 21 22  1  0  0  0
 44 42  1  0  0  0
  2  1  1  0  0  0
  2  4  1  0  0  0
  2  5  1  0  0  0
 26 27  2  0  0  0
 42 43  2  0  0  0
 29 31  1  0  0  0
 29 36  1  0  0  0
  3  4  2  0  0  0
 43  1  1  0  0  0
  6  9  2  0  0  0
  6 10  1  0  0  0
  1 20  1  0  0  0
 30 36  2  0  0  0
  7  8  1  0  0  0
  7  9  1  0  0  0
 22 24  1  0  0  0
 22 23  1  0  0  0
 11 12  1  0  0  0
 11 18  1  0  0  0
 24 27  1  0  0  0
  4 10  1  0  0  0
 51 52  1  0  0  0
 52 53  1  0  0  0
 53 54  1  0  0  0
 54 55  1  0  0  0
 55 56  1  0  0  0
 56 57  1  0  0  0
 57 58  1  0  0  0
 58 59  1  0  0  0
 59 60  1  0  0  0
 60 61  1  0  0  0
 61 62  1  0  0  0
 62 63  1  0  0  0
 63 64  1  0  0  0
 64 65  1  0  0  0
 31 32  1  0  0  0
 32 33  1  0  0  0
 33 34  1  0  0  0
 34 35  1  0  0  0
 35 36  1  0  0  0
  8 10  1  0  0  0
  9 17  1  0  0  0
 12 13  2  0  0  0
 12 17  1  0  0  0
 13 14  1  0  0  0
 14 15  2  0  0  0
 15 16  1  0  0  0
 16 17  2  0  0  0
M  END
> <minimizedAffinity>
-9.16110

> <CNNscore>
0.1841734499

> <CNNaffinity>
7.1468749046

> <CNN_VS>
1.3162646294

> <CNNaffinity_variance>
0.4758653641

$$$$
/media/chris/experiments/cd1a-new-docking/inputs/ligands/1xz0_ligand.pdb


 65 67  0  0  0  0  0  0  0  0999 V2000
  -37.6268   58.1837   63.9788 C   0  0  0  0  0  0  0  0  0  0  0  0
  -37.5287   58.5750   62.5712 N   0  0  0  0  0  0  0  0  0  0  0  0
  -37.6461   60.0029   60.8047 O   0  0  0  0  0  0  0  0  0  0  0  0
  -37.7422   59.7748   62.0035 C   0  0  0  0  0  0  0  0  0  0  0  0
  -37.2690   57.8557   61.9511 H   0  0  0  0  0  0  0  0  0  0  0  0
  -36.7700   61.5548   63.4410 N   0  0  0  0  0  0  0  0  0  0  0  0
  -37.9935   61.2418   65.2842 O   0  0  0  0  0  0  0  0  0  0  0  0
  -38.8204   60.7429   64.2335 C   0  0  0  0  0  0  0  0  0  0  0  0
  -36.7592   61.6990   64.6967 C   0  0  0  0  0  0  0  0  0  0  0  0
  -38.0150   60.9571   62.9220 C   0  0  0  0  0  0  0  0  0  0  0  0
  -36.9814   64.1619   66.2071 O   0  0  0  0  0  0  0  0  0  0  0  0
  -35.8150   63.5055   66.2117 C   0  0  0  0  0  0  0  0  0  0  0  0
  -34.7391   64.0099   66.9540 C   0  0  0  0  0  0  0  0  0  0  0  0
  -33.5016   63.3446   66.9675 C   0  0  0  0  0  0  0  0  0  0  0  0
  -33.3289   62.1616   66.2467 C   0  0  0  0  0  0  0  0  0  0  0  0
  -34.4010   61.6509   65.5097 C   0  0  0  0  0  0  0  0  0  0  0  0
  -35.6397   62.3200   65.4873 C   0  0  0  0  0  0  0  0  0  0  0  0
  -37.0755   64.9535   66.6997 H   0  0  0  0  0  0  0  0  0  0  0  0
  -36.2202   56.8302   65.3661 O   0  0  0  0  0  0  0  0  0  0  0  0
  -36.3860   57.3658   64.2825 C   0  0  0  0  0  0  0  0  0  0  0  0
  -35.3178   57.2617   63.2829 O   0  0  0  0  0  0  0  0  0  0  0  0
  -34.0991   58.0187   63.4071 C   0  0  0  0  0  0  0  0  0  0  0  0
  -33.6809   58.3132   64.8423 C   0  0  0  0  0  0  0  0  0  0  0  0
  -34.2484   59.3025   62.6044 C   0  0  0  0  0  0  0  0  0  0  0  0
  -32.9647   61.3741   62.3666 N   0  0  0  0  0  0  0  0  0  0  0  0
  -31.9412   59.3571   62.3797 O   0  0  0  0  0  0  0  0  0  0  0  0
  -32.9436   60.0338   62.4063 C   0  0  0  0  0  0  0  0  0  0  0  0
  -33.8425   61.8189   62.3943 H   0  0  0  0  0  0  0  0  0  0  0  0
  -32.4719   64.2813   63.4435 N   0  0  0  0  0  0  0  0  0  0  0  0
  -30.6953   63.1166   64.1868 O   0  0  0  0  0  0  0  0  0  0  0  0
  -33.7426   64.3851   62.7111 C   0  0  0  0  0  0  0  0  0  0  0  0
  -33.4894   64.5377   61.1994 C   0  0  0  0  0  0  0  0  0  0  0  0
  -32.0436   64.3676   60.7632 C   0  0  0  0  0  0  0  0  0  0  0  0
  -31.5282   62.9374   60.9441 C   0  0  0  0  0  0  0  0  0  0  0  0
  -31.7715   62.2243   62.2847 C   0  0  0  0  0  0  0  0  0  0  0  0
  -31.6183   63.2460   63.3944 C   0  0  0  0  0  0  0  0  0  0  0  0
  -33.3908   66.4443   64.8582 Si  0  0  0  0  0  0  0  0  0  0  0  0
  -32.1355   65.3253   64.2516 O   0  0  0  0  0  0  0  0  0  0  0  0
  -32.7857   67.4376   65.6730 H   0  0  0  0  0  0  0  0  0  0  0  0
  -34.3415   65.7188   65.6238 H   0  0  0  0  0  0  0  0  0  0  0  0
  -34.0421   67.0653   63.7598 H   0  0  0  0  0  0  0  0  0  0  0  0
  -39.9904   57.2218   63.3604 C   0  0  0  0  0  0  0  0  0  0  0  0
  -38.9418   57.5110   64.4416 C   0  0  0  0  0  0  0  0  0  0  0  0
  -41.4306   56.9709   63.8386 C   0  0  0  0  0  0  0  0  0  0  0  0
  -42.0024   57.9262   64.9062 C   0  0  0  0  0  0  0  0  0  0  0  0
  -43.4566   57.9930   64.7320 N   0  0  0  0  0  0  0  0  0  0  0  0
  -44.2018   58.9471   64.1138 C   0  0  0  0  0  0  0  0  0  0  0  0
  -44.1466   56.9077   65.2903 O   0  0  0  0  0  0  0  0  0  0  0  0
  -43.6734   59.9257   63.5865 O   0  0  0  0  0  0  0  0  0  0  0  0
  -45.0984   57.0171   65.1386 H   0  0  0  0  0  0  0  0  0  0  0  0
  -45.7261   58.7944   64.0844 C   0  0  0  0  0  0  0  0  0  0  0  0
  -46.4982   60.0293   64.5686 C   0  0  0  0  0  0  0  0  0  0  0  0
  -46.9361   59.8381   66.0335 C   0  0  0  0  0  0  0  0  0  0  0  0
  -48.4300   59.4959   66.1892 C   0  0  0  0  0  0  0  0  0  0  0  0
  -49.3697   60.2893   65.2622 C   0  0  0  0  0  0  0  0  0  0  0  0
  -50.7994   59.7101   65.2187 C   0  0  0  0  0  0  0  0  0  0  0  0
  -51.7133   60.3373   64.1403 C   0  0  0  0  0  0  0  0  0  0  0  0
  -51.5221   59.7252   62.7478 C   0  0  0  0  0  0  0  0  0  0  0  0
  -51.1224   58.2464   62.7310 C   0  0  0  0  0  0  0  0  0  0  0  0
  -51.4714   57.5861   61.3847 C   0  0  0  0  0  0  0  0  0  0  0  0
  -50.2531   57.0400   60.6247 C   0  0  0  0  0  0  0  0  0  0  0  0
  -49.6611   57.9698   59.5604 C   0  0  0  0  0  0  0  0  0  0  0  0
  -48.2249   57.5956   59.1166 C   0  0  0  0  0  0  0  0  0  0  0  0
  -48.1224   57.4679   57.5832 C   0  0  0  0  0  0  0  0  0  0  0  0
  -47.2414   58.4888   56.8533 C   0  0  0  0  0  0  0  0  0  0  0  0
 46 47  1  0  0  0
 46 48  1  0  0  0
 46 45  1  0  0  0
 47 49  2  0  0  0
 47 51  1  0  0  0
 19 20  2  0  0  0
 37 38  1  0  0  0
 37 39  1  0  0  0
 37 40  1  0  0  0
 37 41  1  0  0  0
 48 50  1  0  0  0
 38 29  1  0  0  0
 45 44  1  0  0  0
 25 27  1  0  0  0
 25 35  1  0  0  0
 25 28  1  0  0  0
 21 20  1  0  0  0
 21 22  1  0  0  0
 44 42  1  0  0  0
  2  1  1  0  0  0
  2  4  1  0  0  0
  2  5  1  0  0  0
 26 27  2  0  0  0
 42 43  2  0  0  0
 29 31  1  0  0  0
 29 36  1  0  0  0
  3  4  2  0  0  0
 43  1  1  0  0  0
  6  9  2  0  0  0
  6 10  1  0  0  0
  1 20  1  0  0  0
 30 36  2  0  0  0
  7  8  1  0  0  0
  7  9  1  0  0  0
 22 24  1  0  0  0
 22 23  1  0  0  0
 11 12  1  0  0  0
 11 18  1  0  0  0
 24 27  1  0  0  0
  4 10  1  0  0  0
 51 52  1  0  0  0
 52 53  1  0  0  0
 53 54  1  0  0  0
 54 55  1  0  0  0
 55 56  1  0  0  0
 56 57  1  0  0  0
 57 58  1  0  0  0
 58 59  1  0  0  0
 59 60  1  0  0  0
 60 61  1  0  0  0
 61 62  1  0  0  0
 62 63  1  0  0  0
 63 64  1  0  0  0
 64 65  1  0  0  0
 31 32  1  0  0  0
 32 33  1  0  0  0
 33 34  1  0  0  0
 34 35  1  0  0  0
 35 36  1  0  0  0
  8 10  1  0  0  0
  9 17  1  0  0  0
 12 13  2  0  0  0
 12 17  1  0  0  0
 13 14  1  0  0  0
 14 15  2  0  0  0
 15 16  1  0  0  0
 16 17  2  0  0  0
M  END
> <minimizedAffinity>
-10.35161

> <CNNscore>
0.1813383549

> <CNNaffinity>
6.6736335754

> <CNN_VS>
1.2101857662

> <CNNaffinity_variance>
0.9219291806

$$$$
/media/chris/experiments/cd1a-new-docking/inputs/ligands/1xz0_ligand.pdb


 65 67  0  0  0  0  0  0  0  0999 V2000
  -37.6115   58.0945   62.7608 C   0  0  0  0  0  0  0  0  0  0  0  0
  -37.5478   58.2823   61.3100 N   0  0  0  0  0  0  0  0  0  0  0  0
  -37.8463   59.3973   59.3503 O   0  0  0  0  0  0  0  0  0  0  0  0
  -37.9288   59.3381   60.5701 C   0  0  0  0  0  0  0  0  0  0  0  0
  -37.1718   57.5264   60.8034 H   0  0  0  0  0  0  0  0  0  0  0  0
  -37.3143   61.1909   62.1095 N   0  0  0  0  0  0  0  0  0  0  0  0
  -39.0108   61.0395   63.5555 O   0  0  0  0  0  0  0  0  0  0  0  0
  -39.5368   60.4880   62.3490 C   0  0  0  0  0  0  0  0  0  0  0  0
  -37.6437   61.4233   63.3074 C   0  0  0  0  0  0  0  0  0  0  0  0
  -38.3927   60.5889   61.3025 C   0  0  0  0  0  0  0  0  0  0  0  0
  -37.0604   60.2992   65.9137 O   0  0  0  0  0  0  0  0  0  0  0  0
  -36.5025   61.4681   65.5759 C   0  0  0  0  0  0  0  0  0  0  0  0
  -35.6421   62.1108   66.4756 C   0  0  0  0  0  0  0  0  0  0  0  0
  -35.0515   63.3430   66.1485 C   0  0  0  0  0  0  0  0  0  0  0  0
  -35.3068   63.9418   64.9136 C   0  0  0  0  0  0  0  0  0  0  0  0
  -36.1595   63.3016   64.0100 C   0  0  0  0  0  0  0  0  0  0  0  0
  -36.7597   62.0709   64.3385 C   0  0  0  0  0  0  0  0  0  0  0  0
  -36.8736   59.9145   66.7474 H   0  0  0  0  0  0  0  0  0  0  0  0
  -35.9633   56.7982   63.9178 O   0  0  0  0  0  0  0  0  0  0  0  0
  -36.2012   57.7640   63.2113 C   0  0  0  0  0  0  0  0  0  0  0  0
  -35.0929   58.6553   62.8531 O   0  0  0  0  0  0  0  0  0  0  0  0
  -33.7378   58.3583   63.2391 C   0  0  0  0  0  0  0  0  0  0  0  0
  -33.4375   58.5814   64.7162 C   0  0  0  0  0  0  0  0  0  0  0  0
  -32.7996   59.1709   62.3594 C   0  0  0  0  0  0  0  0  0  0  0  0
  -31.5844   61.2080   62.9673 N   0  0  0  0  0  0  0  0  0  0  0  0
  -33.8267   61.2263   62.6711 O   0  0  0  0  0  0  0  0  0  0  0  0
  -32.7715   60.6365   62.7167 C   0  0  0  0  0  0  0  0  0  0  0  0
  -30.7901   60.6265   62.9795 H   0  0  0  0  0  0  0  0  0  0  0  0
  -31.3386   63.6113   60.9627 N   0  0  0  0  0  0  0  0  0  0  0  0
  -32.8743   64.3022   62.4560 O   0  0  0  0  0  0  0  0  0  0  0  0
  -30.3882   62.6172   60.4428 C   0  0  0  0  0  0  0  0  0  0  0  0
  -29.0557   62.6823   61.2128 C   0  0  0  0  0  0  0  0  0  0  0  0
  -29.0534   63.5924   62.4299 C   0  0  0  0  0  0  0  0  0  0  0  0
  -29.9525   63.0833   63.5597 C   0  0  0  0  0  0  0  0  0  0  0  0
  -31.3861   62.6390   63.2249 C   0  0  0  0  0  0  0  0  0  0  0  0
  -31.9330   63.5765   62.1663 C   0  0  0  0  0  0  0  0  0  0  0  0
  -32.3684   66.1495   60.8180 Si  0  0  0  0  0  0  0  0  0  0  0  0
  -31.6511   64.6561   60.1462 O   0  0  0  0  0  0  0  0  0  0  0  0
  -32.5983   67.0778   59.7683 H   0  0  0  0  0  0  0  0  0  0  0  0
  -31.4768   66.7180   61.7657 H   0  0  0  0  0  0  0  0  0  0  0  0
  -33.5997   65.8389   61.4533 H   0  0  0  0  0  0  0  0  0  0  0  0
  -39.8461   56.7722   62.3706 C   0  0  0  0  0  0  0  0  0  0  0  0
  -38.6818   57.1185   63.3069 C   0  0  0  0  0  0  0  0  0  0  0  0
  -41.1076   56.1790   63.0208 C   0  0  0  0  0  0  0  0  0  0  0  0
  -42.4015   57.0163   62.9574 C   0  0  0  0  0  0  0  0  0  0  0  0
  -43.0978   56.8847   64.2409 N   0  0  0  0  0  0  0  0  0  0  0  0
  -43.9302   57.7649   64.8574 C   0  0  0  0  0  0  0  0  0  0  0  0
  -42.8520   55.6716   64.8993 O   0  0  0  0  0  0  0  0  0  0  0  0
  -44.2086   58.8470   64.3411 O   0  0  0  0  0  0  0  0  0  0  0  0
  -43.3416   55.6530   65.7365 H   0  0  0  0  0  0  0  0  0  0  0  0
  -44.5216   57.3955   66.2218 C   0  0  0  0  0  0  0  0  0  0  0  0
  -46.0532   57.2993   66.2459 C   0  0  0  0  0  0  0  0  0  0  0  0
  -46.6483   58.5230   66.9689 C   0  0  0  0  0  0  0  0  0  0  0  0
  -47.2790   59.5546   66.0144 C   0  0  0  0  0  0  0  0  0  0  0  0
  -48.7886   59.3671   65.7741 C   0  0  0  0  0  0  0  0  0  0  0  0
  -49.1450   59.2223   64.2797 C   0  0  0  0  0  0  0  0  0  0  0  0
  -50.5380   58.6079   64.0088 C   0  0  0  0  0  0  0  0  0  0  0  0
  -51.1680   59.0811   62.6936 C   0  0  0  0  0  0  0  0  0  0  0  0
  -51.2919   58.0115   61.6039 C   0  0  0  0  0  0  0  0  0  0  0  0
  -50.1154   57.0196   61.6549 C   0  0  0  0  0  0  0  0  0  0  0  0
  -49.5613   56.6393   60.2735 C   0  0  0  0  0  0  0  0  0  0  0  0
  -48.2047   57.2512   59.9091 C   0  0  0  0  0  0  0  0  0  0  0  0
  -48.2552   58.2523   58.7280 C   0  0  0  0  0  0  0  0  0  0  0  0
  -48.5192   57.5340   57.3891 C   0  0  0  0  0  0  0  0  0  0  0  0
  -47.6203   57.9089   56.2047 C   0  0  0  0  0  0  0  0  0  0  0  0
 46 47  1  0  0  0
 46 48  1  0  0  0
 46 45  1  0  0  0
 47 49  2  0  0  0
 47 51  1  0  0  0
 19 20  2  0  0  0
 37 38  1  0  0  0
 37 39  1  0  0  0
 37 40  1  0  0  0
 37 41  1  0  0  0
 48 50  1  0  0  0
 38 29  1  0  0  0
 45 44  1  0  0  0
 25 27  1  0  0  0
 25 35  1  0  0  0
 25 28  1  0  0  0
 21 20  1  0  0  0
 21 22  1  0  0  0
 44 42  1  0  0  0
  2  1  1  0  0  0
  2  4  1  0  0  0
  2  5  1  0  0  0
 26 27  2  0  0  0
 42 43  2  0  0  0
 29 31  1  0  0  0
 29 36  1  0  0  0
  3  4  2  0  0  0
 43  1  1  0  0  0
  6  9  2  0  0  0
  6 10  1  0  0  0
  1 20  1  0  0  0
 30 36  2  0  0  0
  7  8  1  0  0  0
  7  9  1  0  0  0
 22 24  1  0  0  0
 22 23  1  0  0  0
 11 12  1  0  0  0
 11 18  1  0  0  0
 24 27  1  0  0  0
  4 10  1  0  0  0
 51 52  1  0  0  0
 52 53  1  0  0  0
 53 54  1  0  0  0
 54 55  1  0  0  0
 55 56  1  0  0  0
 56 57  1  0  0  0
 57 58  1  0  0  0
 58 59  1  0  0  0
 59 60  1  0  0  0
 60 61  1  0  0  0
 61 62  1  0  0  0
 62 63  1  0  0  0
 63 64  1  0  0  0
 64 65  1  0  0  0
 31 32  1  0  0  0
 32 33  1  0  0  0
 33 34  1  0  0  0
 34 35  1  0  0  0
 35 36  1  0  0  0
  8 10  1  0  0  0
  9 17  1  0  0  0
 12 13  2  0  0  0
 12 17  1  0  0  0
 13 14  1  0  0  0
 14 15  2  0  0  0
 15 16  1  0  0  0
 16 17  2  0  0  0
M  END
> <minimizedAffinity>
-9.83076

> <CNNscore>
0.1805785894

> <CNNaffinity>
6.7639145851

> <CNN_VS>
1.2214181423

> <CNNaffinity_variance>
0.6876490116

$$$$
/media/chris/experiments/cd1a-new-docking/inputs/ligands/1xz0_ligand.pdb


 65 67  0  0  0  0  0  0  0  0999 V2000
  -35.3971   61.4379   64.7492 C   0  0  0  0  0  0  0  0  0  0  0  0
  -34.4349   60.5733   65.4354 N   0  0  0  0  0  0  0  0  0  0  0  0
  -33.1000   58.7489   65.6859 O   0  0  0  0  0  0  0  0  0  0  0  0
  -33.8940   59.4110   65.0306 C   0  0  0  0  0  0  0  0  0  0  0  0
  -34.1418   60.8886   66.3208 H   0  0  0  0  0  0  0  0  0  0  0  0
  -35.5983   59.2180   63.2310 N   0  0  0  0  0  0  0  0  0  0  0  0
  -35.3540   57.0543   62.7299 O   0  0  0  0  0  0  0  0  0  0  0  0
  -34.0866   57.4279   63.2690 C   0  0  0  0  0  0  0  0  0  0  0  0
  -36.2093   58.2141   62.7657 C   0  0  0  0  0  0  0  0  0  0  0  0
  -34.2023   58.9378   63.6174 C   0  0  0  0  0  0  0  0  0  0  0  0
  -37.5762   60.5564   61.7450 O   0  0  0  0  0  0  0  0  0  0  0  0
  -38.2244   59.3854   61.7572 C   0  0  0  0  0  0  0  0  0  0  0  0
  -39.5342   59.3136   61.2650 C   0  0  0  0  0  0  0  0  0  0  0  0
  -40.2394   58.0983   61.2756 C   0  0  0  0  0  0  0  0  0  0  0  0
  -39.6391   56.9388   61.7693 C   0  0  0  0  0  0  0  0  0  0  0  0
  -38.3304   57.0039   62.2557 C   0  0  0  0  0  0  0  0  0  0  0  0
  -37.6243   58.2221   62.2544 C   0  0  0  0  0  0  0  0  0  0  0  0
  -37.9979   61.3220   61.4072 H   0  0  0  0  0  0  0  0  0  0  0  0
  -35.3596   63.7809   64.2554 O   0  0  0  0  0  0  0  0  0  0  0  0
  -34.7395   62.7996   64.6308 C   0  0  0  0  0  0  0  0  0  0  0  0
  -33.3062   62.9444   64.9062 O   0  0  0  0  0  0  0  0  0  0  0  0
  -32.8301   63.3588   66.2005 C   0  0  0  0  0  0  0  0  0  0  0  0
  -33.9280   63.7371   67.1870 C   0  0  0  0  0  0  0  0  0  0  0  0
  -31.8484   64.5047   66.0059 C   0  0  0  0  0  0  0  0  0  0  0  0
  -31.7292   65.0966   63.6328 N   0  0  0  0  0  0  0  0  0  0  0  0
  -32.9792   66.3047   65.0798 O   0  0  0  0  0  0  0  0  0  0  0  0
  -32.2067   65.4031   64.8479 C   0  0  0  0  0  0  0  0  0  0  0  0
  -31.1041   64.3391   63.5645 H   0  0  0  0  0  0  0  0  0  0  0  0
  -33.5338   64.2164   61.2197 N   0  0  0  0  0  0  0  0  0  0  0  0
  -34.2972   66.2657   61.7518 O   0  0  0  0  0  0  0  0  0  0  0  0
  -32.6242   63.0781   61.4160 C   0  0  0  0  0  0  0  0  0  0  0  0
  -31.2651   63.3439   60.7416 C   0  0  0  0  0  0  0  0  0  0  0  0
  -31.0767   64.7485   60.1929 C   0  0  0  0  0  0  0  0  0  0  0  0
  -31.0073   65.8151   61.2890 C   0  0  0  0  0  0  0  0  0  0  0  0
  -32.0728   65.8108   62.3978 C   0  0  0  0  0  0  0  0  0  0  0  0
  -33.4008   65.4334   61.7713 C   0  0  0  0  0  0  0  0  0  0  0  0
  -35.9893   65.1563   60.4379 Si  0  0  0  0  0  0  0  0  0  0  0  0
  -34.6134   64.0151   60.4134 O   0  0  0  0  0  0  0  0  0  0  0  0
  -36.9779   64.7255   59.5139 H   0  0  0  0  0  0  0  0  0  0  0  0
  -35.5359   66.4523   60.0758 H   0  0  0  0  0  0  0  0  0  0  0  0
  -36.5471   65.1973   61.7430 H   0  0  0  0  0  0  0  0  0  0  0  0
  -37.5375   60.1486   65.5559 C   0  0  0  0  0  0  0  0  0  0  0  0
  -36.8370   61.4915   65.3149 C   0  0  0  0  0  0  0  0  0  0  0  0
  -39.0693   60.1786   65.6917 C   0  0  0  0  0  0  0  0  0  0  0  0
  -39.8604   59.0003   65.0874 C   0  0  0  0  0  0  0  0  0  0  0  0
  -41.1105   59.5242   64.5284 N   0  0  0  0  0  0  0  0  0  0  0  0
  -42.3192   58.9130   64.4136 C   0  0  0  0  0  0  0  0  0  0  0  0
  -41.0144   60.8407   64.0560 O   0  0  0  0  0  0  0  0  0  0  0  0
  -42.4920   57.7624   64.8152 O   0  0  0  0  0  0  0  0  0  0  0  0
  -41.8731   61.1208   63.7023 H   0  0  0  0  0  0  0  0  0  0  0  0
  -43.4782   59.6772   63.7651 C   0  0  0  0  0  0  0  0  0  0  0  0
  -44.8326   58.9590   63.8372 C   0  0  0  0  0  0  0  0  0  0  0  0
  -45.7585   59.6760   64.8386 C   0  0  0  0  0  0  0  0  0  0  0  0
  -47.1854   59.9022   64.3036 C   0  0  0  0  0  0  0  0  0  0  0  0
  -47.8724   58.6378   63.7546 C   0  0  0  0  0  0  0  0  0  0  0  0
  -49.0120   58.1314   64.6635 C   0  0  0  0  0  0  0  0  0  0  0  0
  -50.4226   58.6152   64.2539 C   0  0  0  0  0  0  0  0  0  0  0  0
  -50.5692   58.8620   62.7479 C   0  0  0  0  0  0  0  0  0  0  0  0
  -51.2910   57.7573   61.9698 C   0  0  0  0  0  0  0  0  0  0  0  0
  -50.7170   57.6047   60.5494 C   0  0  0  0  0  0  0  0  0  0  0  0
  -49.5398   56.6222   60.4557 C   0  0  0  0  0  0  0  0  0  0  0  0
  -48.2634   57.1725   59.8111 C   0  0  0  0  0  0  0  0  0  0  0  0
  -47.5944   56.2077   58.8004 C   0  0  0  0  0  0  0  0  0  0  0  0
  -46.8899   56.9780   57.6652 C   0  0  0  0  0  0  0  0  0  0  0  0
  -47.6337   58.1782   57.0673 C   0  0  0  0  0  0  0  0  0  0  0  0
 46 47  1  0  0  0
 46 48  1  0  0  0
 46 45  1  0  0  0
 47 49  2  0  0  0
 47 51  1  0  0  0
 19 20  2  0  0  0
 37 38  1  0  0  0
 37 39  1  0  0  0
 37 40  1  0  0  0
 37 41  1  0  0  0
 48 50  1  0  0  0
 38 29  1  0  0  0
 45 44  1  0  0  0
 25 27  1  0  0  0
 25 35  1  0  0  0
 25 28  1  0  0  0
 21 20  1  0  0  0
 21 22  1  0  0  0
 44 42  1  0  0  0
  2  1  1  0  0  0
  2  4  1  0  0  0
  2  5  1  0  0  0
 26 27  2  0  0  0
 42 43  2  0  0  0
 29 31  1  0  0  0
 29 36  1  0  0  0
  3  4  2  0  0  0
 43  1  1  0  0  0
  6  9  2  0  0  0
  6 10  1  0  0  0
  1 20  1  0  0  0
 30 36  2  0  0  0
  7  8  1  0  0  0
  7  9  1  0  0  0
 22 24  1  0  0  0
 22 23  1  0  0  0
 11 12  1  0  0  0
 11 18  1  0  0  0
 24 27  1  0  0  0
  4 10  1  0  0  0
 51 52  1  0  0  0
 52 53  1  0  0  0
 53 54  1  0  0  0
 54 55  1  0  0  0
 55 56  1  0  0  0
 56 57  1  0  0  0
 57 58  1  0  0  0
 58 59  1  0  0  0
 59 60  1  0  0  0
 60 61  1  0  0  0
 61 62  1  0  0  0
 62 63  1  0  0  0
 63 64  1  0  0  0
 64 65  1  0  0  0
 31 32  1  0  0  0
 32 33  1  0  0  0
 33 34  1  0  0  0
 34 35  1  0  0  0
 35 36  1  0  0  0
  8 10  1  0  0  0
  9 17  1  0  0  0
 12 13  2  0  0  0
 12 17  1  0  0  0
 13 14  1  0  0  0
 14 15  2  0  0  0
 15 16  1  0  0  0
 16 17  2  0  0  0
M  END
> <minimizedAffinity>
-9.51427

> <CNNscore>
0.1769681275

> <CNNaffinity>
6.9864053726

> <CNN_VS>
1.2363710403

> <CNNaffinity_variance>
0.4097480774

$$$$
/media/chris/experiments/cd1a-new-docking/inputs/ligands/1xz0_ligand.pdb


 65 67  0  0  0  0  0  0  0  0999 V2000
  -43.4214   58.4537   64.1755 C   0  0  0  0  0  0  0  0  0  0  0  0
  -43.0313   58.8881   62.8327 N   0  0  0  0  0  0  0  0  0  0  0  0
  -41.7109   58.9660   60.9824 O   0  0  0  0  0  0  0  0  0  0  0  0
  -41.9600   58.5358   62.1009 C   0  0  0  0  0  0  0  0  0  0  0  0
  -43.6414   59.5310   62.4040 H   0  0  0  0  0  0  0  0  0  0  0  0
  -39.7759   57.9901   63.1556 N   0  0  0  0  0  0  0  0  0  0  0  0
  -39.1254   56.3318   61.8069 O   0  0  0  0  0  0  0  0  0  0  0  0
  -40.5491   56.3154   61.7104 C   0  0  0  0  0  0  0  0  0  0  0  0
  -38.7548   57.4002   62.7008 C   0  0  0  0  0  0  0  0  0  0  0  0
  -41.0510   57.4461   62.6508 C   0  0  0  0  0  0  0  0  0  0  0  0
  -36.9058   58.8891   61.0391 O   0  0  0  0  0  0  0  0  0  0  0  0
  -36.4922   58.4561   62.2362 C   0  0  0  0  0  0  0  0  0  0  0  0
  -35.1896   58.7434   62.6646 C   0  0  0  0  0  0  0  0  0  0  0  0
  -34.7284   58.2921   63.9128 C   0  0  0  0  0  0  0  0  0  0  0  0
  -35.5681   57.5568   64.7511 C   0  0  0  0  0  0  0  0  0  0  0  0
  -36.8706   57.2729   64.3310 C   0  0  0  0  0  0  0  0  0  0  0  0
  -37.3327   57.7164   63.0771 C   0  0  0  0  0  0  0  0  0  0  0  0
  -36.3257   59.3827   60.4933 H   0  0  0  0  0  0  0  0  0  0  0  0
  -45.2823   59.9393   63.9196 O   0  0  0  0  0  0  0  0  0  0  0  0
  -44.8650   58.8810   64.3604 C   0  0  0  0  0  0  0  0  0  0  0  0
  -45.7792   58.0437   65.1443 O   0  0  0  0  0  0  0  0  0  0  0  0
  -46.9997   58.5766   65.6920 C   0  0  0  0  0  0  0  0  0  0  0  0
  -46.8751   59.1100   67.1138 C   0  0  0  0  0  0  0  0  0  0  0  0
  -48.0748   57.5041   65.6003 C   0  0  0  0  0  0  0  0  0  0  0  0
  -49.6025   57.8512   63.7185 N   0  0  0  0  0  0  0  0  0  0  0  0
  -50.1727   58.4672   65.8188 O   0  0  0  0  0  0  0  0  0  0  0  0
  -49.3751   58.0142   65.0300 C   0  0  0  0  0  0  0  0  0  0  0  0
  -48.8770   57.4717   63.1720 H   0  0  0  0  0  0  0  0  0  0  0  0
  -50.1885   58.3496   60.6750 N   0  0  0  0  0  0  0  0  0  0  0  0
  -51.7854   56.8945   61.3061 O   0  0  0  0  0  0  0  0  0  0  0  0
  -49.0146   59.1902   60.9524 C   0  0  0  0  0  0  0  0  0  0  0  0
  -49.4386   60.5218   61.6001 C   0  0  0  0  0  0  0  0  0  0  0  0
  -50.9065   60.6194   61.9815 C   0  0  0  0  0  0  0  0  0  0  0  0
  -51.2936   59.6713   63.1195 C   0  0  0  0  0  0  0  0  0  0  0  0
  -50.8566   58.1990   63.0405 C   0  0  0  0  0  0  0  0  0  0  0  0
  -50.9644   57.7543   61.5951 C   0  0  0  0  0  0  0  0  0  0  0  0
  -49.2346   58.0656   58.1189 Si  0  0  0  0  0  0  0  0  0  0  0  0
  -50.5120   58.1491   59.3668 O   0  0  0  0  0  0  0  0  0  0  0  0
  -49.8288   57.8517   56.8470 H   0  0  0  0  0  0  0  0  0  0  0  0
  -48.3526   56.9930   58.4156 H   0  0  0  0  0  0  0  0  0  0  0  0
  -48.5081   59.2855   58.1028 H   0  0  0  0  0  0  0  0  0  0  0  0
  -41.6895   60.1498   65.1846 C   0  0  0  0  0  0  0  0  0  0  0  0
  -42.4994   58.8581   65.3514 C   0  0  0  0  0  0  0  0  0  0  0  0
  -40.4771   60.3344   66.1130 C   0  0  0  0  0  0  0  0  0  0  0  0
  -39.1660   59.6224   65.7213 C   0  0  0  0  0  0  0  0  0  0  0  0
  -38.3102   60.5864   65.0228 N   0  0  0  0  0  0  0  0  0  0  0  0
  -37.2160   61.2496   65.4818 C   0  0  0  0  0  0  0  0  0  0  0  0
  -38.6991   60.8374   63.6994 O   0  0  0  0  0  0  0  0  0  0  0  0
  -36.8005   61.0767   66.6274 O   0  0  0  0  0  0  0  0  0  0  0  0
  -38.0922   61.4804   63.3005 H   0  0  0  0  0  0  0  0  0  0  0  0
  -36.4991   62.2321   64.5499 C   0  0  0  0  0  0  0  0  0  0  0  0
  -36.2042   63.6020   65.1758 C   0  0  0  0  0  0  0  0  0  0  0  0
  -34.8266   64.1108   64.7093 C   0  0  0  0  0  0  0  0  0  0  0  0
  -33.7287   63.9850   65.7826 C   0  0  0  0  0  0  0  0  0  0  0  0
  -32.3791   64.6188   65.3969 C   0  0  0  0  0  0  0  0  0  0  0  0
  -31.3173   63.5728   64.9971 C   0  0  0  0  0  0  0  0  0  0  0  0
  -29.8899   64.1417   64.8229 C   0  0  0  0  0  0  0  0  0  0  0  0
  -29.0532   63.3827   63.7865 C   0  0  0  0  0  0  0  0  0  0  0  0
  -29.6337   63.3541   62.3690 C   0  0  0  0  0  0  0  0  0  0  0  0
  -29.3053   62.0304   61.6548 C   0  0  0  0  0  0  0  0  0  0  0  0
  -29.2337   60.8170   62.5942 C   0  0  0  0  0  0  0  0  0  0  0  0
  -30.5290   60.0121   62.7416 C   0  0  0  0  0  0  0  0  0  0  0  0
  -31.6473   60.4192   61.7499 C   0  0  0  0  0  0  0  0  0  0  0  0
  -32.7648   61.2153   62.4540 C   0  0  0  0  0  0  0  0  0  0  0  0
  -32.9568   62.6764   62.0301 C   0  0  0  0  0  0  0  0  0  0  0  0
 46 47  1  0  0  0
 46 48  1  0  0  0
 46 45  1  0  0  0
 47 49  2  0  0  0
 47 51  1  0  0  0
 19 20  2  0  0  0
 37 38  1  0  0  0
 37 39  1  0  0  0
 37 40  1  0  0  0
 37 41  1  0  0  0
 48 50  1  0  0  0
 38 29  1  0  0  0
 45 44  1  0  0  0
 25 27  1  0  0  0
 25 35  1  0  0  0
 25 28  1  0  0  0
 21 20  1  0  0  0
 21 22  1  0  0  0
 44 42  1  0  0  0
  2  1  1  0  0  0
  2  4  1  0  0  0
  2  5  1  0  0  0
 26 27  2  0  0  0
 42 43  2  0  0  0
 29 31  1  0  0  0
 29 36  1  0  0  0
  3  4  2  0  0  0
 43  1  1  0  0  0
  6  9  2  0  0  0
  6 10  1  0  0  0
  1 20  1  0  0  0
 30 36  2  0  0  0
  7  8  1  0  0  0
  7  9  1  0  0  0
 22 24  1  0  0  0
 22 23  1  0  0  0
 11 12  1  0  0  0
 11 18  1  0  0  0
 24 27  1  0  0  0
  4 10  1  0  0  0
 51 52  1  0  0  0
 52 53  1  0  0  0
 53 54  1  0  0  0
 54 55  1  0  0  0
 55 56  1  0  0  0
 56 57  1  0  0  0
 57 58  1  0  0  0
 58 59  1  0  0  0
 59 60  1  0  0  0
 60 61  1  0  0  0
 61 62  1  0  0  0
 62 63  1  0  0  0
 63 64  1  0  0  0
 64 65  1  0  0  0
 31 32  1  0  0  0
 32 33  1  0  0  0
 33 34  1  0  0  0
 34 35  1  0  0  0
 35 36  1  0  0  0
  8 10  1  0  0  0
  9 17  1  0  0  0
 12 13  2  0  0  0
 12 17  1  0  0  0
 13 14  1  0  0  0
 14 15  2  0  0  0
 15 16  1  0  0  0
 16 17  2  0  0  0
M  END
> <minimizedAffinity>
-9.12076

> <CNNscore>
0.1617069244

> <CNNaffinity>
7.0780477524

> <CNN_VS>
1.1445692778

> <CNNaffinity_variance>
0.4955200553

$$$$
/media/chris/experiments/cd1a-new-docking/inputs/ligands/1xz0_ligand.pdb


 65 67  0  0  0  0  0  0  0  0999 V2000
  -38.2044   59.7293   63.0295 C   0  0  0  0  0  0  0  0  0  0  0  0
  -39.2509   60.1363   63.9694 N   0  0  0  0  0  0  0  0  0  0  0  0
  -40.1504   60.5470   66.0176 O   0  0  0  0  0  0  0  0  0  0  0  0
  -39.2115   60.2032   65.3115 C   0  0  0  0  0  0  0  0  0  0  0  0
  -40.1067   60.3986   63.5594 H   0  0  0  0  0  0  0  0  0  0  0  0
  -37.1715   61.1907   66.3331 N   0  0  0  0  0  0  0  0  0  0  0  0
  -35.6153   59.9947   65.2656 O   0  0  0  0  0  0  0  0  0  0  0  0
  -36.7685   59.1543   65.2461 C   0  0  0  0  0  0  0  0  0  0  0  0
  -35.9714   61.2192   65.9377 C   0  0  0  0  0  0  0  0  0  0  0  0
  -37.8787   59.9402   65.9974 C   0  0  0  0  0  0  0  0  0  0  0  0
  -36.7331   63.8765   66.8065 O   0  0  0  0  0  0  0  0  0  0  0  0
  -35.4359   63.6073   66.6160 C   0  0  0  0  0  0  0  0  0  0  0  0
  -34.4794   64.6030   66.8544 C   0  0  0  0  0  0  0  0  0  0  0  0
  -33.1124   64.3482   66.6528 C   0  0  0  0  0  0  0  0  0  0  0  0
  -32.6855   63.0916   66.2199 C   0  0  0  0  0  0  0  0  0  0  0  0
  -33.6351   62.0931   65.9867 C   0  0  0  0  0  0  0  0  0  0  0  0
  -35.0064   62.3480   66.1796 C   0  0  0  0  0  0  0  0  0  0  0  0
  -36.9971   64.7266   67.0991 H   0  0  0  0  0  0  0  0  0  0  0  0
  -37.8224   61.0722   61.0838 O   0  0  0  0  0  0  0  0  0  0  0  0
  -37.7726   60.9871   62.2998 C   0  0  0  0  0  0  0  0  0  0  0  0
  -37.2157   62.1142   63.0551 O   0  0  0  0  0  0  0  0  0  0  0  0
  -36.1234   62.8966   62.5370 C   0  0  0  0  0  0  0  0  0  0  0  0
  -34.7734   62.1906   62.5587 C   0  0  0  0  0  0  0  0  0  0  0  0
  -36.0686   64.2098   63.3032 C   0  0  0  0  0  0  0  0  0  0  0  0
  -33.8822   65.3052   63.1779 N   0  0  0  0  0  0  0  0  0  0  0  0
  -35.5382   65.8270   61.7284 O   0  0  0  0  0  0  0  0  0  0  0  0
  -35.1277   65.2167   62.6889 C   0  0  0  0  0  0  0  0  0  0  0  0
  -33.6605   64.7596   63.9668 H   0  0  0  0  0  0  0  0  0  0  0  0
  -31.4059   64.5601   61.3982 N   0  0  0  0  0  0  0  0  0  0  0  0
  -32.3608   66.2829   60.3092 O   0  0  0  0  0  0  0  0  0  0  0  0
  -31.3405   63.6053   62.5144 C   0  0  0  0  0  0  0  0  0  0  0  0
  -30.6860   64.2539   63.7487 C   0  0  0  0  0  0  0  0  0  0  0  0
  -30.4212   65.7460   63.6339 C   0  0  0  0  0  0  0  0  0  0  0  0
  -31.7045   66.5795   63.5837 C   0  0  0  0  0  0  0  0  0  0  0  0
  -32.8264   66.1582   62.6201 C   0  0  0  0  0  0  0  0  0  0  0  0
  -32.1835   65.6534   61.3432 C   0  0  0  0  0  0  0  0  0  0  0  0
  -31.0406   64.9543   58.7084 Si  0  0  0  0  0  0  0  0  0  0  0  0
  -30.6135   64.3072   60.3192 O   0  0  0  0  0  0  0  0  0  0  0  0
  -30.0614   64.5519   57.7618 H   0  0  0  0  0  0  0  0  0  0  0  0
  -31.0889   66.3723   58.7655 H   0  0  0  0  0  0  0  0  0  0  0  0
  -32.3104   64.4527   58.3182 H   0  0  0  0  0  0  0  0  0  0  0  0
  -39.7089   58.7039   61.1376 C   0  0  0  0  0  0  0  0  0  0  0  0
  -38.5155   58.5413   62.0871 C   0  0  0  0  0  0  0  0  0  0  0  0
  -40.2916   57.4178   60.5276 C   0  0  0  0  0  0  0  0  0  0  0  0
  -41.7711   57.0970   60.8231 C   0  0  0  0  0  0  0  0  0  0  0  0
  -42.0357   57.4039   62.2322 N   0  0  0  0  0  0  0  0  0  0  0  0
  -41.8816   56.6100   63.3247 C   0  0  0  0  0  0  0  0  0  0  0  0
  -42.5116   58.7043   62.4511 O   0  0  0  0  0  0  0  0  0  0  0  0
  -41.4568   55.4594   63.2213 O   0  0  0  0  0  0  0  0  0  0  0  0
  -42.6642   58.8374   63.3998 H   0  0  0  0  0  0  0  0  0  0  0  0
  -42.2525   57.1656   64.7036 C   0  0  0  0  0  0  0  0  0  0  0  0
  -43.6730   56.8167   65.1686 C   0  0  0  0  0  0  0  0  0  0  0  0
  -44.2274   57.9415   66.0640 C   0  0  0  0  0  0  0  0  0  0  0  0
  -45.5063   58.5961   65.5081 C   0  0  0  0  0  0  0  0  0  0  0  0
  -45.2663   59.6149   64.3784 C   0  0  0  0  0  0  0  0  0  0  0  0
  -46.5422   60.3906   63.9887 C   0  0  0  0  0  0  0  0  0  0  0  0
  -47.8127   59.5170   63.8689 C   0  0  0  0  0  0  0  0  0  0  0  0
  -47.8809   58.7156   62.5637 C   0  0  0  0  0  0  0  0  0  0  0  0
  -49.2923   58.3601   62.0858 C   0  0  0  0  0  0  0  0  0  0  0  0
  -49.9365   59.5299   61.3196 C   0  0  0  0  0  0  0  0  0  0  0  0
  -50.7920   60.4544   62.1991 C   0  0  0  0  0  0  0  0  0  0  0  0
  -51.6482   59.7574   63.2615 C   0  0  0  0  0  0  0  0  0  0  0  0
  -51.7637   60.5353   64.5961 C   0  0  0  0  0  0  0  0  0  0  0  0
  -50.8841   59.9057   65.6952 C   0  0  0  0  0  0  0  0  0  0  0  0
  -50.4815   58.4372   65.5137 C   0  0  0  0  0  0  0  0  0  0  0  0
 46 47  1  0  0  0
 46 48  1  0  0  0
 46 45  1  0  0  0
 47 49  2  0  0  0
 47 51  1  0  0  0
 19 20  2  0  0  0
 37 38  1  0  0  0
 37 39  1  0  0  0
 37 40  1  0  0  0
 37 41  1  0  0  0
 48 50  1  0  0  0
 38 29  1  0  0  0
 45 44  1  0  0  0
 25 27  1  0  0  0
 25 35  1  0  0  0
 25 28  1  0  0  0
 21 20  1  0  0  0
 21 22  1  0  0  0
 44 42  1  0  0  0
  2  1  1  0  0  0
  2  4  1  0  0  0
  2  5  1  0  0  0
 26 27  2  0  0  0
 42 43  2  0  0  0
 29 31  1  0  0  0
 29 36  1  0  0  0
  3  4  2  0  0  0
 43  1  1  0  0  0
  6  9  2  0  0  0
  6 10  1  0  0  0
  1 20  1  0  0  0
 30 36  2  0  0  0
  7  8  1  0  0  0
  7  9  1  0  0  0
 22 24  1  0  0  0
 22 23  1  0  0  0
 11 12  1  0  0  0
 11 18  1  0  0  0
 24 27  1  0  0  0
  4 10  1  0  0  0
 51 52  1  0  0  0
 52 53  1  0  0  0
 53 54  1  0  0  0
 54 55  1  0  0  0
 55 56  1  0  0  0
 56 57  1  0  0  0
 57 58  1  0  0  0
 58 59  1  0  0  0
 59 60  1  0  0  0
 60 61  1  0  0  0
 61 62  1  0  0  0
 62 63  1  0  0  0
 63 64  1  0  0  0
 64 65  1  0  0  0
 31 32  1  0  0  0
 32 33  1  0  0  0
 33 34  1  0  0  0
 34 35  1  0  0  0
 35 36  1  0  0  0
  8 10  1  0  0  0
  9 17  1  0  0  0
 12 13  2  0  0  0
 12 17  1  0  0  0
 13 14  1  0  0  0
 14 15  2  0  0  0
 15 16  1  0  0  0
 16 17  2  0  0  0
M  END
> <minimizedAffinity>
-8.99702

> <CNNscore>
0.1454177797

> <CNNaffinity>
6.8252639771

> <CNN_VS>
0.9925147295

> <CNNaffinity_variance>
0.6677714586

$$$$
