/media/chris/experiments/cd1a-new-docking/inputs/ligands/1xz0_ligand.pdb


 65 67  0  0  0  0  0  0  0  0999 V2000
  -35.3596   61.4741   64.7224 C   0  0  0  0  0  0  0  0  0  0  0  0
  -34.4304   60.5808   65.4171 N   0  0  0  0  0  0  0  0  0  0  0  0
  -33.1255   58.7344   65.6643 O   0  0  0  0  0  0  0  0  0  0  0  0
  -33.8899   59.4224   65.0006 C   0  0  0  0  0  0  0  0  0  0  0  0
  -34.1629   60.8701   66.3194 H   0  0  0  0  0  0  0  0  0  0  0  0
  -35.4995   59.3916   63.1064 N   0  0  0  0  0  0  0  0  0  0  0  0
  -35.4141   57.2189   62.5924 O   0  0  0  0  0  0  0  0  0  0  0  0
  -34.1519   57.4771   63.2061 C   0  0  0  0  0  0  0  0  0  0  0  0
  -36.1672   58.4480   62.5951 C   0  0  0  0  0  0  0  0  0  0  0  0
  -34.1570   58.9887   63.5665 C   0  0  0  0  0  0  0  0  0  0  0  0
  -37.3863   60.9593   61.8178 O   0  0  0  0  0  0  0  0  0  0  0  0
  -38.0725   59.8248   61.6339 C   0  0  0  0  0  0  0  0  0  0  0  0
  -39.3492   59.8731   61.0588 C   0  0  0  0  0  0  0  0  0  0  0  0
  -40.0936   58.6975   60.8639 C   0  0  0  0  0  0  0  0  0  0  0  0
  -39.5656   57.4590   61.2327 C   0  0  0  0  0  0  0  0  0  0  0  0
  -38.2898   57.4049   61.8009 C   0  0  0  0  0  0  0  0  0  0  0  0
  -37.5450   58.5822   62.0056 C   0  0  0  0  0  0  0  0  0  0  0  0
  -37.7595   61.7796   61.5612 H   0  0  0  0  0  0  0  0  0  0  0  0
  -35.3073   63.8453   64.3909 O   0  0  0  0  0  0  0  0  0  0  0  0
  -34.6863   62.8322   64.6673 C   0  0  0  0  0  0  0  0  0  0  0  0
  -33.2395   62.9388   64.8833 O   0  0  0  0  0  0  0  0  0  0  0  0
  -32.6992   63.3257   66.1608 C   0  0  0  0  0  0  0  0  0  0  0  0
  -33.7459   63.5968   67.2343 C   0  0  0  0  0  0  0  0  0  0  0  0
  -31.7988   64.5344   65.9544 C   0  0  0  0  0  0  0  0  0  0  0  0
  -31.8769   65.1614   63.5886 N   0  0  0  0  0  0  0  0  0  0  0  0
  -33.0390   66.3190   65.1458 O   0  0  0  0  0  0  0  0  0  0  0  0
  -32.2660   65.4395   64.8414 C   0  0  0  0  0  0  0  0  0  0  0  0
  -31.2415   64.4202   63.4607 H   0  0  0  0  0  0  0  0  0  0  0  0
  -33.6937   64.2068   61.2131 N   0  0  0  0  0  0  0  0  0  0  0  0
  -34.6112   66.1609   61.8497 O   0  0  0  0  0  0  0  0  0  0  0  0
  -32.6808   63.1477   61.3327 C   0  0  0  0  0  0  0  0  0  0  0  0
  -31.3785   63.5559   60.6187 C   0  0  0  0  0  0  0  0  0  0  0  0
  -31.3361   64.9896   60.1161 C   0  0  0  0  0  0  0  0  0  0  0  0
  -31.3159   66.0203   61.2480 C   0  0  0  0  0  0  0  0  0  0  0  0
  -32.3312   65.8837   62.3948 C   0  0  0  0  0  0  0  0  0  0  0  0
  -33.6454   65.4114   61.8045 C   0  0  0  0  0  0  0  0  0  0  0  0
  -36.2793   63.2919   61.1757 Si  0  0  0  0  0  0  0  0  0  0  0  0
  -34.7832   63.9379   60.4408 O   0  0  0  0  0  0  0  0  0  0  0  0
  -37.2581   63.0991   60.1652 H   0  0  0  0  0  0  0  0  0  0  0  0
  -36.7690   64.2127   62.1394 H   0  0  0  0  0  0  0  0  0  0  0  0
  -35.9993   62.0509   61.8063 H   0  0  0  0  0  0  0  0  0  0  0  0
  -37.4556   60.1925   65.6488 C   0  0  0  0  0  0  0  0  0  0  0  0
  -36.8185   61.5254   65.2373 C   0  0  0  0  0  0  0  0  0  0  0  0
  -38.9905   60.1548   65.7393 C   0  0  0  0  0  0  0  0  0  0  0  0
  -39.7100   58.9366   65.1246 C   0  0  0  0  0  0  0  0  0  0  0  0
  -40.8240   59.4252   64.3061 N   0  0  0  0  0  0  0  0  0  0  0  0
  -41.8955   58.7422   63.8232 C   0  0  0  0  0  0  0  0  0  0  0  0
  -40.7455   60.7902   63.9956 O   0  0  0  0  0  0  0  0  0  0  0  0
  -42.7552   59.3031   63.1440 O   0  0  0  0  0  0  0  0  0  0  0  0
  -41.5103   61.0434   63.4554 H   0  0  0  0  0  0  0  0  0  0  0  0
  -42.0281   57.2491   64.1413 C   0  0  0  0  0  0  0  0  0  0  0  0
  -43.3104   56.8714   64.8953 C   0  0  0  0  0  0  0  0  0  0  0  0
  -43.5361   57.8398   66.0724 C   0  0  0  0  0  0  0  0  0  0  0  0
  -44.9830   58.3589   66.1730 C   0  0  0  0  0  0  0  0  0  0  0  0
  -45.6888   58.5576   64.8186 C   0  0  0  0  0  0  0  0  0  0  0  0
  -45.8950   60.0445   64.4616 C   0  0  0  0  0  0  0  0  0  0  0  0
  -47.2476   60.3595   63.7811 C   0  0  0  0  0  0  0  0  0  0  0  0
  -47.9816   59.1119   63.2762 C   0  0  0  0  0  0  0  0  0  0  0  0
  -48.9656   59.3506   62.1266 C   0  0  0  0  0  0  0  0  0  0  0  0
  -50.1156   58.3273   62.1508 C   0  0  0  0  0  0  0  0  0  0  0  0
  -51.4392   58.8907   62.6898 C   0  0  0  0  0  0  0  0  0  0  0  0
  -51.5527   60.4186   62.7109 C   0  0  0  0  0  0  0  0  0  0  0  0
  -51.3117   61.0551   64.1025 C   0  0  0  0  0  0  0  0  0  0  0  0
  -51.2657   59.9858   65.2127 C   0  0  0  0  0  0  0  0  0  0  0  0
  -50.0135   59.9488   66.0972 C   0  0  0  0  0  0  0  0  0  0  0  0
 46 47  1  0  0  0
 46 48  1  0  0  0
 46 45  1  0  0  0
 47 49  2  0  0  0
 47 51  1  0  0  0
 19 20  2  0  0  0
 37 38  1  0  0  0
 37 39  1  0  0  0
 37 40  1  0  0  0
 37 41  1  0  0  0
 48 50  1  0  0  0
 38 29  1  0  0  0
 45 44  1  0  0  0
 25 27  1  0  0  0
 25 35  1  0  0  0
 25 28  1  0  0  0
 21 20  1  0  0  0
 21 22  1  0  0  0
 44 42  1  0  0  0
  2  1  1  0  0  0
  2  4  1  0  0  0
  2  5  1  0  0  0
 26 27  2  0  0  0
 42 43  2  0  0  0
 29 31  1  0  0  0
 29 36  1  0  0  0
  3  4  2  0  0  0
 43  1  1  0  0  0
  6  9  2  0  0  0
  6 10  1  0  0  0
  1 20  1  0  0  0
 30 36  2  0  0  0
  7  8  1  0  0  0
  7  9  1  0  0  0
 22 24  1  0  0  0
 22 23  1  0  0  0
 11 12  1  0  0  0
 11 18  1  0  0  0
 24 27  1  0  0  0
  4 10  1  0  0  0
 51 52  1  0  0  0
 52 53  1  0  0  0
 53 54  1  0  0  0
 54 55  1  0  0  0
 55 56  1  0  0  0
 56 57  1  0  0  0
 57 58  1  0  0  0
 58 59  1  0  0  0
 59 60  1  0  0  0
 60 61  1  0  0  0
 61 62  1  0  0  0
 62 63  1  0  0  0
 63 64  1  0  0  0
 64 65  1  0  0  0
 31 32  1  0  0  0
 32 33  1  0  0  0
 33 34  1  0  0  0
 34 35  1  0  0  0
 35 36  1  0  0  0
  8 10  1  0  0  0
  9 17  1  0  0  0
 12 13  2  0  0  0
 12 17  1  0  0  0
 13 14  1  0  0  0
 14 15  2  0  0  0
 15 16  1  0  0  0
 16 17  2  0  0  0
M  END
> <minimizedAffinity>
-9.37077

> <CNNscore>
0.2283028662

> <CNNaffinity>
7.0282721519

> <CNN_VS>
1.6045746803

> <CNNaffinity_variance>
0.8974552155

$$$$
/media/chris/experiments/cd1a-new-docking/inputs/ligands/1xz0_ligand.pdb


 65 67  0  0  0  0  0  0  0  0999 V2000
  -40.5621   59.6840   66.1692 C   0  0  0  0  0  0  0  0  0  0  0  0
  -41.0176   61.0136   65.7584 N   0  0  0  0  0  0  0  0  0  0  0  0
  -41.9270   62.5474   64.3464 O   0  0  0  0  0  0  0  0  0  0  0  0
  -41.5887   61.3996   64.6041 C   0  0  0  0  0  0  0  0  0  0  0  0
  -40.8868   61.7278   66.4232 H   0  0  0  0  0  0  0  0  0  0  0  0
  -40.7597   59.8689   62.8295 N   0  0  0  0  0  0  0  0  0  0  0  0
  -42.2533   60.3232   61.2310 O   0  0  0  0  0  0  0  0  0  0  0  0
  -42.9384   60.6400   62.4421 C   0  0  0  0  0  0  0  0  0  0  0  0
  -40.9269   59.8770   61.5766 C   0  0  0  0  0  0  0  0  0  0  0  0
  -41.9404   60.3210   63.5897 C   0  0  0  0  0  0  0  0  0  0  0  0
  -38.1636   60.7480   61.5219 O   0  0  0  0  0  0  0  0  0  0  0  0
  -38.5821   59.8713   60.6010 C   0  0  0  0  0  0  0  0  0  0  0  0
  -37.6786   59.3843   59.6474 C   0  0  0  0  0  0  0  0  0  0  0  0
  -38.0953   58.4708   58.6645 C   0  0  0  0  0  0  0  0  0  0  0  0
  -39.4180   58.0261   58.6302 C   0  0  0  0  0  0  0  0  0  0  0  0
  -40.3216   58.5041   59.5833 C   0  0  0  0  0  0  0  0  0  0  0  0
  -39.9092   59.4264   60.5641 C   0  0  0  0  0  0  0  0  0  0  0  0
  -37.2706   61.0316   61.5273 H   0  0  0  0  0  0  0  0  0  0  0  0
  -38.3641   60.5028   65.6859 O   0  0  0  0  0  0  0  0  0  0  0  0
  -39.1308   59.5537   65.6843 C   0  0  0  0  0  0  0  0  0  0  0  0
  -38.6600   58.2785   65.1337 O   0  0  0  0  0  0  0  0  0  0  0  0
  -37.8775   58.2272   63.9259 C   0  0  0  0  0  0  0  0  0  0  0  0
  -38.3191   57.1609   62.9310 C   0  0  0  0  0  0  0  0  0  0  0  0
  -36.4160   58.0492   64.3086 C   0  0  0  0  0  0  0  0  0  0  0  0
  -35.8519   60.4057   63.9552 N   0  0  0  0  0  0  0  0  0  0  0  0
  -34.5024   58.7532   63.2045 O   0  0  0  0  0  0  0  0  0  0  0  0
  -35.5195   59.1237   63.7446 C   0  0  0  0  0  0  0  0  0  0  0  0
  -36.7080   60.5883   64.4060 H   0  0  0  0  0  0  0  0  0  0  0  0
  -34.0341   62.2854   65.6922 N   0  0  0  0  0  0  0  0  0  0  0  0
  -32.7092   61.6796   63.9765 O   0  0  0  0  0  0  0  0  0  0  0  0
  -35.3124   62.2585   66.4182 C   0  0  0  0  0  0  0  0  0  0  0  0
  -36.3160   63.2446   65.7915 C   0  0  0  0  0  0  0  0  0  0  0  0
  -35.8691   63.8838   64.4870 C   0  0  0  0  0  0  0  0  0  0  0  0
  -35.7716   62.8829   63.3326 C   0  0  0  0  0  0  0  0  0  0  0  0
  -35.0297   61.5555   63.5613 C   0  0  0  0  0  0  0  0  0  0  0  0
  -33.8291   61.8348   64.4440 C   0  0  0  0  0  0  0  0  0  0  0  0
  -32.9274   62.8616   68.1350 Si  0  0  0  0  0  0  0  0  0  0  0  0
  -32.9594   62.8053   66.3485 O   0  0  0  0  0  0  0  0  0  0  0  0
  -31.7074   63.4447   68.5685 H   0  0  0  0  0  0  0  0  0  0  0  0
  -33.0317   61.5431   68.6519 H   0  0  0  0  0  0  0  0  0  0  0  0
  -34.0176   63.6414   68.6037 H   0  0  0  0  0  0  0  0  0  0  0  0
  -42.9057   58.5066   66.2946 C   0  0  0  0  0  0  0  0  0  0  0  0
  -41.4561   58.4771   65.7947 C   0  0  0  0  0  0  0  0  0  0  0  0
  -43.6606   57.1668   66.3162 C   0  0  0  0  0  0  0  0  0  0  0  0
  -45.1246   57.1670   65.8300 C   0  0  0  0  0  0  0  0  0  0  0  0
  -45.2762   58.2266   64.8279 N   0  0  0  0  0  0  0  0  0  0  0  0
  -46.0622   59.3349   64.8663 C   0  0  0  0  0  0  0  0  0  0  0  0
  -44.4877   58.0436   63.6832 O   0  0  0  0  0  0  0  0  0  0  0  0
  -46.0765   60.1384   63.9341 O   0  0  0  0  0  0  0  0  0  0  0  0
  -44.6375   58.7774   63.0667 H   0  0  0  0  0  0  0  0  0  0  0  0
  -46.9373   59.5813   66.0999 C   0  0  0  0  0  0  0  0  0  0  0  0
  -48.3343   58.9502   66.0245 C   0  0  0  0  0  0  0  0  0  0  0  0
  -49.4143   60.0468   66.0989 C   0  0  0  0  0  0  0  0  0  0  0  0
  -50.8258   59.5452   65.7396 C   0  0  0  0  0  0  0  0  0  0  0  0
  -51.5368   60.3614   64.6440 C   0  0  0  0  0  0  0  0  0  0  0  0
  -51.5509   59.6464   63.2767 C   0  0  0  0  0  0  0  0  0  0  0  0
  -50.6574   60.3042   62.1993 C   0  0  0  0  0  0  0  0  0  0  0  0
  -49.1714   59.9562   62.3437 C   0  0  0  0  0  0  0  0  0  0  0  0
  -48.7955   58.5187   61.9704 C   0  0  0  0  0  0  0  0  0  0  0  0
  -49.4978   58.0736   60.6747 C   0  0  0  0  0  0  0  0  0  0  0  0
  -48.9153   56.7922   60.0593 C   0  0  0  0  0  0  0  0  0  0  0  0
  -47.6145   56.9655   59.2684 C   0  0  0  0  0  0  0  0  0  0  0  0
  -47.5442   56.1269   57.9679 C   0  0  0  0  0  0  0  0  0  0  0  0
  -47.8256   56.9913   56.7221 C   0  0  0  0  0  0  0  0  0  0  0  0
  -47.1516   58.3672   56.6584 C   0  0  0  0  0  0  0  0  0  0  0  0
 46 47  1  0  0  0
 46 48  1  0  0  0
 46 45  1  0  0  0
 47 49  2  0  0  0
 47 51  1  0  0  0
 19 20  2  0  0  0
 37 38  1  0  0  0
 37 39  1  0  0  0
 37 40  1  0  0  0
 37 41  1  0  0  0
 48 50  1  0  0  0
 38 29  1  0  0  0
 45 44  1  0  0  0
 25 27  1  0  0  0
 25 35  1  0  0  0
 25 28  1  0  0  0
 21 20  1  0  0  0
 21 22  1  0  0  0
 44 42  1  0  0  0
  2  1  1  0  0  0
  2  4  1  0  0  0
  2  5  1  0  0  0
 26 27  2  0  0  0
 42 43  2  0  0  0
 29 31  1  0  0  0
 29 36  1  0  0  0
  3  4  2  0  0  0
 43  1  1  0  0  0
  6  9  2  0  0  0
  6 10  1  0  0  0
  1 20  1  0  0  0
 30 36  2  0  0  0
  7  8  1  0  0  0
  7  9  1  0  0  0
 22 24  1  0  0  0
 22 23  1  0  0  0
 11 12  1  0  0  0
 11 18  1  0  0  0
 24 27  1  0  0  0
  4 10  1  0  0  0
 51 52  1  0  0  0
 52 53  1  0  0  0
 53 54  1  0  0  0
 54 55  1  0  0  0
 55 56  1  0  0  0
 56 57  1  0  0  0
 57 58  1  0  0  0
 58 59  1  0  0  0
 59 60  1  0  0  0
 60 61  1  0  0  0
 61 62  1  0  0  0
 62 63  1  0  0  0
 63 64  1  0  0  0
 64 65  1  0  0  0
 31 32  1  0  0  0
 32 33  1  0  0  0
 33 34  1  0  0  0
 34 35  1  0  0  0
 35 36  1  0  0  0
  8 10  1  0  0  0
  9 17  1  0  0  0
 12 13  2  0  0  0
 12 17  1  0  0  0
 13 14  1  0  0  0
 14 15  2  0  0  0
 15 16  1  0  0  0
 16 17  2  0  0  0
M  END
> <minimizedAffinity>
-9.00920

> <CNNscore>
0.2098657191

> <CNNaffinity>
7.5658731461

> <CNN_VS>
1.5878174305

> <CNNaffinity_variance>
0.9386150241

$$$$
/media/chris/experiments/cd1a-new-docking/inputs/ligands/1xz0_ligand.pdb


 65 67  0  0  0  0  0  0  0  0999 V2000
  -40.3947   58.8713   65.2054 C   0  0  0  0  0  0  0  0  0  0  0  0
  -40.9936   57.9105   64.2768 N   0  0  0  0  0  0  0  0  0  0  0  0
  -42.5184   56.3704   63.5869 O   0  0  0  0  0  0  0  0  0  0  0  0
  -42.1003   57.1613   64.4223 C   0  0  0  0  0  0  0  0  0  0  0  0
  -40.5171   57.7968   63.4228 H   0  0  0  0  0  0  0  0  0  0  0  0
  -44.3964   57.3851   65.3484 N   0  0  0  0  0  0  0  0  0  0  0  0
  -44.1330   59.2683   66.5216 O   0  0  0  0  0  0  0  0  0  0  0  0
  -42.8184   58.7168   66.4565 C   0  0  0  0  0  0  0  0  0  0  0  0
  -45.0185   58.3878   65.8015 C   0  0  0  0  0  0  0  0  0  0  0  0
  -42.9547   57.3888   65.6610 C   0  0  0  0  0  0  0  0  0  0  0  0
  -47.0393   56.3326   66.1014 O   0  0  0  0  0  0  0  0  0  0  0  0
  -47.4283   57.5872   65.8434 C   0  0  0  0  0  0  0  0  0  0  0  0
  -48.7942   57.8815   65.7407 C   0  0  0  0  0  0  0  0  0  0  0  0
  -49.2279   59.1884   65.4612 C   0  0  0  0  0  0  0  0  0  0  0  0
  -48.3008   60.2180   65.2911 C   0  0  0  0  0  0  0  0  0  0  0  0
  -46.9372   59.9307   65.3989 C   0  0  0  0  0  0  0  0  0  0  0  0
  -46.4992   58.6203   65.6702 C   0  0  0  0  0  0  0  0  0  0  0  0
  -47.6790   55.6573   66.2137 H   0  0  0  0  0  0  0  0  0  0  0  0
  -41.0717   61.1434   65.5441 O   0  0  0  0  0  0  0  0  0  0  0  0
  -40.8469   60.2455   64.7493 C   0  0  0  0  0  0  0  0  0  0  0  0
  -41.0899   60.4984   63.3251 O   0  0  0  0  0  0  0  0  0  0  0  0
  -42.3200   61.0918   62.8688 C   0  0  0  0  0  0  0  0  0  0  0  0
  -43.5708   60.2858   63.1963 C   0  0  0  0  0  0  0  0  0  0  0  0
  -42.2050   61.3431   61.3728 C   0  0  0  0  0  0  0  0  0  0  0  0
  -41.1996   59.1116   61.2973 N   0  0  0  0  0  0  0  0  0  0  0  0
  -41.2147   60.4514   59.4752 O   0  0  0  0  0  0  0  0  0  0  0  0
  -41.4591   60.2532   60.6434 C   0  0  0  0  0  0  0  0  0  0  0  0
  -41.4431   59.0646   62.2502 H   0  0  0  0  0  0  0  0  0  0  0  0
  -38.3709   57.8389   61.7808 N   0  0  0  0  0  0  0  0  0  0  0  0
  -39.7888   56.1004   61.9620 O   0  0  0  0  0  0  0  0  0  0  0  0
  -38.0845   59.2624   61.5496 C   0  0  0  0  0  0  0  0  0  0  0  0
  -38.0604   59.5756   60.0417 C   0  0  0  0  0  0  0  0  0  0  0  0
  -38.5059   58.4394   59.1359 C   0  0  0  0  0  0  0  0  0  0  0  0
  -39.9927   58.1049   59.2822 C   0  0  0  0  0  0  0  0  0  0  0  0
  -40.5785   57.9275   60.6930 C   0  0  0  0  0  0  0  0  0  0  0  0
  -39.5416   57.2243   61.5468 C   0  0  0  0  0  0  0  0  0  0  0  0
  -37.0017   57.0945   64.0381 Si  0  0  0  0  0  0  0  0  0  0  0  0
  -37.3608   57.0778   62.2869 O   0  0  0  0  0  0  0  0  0  0  0  0
  -35.9129   56.2235   64.3064 H   0  0  0  0  0  0  0  0  0  0  0  0
  -38.1447   56.6596   64.7597 H   0  0  0  0  0  0  0  0  0  0  0  0
  -36.6625   58.4138   64.4391 H   0  0  0  0  0  0  0  0  0  0  0  0
  -38.0445   60.0421   65.2206 C   0  0  0  0  0  0  0  0  0  0  0  0
  -38.8696   58.7700   65.4505 C   0  0  0  0  0  0  0  0  0  0  0  0
  -36.5287   59.8626   65.0325 C   0  0  0  0  0  0  0  0  0  0  0  0
  -35.9164   60.3340   63.6974 C   0  0  0  0  0  0  0  0  0  0  0  0
  -34.7000   59.5540   63.4486 N   0  0  0  0  0  0  0  0  0  0  0  0
  -33.4509   59.9916   63.1391 C   0  0  0  0  0  0  0  0  0  0  0  0
  -34.8824   58.1678   63.5523 O   0  0  0  0  0  0  0  0  0  0  0  0
  -32.5252   59.2007   62.9591 O   0  0  0  0  0  0  0  0  0  0  0  0
  -34.0417   57.7170   63.3764 H   0  0  0  0  0  0  0  0  0  0  0  0
  -33.2010   61.4988   63.0207 C   0  0  0  0  0  0  0  0  0  0  0  0
  -31.7273   61.8863   62.8378 C   0  0  0  0  0  0  0  0  0  0  0  0
  -31.5684   62.7911   61.6006 C   0  0  0  0  0  0  0  0  0  0  0  0
  -32.7276   63.7884   61.4150 C   0  0  0  0  0  0  0  0  0  0  0  0
  -32.3156   65.2708   61.4841 C   0  0  0  0  0  0  0  0  0  0  0  0
  -32.8084   65.9715   62.7675 C   0  0  0  0  0  0  0  0  0  0  0  0
  -31.7784   65.9966   63.9208 C   0  0  0  0  0  0  0  0  0  0  0  0
  -32.3194   65.4207   65.2345 C   0  0  0  0  0  0  0  0  0  0  0  0
  -31.6816   64.1024   65.6842 C   0  0  0  0  0  0  0  0  0  0  0  0
  -32.6907   63.2206   66.4419 C   0  0  0  0  0  0  0  0  0  0  0  0
  -34.0227   63.9216   66.7490 C   0  0  0  0  0  0  0  0  0  0  0  0
  -35.2818   63.0679   66.5661 C   0  0  0  0  0  0  0  0  0  0  0  0
  -36.2268   63.5609   65.4420 C   0  0  0  0  0  0  0  0  0  0  0  0
  -35.4384   63.9825   64.1854 C   0  0  0  0  0  0  0  0  0  0  0  0
  -36.1777   63.9242   62.8432 C   0  0  0  0  0  0  0  0  0  0  0  0
 46 47  1  0  0  0
 46 48  1  0  0  0
 46 45  1  0  0  0
 47 49  2  0  0  0
 47 51  1  0  0  0
 19 20  2  0  0  0
 37 38  1  0  0  0
 37 39  1  0  0  0
 37 40  1  0  0  0
 37 41  1  0  0  0
 48 50  1  0  0  0
 38 29  1  0  0  0
 45 44  1  0  0  0
 25 27  1  0  0  0
 25 35  1  0  0  0
 25 28  1  0  0  0
 21 20  1  0  0  0
 21 22  1  0  0  0
 44 42  1  0  0  0
  2  1  1  0  0  0
  2  4  1  0  0  0
  2  5  1  0  0  0
 26 27  2  0  0  0
 42 43  2  0  0  0
 29 31  1  0  0  0
 29 36  1  0  0  0
  3  4  2  0  0  0
 43  1  1  0  0  0
  6  9  2  0  0  0
  6 10  1  0  0  0
  1 20  1  0  0  0
 30 36  2  0  0  0
  7  8  1  0  0  0
  7  9  1  0  0  0
 22 24  1  0  0  0
 22 23  1  0  0  0
 11 12  1  0  0  0
 11 18  1  0  0  0
 24 27  1  0  0  0
  4 10  1  0  0  0
 51 52  1  0  0  0
 52 53  1  0  0  0
 53 54  1  0  0  0
 54 55  1  0  0  0
 55 56  1  0  0  0
 56 57  1  0  0  0
 57 58  1  0  0  0
 58 59  1  0  0  0
 59 60  1  0  0  0
 60 61  1  0  0  0
 61 62  1  0  0  0
 62 63  1  0  0  0
 63 64  1  0  0  0
 64 65  1  0  0  0
 31 32  1  0  0  0
 32 33  1  0  0  0
 33 34  1  0  0  0
 34 35  1  0  0  0
 35 36  1  0  0  0
  8 10  1  0  0  0
  9 17  1  0  0  0
 12 13  2  0  0  0
 12 17  1  0  0  0
 13 14  1  0  0  0
 14 15  2  0  0  0
 15 16  1  0  0  0
 16 17  2  0  0  0
M  END
> <minimizedAffinity>
-8.75939

> <CNNscore>
0.2032565176

> <CNNaffinity>
7.5491652489

> <CNN_VS>
1.5344170332

> <CNNaffinity_variance>
1.8420555592

$$$$
/media/chris/experiments/cd1a-new-docking/inputs/ligands/1xz0_ligand.pdb


 65 67  0  0  0  0  0  0  0  0999 V2000
  -44.1969   58.9817   66.1374 C   0  0  0  0  0  0  0  0  0  0  0  0
  -45.4002   59.5400   66.7574 N   0  0  0  0  0  0  0  0  0  0  0  0
  -47.6366   59.8551   67.0261 O   0  0  0  0  0  0  0  0  0  0  0  0
  -46.6923   59.3281   66.4527 C   0  0  0  0  0  0  0  0  0  0  0  0
  -45.2399   60.1600   67.5052 H   0  0  0  0  0  0  0  0  0  0  0  0
  -47.2635   58.8829   64.0746 N   0  0  0  0  0  0  0  0  0  0  0  0
  -49.0259   57.5415   64.3692 O   0  0  0  0  0  0  0  0  0  0  0  0
  -48.2632   57.3748   65.5638 C   0  0  0  0  0  0  0  0  0  0  0  0
  -48.3377   58.4937   63.5340 C   0  0  0  0  0  0  0  0  0  0  0  0
  -47.0107   58.2794   65.3968 C   0  0  0  0  0  0  0  0  0  0  0  0
  -49.7950   60.9372   62.9833 O   0  0  0  0  0  0  0  0  0  0  0  0
  -49.5079   60.1142   61.9673 C   0  0  0  0  0  0  0  0  0  0  0  0
  -49.9005   60.4565   60.6667 C   0  0  0  0  0  0  0  0  0  0  0  0
  -49.6196   59.6053   59.5846 C   0  0  0  0  0  0  0  0  0  0  0  0
  -48.9339   58.4068   59.7896 C   0  0  0  0  0  0  0  0  0  0  0  0
  -48.5346   58.0639   61.0843 C   0  0  0  0  0  0  0  0  0  0  0  0
  -48.8224   58.9106   62.1720 C   0  0  0  0  0  0  0  0  0  0  0  0
  -50.2547   61.7376   62.8225 H   0  0  0  0  0  0  0  0  0  0  0  0
  -44.8091   56.9319   67.2139 O   0  0  0  0  0  0  0  0  0  0  0  0
  -44.3277   57.4734   66.2323 C   0  0  0  0  0  0  0  0  0  0  0  0
  -43.8061   56.6264   65.1545 O   0  0  0  0  0  0  0  0  0  0  0  0
  -42.9303   57.1568   64.1420 C   0  0  0  0  0  0  0  0  0  0  0  0
  -43.6408   57.8983   63.0163 C   0  0  0  0  0  0  0  0  0  0  0  0
  -42.0806   56.0180   63.5985 C   0  0  0  0  0  0  0  0  0  0  0  0
  -40.6801   57.4956   62.2378 N   0  0  0  0  0  0  0  0  0  0  0  0
  -41.4534   55.5341   61.4192 O   0  0  0  0  0  0  0  0  0  0  0  0
  -41.3897   56.3595   62.3014 C   0  0  0  0  0  0  0  0  0  0  0  0
  -40.7032   58.0939   63.0194 H   0  0  0  0  0  0  0  0  0  0  0  0
  -39.0090   60.1120   61.7721 N   0  0  0  0  0  0  0  0  0  0  0  0
  -37.5802   58.4529   61.2509 O   0  0  0  0  0  0  0  0  0  0  0  0
  -40.3220   60.6039   62.2149 C   0  0  0  0  0  0  0  0  0  0  0  0
  -41.3193   60.6271   61.0413 C   0  0  0  0  0  0  0  0  0  0  0  0
  -40.8237   59.9855   59.7558 C   0  0  0  0  0  0  0  0  0  0  0  0
  -40.6380   58.4706   59.8759 C   0  0  0  0  0  0  0  0  0  0  0  0
  -39.8716   57.9099   61.0855 C   0  0  0  0  0  0  0  0  0  0  0  0
  -38.7268   58.8546   61.3947 C   0  0  0  0  0  0  0  0  0  0  0  0
  -36.3177   60.4946   62.1392 Si  0  0  0  0  0  0  0  0  0  0  0  0
  -37.9851   61.0104   61.7524 O   0  0  0  0  0  0  0  0  0  0  0  0
  -35.4440   61.6102   62.0485 H   0  0  0  0  0  0  0  0  0  0  0  0
  -35.9061   59.4949   61.2185 H   0  0  0  0  0  0  0  0  0  0  0  0
  -36.2787   59.9687   63.4576 H   0  0  0  0  0  0  0  0  0  0  0  0
  -41.8037   59.8858   65.5466 C   0  0  0  0  0  0  0  0  0  0  0  0
  -42.8293   59.5176   66.6257 C   0  0  0  0  0  0  0  0  0  0  0  0
  -40.3356   59.9952   65.9918 C   0  0  0  0  0  0  0  0  0  0  0  0
  -39.3113   59.0726   65.2995 C   0  0  0  0  0  0  0  0  0  0  0  0
  -38.0861   59.8422   65.0622 N   0  0  0  0  0  0  0  0  0  0  0  0
  -36.8139   59.3949   64.8908 C   0  0  0  0  0  0  0  0  0  0  0  0
  -38.2868   61.2287   65.0089 O   0  0  0  0  0  0  0  0  0  0  0  0
  -35.8839   60.1778   64.6979 O   0  0  0  0  0  0  0  0  0  0  0  0
  -37.4390   61.6724   64.8500 H   0  0  0  0  0  0  0  0  0  0  0  0
  -36.5456   57.8869   64.9347 C   0  0  0  0  0  0  0  0  0  0  0  0
  -35.9181   57.3155   63.6559 C   0  0  0  0  0  0  0  0  0  0  0  0
  -34.4104   57.6317   63.6202 C   0  0  0  0  0  0  0  0  0  0  0  0
  -33.9880   58.4778   62.4042 C   0  0  0  0  0  0  0  0  0  0  0  0
  -32.6124   59.1565   62.5418 C   0  0  0  0  0  0  0  0  0  0  0  0
  -32.7059   60.5982   63.0838 C   0  0  0  0  0  0  0  0  0  0  0  0
  -32.1724   61.6826   62.1187 C   0  0  0  0  0  0  0  0  0  0  0  0
  -32.8677   63.0391   62.2811 C   0  0  0  0  0  0  0  0  0  0  0  0
  -32.2125   63.9959   63.2822 C   0  0  0  0  0  0  0  0  0  0  0  0
  -33.2662   64.8303   64.0330 C   0  0  0  0  0  0  0  0  0  0  0  0
  -32.7437   65.4763   65.3251 C   0  0  0  0  0  0  0  0  0  0  0  0
  -33.2992   64.8975   66.6305 C   0  0  0  0  0  0  0  0  0  0  0  0
  -33.3801   63.3507   66.6568 C   0  0  0  0  0  0  0  0  0  0  0  0
  -34.8413   62.8624   66.7269 C   0  0  0  0  0  0  0  0  0  0  0  0
  -35.9405   63.9147   66.5374 C   0  0  0  0  0  0  0  0  0  0  0  0
 46 47  1  0  0  0
 46 48  1  0  0  0
 46 45  1  0  0  0
 47 49  2  0  0  0
 47 51  1  0  0  0
 19 20  2  0  0  0
 37 38  1  0  0  0
 37 39  1  0  0  0
 37 40  1  0  0  0
 37 41  1  0  0  0
 48 50  1  0  0  0
 38 29  1  0  0  0
 45 44  1  0  0  0
 25 27  1  0  0  0
 25 35  1  0  0  0
 25 28  1  0  0  0
 21 20  1  0  0  0
 21 22  1  0  0  0
 44 42  1  0  0  0
  2  1  1  0  0  0
  2  4  1  0  0  0
  2  5  1  0  0  0
 26 27  2  0  0  0
 42 43  2  0  0  0
 29 31  1  0  0  0
 29 36  1  0  0  0
  3  4  2  0  0  0
 43  1  1  0  0  0
  6  9  2  0  0  0
  6 10  1  0  0  0
  1 20  1  0  0  0
 30 36  2  0  0  0
  7  8  1  0  0  0
  7  9  1  0  0  0
 22 24  1  0  0  0
 22 23  1  0  0  0
 11 12  1  0  0  0
 11 18  1  0  0  0
 24 27  1  0  0  0
  4 10  1  0  0  0
 51 52  1  0  0  0
 52 53  1  0  0  0
 53 54  1  0  0  0
 54 55  1  0  0  0
 55 56  1  0  0  0
 56 57  1  0  0  0
 57 58  1  0  0  0
 58 59  1  0  0  0
 59 60  1  0  0  0
 60 61  1  0  0  0
 61 62  1  0  0  0
 62 63  1  0  0  0
 63 64  1  0  0  0
 64 65  1  0  0  0
 31 32  1  0  0  0
 32 33  1  0  0  0
 33 34  1  0  0  0
 34 35  1  0  0  0
 35 36  1  0  0  0
  8 10  1  0  0  0
  9 17  1  0  0  0
 12 13  2  0  0  0
 12 17  1  0  0  0
 13 14  1  0  0  0
 14 15  2  0  0  0
 15 16  1  0  0  0
 16 17  2  0  0  0
M  END
> <minimizedAffinity>
-9.25196

> <CNNscore>
0.1197295710

> <CNNaffinity>
7.4674873352

> <CNN_VS>
0.8940790296

> <CNNaffinity_variance>
2.0043504238

$$$$
/media/chris/experiments/cd1a-new-docking/inputs/ligands/1xz0_ligand.pdb


 65 67  0  0  0  0  0  0  0  0999 V2000
  -43.5023   58.7434   64.6262 C   0  0  0  0  0  0  0  0  0  0  0  0
  -42.9504   59.5949   65.6819 N   0  0  0  0  0  0  0  0  0  0  0  0
  -41.3142   60.7117   66.7993 O   0  0  0  0  0  0  0  0  0  0  0  0
  -41.6839   60.0039   65.8717 C   0  0  0  0  0  0  0  0  0  0  0  0
  -43.6005   59.9140   66.3488 H   0  0  0  0  0  0  0  0  0  0  0  0
  -39.2870   60.0186   65.2125 N   0  0  0  0  0  0  0  0  0  0  0  0
  -39.4736   60.9368   63.1841 O   0  0  0  0  0  0  0  0  0  0  0  0
  -40.7453   60.3278   63.4044 C   0  0  0  0  0  0  0  0  0  0  0  0
  -38.6629   60.7038   64.3530 C   0  0  0  0  0  0  0  0  0  0  0  0
  -40.6573   59.6566   64.8032 C   0  0  0  0  0  0  0  0  0  0  0  0
  -37.2451   60.9606   66.8672 O   0  0  0  0  0  0  0  0  0  0  0  0
  -36.6034   61.2597   65.7312 C   0  0  0  0  0  0  0  0  0  0  0  0
  -35.2651   61.6717   65.7795 C   0  0  0  0  0  0  0  0  0  0  0  0
  -34.5723   62.0004   64.6021 C   0  0  0  0  0  0  0  0  0  0  0  0
  -35.2069   61.9112   63.3620 C   0  0  0  0  0  0  0  0  0  0  0  0
  -36.5399   61.4945   63.3080 C   0  0  0  0  0  0  0  0  0  0  0  0
  -37.2396   61.1729   64.4869 C   0  0  0  0  0  0  0  0  0  0  0  0
  -36.7989   61.0259   67.6886 H   0  0  0  0  0  0  0  0  0  0  0  0
  -45.6751   58.7045   63.6199 O   0  0  0  0  0  0  0  0  0  0  0  0
  -44.9888   59.0401   64.5711 C   0  0  0  0  0  0  0  0  0  0  0  0
  -45.6202   59.8081   65.6495 O   0  0  0  0  0  0  0  0  0  0  0  0
  -46.5209   59.1853   66.5846 C   0  0  0  0  0  0  0  0  0  0  0  0
  -46.6103   57.6691   66.4629 C   0  0  0  0  0  0  0  0  0  0  0  0
  -47.8905   59.8299   66.4329 C   0  0  0  0  0  0  0  0  0  0  0  0
  -48.3891   58.9024   64.2222 N   0  0  0  0  0  0  0  0  0  0  0  0
  -49.8079   58.6148   65.9599 O   0  0  0  0  0  0  0  0  0  0  0  0
  -48.7971   59.0818   65.4869 C   0  0  0  0  0  0  0  0  0  0  0  0
  -47.5470   59.3324   63.9477 H   0  0  0  0  0  0  0  0  0  0  0  0
  -49.3101   59.6654   61.3196 N   0  0  0  0  0  0  0  0  0  0  0  0
  -48.2577   57.6933   61.0566 O   0  0  0  0  0  0  0  0  0  0  0  0
  -49.7922   60.7796   62.1491 C   0  0  0  0  0  0  0  0  0  0  0  0
  -51.1195   60.4113   62.8385 C   0  0  0  0  0  0  0  0  0  0  0  0
  -51.5519   58.9627   62.6817 C   0  0  0  0  0  0  0  0  0  0  0  0
  -50.6296   57.9807   63.4088 C   0  0  0  0  0  0  0  0  0  0  0  0
  -49.1091   58.1102   63.2186 C   0  0  0  0  0  0  0  0  0  0  0  0
  -48.8474   58.4896   61.7742 C   0  0  0  0  0  0  0  0  0  0  0  0
  -49.4047   58.4413   58.8668 Si  0  0  0  0  0  0  0  0  0  0  0  0
  -49.3253   59.8461   59.9695 O   0  0  0  0  0  0  0  0  0  0  0  0
  -49.4079   58.8952   57.5213 H   0  0  0  0  0  0  0  0  0  0  0  0
  -50.5928   57.7065   59.1213 H   0  0  0  0  0  0  0  0  0  0  0  0
  -48.2765   57.6063   59.0819 H   0  0  0  0  0  0  0  0  0  0  0  0
  -41.8524   56.7848   64.0466 C   0  0  0  0  0  0  0  0  0  0  0  0
  -43.1732   57.2319   64.6848 C   0  0  0  0  0  0  0  0  0  0  0  0
  -41.7147   55.2906   63.7090 C   0  0  0  0  0  0  0  0  0  0  0  0
  -40.8212   54.9113   62.5100 C   0  0  0  0  0  0  0  0  0  0  0  0
  -40.6785   56.0913   61.6514 N   0  0  0  0  0  0  0  0  0  0  0  0
  -39.7161   57.0510   61.6686 C   0  0  0  0  0  0  0  0  0  0  0  0
  -41.6896   56.2196   60.6887 O   0  0  0  0  0  0  0  0  0  0  0  0
  -39.7371   57.9887   60.8715 O   0  0  0  0  0  0  0  0  0  0  0  0
  -41.5328   57.0173   60.1595 H   0  0  0  0  0  0  0  0  0  0  0  0
  -38.5863   56.9504   62.6990 C   0  0  0  0  0  0  0  0  0  0  0  0
  -37.4143   57.9101   62.4530 C   0  0  0  0  0  0  0  0  0  0  0  0
  -36.4216   57.8446   63.6298 C   0  0  0  0  0  0  0  0  0  0  0  0
  -35.0821   57.1755   63.2679 C   0  0  0  0  0  0  0  0  0  0  0  0
  -34.0355   58.1252   62.6556 C   0  0  0  0  0  0  0  0  0  0  0  0
  -33.1434   58.8005   63.7182 C   0  0  0  0  0  0  0  0  0  0  0  0
  -31.8030   59.3494   63.1760 C   0  0  0  0  0  0  0  0  0  0  0  0
  -31.9436   60.0962   61.8446 C   0  0  0  0  0  0  0  0  0  0  0  0
  -30.6558   60.7303   61.3095 C   0  0  0  0  0  0  0  0  0  0  0  0
  -30.8652   62.2146   60.9584 C   0  0  0  0  0  0  0  0  0  0  0  0
  -32.1026   62.8420   61.6180 C   0  0  0  0  0  0  0  0  0  0  0  0
  -32.5366   64.2017   61.0607 C   0  0  0  0  0  0  0  0  0  0  0  0
  -34.0649   64.4502   61.1082 C   0  0  0  0  0  0  0  0  0  0  0  0
  -34.4161   65.6373   62.0277 C   0  0  0  0  0  0  0  0  0  0  0  0
  -33.5185   65.8651   63.2500 C   0  0  0  0  0  0  0  0  0  0  0  0
 46 47  1  0  0  0
 46 48  1  0  0  0
 46 45  1  0  0  0
 47 49  2  0  0  0
 47 51  1  0  0  0
 19 20  2  0  0  0
 37 38  1  0  0  0
 37 39  1  0  0  0
 37 40  1  0  0  0
 37 41  1  0  0  0
 48 50  1  0  0  0
 38 29  1  0  0  0
 45 44  1  0  0  0
 25 27  1  0  0  0
 25 35  1  0  0  0
 25 28  1  0  0  0
 21 20  1  0  0  0
 21 22  1  0  0  0
 44 42  1  0  0  0
  2  1  1  0  0  0
  2  4  1  0  0  0
  2  5  1  0  0  0
 26 27  2  0  0  0
 42 43  2  0  0  0
 29 31  1  0  0  0
 29 36  1  0  0  0
  3  4  2  0  0  0
 43  1  1  0  0  0
  6  9  2  0  0  0
  6 10  1  0  0  0
  1 20  1  0  0  0
 30 36  2  0  0  0
  7  8  1  0  0  0
  7  9  1  0  0  0
 22 24  1  0  0  0
 22 23  1  0  0  0
 11 12  1  0  0  0
 11 18  1  0  0  0
 24 27  1  0  0  0
  4 10  1  0  0  0
 51 52  1  0  0  0
 52 53  1  0  0  0
 53 54  1  0  0  0
 54 55  1  0  0  0
 55 56  1  0  0  0
 56 57  1  0  0  0
 57 58  1  0  0  0
 58 59  1  0  0  0
 59 60  1  0  0  0
 60 61  1  0  0  0
 61 62  1  0  0  0
 62 63  1  0  0  0
 63 64  1  0  0  0
 64 65  1  0  0  0
 31 32  1  0  0  0
 32 33  1  0  0  0
 33 34  1  0  0  0
 34 35  1  0  0  0
 35 36  1  0  0  0
  8 10  1  0  0  0
  9 17  1  0  0  0
 12 13  2  0  0  0
 12 17  1  0  0  0
 13 14  1  0  0  0
 14 15  2  0  0  0
 15 16  1  0  0  0
 16 17  2  0  0  0
M  END
> <minimizedAffinity>
-8.84223

> <CNNscore>
0.1157172173

> <CNNaffinity>
7.0786948204

> <CNN_VS>
0.8191268444

> <CNNaffinity_variance>
1.1788188219

$$$$
/media/chris/experiments/cd1a-new-docking/inputs/ligands/1xz0_ligand.pdb


 65 67  0  0  0  0  0  0  0  0999 V2000
  -41.2110   58.7150   64.6849 C   0  0  0  0  0  0  0  0  0  0  0  0
  -39.8924   58.0865   64.5829 N   0  0  0  0  0  0  0  0  0  0  0  0
  -37.6216   58.0075   64.6848 O   0  0  0  0  0  0  0  0  0  0  0  0
  -38.6770   58.6147   64.8096 C   0  0  0  0  0  0  0  0  0  0  0  0
  -39.8964   57.1409   64.3089 H   0  0  0  0  0  0  0  0  0  0  0  0
  -37.9012   60.9495   64.4538 N   0  0  0  0  0  0  0  0  0  0  0  0
  -36.8967   61.3019   66.4182 O   0  0  0  0  0  0  0  0  0  0  0  0
  -37.8687   60.2969   66.7042 C   0  0  0  0  0  0  0  0  0  0  0  0
  -36.9878   61.6191   65.0151 C   0  0  0  0  0  0  0  0  0  0  0  0
  -38.6096   60.0302   65.3645 C   0  0  0  0  0  0  0  0  0  0  0  0
  -37.0841   62.2386   62.1859 O   0  0  0  0  0  0  0  0  0  0  0  0
  -36.2423   62.9248   62.9683 C   0  0  0  0  0  0  0  0  0  0  0  0
  -35.4433   63.9315   62.4106 C   0  0  0  0  0  0  0  0  0  0  0  0
  -34.5448   64.6596   63.2087 C   0  0  0  0  0  0  0  0  0  0  0  0
  -34.4425   64.3961   64.5756 C   0  0  0  0  0  0  0  0  0  0  0  0
  -35.2420   63.3971   65.1380 C   0  0  0  0  0  0  0  0  0  0  0  0
  -36.1369   62.6597   64.3392 C   0  0  0  0  0  0  0  0  0  0  0  0
  -37.1377   62.4334   61.2710 H   0  0  0  0  0  0  0  0  0  0  0  0
  -40.7911   60.8939   65.5855 O   0  0  0  0  0  0  0  0  0  0  0  0
  -40.9798   60.2112   64.5921 C   0  0  0  0  0  0  0  0  0  0  0  0
  -41.0481   60.8808   63.2890 O   0  0  0  0  0  0  0  0  0  0  0  0
  -42.2807   61.4406   62.7981 C   0  0  0  0  0  0  0  0  0  0  0  0
  -43.5128   60.5827   63.0581 C   0  0  0  0  0  0  0  0  0  0  0  0
  -42.1176   61.7314   61.3138 C   0  0  0  0  0  0  0  0  0  0  0  0
  -41.6239   59.3404   61.1251 N   0  0  0  0  0  0  0  0  0  0  0  0
  -41.3629   60.7328   59.3619 O   0  0  0  0  0  0  0  0  0  0  0  0
  -41.6341   60.5396   60.5250 C   0  0  0  0  0  0  0  0  0  0  0  0
  -41.8631   59.3043   62.0795 H   0  0  0  0  0  0  0  0  0  0  0  0
  -39.1590   57.4396   61.5327 N   0  0  0  0  0  0  0  0  0  0  0  0
  -40.9339   56.0592   61.6322 O   0  0  0  0  0  0  0  0  0  0  0  0
  -38.5570   58.7714   61.3720 C   0  0  0  0  0  0  0  0  0  0  0  0
  -38.4518   59.1457   59.8816 C   0  0  0  0  0  0  0  0  0  0  0  0
  -39.1354   58.1859   58.9217 C   0  0  0  0  0  0  0  0  0  0  0  0
  -40.6604   58.1889   59.0572 C   0  0  0  0  0  0  0  0  0  0  0  0
  -41.2816   58.0782   60.4595 C   0  0  0  0  0  0  0  0  0  0  0  0
  -40.4364   57.1175   61.2728 C   0  0  0  0  0  0  0  0  0  0  0  0
  -36.7447   56.8283   62.6822 Si  0  0  0  0  0  0  0  0  0  0  0  0
  -38.3504   56.4458   61.9959 O   0  0  0  0  0  0  0  0  0  0  0  0
  -36.1056   55.6274   63.0893 H   0  0  0  0  0  0  0  0  0  0  0  0
  -36.9013   57.6849   63.8039 H   0  0  0  0  0  0  0  0  0  0  0  0
  -35.9517   57.4765   61.6987 H   0  0  0  0  0  0  0  0  0  0  0  0
  -43.3444   57.4512   65.5484 C   0  0  0  0  0  0  0  0  0  0  0  0
  -42.1088   58.2988   65.8753 C   0  0  0  0  0  0  0  0  0  0  0  0
  -44.4533   57.4002   66.6129 C   0  0  0  0  0  0  0  0  0  0  0  0
  -45.8976   57.1636   66.1252 C   0  0  0  0  0  0  0  0  0  0  0  0
  -46.6983   58.3424   66.4701 N   0  0  0  0  0  0  0  0  0  0  0  0
  -48.0036   58.6015   66.1930 C   0  0  0  0  0  0  0  0  0  0  0  0
  -45.9923   59.3199   67.1855 O   0  0  0  0  0  0  0  0  0  0  0  0
  -48.5362   59.6499   66.5569 O   0  0  0  0  0  0  0  0  0  0  0  0
  -46.5802   60.0668   67.3789 H   0  0  0  0  0  0  0  0  0  0  0  0
  -48.8185   57.5602   65.4186 C   0  0  0  0  0  0  0  0  0  0  0  0
  -49.1851   57.9760   63.9875 C   0  0  0  0  0  0  0  0  0  0  0  0
  -48.0392   58.7975   63.3659 C   0  0  0  0  0  0  0  0  0  0  0  0
  -48.4167   60.2641   63.0837 C   0  0  0  0  0  0  0  0  0  0  0  0
  -49.9252   60.5646   63.1616 C   0  0  0  0  0  0  0  0  0  0  0  0
  -50.6130   60.5461   61.7805 C   0  0  0  0  0  0  0  0  0  0  0  0
  -49.6396   60.5215   60.5790 C   0  0  0  0  0  0  0  0  0  0  0  0
  -49.7531   59.2516   59.7278 C   0  0  0  0  0  0  0  0  0  0  0  0
  -50.3995   58.0505   60.4253 C   0  0  0  0  0  0  0  0  0  0  0  0
  -49.4397   56.8479   60.4762 C   0  0  0  0  0  0  0  0  0  0  0  0
  -48.0916   57.0973   59.7830 C   0  0  0  0  0  0  0  0  0  0  0  0
  -47.5135   55.9105   59.0052 C   0  0  0  0  0  0  0  0  0  0  0  0
  -47.4387   56.1295   57.4735 C   0  0  0  0  0  0  0  0  0  0  0  0
  -48.0512   57.4848   57.0659 C   0  0  0  0  0  0  0  0  0  0  0  0
  -47.0843   58.5732   56.5841 C   0  0  0  0  0  0  0  0  0  0  0  0
 46 47  1  0  0  0
 46 48  1  0  0  0
 46 45  1  0  0  0
 47 49  2  0  0  0
 47 51  1  0  0  0
 19 20  2  0  0  0
 37 38  1  0  0  0
 37 39  1  0  0  0
 37 40  1  0  0  0
 37 41  1  0  0  0
 48 50  1  0  0  0
 38 29  1  0  0  0
 45 44  1  0  0  0
 25 27  1  0  0  0
 25 35  1  0  0  0
 25 28  1  0  0  0
 21 20  1  0  0  0
 21 22  1  0  0  0
 44 42  1  0  0  0
  2  1  1  0  0  0
  2  4  1  0  0  0
  2  5  1  0  0  0
 26 27  2  0  0  0
 42 43  2  0  0  0
 29 31  1  0  0  0
 29 36  1  0  0  0
  3  4  2  0  0  0
 43  1  1  0  0  0
  6  9  2  0  0  0
  6 10  1  0  0  0
  1 20  1  0  0  0
 30 36  2  0  0  0
  7  8  1  0  0  0
  7  9  1  0  0  0
 22 24  1  0  0  0
 22 23  1  0  0  0
 11 12  1  0  0  0
 11 18  1  0  0  0
 24 27  1  0  0  0
  4 10  1  0  0  0
 51 52  1  0  0  0
 52 53  1  0  0  0
 53 54  1  0  0  0
 54 55  1  0  0  0
 55 56  1  0  0  0
 56 57  1  0  0  0
 57 58  1  0  0  0
 58 59  1  0  0  0
 59 60  1  0  0  0
 60 61  1  0  0  0
 61 62  1  0  0  0
 62 63  1  0  0  0
 63 64  1  0  0  0
 64 65  1  0  0  0
 31 32  1  0  0  0
 32 33  1  0  0  0
 33 34  1  0  0  0
 34 35  1  0  0  0
 35 36  1  0  0  0
  8 10  1  0  0  0
  9 17  1  0  0  0
 12 13  2  0  0  0
 12 17  1  0  0  0
 13 14  1  0  0  0
 14 15  2  0  0  0
 15 16  1  0  0  0
 16 17  2  0  0  0
M  END
> <minimizedAffinity>
-10.01007

> <CNNscore>
0.1146675944

> <CNNaffinity>
7.6403303146

> <CNN_VS>
0.8760982752

> <CNNaffinity_variance>
1.9122943878

$$$$
/media/chris/experiments/cd1a-new-docking/inputs/ligands/1xz0_ligand.pdb


 65 67  0  0  0  0  0  0  0  0999 V2000
  -44.2145   57.9622   65.2802 C   0  0  0  0  0  0  0  0  0  0  0  0
  -43.6220   58.8570   66.2764 N   0  0  0  0  0  0  0  0  0  0  0  0
  -42.0147   60.2059   67.1540 O   0  0  0  0  0  0  0  0  0  0  0  0
  -42.4310   59.4803   66.2604 C   0  0  0  0  0  0  0  0  0  0  0  0
  -44.1756   59.0265   67.0726 H   0  0  0  0  0  0  0  0  0  0  0  0
  -40.1481   59.5395   65.2782 N   0  0  0  0  0  0  0  0  0  0  0  0
  -40.5151   60.9576   63.5911 O   0  0  0  0  0  0  0  0  0  0  0  0
  -41.7960   60.3794   63.8394 C   0  0  0  0  0  0  0  0  0  0  0  0
  -39.5831   60.3896   64.5326 C   0  0  0  0  0  0  0  0  0  0  0  0
  -41.5864   59.3670   64.9994 C   0  0  0  0  0  0  0  0  0  0  0  0
  -38.0129   61.1269   62.2114 O   0  0  0  0  0  0  0  0  0  0  0  0
  -37.4182   61.0993   63.4103 C   0  0  0  0  0  0  0  0  0  0  0  0
  -36.0638   61.4406   63.5197 C   0  0  0  0  0  0  0  0  0  0  0  0
  -35.4142   61.4103   64.7652 C   0  0  0  0  0  0  0  0  0  0  0  0
  -36.1143   61.0481   65.9172 C   0  0  0  0  0  0  0  0  0  0  0  0
  -37.4673   60.7129   65.8144 C   0  0  0  0  0  0  0  0  0  0  0  0
  -38.1188   60.7337   64.5663 C   0  0  0  0  0  0  0  0  0  0  0  0
  -37.5240   61.3748   61.4515 H   0  0  0  0  0  0  0  0  0  0  0  0
  -46.0109   57.1325   66.6292 O   0  0  0  0  0  0  0  0  0  0  0  0
  -45.6726   57.7995   65.6653 C   0  0  0  0  0  0  0  0  0  0  0  0
  -46.7192   58.3973   64.8295 O   0  0  0  0  0  0  0  0  0  0  0  0
  -47.0706   59.7885   64.9498 C   0  0  0  0  0  0  0  0  0  0  0  0
  -47.9510   60.1172   66.1492 C   0  0  0  0  0  0  0  0  0  0  0  0
  -47.7257   60.2317   63.6503 C   0  0  0  0  0  0  0  0  0  0  0  0
  -48.6344   58.5599   62.1090 N   0  0  0  0  0  0  0  0  0  0  0  0
  -49.8112   59.2524   63.9120 O   0  0  0  0  0  0  0  0  0  0  0  0
  -48.8344   59.3124   63.2008 C   0  0  0  0  0  0  0  0  0  0  0  0
  -47.7991   58.6963   61.6060 H   0  0  0  0  0  0  0  0  0  0  0  0
  -48.4513   56.6926   59.5921 N   0  0  0  0  0  0  0  0  0  0  0  0
  -48.9692   55.2901   61.2745 O   0  0  0  0  0  0  0  0  0  0  0  0
  -48.1576   58.0322   59.0620 C   0  0  0  0  0  0  0  0  0  0  0  0
  -49.4595   58.8151   58.8074 C   0  0  0  0  0  0  0  0  0  0  0  0
  -50.7278   58.1463   59.3114 C   0  0  0  0  0  0  0  0  0  0  0  0
  -50.7965   58.0673   60.8388 C   0  0  0  0  0  0  0  0  0  0  0  0
  -49.5726   57.5474   61.6112 C   0  0  0  0  0  0  0  0  0  0  0  0
  -48.9540   56.4207   60.8072 C   0  0  0  0  0  0  0  0  0  0  0  0
  -48.3442   55.7806   57.0074 Si  0  0  0  0  0  0  0  0  0  0  0  0
  -48.1799   55.6320   58.7813 O   0  0  0  0  0  0  0  0  0  0  0  0
  -48.0058   54.5447   56.3955 H   0  0  0  0  0  0  0  0  0  0  0  0
  -47.4725   56.7971   56.5349 H   0  0  0  0  0  0  0  0  0  0  0  0
  -49.6848   56.1181   56.6828 H   0  0  0  0  0  0  0  0  0  0  0  0
  -42.2452   56.6739   64.1155 C   0  0  0  0  0  0  0  0  0  0  0  0
  -43.4917   56.6208   65.0074 C   0  0  0  0  0  0  0  0  0  0  0  0
  -41.7829   55.3480   63.4881 C   0  0  0  0  0  0  0  0  0  0  0  0
  -41.3186   55.3804   62.0173 C   0  0  0  0  0  0  0  0  0  0  0  0
  -41.0146   56.7700   61.6616 N   0  0  0  0  0  0  0  0  0  0  0  0
  -39.8459   57.4514   61.7936 C   0  0  0  0  0  0  0  0  0  0  0  0
  -42.0996   57.4661   61.1105 O   0  0  0  0  0  0  0  0  0  0  0  0
  -39.7509   58.6274   61.4429 O   0  0  0  0  0  0  0  0  0  0  0  0
  -41.8285   58.3734   60.9001 H   0  0  0  0  0  0  0  0  0  0  0  0
  -38.6298   56.7308   62.3852 C   0  0  0  0  0  0  0  0  0  0  0  0
  -37.4286   57.6418   62.6722 C   0  0  0  0  0  0  0  0  0  0  0  0
  -36.8890   57.3739   64.0905 C   0  0  0  0  0  0  0  0  0  0  0  0
  -35.4164   57.7859   64.2763 C   0  0  0  0  0  0  0  0  0  0  0  0
  -34.6932   58.1852   62.9765 C   0  0  0  0  0  0  0  0  0  0  0  0
  -33.2717   57.5936   62.8745 C   0  0  0  0  0  0  0  0  0  0  0  0
  -32.1342   58.6066   63.1423 C   0  0  0  0  0  0  0  0  0  0  0  0
  -32.2359   59.8772   62.2906 C   0  0  0  0  0  0  0  0  0  0  0  0
  -30.9249   60.6472   62.1028 C   0  0  0  0  0  0  0  0  0  0  0  0
  -30.9491   61.9889   62.8574 C   0  0  0  0  0  0  0  0  0  0  0  0
  -32.3520   62.4263   63.3051 C   0  0  0  0  0  0  0  0  0  0  0  0
  -32.4008   63.5966   64.2928 C   0  0  0  0  0  0  0  0  0  0  0  0
  -32.2970   63.1780   65.7807 C   0  0  0  0  0  0  0  0  0  0  0  0
  -33.3853   63.8578   66.6361 C   0  0  0  0  0  0  0  0  0  0  0  0
  -33.2139   65.3536   66.9271 C   0  0  0  0  0  0  0  0  0  0  0  0
 46 47  1  0  0  0
 46 48  1  0  0  0
 46 45  1  0  0  0
 47 49  2  0  0  0
 47 51  1  0  0  0
 19 20  2  0  0  0
 37 38  1  0  0  0
 37 39  1  0  0  0
 37 40  1  0  0  0
 37 41  1  0  0  0
 48 50  1  0  0  0
 38 29  1  0  0  0
 45 44  1  0  0  0
 25 27  1  0  0  0
 25 35  1  0  0  0
 25 28  1  0  0  0
 21 20  1  0  0  0
 21 22  1  0  0  0
 44 42  1  0  0  0
  2  1  1  0  0  0
  2  4  1  0  0  0
  2  5  1  0  0  0
 26 27  2  0  0  0
 42 43  2  0  0  0
 29 31  1  0  0  0
 29 36  1  0  0  0
  3  4  2  0  0  0
 43  1  1  0  0  0
  6  9  2  0  0  0
  6 10  1  0  0  0
  1 20  1  0  0  0
 30 36  2  0  0  0
  7  8  1  0  0  0
  7  9  1  0  0  0
 22 24  1  0  0  0
 22 23  1  0  0  0
 11 12  1  0  0  0
 11 18  1  0  0  0
 24 27  1  0  0  0
  4 10  1  0  0  0
 51 52  1  0  0  0
 52 53  1  0  0  0
 53 54  1  0  0  0
 54 55  1  0  0  0
 55 56  1  0  0  0
 56 57  1  0  0  0
 57 58  1  0  0  0
 58 59  1  0  0  0
 59 60  1  0  0  0
 60 61  1  0  0  0
 61 62  1  0  0  0
 62 63  1  0  0  0
 63 64  1  0  0  0
 64 65  1  0  0  0
 31 32  1  0  0  0
 32 33  1  0  0  0
 33 34  1  0  0  0
 34 35  1  0  0  0
 35 36  1  0  0  0
  8 10  1  0  0  0
  9 17  1  0  0  0
 12 13  2  0  0  0
 12 17  1  0  0  0
 13 14  1  0  0  0
 14 15  2  0  0  0
 15 16  1  0  0  0
 16 17  2  0  0  0
M  END
> <minimizedAffinity>
-8.85436

> <CNNscore>
0.1138783917

> <CNNaffinity>
7.3136186600

> <CNN_VS>
0.8328631520

> <CNNaffinity_variance>
0.7982048988

$$$$
/media/chris/experiments/cd1a-new-docking/inputs/ligands/1xz0_ligand.pdb


 65 67  0  0  0  0  0  0  0  0999 V2000
  -42.1538   57.5653   65.6373 C   0  0  0  0  0  0  0  0  0  0  0  0
  -41.7637   58.9112   66.0620 N   0  0  0  0  0  0  0  0  0  0  0  0
  -41.3845   61.1383   65.7987 O   0  0  0  0  0  0  0  0  0  0  0  0
  -41.7411   60.0547   65.3553 C   0  0  0  0  0  0  0  0  0  0  0  0
  -41.4765   58.9902   67.0004 H   0  0  0  0  0  0  0  0  0  0  0  0
  -41.4560   59.2321   63.0268 N   0  0  0  0  0  0  0  0  0  0  0  0
  -41.7290   61.1569   61.9255 O   0  0  0  0  0  0  0  0  0  0  0  0
  -42.4460   61.3528   63.1437 C   0  0  0  0  0  0  0  0  0  0  0  0
  -41.1494   59.8375   61.9604 C   0  0  0  0  0  0  0  0  0  0  0  0
  -42.2997   60.0264   63.9399 C   0  0  0  0  0  0  0  0  0  0  0  0
  -41.8607   57.4449   60.4884 O   0  0  0  0  0  0  0  0  0  0  0  0
  -40.7446   58.1022   60.1509 C   0  0  0  0  0  0  0  0  0  0  0  0
  -39.9582   57.6327   59.0906 C   0  0  0  0  0  0  0  0  0  0  0  0
  -38.7771   58.2992   58.7228 C   0  0  0  0  0  0  0  0  0  0  0  0
  -38.3743   59.4487   59.4048 C   0  0  0  0  0  0  0  0  0  0  0  0
  -39.1588   59.9246   60.4591 C   0  0  0  0  0  0  0  0  0  0  0  0
  -40.3381   59.2539   60.8357 C   0  0  0  0  0  0  0  0  0  0  0  0
  -42.1130   56.6763   60.0157 H   0  0  0  0  0  0  0  0  0  0  0  0
  -41.3846   56.5353   63.6167 O   0  0  0  0  0  0  0  0  0  0  0  0
  -41.0930   57.1021   64.6570 C   0  0  0  0  0  0  0  0  0  0  0  0
  -39.6733   57.2721   64.9838 O   0  0  0  0  0  0  0  0  0  0  0  0
  -38.8400   58.1888   64.2496 C   0  0  0  0  0  0  0  0  0  0  0  0
  -37.8630   57.5241   63.2878 C   0  0  0  0  0  0  0  0  0  0  0  0
  -38.1107   59.0771   65.2462 C   0  0  0  0  0  0  0  0  0  0  0  0
  -36.8601   61.1823   65.2250 N   0  0  0  0  0  0  0  0  0  0  0  0
  -38.6395   60.8636   63.8658 O   0  0  0  0  0  0  0  0  0  0  0  0
  -37.8985   60.4837   64.7434 C   0  0  0  0  0  0  0  0  0  0  0  0
  -36.3251   60.7711   65.9420 H   0  0  0  0  0  0  0  0  0  0  0  0
  -34.4181   62.0708   63.4637 N   0  0  0  0  0  0  0  0  0  0  0  0
  -36.1874   63.0509   62.4763 O   0  0  0  0  0  0  0  0  0  0  0  0
  -33.8144   61.2321   64.5096 C   0  0  0  0  0  0  0  0  0  0  0  0
  -33.6082   62.0401   65.8047 C   0  0  0  0  0  0  0  0  0  0  0  0
  -34.2178   63.4323   65.8048 C   0  0  0  0  0  0  0  0  0  0  0  0
  -35.7485   63.4154   65.7802 C   0  0  0  0  0  0  0  0  0  0  0  0
  -36.4649   62.5163   64.7588 C   0  0  0  0  0  0  0  0  0  0  0  0
  -35.6725   62.5500   63.4666 C   0  0  0  0  0  0  0  0  0  0  0  0
  -32.2368   63.4765   62.5750 Si  0  0  0  0  0  0  0  0  0  0  0  0
  -33.6377   62.3814   62.3911 O   0  0  0  0  0  0  0  0  0  0  0  0
  -31.5938   63.6377   61.3193 H   0  0  0  0  0  0  0  0  0  0  0  0
  -31.3213   62.9213   63.5077 H   0  0  0  0  0  0  0  0  0  0  0  0
  -32.6824   64.7405   63.0443 H   0  0  0  0  0  0  0  0  0  0  0  0
  -44.7343   57.6817   66.1080 C   0  0  0  0  0  0  0  0  0  0  0  0
  -43.6008   57.3718   65.1226 C   0  0  0  0  0  0  0  0  0  0  0  0
  -46.1182   57.0952   65.7818 C   0  0  0  0  0  0  0  0  0  0  0  0
  -47.3538   57.9499   66.1319 C   0  0  0  0  0  0  0  0  0  0  0  0
  -47.4222   59.0683   65.1862 N   0  0  0  0  0  0  0  0  0  0  0  0
  -48.3097   60.0968   65.1396 C   0  0  0  0  0  0  0  0  0  0  0  0
  -46.4194   59.0468   64.2067 O   0  0  0  0  0  0  0  0  0  0  0  0
  -48.2309   60.9674   64.2731 O   0  0  0  0  0  0  0  0  0  0  0  0
  -46.5249   59.8112   63.6190 H   0  0  0  0  0  0  0  0  0  0  0  0
  -49.4202   60.1667   66.1931 C   0  0  0  0  0  0  0  0  0  0  0  0
  -50.7298   59.4796   65.7829 C   0  0  0  0  0  0  0  0  0  0  0  0
  -51.4667   60.3315   64.7314 C   0  0  0  0  0  0  0  0  0  0  0  0
  -51.5518   59.6615   63.3469 C   0  0  0  0  0  0  0  0  0  0  0  0
  -50.8435   60.4320   62.2169 C   0  0  0  0  0  0  0  0  0  0  0  0
  -49.6717   59.6434   61.5956 C   0  0  0  0  0  0  0  0  0  0  0  0
  -49.7153   59.5380   60.0533 C   0  0  0  0  0  0  0  0  0  0  0  0
  -50.3070   58.2169   59.5486 C   0  0  0  0  0  0  0  0  0  0  0  0
  -50.1989   57.0369   60.5195 C   0  0  0  0  0  0  0  0  0  0  0  0
  -49.0852   56.0620   60.0960 C   0  0  0  0  0  0  0  0  0  0  0  0
  -47.8199   56.7541   59.5668 C   0  0  0  0  0  0  0  0  0  0  0  0
  -47.0783   56.0184   58.4459 C   0  0  0  0  0  0  0  0  0  0  0  0
  -47.8106   56.0351   57.0809 C   0  0  0  0  0  0  0  0  0  0  0  0
  -48.1856   57.4700   56.6583 C   0  0  0  0  0  0  0  0  0  0  0  0
  -47.0481   58.4950   56.5757 C   0  0  0  0  0  0  0  0  0  0  0  0
 46 47  1  0  0  0
 46 48  1  0  0  0
 46 45  1  0  0  0
 47 49  2  0  0  0
 47 51  1  0  0  0
 19 20  2  0  0  0
 37 38  1  0  0  0
 37 39  1  0  0  0
 37 40  1  0  0  0
 37 41  1  0  0  0
 48 50  1  0  0  0
 38 29  1  0  0  0
 45 44  1  0  0  0
 25 27  1  0  0  0
 25 35  1  0  0  0
 25 28  1  0  0  0
 21 20  1  0  0  0
 21 22  1  0  0  0
 44 42  1  0  0  0
  2  1  1  0  0  0
  2  4  1  0  0  0
  2  5  1  0  0  0
 26 27  2  0  0  0
 42 43  2  0  0  0
 29 31  1  0  0  0
 29 36  1  0  0  0
  3  4  2  0  0  0
 43  1  1  0  0  0
  6  9  2  0  0  0
  6 10  1  0  0  0
  1 20  1  0  0  0
 30 36  2  0  0  0
  7  8  1  0  0  0
  7  9  1  0  0  0
 22 24  1  0  0  0
 22 23  1  0  0  0
 11 12  1  0  0  0
 11 18  1  0  0  0
 24 27  1  0  0  0
  4 10  1  0  0  0
 51 52  1  0  0  0
 52 53  1  0  0  0
 53 54  1  0  0  0
 54 55  1  0  0  0
 55 56  1  0  0  0
 56 57  1  0  0  0
 57 58  1  0  0  0
 58 59  1  0  0  0
 59 60  1  0  0  0
 60 61  1  0  0  0
 61 62  1  0  0  0
 62 63  1  0  0  0
 63 64  1  0  0  0
 64 65  1  0  0  0
 31 32  1  0  0  0
 32 33  1  0  0  0
 33 34  1  0  0  0
 34 35  1  0  0  0
 35 36  1  0  0  0
  8 10  1  0  0  0
  9 17  1  0  0  0
 12 13  2  0  0  0
 12 17  1  0  0  0
 13 14  1  0  0  0
 14 15  2  0  0  0
 15 16  1  0  0  0
 16 17  2  0  0  0
M  END
> <minimizedAffinity>
-10.43802

> <CNNscore>
0.1067465544

> <CNNaffinity>
7.3808202744

> <CNN_VS>
0.7878771424

> <CNNaffinity_variance>
1.2442724705

$$$$
/media/chris/experiments/cd1a-new-docking/inputs/ligands/1xz0_ligand.pdb


 65 67  0  0  0  0  0  0  0  0999 V2000
  -40.2053   59.4548   65.0445 C   0  0  0  0  0  0  0  0  0  0  0  0
  -39.2554   60.0336   65.9968 N   0  0  0  0  0  0  0  0  0  0  0  0
  -37.2655   60.9089   66.6655 O   0  0  0  0  0  0  0  0  0  0  0  0
  -37.9915   60.4455   65.7958 C   0  0  0  0  0  0  0  0  0  0  0  0
  -39.5906   60.1359   66.9168 H   0  0  0  0  0  0  0  0  0  0  0  0
  -36.1246   59.8191   64.2785 N   0  0  0  0  0  0  0  0  0  0  0  0
  -35.8607   61.7615   63.2062 O   0  0  0  0  0  0  0  0  0  0  0  0
  -37.2230   61.7852   63.6307 C   0  0  0  0  0  0  0  0  0  0  0  0
  -35.2755   60.5267   63.6654 C   0  0  0  0  0  0  0  0  0  0  0  0
  -37.4603   60.4389   64.3697 C   0  0  0  0  0  0  0  0  0  0  0  0
  -34.3251   57.7905   63.5808 O   0  0  0  0  0  0  0  0  0  0  0  0
  -33.4581   58.7823   63.3432 C   0  0  0  0  0  0  0  0  0  0  0  0
  -32.1233   58.4787   63.0448 C   0  0  0  0  0  0  0  0  0  0  0  0
  -31.1916   59.5018   62.8009 C   0  0  0  0  0  0  0  0  0  0  0  0
  -31.5865   60.8400   62.8428 C   0  0  0  0  0  0  0  0  0  0  0  0
  -32.9184   61.1479   63.1338 C   0  0  0  0  0  0  0  0  0  0  0  0
  -33.8524   60.1251   63.3873 C   0  0  0  0  0  0  0  0  0  0  0  0
  -34.0385   56.8991   63.5456 H   0  0  0  0  0  0  0  0  0  0  0  0
  -41.6745   61.3387   65.2105 O   0  0  0  0  0  0  0  0  0  0  0  0
  -41.0118   60.6127   64.4879 C   0  0  0  0  0  0  0  0  0  0  0  0
  -41.0607   60.8384   63.0396 O   0  0  0  0  0  0  0  0  0  0  0  0
  -42.3029   60.7787   62.3136 C   0  0  0  0  0  0  0  0  0  0  0  0
  -43.2629   61.9249   62.6073 C   0  0  0  0  0  0  0  0  0  0  0  0
  -42.9551   59.4322   62.5892 C   0  0  0  0  0  0  0  0  0  0  0  0
  -41.1628   58.5163   61.1946 N   0  0  0  0  0  0  0  0  0  0  0  0
  -42.4174   57.1778   62.5172 O   0  0  0  0  0  0  0  0  0  0  0  0
  -42.1576   58.2666   62.0584 C   0  0  0  0  0  0  0  0  0  0  0  0
  -41.0454   59.4445   60.8878 H   0  0  0  0  0  0  0  0  0  0  0  0
  -38.0423   58.2991   61.4598 N   0  0  0  0  0  0  0  0  0  0  0  0
  -38.7832   56.2594   62.0567 O   0  0  0  0  0  0  0  0  0  0  0  0
  -38.2644   59.6800   61.0065 C   0  0  0  0  0  0  0  0  0  0  0  0
  -38.4710   59.7262   59.4808 C   0  0  0  0  0  0  0  0  0  0  0  0
  -38.5882   58.3721   58.8006 C   0  0  0  0  0  0  0  0  0  0  0  0
  -39.8624   57.6165   59.1871 C   0  0  0  0  0  0  0  0  0  0  0  0
  -40.2367   57.5039   60.6744 C   0  0  0  0  0  0  0  0  0  0  0  0
  -38.9581   57.3171   61.4674 C   0  0  0  0  0  0  0  0  0  0  0  0
  -36.5944   56.8671   63.2975 Si  0  0  0  0  0  0  0  0  0  0  0  0
  -36.7985   57.9912   61.9225 O   0  0  0  0  0  0  0  0  0  0  0  0
  -35.2119   56.7142   63.5828 H   0  0  0  0  0  0  0  0  0  0  0  0
  -37.1512   55.6043   62.9631 H   0  0  0  0  0  0  0  0  0  0  0  0
  -37.2583   57.3898   64.4388 H   0  0  0  0  0  0  0  0  0  0  0  0
  -42.5880   58.5111   65.6156 C   0  0  0  0  0  0  0  0  0  0  0  0
  -41.0753   58.2722   65.5352 C   0  0  0  0  0  0  0  0  0  0  0  0
  -43.3995   57.5389   66.4885 C   0  0  0  0  0  0  0  0  0  0  0  0
  -44.7755   57.0857   65.9586 C   0  0  0  0  0  0  0  0  0  0  0  0
  -45.8122   57.8539   66.6549 N   0  0  0  0  0  0  0  0  0  0  0  0
  -46.4093   59.0176   66.2847 C   0  0  0  0  0  0  0  0  0  0  0  0
  -46.2249   57.2833   67.8672 O   0  0  0  0  0  0  0  0  0  0  0  0
  -47.2733   59.5420   66.9872 O   0  0  0  0  0  0  0  0  0  0  0  0
  -46.9080   57.8410   68.2712 H   0  0  0  0  0  0  0  0  0  0  0  0
  -45.9958   59.6761   64.9643 C   0  0  0  0  0  0  0  0  0  0  0  0
  -47.1531   59.9216   63.9866 C   0  0  0  0  0  0  0  0  0  0  0  0
  -48.0838   58.6941   63.9506 C   0  0  0  0  0  0  0  0  0  0  0  0
  -49.5525   59.0260   64.2761 C   0  0  0  0  0  0  0  0  0  0  0  0
  -50.5864   58.1888   63.5001 C   0  0  0  0  0  0  0  0  0  0  0  0
  -51.2746   58.9823   62.3697 C   0  0  0  0  0  0  0  0  0  0  0  0
  -50.5198   60.2586   61.9301 C   0  0  0  0  0  0  0  0  0  0  0  0
  -49.5543   60.0246   60.7625 C   0  0  0  0  0  0  0  0  0  0  0  0
  -49.6840   58.6658   60.0670 C   0  0  0  0  0  0  0  0  0  0  0  0
  -48.4111   57.8190   60.2481 C   0  0  0  0  0  0  0  0  0  0  0  0
  -48.4476   56.4736   59.5073 C   0  0  0  0  0  0  0  0  0  0  0  0
  -47.3021   56.2260   58.5203 C   0  0  0  0  0  0  0  0  0  0  0  0
  -47.7606   55.9932   57.0591 C   0  0  0  0  0  0  0  0  0  0  0  0
  -47.9951   57.3269   56.3211 C   0  0  0  0  0  0  0  0  0  0  0  0
  -47.1018   58.5100   56.7132 C   0  0  0  0  0  0  0  0  0  0  0  0
 46 47  1  0  0  0
 46 48  1  0  0  0
 46 45  1  0  0  0
 47 49  2  0  0  0
 47 51  1  0  0  0
 19 20  2  0  0  0
 37 38  1  0  0  0
 37 39  1  0  0  0
 37 40  1  0  0  0
 37 41  1  0  0  0
 48 50  1  0  0  0
 38 29  1  0  0  0
 45 44  1  0  0  0
 25 27  1  0  0  0
 25 35  1  0  0  0
 25 28  1  0  0  0
 21 20  1  0  0  0
 21 22  1  0  0  0
 44 42  1  0  0  0
  2  1  1  0  0  0
  2  4  1  0  0  0
  2  5  1  0  0  0
 26 27  2  0  0  0
 42 43  2  0  0  0
 29 31  1  0  0  0
 29 36  1  0  0  0
  3  4  2  0  0  0
 43  1  1  0  0  0
  6  9  2  0  0  0
  6 10  1  0  0  0
  1 20  1  0  0  0
 30 36  2  0  0  0
  7  8  1  0  0  0
  7  9  1  0  0  0
 22 24  1  0  0  0
 22 23  1  0  0  0
 11 12  1  0  0  0
 11 18  1  0  0  0
 24 27  1  0  0  0
  4 10  1  0  0  0
 51 52  1  0  0  0
 52 53  1  0  0  0
 53 54  1  0  0  0
 54 55  1  0  0  0
 55 56  1  0  0  0
 56 57  1  0  0  0
 57 58  1  0  0  0
 58 59  1  0  0  0
 59 60  1  0  0  0
 60 61  1  0  0  0
 61 62  1  0  0  0
 62 63  1  0  0  0
 63 64  1  0  0  0
 64 65  1  0  0  0
 31 32  1  0  0  0
 32 33  1  0  0  0
 33 34  1  0  0  0
 34 35  1  0  0  0
 35 36  1  0  0  0
  8 10  1  0  0  0
  9 17  1  0  0  0
 12 13  2  0  0  0
 12 17  1  0  0  0
 13 14  1  0  0  0
 14 15  2  0  0  0
 15 16  1  0  0  0
 16 17  2  0  0  0
M  END
> <minimizedAffinity>
-9.89363

> <CNNscore>
0.1047530025

> <CNNaffinity>
7.4976377487

> <CNN_VS>
0.7854000926

> <CNNaffinity_variance>
1.6999641657

$$$$
