/media/chris/experiments/cd1a-new-docking/inputs/ligands/1xz0_ligand.pdb


 65 67  0  0  0  0  0  0  0  0999 V2000
  -41.1918   57.8410   63.1204 C   0  0  0  0  0  0  0  0  0  0  0  0
  -40.2743   58.3926   64.1194 N   0  0  0  0  0  0  0  0  0  0  0  0
  -41.1080   60.4767   64.4856 O   0  0  0  0  0  0  0  0  0  0  0  0
  -40.2824   59.6010   64.7084 C   0  0  0  0  0  0  0  0  0  0  0  0
  -39.5466   57.7919   64.4002 H   0  0  0  0  0  0  0  0  0  0  0  0
  -38.5019   61.2381   65.2824 N   0  0  0  0  0  0  0  0  0  0  0  0
  -36.7583   59.8471   65.4145 O   0  0  0  0  0  0  0  0  0  0  0  0
  -37.8836   59.0161   65.6967 C   0  0  0  0  0  0  0  0  0  0  0  0
  -37.2451   61.1799   65.1604 C   0  0  0  0  0  0  0  0  0  0  0  0
  -39.1254   59.9482   65.6341 C   0  0  0  0  0  0  0  0  0  0  0  0
  -35.3685   62.3547   67.0299 O   0  0  0  0  0  0  0  0  0  0  0  0
  -35.4503   62.8615   65.7937 C   0  0  0  0  0  0  0  0  0  0  0  0
  -34.6218   63.9301   65.4269 C   0  0  0  0  0  0  0  0  0  0  0  0
  -34.6950   64.4858   64.1384 C   0  0  0  0  0  0  0  0  0  0  0  0
  -35.5907   63.9724   63.1988 C   0  0  0  0  0  0  0  0  0  0  0  0
  -36.4148   62.9022   63.5577 C   0  0  0  0  0  0  0  0  0  0  0  0
  -36.3499   62.3490   64.8510 C   0  0  0  0  0  0  0  0  0  0  0  0
  -34.7587   62.7139   67.6440 H   0  0  0  0  0  0  0  0  0  0  0  0
  -41.7142   59.4323   61.4086 O   0  0  0  0  0  0  0  0  0  0  0  0
  -40.9296   58.6004   61.8338 C   0  0  0  0  0  0  0  0  0  0  0  0
  -39.7403   58.2911   61.0332 O   0  0  0  0  0  0  0  0  0  0  0  0
  -38.8430   59.3278   60.5930 C   0  0  0  0  0  0  0  0  0  0  0  0
  -37.9607   58.9414   59.4125 C   0  0  0  0  0  0  0  0  0  0  0  0
  -38.0049   59.7733   61.7820 C   0  0  0  0  0  0  0  0  0  0  0  0
  -35.7251   59.0627   62.3236 N   0  0  0  0  0  0  0  0  0  0  0  0
  -37.4817   57.6623   62.5858 O   0  0  0  0  0  0  0  0  0  0  0  0
  -37.0205   58.7258   62.2400 C   0  0  0  0  0  0  0  0  0  0  0  0
  -35.4643   59.9589   62.0107 H   0  0  0  0  0  0  0  0  0  0  0  0
  -33.6809   59.5364   64.6586 N   0  0  0  0  0  0  0  0  0  0  0  0
  -34.5636   57.5155   65.1087 O   0  0  0  0  0  0  0  0  0  0  0  0
  -33.5644   60.7481   63.8339 C   0  0  0  0  0  0  0  0  0  0  0  0
  -32.6436   60.4979   62.6247 C   0  0  0  0  0  0  0  0  0  0  0  0
  -32.2082   59.0551   62.4283 C   0  0  0  0  0  0  0  0  0  0  0  0
  -33.3634   58.1290   62.0389 C   0  0  0  0  0  0  0  0  0  0  0  0
  -34.6691   58.1896   62.8489 C   0  0  0  0  0  0  0  0  0  0  0  0
  -34.3082   58.4027   64.3060 C   0  0  0  0  0  0  0  0  0  0  0  0
  -33.3417   60.9854   66.9627 Si  0  0  0  0  0  0  0  0  0  0  0  0
  -33.1093   59.5707   65.8948 O   0  0  0  0  0  0  0  0  0  0  0  0
  -32.6489   60.7752   68.1842 H   0  0  0  0  0  0  0  0  0  0  0  0
  -34.7263   61.1565   67.2272 H   0  0  0  0  0  0  0  0  0  0  0  0
  -32.8344   62.1484   66.3249 H   0  0  0  0  0  0  0  0  0  0  0  0
  -43.0215   57.5220   64.9764 C   0  0  0  0  0  0  0  0  0  0  0  0
  -42.6909   57.7589   63.4977 C   0  0  0  0  0  0  0  0  0  0  0  0
  -44.4359   57.0114   65.2989 C   0  0  0  0  0  0  0  0  0  0  0  0
  -45.2017   57.7104   66.4412 C   0  0  0  0  0  0  0  0  0  0  0  0
  -46.4527   58.2462   65.8957 N   0  0  0  0  0  0  0  0  0  0  0  0
  -47.6399   57.6146   65.6973 C   0  0  0  0  0  0  0  0  0  0  0  0
  -46.3836   59.6003   65.5392 O   0  0  0  0  0  0  0  0  0  0  0  0
  -47.7887   56.4297   65.9954 O   0  0  0  0  0  0  0  0  0  0  0  0
  -47.2414   59.8864   65.1879 H   0  0  0  0  0  0  0  0  0  0  0  0
  -48.8048   58.3999   65.0855 C   0  0  0  0  0  0  0  0  0  0  0  0
  -49.2922   57.8633   63.7328 C   0  0  0  0  0  0  0  0  0  0  0  0
  -50.7868   58.1869   63.5433 C   0  0  0  0  0  0  0  0  0  0  0  0
  -51.1413   59.6552   63.8460 C   0  0  0  0  0  0  0  0  0  0  0  0
  -51.0119   60.6075   62.6425 C   0  0  0  0  0  0  0  0  0  0  0  0
  -49.6307   60.5270   61.9592 C   0  0  0  0  0  0  0  0  0  0  0  0
  -49.6762   60.5649   60.4138 C   0  0  0  0  0  0  0  0  0  0  0  0
  -49.2285   59.2535   59.7580 C   0  0  0  0  0  0  0  0  0  0  0  0
  -50.3516   58.2588   59.4478 C   0  0  0  0  0  0  0  0  0  0  0  0
  -50.1727   56.9474   60.2342 C   0  0  0  0  0  0  0  0  0  0  0  0
  -48.7258   56.4321   60.2644 C   0  0  0  0  0  0  0  0  0  0  0  0
  -48.1965   55.8566   58.9467 C   0  0  0  0  0  0  0  0  0  0  0  0
  -46.9652   56.6032   58.3756 C   0  0  0  0  0  0  0  0  0  0  0  0
  -47.0358   56.7170   56.8393 C   0  0  0  0  0  0  0  0  0  0  0  0
  -47.8199   57.9010   56.2605 C   0  0  0  0  0  0  0  0  0  0  0  0
 46 47  1  0  0  0
 46 48  1  0  0  0
 46 45  1  0  0  0
 47 49  2  0  0  0
 47 51  1  0  0  0
 19 20  2  0  0  0
 37 38  1  0  0  0
 37 39  1  0  0  0
 37 40  1  0  0  0
 37 41  1  0  0  0
 48 50  1  0  0  0
 38 29  1  0  0  0
 45 44  1  0  0  0
 25 27  1  0  0  0
 25 35  1  0  0  0
 25 28  1  0  0  0
 21 20  1  0  0  0
 21 22  1  0  0  0
 44 42  1  0  0  0
  2  1  1  0  0  0
  2  4  1  0  0  0
  2  5  1  0  0  0
 26 27  2  0  0  0
 42 43  2  0  0  0
 29 31  1  0  0  0
 29 36  1  0  0  0
  3  4  2  0  0  0
 43  1  1  0  0  0
  6  9  2  0  0  0
  6 10  1  0  0  0
  1 20  1  0  0  0
 30 36  2  0  0  0
  7  8  1  0  0  0
  7  9  1  0  0  0
 22 24  1  0  0  0
 22 23  1  0  0  0
 11 12  1  0  0  0
 11 18  1  0  0  0
 24 27  1  0  0  0
  4 10  1  0  0  0
 51 52  1  0  0  0
 52 53  1  0  0  0
 53 54  1  0  0  0
 54 55  1  0  0  0
 55 56  1  0  0  0
 56 57  1  0  0  0
 57 58  1  0  0  0
 58 59  1  0  0  0
 59 60  1  0  0  0
 60 61  1  0  0  0
 61 62  1  0  0  0
 62 63  1  0  0  0
 63 64  1  0  0  0
 64 65  1  0  0  0
 31 32  1  0  0  0
 32 33  1  0  0  0
 33 34  1  0  0  0
 34 35  1  0  0  0
 35 36  1  0  0  0
  8 10  1  0  0  0
  9 17  1  0  0  0
 12 13  2  0  0  0
 12 17  1  0  0  0
 13 14  1  0  0  0
 14 15  2  0  0  0
 15 16  1  0  0  0
 16 17  2  0  0  0
M  END
> <minimizedAffinity>
-9.90866

> <CNNscore>
0.2347851545

> <CNNaffinity>
7.5138292313

> <CNN_VS>
1.7641355991

> <CNNaffinity_variance>
0.4868721962

$$$$
/media/chris/experiments/cd1a-new-docking/inputs/ligands/1xz0_ligand.pdb


 65 67  0  0  0  0  0  0  0  0999 V2000
  -40.4115   59.0068   63.5417 C   0  0  0  0  0  0  0  0  0  0  0  0
  -39.5849   59.9955   64.2368 N   0  0  0  0  0  0  0  0  0  0  0  0
  -37.9838   58.7195   65.2274 O   0  0  0  0  0  0  0  0  0  0  0  0
  -38.4883   59.8096   64.9919 C   0  0  0  0  0  0  0  0  0  0  0  0
  -39.8737   60.9314   64.1367 H   0  0  0  0  0  0  0  0  0  0  0  0
  -37.3941   62.0270   64.7355 N   0  0  0  0  0  0  0  0  0  0  0  0
  -35.6686   61.7436   66.1265 O   0  0  0  0  0  0  0  0  0  0  0  0
  -36.6616   60.8469   66.6230 C   0  0  0  0  0  0  0  0  0  0  0  0
  -36.2094   62.4035   64.9646 C   0  0  0  0  0  0  0  0  0  0  0  0
  -37.8943   61.0226   65.6934 C   0  0  0  0  0  0  0  0  0  0  0  0
  -36.7834   63.1075   62.2129 O   0  0  0  0  0  0  0  0  0  0  0  0
  -35.8013   63.7539   62.8528 C   0  0  0  0  0  0  0  0  0  0  0  0
  -35.0878   64.7609   62.1895 C   0  0  0  0  0  0  0  0  0  0  0  0
  -34.0464   65.4477   62.8361 C   0  0  0  0  0  0  0  0  0  0  0  0
  -33.7132   65.1421   64.1568 C   0  0  0  0  0  0  0  0  0  0  0  0
  -34.4262   64.1428   64.8250 C   0  0  0  0  0  0  0  0  0  0  0  0
  -35.4645   63.4467   64.1767 C   0  0  0  0  0  0  0  0  0  0  0  0
  -36.9911   63.3302   61.3268 H   0  0  0  0  0  0  0  0  0  0  0  0
  -41.3586   60.4066   61.8449 O   0  0  0  0  0  0  0  0  0  0  0  0
  -40.5772   59.5112   62.1208 C   0  0  0  0  0  0  0  0  0  0  0  0
  -39.8362   58.8719   61.0285 O   0  0  0  0  0  0  0  0  0  0  0  0
  -38.7969   59.5713   60.3182 C   0  0  0  0  0  0  0  0  0  0  0  0
  -38.1659   58.7796   59.1796 C   0  0  0  0  0  0  0  0  0  0  0  0
  -37.7464   60.0187   61.3237 C   0  0  0  0  0  0  0  0  0  0  0  0
  -35.6555   59.1171   62.2241 N   0  0  0  0  0  0  0  0  0  0  0  0
  -37.5050   57.8279   62.0438 O   0  0  0  0  0  0  0  0  0  0  0  0
  -36.9276   58.8773   61.8742 C   0  0  0  0  0  0  0  0  0  0  0  0
  -35.2901   60.0117   62.0363 H   0  0  0  0  0  0  0  0  0  0  0  0
  -33.7294   59.4402   64.6820 N   0  0  0  0  0  0  0  0  0  0  0  0
  -34.9136   57.5862   65.1577 O   0  0  0  0  0  0  0  0  0  0  0  0
  -33.3893   60.5764   63.8131 C   0  0  0  0  0  0  0  0  0  0  0  0
  -32.4319   60.1360   62.6896 C   0  0  0  0  0  0  0  0  0  0  0  0
  -32.1893   58.6388   62.5938 C   0  0  0  0  0  0  0  0  0  0  0  0
  -33.4329   57.8573   62.1619 C   0  0  0  0  0  0  0  0  0  0  0  0
  -34.7697   58.1399   62.8675 C   0  0  0  0  0  0  0  0  0  0  0  0
  -34.4829   58.3839   64.3362 C   0  0  0  0  0  0  0  0  0  0  0  0
  -32.7969   57.9484   66.7864 Si  0  0  0  0  0  0  0  0  0  0  0  0
  -33.2443   59.4663   65.9548 O   0  0  0  0  0  0  0  0  0  0  0  0
  -32.3225   58.2457   68.0914 H   0  0  0  0  0  0  0  0  0  0  0  0
  -31.7771   57.2885   66.0509 H   0  0  0  0  0  0  0  0  0  0  0  0
  -33.9359   57.1051   66.8776 H   0  0  0  0  0  0  0  0  0  0  0  0
  -41.8574   57.1417   64.6928 C   0  0  0  0  0  0  0  0  0  0  0  0
  -41.7441   58.5938   64.2126 C   0  0  0  0  0  0  0  0  0  0  0  0
  -43.2751   56.6037   64.9501 C   0  0  0  0  0  0  0  0  0  0  0  0
  -43.9330   56.9495   66.3019 C   0  0  0  0  0  0  0  0  0  0  0  0
  -45.2573   57.5199   66.0363 N   0  0  0  0  0  0  0  0  0  0  0  0
  -45.5892   58.7963   65.7073 C   0  0  0  0  0  0  0  0  0  0  0  0
  -46.3062   56.5959   66.1434 O   0  0  0  0  0  0  0  0  0  0  0  0
  -44.7275   59.6661   65.5803 O   0  0  0  0  0  0  0  0  0  0  0  0
  -47.1483   57.0395   65.9558 H   0  0  0  0  0  0  0  0  0  0  0  0
  -47.0659   59.1487   65.4992 C   0  0  0  0  0  0  0  0  0  0  0  0
  -47.7740   59.6844   66.7510 C   0  0  0  0  0  0  0  0  0  0  0  0
  -49.1537   60.2572   66.3734 C   0  0  0  0  0  0  0  0  0  0  0  0
  -50.0547   59.2522   65.6310 C   0  0  0  0  0  0  0  0  0  0  0  0
  -51.1775   59.8936   64.7943 C   0  0  0  0  0  0  0  0  0  0  0  0
  -51.1704   59.4281   63.3231 C   0  0  0  0  0  0  0  0  0  0  0  0
  -50.6595   60.4863   62.3177 C   0  0  0  0  0  0  0  0  0  0  0  0
  -49.2540   60.1903   61.7820 C   0  0  0  0  0  0  0  0  0  0  0  0
  -48.7033   58.8009   62.1185 C   0  0  0  0  0  0  0  0  0  0  0  0
  -48.9705   57.8005   60.9791 C   0  0  0  0  0  0  0  0  0  0  0  0
  -49.0385   58.4463   59.5869 C   0  0  0  0  0  0  0  0  0  0  0  0
  -49.1637   57.4754   58.4082 C   0  0  0  0  0  0  0  0  0  0  0  0
  -47.9587   56.5159   58.2438 C   0  0  0  0  0  0  0  0  0  0  0  0
  -46.8841   57.1126   57.3125 C   0  0  0  0  0  0  0  0  0  0  0  0
  -47.3069   58.2819   56.4150 C   0  0  0  0  0  0  0  0  0  0  0  0
 46 47  1  0  0  0
 46 48  1  0  0  0
 46 45  1  0  0  0
 47 49  2  0  0  0
 47 51  1  0  0  0
 19 20  2  0  0  0
 37 38  1  0  0  0
 37 39  1  0  0  0
 37 40  1  0  0  0
 37 41  1  0  0  0
 48 50  1  0  0  0
 38 29  1  0  0  0
 45 44  1  0  0  0
 25 27  1  0  0  0
 25 35  1  0  0  0
 25 28  1  0  0  0
 21 20  1  0  0  0
 21 22  1  0  0  0
 44 42  1  0  0  0
  2  1  1  0  0  0
  2  4  1  0  0  0
  2  5  1  0  0  0
 26 27  2  0  0  0
 42 43  2  0  0  0
 29 31  1  0  0  0
 29 36  1  0  0  0
  3  4  2  0  0  0
 43  1  1  0  0  0
  6  9  2  0  0  0
  6 10  1  0  0  0
  1 20  1  0  0  0
 30 36  2  0  0  0
  7  8  1  0  0  0
  7  9  1  0  0  0
 22 24  1  0  0  0
 22 23  1  0  0  0
 11 12  1  0  0  0
 11 18  1  0  0  0
 24 27  1  0  0  0
  4 10  1  0  0  0
 51 52  1  0  0  0
 52 53  1  0  0  0
 53 54  1  0  0  0
 54 55  1  0  0  0
 55 56  1  0  0  0
 56 57  1  0  0  0
 57 58  1  0  0  0
 58 59  1  0  0  0
 59 60  1  0  0  0
 60 61  1  0  0  0
 61 62  1  0  0  0
 62 63  1  0  0  0
 63 64  1  0  0  0
 64 65  1  0  0  0
 31 32  1  0  0  0
 32 33  1  0  0  0
 33 34  1  0  0  0
 34 35  1  0  0  0
 35 36  1  0  0  0
  8 10  1  0  0  0
  9 17  1  0  0  0
 12 13  2  0  0  0
 12 17  1  0  0  0
 13 14  1  0  0  0
 14 15  2  0  0  0
 15 16  1  0  0  0
 16 17  2  0  0  0
M  END
> <minimizedAffinity>
-9.27117

> <CNNscore>
0.2160602361

> <CNNaffinity>
7.4870805740

> <CNN_VS>
1.6176604033

> <CNNaffinity_variance>
0.5365807414

$$$$
/media/chris/experiments/cd1a-new-docking/inputs/ligands/1xz0_ligand.pdb


 65 67  0  0  0  0  0  0  0  0999 V2000
  -39.9812   56.7756   62.3261 C   0  0  0  0  0  0  0  0  0  0  0  0
  -38.6707   56.9327   62.9602 N   0  0  0  0  0  0  0  0  0  0  0  0
  -39.1047   58.3425   64.6914 O   0  0  0  0  0  0  0  0  0  0  0  0
  -38.3271   57.6599   64.0374 C   0  0  0  0  0  0  0  0  0  0  0  0
  -37.9352   56.4338   62.5366 H   0  0  0  0  0  0  0  0  0  0  0  0
  -36.5579   58.8656   65.3007 N   0  0  0  0  0  0  0  0  0  0  0  0
  -35.0378   59.0844   63.6778 O   0  0  0  0  0  0  0  0  0  0  0  0
  -35.7886   57.9334   63.2931 C   0  0  0  0  0  0  0  0  0  0  0  0
  -35.5974   59.5871   64.9075 C   0  0  0  0  0  0  0  0  0  0  0  0
  -36.8524   57.7293   64.4072 C   0  0  0  0  0  0  0  0  0  0  0  0
  -37.2274   61.5795   66.2381 O   0  0  0  0  0  0  0  0  0  0  0  0
  -35.8952   61.7025   66.2810 C   0  0  0  0  0  0  0  0  0  0  0  0
  -35.3206   62.7743   66.9767 C   0  0  0  0  0  0  0  0  0  0  0  0
  -33.9252   62.9308   67.0287 C   0  0  0  0  0  0  0  0  0  0  0  0
  -33.0882   62.0116   66.3938 C   0  0  0  0  0  0  0  0  0  0  0  0
  -33.6563   60.9370   65.7038 C   0  0  0  0  0  0  0  0  0  0  0  0
  -35.0546   60.7825   65.6426 C   0  0  0  0  0  0  0  0  0  0  0  0
  -37.7701   62.2075   66.6729 H   0  0  0  0  0  0  0  0  0  0  0  0
  -40.7170   57.3823   60.1294 O   0  0  0  0  0  0  0  0  0  0  0  0
  -39.9355   57.5848   61.0440 C   0  0  0  0  0  0  0  0  0  0  0  0
  -38.8889   58.5948   60.8555 O   0  0  0  0  0  0  0  0  0  0  0  0
  -38.9168   59.8450   61.5697 C   0  0  0  0  0  0  0  0  0  0  0  0
  -40.0987   60.7432   61.2267 C   0  0  0  0  0  0  0  0  0  0  0  0
  -37.5959   60.5618   61.3333 C   0  0  0  0  0  0  0  0  0  0  0  0
  -36.6566   62.7613   61.8585 N   0  0  0  0  0  0  0  0  0  0  0  0
  -37.9027   61.6292   63.3687 O   0  0  0  0  0  0  0  0  0  0  0  0
  -37.3615   61.7050   62.2895 C   0  0  0  0  0  0  0  0  0  0  0  0
  -36.2598   62.7104   60.9590 H   0  0  0  0  0  0  0  0  0  0  0  0
  -34.7345   65.1825   61.3118 N   0  0  0  0  0  0  0  0  0  0  0  0
  -36.7236   66.1493   61.7293 O   0  0  0  0  0  0  0  0  0  0  0  0
  -33.8692   64.0027   61.1663 C   0  0  0  0  0  0  0  0  0  0  0  0
  -33.3961   63.5005   62.5435 C   0  0  0  0  0  0  0  0  0  0  0  0
  -34.0430   64.1799   63.7391 C   0  0  0  0  0  0  0  0  0  0  0  0
  -35.5346   63.8624   63.8733 C   0  0  0  0  0  0  0  0  0  0  0  0
  -36.4351   63.9878   62.6331 C   0  0  0  0  0  0  0  0  0  0  0  0
  -35.9709   65.1908   61.8357 C   0  0  0  0  0  0  0  0  0  0  0  0
  -32.6769   66.4389   60.0038 Si  0  0  0  0  0  0  0  0  0  0  0  0
  -34.2411   66.3718   60.8667 O   0  0  0  0  0  0  0  0  0  0  0  0
  -32.3899   67.7834   59.6482 H   0  0  0  0  0  0  0  0  0  0  0  0
  -32.7494   65.6439   58.8296 H   0  0  0  0  0  0  0  0  0  0  0  0
  -31.6487   65.9430   60.8485 H   0  0  0  0  0  0  0  0  0  0  0  0
  -41.6075   55.9969   64.2348 C   0  0  0  0  0  0  0  0  0  0  0  0
  -41.2314   57.0586   63.1939 C   0  0  0  0  0  0  0  0  0  0  0  0
  -43.0436   56.0401   64.7836 C   0  0  0  0  0  0  0  0  0  0  0  0
  -43.3489   57.0612   65.8988 C   0  0  0  0  0  0  0  0  0  0  0  0
  -44.7271   57.5312   65.7273 N   0  0  0  0  0  0  0  0  0  0  0  0
  -45.1963   58.5410   64.9477 C   0  0  0  0  0  0  0  0  0  0  0  0
  -45.6686   56.8203   66.4848 O   0  0  0  0  0  0  0  0  0  0  0  0
  -44.4382   59.2060   64.2420 O   0  0  0  0  0  0  0  0  0  0  0  0
  -46.5538   57.1829   66.3232 H   0  0  0  0  0  0  0  0  0  0  0  0
  -46.6967   58.8520   64.9602 C   0  0  0  0  0  0  0  0  0  0  0  0
  -47.0753   60.1842   64.2991 C   0  0  0  0  0  0  0  0  0  0  0  0
  -48.4024   60.7059   64.8832 C   0  0  0  0  0  0  0  0  0  0  0  0
  -49.0552   59.7372   65.8875 C   0  0  0  0  0  0  0  0  0  0  0  0
  -50.3868   59.1245   65.4147 C   0  0  0  0  0  0  0  0  0  0  0  0
  -50.2017   58.0733   64.3004 C   0  0  0  0  0  0  0  0  0  0  0  0
  -50.9990   58.3619   63.0071 C   0  0  0  0  0  0  0  0  0  0  0  0
  -51.0538   59.8502   62.6436 C   0  0  0  0  0  0  0  0  0  0  0  0
  -50.0098   60.3148   61.6232 C   0  0  0  0  0  0  0  0  0  0  0  0
  -49.3892   59.1223   60.8729 C   0  0  0  0  0  0  0  0  0  0  0  0
  -50.1692   58.7022   59.6179 C   0  0  0  0  0  0  0  0  0  0  0  0
  -49.4463   57.7311   58.6788 C   0  0  0  0  0  0  0  0  0  0  0  0
  -48.2223   57.0249   59.3136 C   0  0  0  0  0  0  0  0  0  0  0  0
  -47.0880   56.8290   58.2873 C   0  0  0  0  0  0  0  0  0  0  0  0
  -47.1725   57.6385   56.9877 C   0  0  0  0  0  0  0  0  0  0  0  0
 46 47  1  0  0  0
 46 48  1  0  0  0
 46 45  1  0  0  0
 47 49  2  0  0  0
 47 51  1  0  0  0
 19 20  2  0  0  0
 37 38  1  0  0  0
 37 39  1  0  0  0
 37 40  1  0  0  0
 37 41  1  0  0  0
 48 50  1  0  0  0
 38 29  1  0  0  0
 45 44  1  0  0  0
 25 27  1  0  0  0
 25 35  1  0  0  0
 25 28  1  0  0  0
 21 20  1  0  0  0
 21 22  1  0  0  0
 44 42  1  0  0  0
  2  1  1  0  0  0
  2  4  1  0  0  0
  2  5  1  0  0  0
 26 27  2  0  0  0
 42 43  2  0  0  0
 29 31  1  0  0  0
 29 36  1  0  0  0
  3  4  2  0  0  0
 43  1  1  0  0  0
  6  9  2  0  0  0
  6 10  1  0  0  0
  1 20  1  0  0  0
 30 36  2  0  0  0
  7  8  1  0  0  0
  7  9  1  0  0  0
 22 24  1  0  0  0
 22 23  1  0  0  0
 11 12  1  0  0  0
 11 18  1  0  0  0
 24 27  1  0  0  0
  4 10  1  0  0  0
 51 52  1  0  0  0
 52 53  1  0  0  0
 53 54  1  0  0  0
 54 55  1  0  0  0
 55 56  1  0  0  0
 56 57  1  0  0  0
 57 58  1  0  0  0
 58 59  1  0  0  0
 59 60  1  0  0  0
 60 61  1  0  0  0
 61 62  1  0  0  0
 62 63  1  0  0  0
 63 64  1  0  0  0
 64 65  1  0  0  0
 31 32  1  0  0  0
 32 33  1  0  0  0
 33 34  1  0  0  0
 34 35  1  0  0  0
 35 36  1  0  0  0
  8 10  1  0  0  0
  9 17  1  0  0  0
 12 13  2  0  0  0
 12 17  1  0  0  0
 13 14  1  0  0  0
 14 15  2  0  0  0
 15 16  1  0  0  0
 16 17  2  0  0  0
M  END
> <minimizedAffinity>
-9.03636

> <CNNscore>
0.2015407532

> <CNNaffinity>
7.2774543762

> <CNN_VS>
1.4667036533

> <CNNaffinity_variance>
0.4573844075

$$$$
/media/chris/experiments/cd1a-new-docking/inputs/ligands/1xz0_ligand.pdb


 65 67  0  0  0  0  0  0  0  0999 V2000
  -43.2062   57.8082   65.4515 C   0  0  0  0  0  0  0  0  0  0  0  0
  -42.6618   57.1131   64.2834 N   0  0  0  0  0  0  0  0  0  0  0  0
  -41.7982   55.2083   65.1770 O   0  0  0  0  0  0  0  0  0  0  0  0
  -42.0291   55.9289   64.2150 C   0  0  0  0  0  0  0  0  0  0  0  0
  -42.7755   57.5802   63.4243 H   0  0  0  0  0  0  0  0  0  0  0  0
  -40.3150   56.3344   62.4608 N   0  0  0  0  0  0  0  0  0  0  0  0
  -41.6390   56.3744   60.6615 O   0  0  0  0  0  0  0  0  0  0  0  0
  -42.3577   55.5746   61.5997 C   0  0  0  0  0  0  0  0  0  0  0  0
  -40.4142   56.8012   61.2904 C   0  0  0  0  0  0  0  0  0  0  0  0
  -41.4631   55.5023   62.8682 C   0  0  0  0  0  0  0  0  0  0  0  0
  -38.2731   58.2041   62.6485 O   0  0  0  0  0  0  0  0  0  0  0  0
  -38.3525   58.2842   61.3147 C   0  0  0  0  0  0  0  0  0  0  0  0
  -37.3969   59.0251   60.6071 C   0  0  0  0  0  0  0  0  0  0  0  0
  -37.4637   59.1322   59.2077 C   0  0  0  0  0  0  0  0  0  0  0  0
  -38.4814   58.4913   58.4991 C   0  0  0  0  0  0  0  0  0  0  0  0
  -39.4335   57.7456   59.1998 C   0  0  0  0  0  0  0  0  0  0  0  0
  -39.3742   57.6437   60.6029 C   0  0  0  0  0  0  0  0  0  0  0  0
  -37.5804   58.6411   63.1036 H   0  0  0  0  0  0  0  0  0  0  0  0
  -44.7801   58.9589   64.0607 O   0  0  0  0  0  0  0  0  0  0  0  0
  -44.5924   58.2829   65.0588 C   0  0  0  0  0  0  0  0  0  0  0  0
  -45.7378   57.9874   65.9258 O   0  0  0  0  0  0  0  0  0  0  0  0
  -47.0326   58.5680   65.6806 C   0  0  0  0  0  0  0  0  0  0  0  0
  -47.3796   59.7445   66.5845 C   0  0  0  0  0  0  0  0  0  0  0  0
  -48.0787   57.4684   65.7851 C   0  0  0  0  0  0  0  0  0  0  0  0
  -49.3864   57.8120   63.7435 N   0  0  0  0  0  0  0  0  0  0  0  0
  -50.3404   57.9793   65.7873 O   0  0  0  0  0  0  0  0  0  0  0  0
  -49.3706   57.8097   65.0845 C   0  0  0  0  0  0  0  0  0  0  0  0
  -48.5332   57.6629   63.2757 H   0  0  0  0  0  0  0  0  0  0  0  0
  -49.6766   58.2191   60.6443 N   0  0  0  0  0  0  0  0  0  0  0  0
  -51.1762   56.6112   61.1255 O   0  0  0  0  0  0  0  0  0  0  0  0
  -48.6335   59.1800   61.0321 C   0  0  0  0  0  0  0  0  0  0  0  0
  -49.2617   60.4660   61.6018 C   0  0  0  0  0  0  0  0  0  0  0  0
  -50.7652   60.4133   61.8170 C   0  0  0  0  0  0  0  0  0  0  0  0
  -51.1777   59.4403   62.9246 C   0  0  0  0  0  0  0  0  0  0  0  0
  -50.5859   58.0210   62.9245 C   0  0  0  0  0  0  0  0  0  0  0  0
  -50.4853   57.5545   61.4854 C   0  0  0  0  0  0  0  0  0  0  0  0
  -49.0483   56.5560   58.5556 Si  0  0  0  0  0  0  0  0  0  0  0  0
  -49.8298   57.9743   59.3129 O   0  0  0  0  0  0  0  0  0  0  0  0
  -49.3607   56.5268   57.1707 H   0  0  0  0  0  0  0  0  0  0  0  0
  -49.5224   55.3684   59.1729 H   0  0  0  0  0  0  0  0  0  0  0  0
  -47.6409   56.6463   58.7214 H   0  0  0  0  0  0  0  0  0  0  0  0
  -41.1499   59.4306   65.2683 C   0  0  0  0  0  0  0  0  0  0  0  0
  -42.3322   58.9115   66.0958 C   0  0  0  0  0  0  0  0  0  0  0  0
  -40.0436   60.1790   66.0309 C   0  0  0  0  0  0  0  0  0  0  0  0
  -38.5849   59.7493   65.7717 C   0  0  0  0  0  0  0  0  0  0  0  0
  -37.9233   60.8081   65.0031 N   0  0  0  0  0  0  0  0  0  0  0  0
  -36.8981   61.6208   65.3722 C   0  0  0  0  0  0  0  0  0  0  0  0
  -38.4415   60.9820   63.7120 O   0  0  0  0  0  0  0  0  0  0  0  0
  -36.3776   61.5250   66.4835 O   0  0  0  0  0  0  0  0  0  0  0  0
  -37.9595   61.6944   63.2634 H   0  0  0  0  0  0  0  0  0  0  0  0
  -36.3939   62.6755   64.3815 C   0  0  0  0  0  0  0  0  0  0  0  0
  -35.8043   63.9321   65.0362 C   0  0  0  0  0  0  0  0  0  0  0  0
  -34.2664   63.9033   64.9457 C   0  0  0  0  0  0  0  0  0  0  0  0
  -33.6675   65.1441   64.2568 C   0  0  0  0  0  0  0  0  0  0  0  0
  -34.1773   65.3912   62.8246 C   0  0  0  0  0  0  0  0  0  0  0  0
  -34.0857   64.1372   61.9301 C   0  0  0  0  0  0  0  0  0  0  0  0
  -32.8789   64.1255   60.9630 C   0  0  0  0  0  0  0  0  0  0  0  0
  -31.9912   62.8844   61.1103 C   0  0  0  0  0  0  0  0  0  0  0  0
  -31.3241   62.7140   62.4789 C   0  0  0  0  0  0  0  0  0  0  0  0
  -31.5651   61.3043   63.0489 C   0  0  0  0  0  0  0  0  0  0  0  0
  -33.0489   60.9552   63.2395 C   0  0  0  0  0  0  0  0  0  0  0  0
  -33.4297   60.3947   64.6137 C   0  0  0  0  0  0  0  0  0  0  0  0
  -33.5094   58.8487   64.6703 C   0  0  0  0  0  0  0  0  0  0  0  0
  -34.9467   58.3476   64.4226 C   0  0  0  0  0  0  0  0  0  0  0  0
  -35.1340   57.2545   63.3636 C   0  0  0  0  0  0  0  0  0  0  0  0
 46 47  1  0  0  0
 46 48  1  0  0  0
 46 45  1  0  0  0
 47 49  2  0  0  0
 47 51  1  0  0  0
 19 20  2  0  0  0
 37 38  1  0  0  0
 37 39  1  0  0  0
 37 40  1  0  0  0
 37 41  1  0  0  0
 48 50  1  0  0  0
 38 29  1  0  0  0
 45 44  1  0  0  0
 25 27  1  0  0  0
 25 35  1  0  0  0
 25 28  1  0  0  0
 21 20  1  0  0  0
 21 22  1  0  0  0
 44 42  1  0  0  0
  2  1  1  0  0  0
  2  4  1  0  0  0
  2  5  1  0  0  0
 26 27  2  0  0  0
 42 43  2  0  0  0
 29 31  1  0  0  0
 29 36  1  0  0  0
  3  4  2  0  0  0
 43  1  1  0  0  0
  6  9  2  0  0  0
  6 10  1  0  0  0
  1 20  1  0  0  0
 30 36  2  0  0  0
  7  8  1  0  0  0
  7  9  1  0  0  0
 22 24  1  0  0  0
 22 23  1  0  0  0
 11 12  1  0  0  0
 11 18  1  0  0  0
 24 27  1  0  0  0
  4 10  1  0  0  0
 51 52  1  0  0  0
 52 53  1  0  0  0
 53 54  1  0  0  0
 54 55  1  0  0  0
 55 56  1  0  0  0
 56 57  1  0  0  0
 57 58  1  0  0  0
 58 59  1  0  0  0
 59 60  1  0  0  0
 60 61  1  0  0  0
 61 62  1  0  0  0
 62 63  1  0  0  0
 63 64  1  0  0  0
 64 65  1  0  0  0
 31 32  1  0  0  0
 32 33  1  0  0  0
 33 34  1  0  0  0
 34 35  1  0  0  0
 35 36  1  0  0  0
  8 10  1  0  0  0
  9 17  1  0  0  0
 12 13  2  0  0  0
 12 17  1  0  0  0
 13 14  1  0  0  0
 14 15  2  0  0  0
 15 16  1  0  0  0
 16 17  2  0  0  0
M  END
> <minimizedAffinity>
-8.15364

> <CNNscore>
0.2014874816

> <CNNaffinity>
7.4673414230

> <CNN_VS>
1.5045758486

> <CNNaffinity_variance>
0.5649551153

$$$$
/media/chris/experiments/cd1a-new-docking/inputs/ligands/1xz0_ligand.pdb


 65 67  0  0  0  0  0  0  0  0999 V2000
  -40.9241   59.8182   64.2765 C   0  0  0  0  0  0  0  0  0  0  0  0
  -39.8892   59.2030   63.4430 N   0  0  0  0  0  0  0  0  0  0  0  0
  -41.0912   58.1783   61.8065 O   0  0  0  0  0  0  0  0  0  0  0  0
  -40.0212   58.4651   62.3270 C   0  0  0  0  0  0  0  0  0  0  0  0
  -38.9633   59.3510   63.7432 H   0  0  0  0  0  0  0  0  0  0  0  0
  -37.6552   57.7995   62.7001 N   0  0  0  0  0  0  0  0  0  0  0  0
  -36.7217   58.7577   60.9105 O   0  0  0  0  0  0  0  0  0  0  0  0
  -38.0751   58.5366   60.5156 C   0  0  0  0  0  0  0  0  0  0  0  0
  -36.5734   58.2874   62.2650 C   0  0  0  0  0  0  0  0  0  0  0  0
  -38.7640   57.8511   61.7282 C   0  0  0  0  0  0  0  0  0  0  0  0
  -36.3549   58.3005   65.1545 O   0  0  0  0  0  0  0  0  0  0  0  0
  -35.2341   58.3140   64.4227 C   0  0  0  0  0  0  0  0  0  0  0  0
  -33.9883   58.3175   65.0637 C   0  0  0  0  0  0  0  0  0  0  0  0
  -32.7975   58.3410   64.3182 C   0  0  0  0  0  0  0  0  0  0  0  0
  -32.8389   58.3512   62.9230 C   0  0  0  0  0  0  0  0  0  0  0  0
  -34.0792   58.3413   62.2787 C   0  0  0  0  0  0  0  0  0  0  0  0
  -35.2743   58.3267   63.0231 C   0  0  0  0  0  0  0  0  0  0  0  0
  -36.3034   58.2922   66.0900 H   0  0  0  0  0  0  0  0  0  0  0  0
  -40.8196   60.9692   66.3740 O   0  0  0  0  0  0  0  0  0  0  0  0
  -40.2113   60.4014   65.4818 C   0  0  0  0  0  0  0  0  0  0  0  0
  -38.7477   60.3493   65.5599 O   0  0  0  0  0  0  0  0  0  0  0  0
  -37.9326   61.4342   65.0780 C   0  0  0  0  0  0  0  0  0  0  0  0
  -37.4716   61.2857   63.6334 C   0  0  0  0  0  0  0  0  0  0  0  0
  -36.7477   61.5979   66.0181 C   0  0  0  0  0  0  0  0  0  0  0  0
  -34.7113   62.7223   65.2533 N   0  0  0  0  0  0  0  0  0  0  0  0
  -36.5157   63.9035   65.9346 O   0  0  0  0  0  0  0  0  0  0  0  0
  -35.9489   62.8502   65.7538 C   0  0  0  0  0  0  0  0  0  0  0  0
  -34.3513   61.8118   65.1502 H   0  0  0  0  0  0  0  0  0  0  0  0
  -33.5682   63.4806   62.4296 N   0  0  0  0  0  0  0  0  0  0  0  0
  -34.4756   65.3976   63.1829 O   0  0  0  0  0  0  0  0  0  0  0  0
  -33.2310   62.0572   62.5782 C   0  0  0  0  0  0  0  0  0  0  0  0
  -31.9550   61.8847   63.4237 C   0  0  0  0  0  0  0  0  0  0  0  0
  -31.4270   63.1558   64.0680 C   0  0  0  0  0  0  0  0  0  0  0  0
  -32.3551   63.7067   65.1538 C   0  0  0  0  0  0  0  0  0  0  0  0
  -33.8559   63.8438   64.8484 C   0  0  0  0  0  0  0  0  0  0  0  0
  -34.0027   64.2919   63.4074 C   0  0  0  0  0  0  0  0  0  0  0  0
  -34.7676   63.9005   59.9988 Si  0  0  0  0  0  0  0  0  0  0  0  0
  -33.4369   64.0222   61.1864 O   0  0  0  0  0  0  0  0  0  0  0  0
  -34.3834   64.5395   58.7904 H   0  0  0  0  0  0  0  0  0  0  0  0
  -35.9271   64.5325   60.5206 H   0  0  0  0  0  0  0  0  0  0  0  0
  -35.0491   62.5325   59.7420 H   0  0  0  0  0  0  0  0  0  0  0  0
  -42.1695   58.3275   66.0431 C   0  0  0  0  0  0  0  0  0  0  0  0
  -42.1533   58.9514   64.6422 C   0  0  0  0  0  0  0  0  0  0  0  0
  -43.1272   57.1449   66.2659 C   0  0  0  0  0  0  0  0  0  0  0  0
  -44.3786   57.0636   65.3675 C   0  0  0  0  0  0  0  0  0  0  0  0
  -45.4961   57.6936   66.0775 N   0  0  0  0  0  0  0  0  0  0  0  0
  -46.0388   58.9267   65.8969 C   0  0  0  0  0  0  0  0  0  0  0  0
  -46.0632   56.8873   67.0744 O   0  0  0  0  0  0  0  0  0  0  0  0
  -45.6084   59.6919   65.0342 O   0  0  0  0  0  0  0  0  0  0  0  0
  -46.7925   57.3646   67.5003 H   0  0  0  0  0  0  0  0  0  0  0  0
  -47.2025   59.3635   66.7930 C   0  0  0  0  0  0  0  0  0  0  0  0
  -48.5093   59.6524   66.0421 C   0  0  0  0  0  0  0  0  0  0  0  0
  -48.9819   58.3885   65.2980 C   0  0  0  0  0  0  0  0  0  0  0  0
  -50.4507   58.4582   64.8390 C   0  0  0  0  0  0  0  0  0  0  0  0
  -51.0382   59.8808   64.7825 C   0  0  0  0  0  0  0  0  0  0  0  0
  -51.0628   60.4638   63.3541 C   0  0  0  0  0  0  0  0  0  0  0  0
  -50.7496   59.4404   62.2377 C   0  0  0  0  0  0  0  0  0  0  0  0
  -49.5038   59.7945   61.4175 C   0  0  0  0  0  0  0  0  0  0  0  0
  -49.5420   59.3631   59.9480 C   0  0  0  0  0  0  0  0  0  0  0  0
  -50.2024   57.9818   59.7858 C   0  0  0  0  0  0  0  0  0  0  0  0
  -49.2179   56.8063   59.8794 C   0  0  0  0  0  0  0  0  0  0  0  0
  -47.8055   57.0771   59.3507 C   0  0  0  0  0  0  0  0  0  0  0  0
  -47.3815   56.1649   58.1726 C   0  0  0  0  0  0  0  0  0  0  0  0
  -47.4737   56.9054   56.8230 C   0  0  0  0  0  0  0  0  0  0  0  0
  -47.2040   58.4149   56.8331 C   0  0  0  0  0  0  0  0  0  0  0  0
 46 47  1  0  0  0
 46 48  1  0  0  0
 46 45  1  0  0  0
 47 49  2  0  0  0
 47 51  1  0  0  0
 19 20  2  0  0  0
 37 38  1  0  0  0
 37 39  1  0  0  0
 37 40  1  0  0  0
 37 41  1  0  0  0
 48 50  1  0  0  0
 38 29  1  0  0  0
 45 44  1  0  0  0
 25 27  1  0  0  0
 25 35  1  0  0  0
 25 28  1  0  0  0
 21 20  1  0  0  0
 21 22  1  0  0  0
 44 42  1  0  0  0
  2  1  1  0  0  0
  2  4  1  0  0  0
  2  5  1  0  0  0
 26 27  2  0  0  0
 42 43  2  0  0  0
 29 31  1  0  0  0
 29 36  1  0  0  0
  3  4  2  0  0  0
 43  1  1  0  0  0
  6  9  2  0  0  0
  6 10  1  0  0  0
  1 20  1  0  0  0
 30 36  2  0  0  0
  7  8  1  0  0  0
  7  9  1  0  0  0
 22 24  1  0  0  0
 22 23  1  0  0  0
 11 12  1  0  0  0
 11 18  1  0  0  0
 24 27  1  0  0  0
  4 10  1  0  0  0
 51 52  1  0  0  0
 52 53  1  0  0  0
 53 54  1  0  0  0
 54 55  1  0  0  0
 55 56  1  0  0  0
 56 57  1  0  0  0
 57 58  1  0  0  0
 58 59  1  0  0  0
 59 60  1  0  0  0
 60 61  1  0  0  0
 61 62  1  0  0  0
 62 63  1  0  0  0
 63 64  1  0  0  0
 64 65  1  0  0  0
 31 32  1  0  0  0
 32 33  1  0  0  0
 33 34  1  0  0  0
 34 35  1  0  0  0
 35 36  1  0  0  0
  8 10  1  0  0  0
  9 17  1  0  0  0
 12 13  2  0  0  0
 12 17  1  0  0  0
 13 14  1  0  0  0
 14 15  2  0  0  0
 15 16  1  0  0  0
 16 17  2  0  0  0
M  END
> <minimizedAffinity>
-9.93588

> <CNNscore>
0.1826322973

> <CNNaffinity>
7.1836028099

> <CNN_VS>
1.3119578362

> <CNNaffinity_variance>
0.5428637862

$$$$
/media/chris/experiments/cd1a-new-docking/inputs/ligands/1xz0_ligand.pdb


 65 67  0  0  0  0  0  0  0  0999 V2000
  -41.5753   58.5452   64.6374 C   0  0  0  0  0  0  0  0  0  0  0  0
  -40.2366   58.5948   65.2286 N   0  0  0  0  0  0  0  0  0  0  0  0
  -39.8477   60.8266   65.4300 O   0  0  0  0  0  0  0  0  0  0  0  0
  -39.4950   59.6629   65.5700 C   0  0  0  0  0  0  0  0  0  0  0  0
  -39.8194   57.7199   65.4010 H   0  0  0  0  0  0  0  0  0  0  0  0
  -37.3621   60.6733   66.3510 N   0  0  0  0  0  0  0  0  0  0  0  0
  -35.9330   59.5630   65.0406 O   0  0  0  0  0  0  0  0  0  0  0  0
  -37.0574   58.6899   65.1407 C   0  0  0  0  0  0  0  0  0  0  0  0
  -36.2264   60.7515   65.8017 C   0  0  0  0  0  0  0  0  0  0  0  0
  -38.0765   59.4151   66.0627 C   0  0  0  0  0  0  0  0  0  0  0  0
  -37.0089   63.5325   66.0277 O   0  0  0  0  0  0  0  0  0  0  0  0
  -35.7078   63.2222   66.0794 C   0  0  0  0  0  0  0  0  0  0  0  0
  -34.7599   64.2384   66.2569 C   0  0  0  0  0  0  0  0  0  0  0  0
  -33.3878   63.9398   66.3051 C   0  0  0  0  0  0  0  0  0  0  0  0
  -32.9486   62.6200   66.1864 C   0  0  0  0  0  0  0  0  0  0  0  0
  -33.8907   61.6018   66.0156 C   0  0  0  0  0  0  0  0  0  0  0  0
  -35.2659   61.8991   65.9581 C   0  0  0  0  0  0  0  0  0  0  0  0
  -37.2813   64.4251   66.1114 H   0  0  0  0  0  0  0  0  0  0  0  0
  -42.3213   58.4714   66.9118 O   0  0  0  0  0  0  0  0  0  0  0  0
  -42.5209   58.1444   65.7536 C   0  0  0  0  0  0  0  0  0  0  0  0
  -43.6732   57.2856   65.4607 O   0  0  0  0  0  0  0  0  0  0  0  0
  -44.9739   57.8425   65.1928 C   0  0  0  0  0  0  0  0  0  0  0  0
  -44.9813   59.3480   64.9587 C   0  0  0  0  0  0  0  0  0  0  0  0
  -45.9036   57.4601   66.3346 C   0  0  0  0  0  0  0  0  0  0  0  0
  -47.9925   58.1403   65.2531 N   0  0  0  0  0  0  0  0  0  0  0  0
  -47.7118   56.0387   66.0405 O   0  0  0  0  0  0  0  0  0  0  0  0
  -47.3128   57.1695   65.8807 C   0  0  0  0  0  0  0  0  0  0  0  0
  -47.5666   59.0250   65.1826 H   0  0  0  0  0  0  0  0  0  0  0  0
  -49.2564   59.4650   62.7031 N   0  0  0  0  0  0  0  0  0  0  0  0
  -49.6715   57.2688   62.4386 O   0  0  0  0  0  0  0  0  0  0  0  0
  -48.7022   60.6005   63.4549 C   0  0  0  0  0  0  0  0  0  0  0  0
  -49.6665   61.0357   64.5745 C   0  0  0  0  0  0  0  0  0  0  0  0
  -50.8622   60.1232   64.7919 C   0  0  0  0  0  0  0  0  0  0  0  0
  -50.4735   58.7472   65.3389 C   0  0  0  0  0  0  0  0  0  0  0  0
  -49.3265   57.9767   64.6640 C   0  0  0  0  0  0  0  0  0  0  0  0
  -49.4159   58.2160   63.1695 C   0  0  0  0  0  0  0  0  0  0  0  0
  -50.3272   58.3863   60.4198 Si  0  0  0  0  0  0  0  0  0  0  0  0
  -49.6331   59.6992   61.4149 O   0  0  0  0  0  0  0  0  0  0  0  0
  -50.6344   58.8848   59.1262 H   0  0  0  0  0  0  0  0  0  0  0  0
  -51.5123   57.9024   61.0344 H   0  0  0  0  0  0  0  0  0  0  0  0
  -49.3860   57.3288   60.3082 H   0  0  0  0  0  0  0  0  0  0  0  0
  -40.5099   56.9932   62.8070 C   0  0  0  0  0  0  0  0  0  0  0  0
  -41.7531   57.7123   63.3447 C   0  0  0  0  0  0  0  0  0  0  0  0
  -40.5506   56.5397   61.3379 C   0  0  0  0  0  0  0  0  0  0  0  0
  -40.9561   57.5874   60.2807 C   0  0  0  0  0  0  0  0  0  0  0  0
  -40.2860   58.8506   60.6046 N   0  0  0  0  0  0  0  0  0  0  0  0
  -38.9562   59.1294   60.6405 C   0  0  0  0  0  0  0  0  0  0  0  0
  -41.1655   59.8974   60.9151 O   0  0  0  0  0  0  0  0  0  0  0  0
  -38.1176   58.2704   60.3687 O   0  0  0  0  0  0  0  0  0  0  0  0
  -40.6565   60.6979   61.1179 H   0  0  0  0  0  0  0  0  0  0  0  0
  -38.5043   60.5399   61.0337 C   0  0  0  0  0  0  0  0  0  0  0  0
  -37.5076   60.5861   62.1997 C   0  0  0  0  0  0  0  0  0  0  0  0
  -37.4543   62.0070   62.7935 C   0  0  0  0  0  0  0  0  0  0  0  0
  -36.0874   62.6956   62.6187 C   0  0  0  0  0  0  0  0  0  0  0  0
  -36.1415   64.2348   62.6066 C   0  0  0  0  0  0  0  0  0  0  0  0
  -34.7744   64.8810   62.2991 C   0  0  0  0  0  0  0  0  0  0  0  0
  -33.5664   63.9262   62.4427 C   0  0  0  0  0  0  0  0  0  0  0  0
  -32.2723   64.6375   62.8545 C   0  0  0  0  0  0  0  0  0  0  0  0
  -31.0697   63.7206   63.0995 C   0  0  0  0  0  0  0  0  0  0  0  0
  -31.0756   62.5184   62.1377 C   0  0  0  0  0  0  0  0  0  0  0  0
  -31.1718   61.1572   62.8433 C   0  0  0  0  0  0  0  0  0  0  0  0
  -31.9311   60.0653   62.0824 C   0  0  0  0  0  0  0  0  0  0  0  0
  -32.5441   58.9681   62.9880 C   0  0  0  0  0  0  0  0  0  0  0  0
  -33.9078   58.4888   62.4507 C   0  0  0  0  0  0  0  0  0  0  0  0
  -34.4861   57.2039   63.0559 C   0  0  0  0  0  0  0  0  0  0  0  0
 46 47  1  0  0  0
 46 48  1  0  0  0
 46 45  1  0  0  0
 47 49  2  0  0  0
 47 51  1  0  0  0
 19 20  2  0  0  0
 37 38  1  0  0  0
 37 39  1  0  0  0
 37 40  1  0  0  0
 37 41  1  0  0  0
 48 50  1  0  0  0
 38 29  1  0  0  0
 45 44  1  0  0  0
 25 27  1  0  0  0
 25 35  1  0  0  0
 25 28  1  0  0  0
 21 20  1  0  0  0
 21 22  1  0  0  0
 44 42  1  0  0  0
  2  1  1  0  0  0
  2  4  1  0  0  0
  2  5  1  0  0  0
 26 27  2  0  0  0
 42 43  2  0  0  0
 29 31  1  0  0  0
 29 36  1  0  0  0
  3  4  2  0  0  0
 43  1  1  0  0  0
  6  9  2  0  0  0
  6 10  1  0  0  0
  1 20  1  0  0  0
 30 36  2  0  0  0
  7  8  1  0  0  0
  7  9  1  0  0  0
 22 24  1  0  0  0
 22 23  1  0  0  0
 11 12  1  0  0  0
 11 18  1  0  0  0
 24 27  1  0  0  0
  4 10  1  0  0  0
 51 52  1  0  0  0
 52 53  1  0  0  0
 53 54  1  0  0  0
 54 55  1  0  0  0
 55 56  1  0  0  0
 56 57  1  0  0  0
 57 58  1  0  0  0
 58 59  1  0  0  0
 59 60  1  0  0  0
 60 61  1  0  0  0
 61 62  1  0  0  0
 62 63  1  0  0  0
 63 64  1  0  0  0
 64 65  1  0  0  0
 31 32  1  0  0  0
 32 33  1  0  0  0
 33 34  1  0  0  0
 34 35  1  0  0  0
 35 36  1  0  0  0
  8 10  1  0  0  0
  9 17  1  0  0  0
 12 13  2  0  0  0
 12 17  1  0  0  0
 13 14  1  0  0  0
 14 15  2  0  0  0
 15 16  1  0  0  0
 16 17  2  0  0  0
M  END
> <minimizedAffinity>
-8.45928

> <CNNscore>
0.1787454039

> <CNNaffinity>
7.4585556984

> <CNN_VS>
1.3331825733

> <CNNaffinity_variance>
1.2108434439

$$$$
/media/chris/experiments/cd1a-new-docking/inputs/ligands/1xz0_ligand.pdb


 65 67  0  0  0  0  0  0  0  0999 V2000
  -42.1814   58.5487   63.9277 C   0  0  0  0  0  0  0  0  0  0  0  0
  -41.0790   58.9125   64.8202 N   0  0  0  0  0  0  0  0  0  0  0  0
  -40.0812   60.6382   63.7252 O   0  0  0  0  0  0  0  0  0  0  0  0
  -40.1504   59.8743   64.6790 C   0  0  0  0  0  0  0  0  0  0  0  0
  -41.0076   58.3754   65.6422 H   0  0  0  0  0  0  0  0  0  0  0  0
  -38.1976   61.1473   65.5429 N   0  0  0  0  0  0  0  0  0  0  0  0
  -36.7095   59.4857   65.6729 O   0  0  0  0  0  0  0  0  0  0  0  0
  -37.9707   58.8277   65.7866 C   0  0  0  0  0  0  0  0  0  0  0  0
  -36.9592   60.8962   65.5124 C   0  0  0  0  0  0  0  0  0  0  0  0
  -39.0425   59.9508   65.7197 C   0  0  0  0  0  0  0  0  0  0  0  0
  -36.0722   62.6232   67.6636 O   0  0  0  0  0  0  0  0  0  0  0  0
  -35.4740   62.7203   66.4701 C   0  0  0  0  0  0  0  0  0  0  0  0
  -34.4287   63.6359   66.2916 C   0  0  0  0  0  0  0  0  0  0  0  0
  -33.7909   63.7635   65.0461 C   0  0  0  0  0  0  0  0  0  0  0  0
  -34.1847   62.9696   63.9675 C   0  0  0  0  0  0  0  0  0  0  0  0
  -35.2227   62.0501   64.1422 C   0  0  0  0  0  0  0  0  0  0  0  0
  -35.8696   61.9263   65.3867 C   0  0  0  0  0  0  0  0  0  0  0  0
  -35.7905   63.1650   68.3743 H   0  0  0  0  0  0  0  0  0  0  0  0
  -43.2524   56.5920   64.7991 O   0  0  0  0  0  0  0  0  0  0  0  0
  -43.1958   57.8105   64.7803 C   0  0  0  0  0  0  0  0  0  0  0  0
  -44.1848   58.5661   65.5561 O   0  0  0  0  0  0  0  0  0  0  0  0
  -45.4584   58.9320   64.9925 C   0  0  0  0  0  0  0  0  0  0  0  0
  -45.4155   60.1384   64.0628 C   0  0  0  0  0  0  0  0  0  0  0  0
  -46.4417   59.1522   66.1323 C   0  0  0  0  0  0  0  0  0  0  0  0
  -48.1406   58.3279   64.5734 N   0  0  0  0  0  0  0  0  0  0  0  0
  -48.7214   59.3778   66.4907 O   0  0  0  0  0  0  0  0  0  0  0  0
  -47.8816   58.9816   65.7153 C   0  0  0  0  0  0  0  0  0  0  0  0
  -47.3745   58.0529   64.0198 H   0  0  0  0  0  0  0  0  0  0  0  0
  -49.6310   59.2120   61.9557 N   0  0  0  0  0  0  0  0  0  0  0  0
  -49.8855   56.9762   61.9989 O   0  0  0  0  0  0  0  0  0  0  0  0
  -49.1303   60.4732   62.5219 C   0  0  0  0  0  0  0  0  0  0  0  0
  -50.0683   60.9823   63.6327 C   0  0  0  0  0  0  0  0  0  0  0  0
  -51.1764   60.0236   64.0361 C   0  0  0  0  0  0  0  0  0  0  0  0
  -50.6541   58.7628   64.7298 C   0  0  0  0  0  0  0  0  0  0  0  0
  -49.4856   57.9937   64.0910 C   0  0  0  0  0  0  0  0  0  0  0  0
  -49.6685   58.0271   62.5863 C   0  0  0  0  0  0  0  0  0  0  0  0
  -51.0418   57.8863   60.0126 Si  0  0  0  0  0  0  0  0  0  0  0  0
  -50.0891   59.2471   60.6731 O   0  0  0  0  0  0  0  0  0  0  0  0
  -51.3964   58.1662   58.6664 H   0  0  0  0  0  0  0  0  0  0  0  0
  -52.2200   57.7137   60.7863 H   0  0  0  0  0  0  0  0  0  0  0  0
  -50.2658   56.6980   60.0603 H   0  0  0  0  0  0  0  0  0  0  0  0
  -41.5647   58.6840   61.3791 C   0  0  0  0  0  0  0  0  0  0  0  0
  -41.8218   57.8124   62.6144 C   0  0  0  0  0  0  0  0  0  0  0  0
  -41.6401   57.9879   60.0097 C   0  0  0  0  0  0  0  0  0  0  0  0
  -40.3352   57.3935   59.4408 C   0  0  0  0  0  0  0  0  0  0  0  0
  -39.2062   58.1442   59.9990 N   0  0  0  0  0  0  0  0  0  0  0  0
  -38.4214   57.8416   61.0668 C   0  0  0  0  0  0  0  0  0  0  0  0
  -38.9205   59.3339   59.3146 O   0  0  0  0  0  0  0  0  0  0  0  0
  -38.5969   56.8097   61.7144 O   0  0  0  0  0  0  0  0  0  0  0  0
  -38.1669   59.7763   59.7358 H   0  0  0  0  0  0  0  0  0  0  0  0
  -37.3054   58.8128   61.4661 C   0  0  0  0  0  0  0  0  0  0  0  0
  -36.5218   58.4001   62.7194 C   0  0  0  0  0  0  0  0  0  0  0  0
  -35.0114   58.3777   62.4150 C   0  0  0  0  0  0  0  0  0  0  0  0
  -34.1381   58.1070   63.6548 C   0  0  0  0  0  0  0  0  0  0  0  0
  -33.0262   59.1452   63.8953 C   0  0  0  0  0  0  0  0  0  0  0  0
  -32.0552   59.2719   62.7028 C   0  0  0  0  0  0  0  0  0  0  0  0
  -31.9734   60.6892   62.0894 C   0  0  0  0  0  0  0  0  0  0  0  0
  -30.9286   61.5861   62.7633 C   0  0  0  0  0  0  0  0  0  0  0  0
  -30.9520   63.0565   62.3339 C   0  0  0  0  0  0  0  0  0  0  0  0
  -31.8004   63.2570   61.0649 C   0  0  0  0  0  0  0  0  0  0  0  0
  -32.1395   64.7256   60.7684 C   0  0  0  0  0  0  0  0  0  0  0  0
  -32.2360   65.6462   61.9894 C   0  0  0  0  0  0  0  0  0  0  0  0
  -33.6527   66.2188   62.2439 C   0  0  0  0  0  0  0  0  0  0  0  0
  -34.6997   65.5693   61.3166 C   0  0  0  0  0  0  0  0  0  0  0  0
  -36.1162   65.3915   61.8765 C   0  0  0  0  0  0  0  0  0  0  0  0
 46 47  1  0  0  0
 46 48  1  0  0  0
 46 45  1  0  0  0
 47 49  2  0  0  0
 47 51  1  0  0  0
 19 20  2  0  0  0
 37 38  1  0  0  0
 37 39  1  0  0  0
 37 40  1  0  0  0
 37 41  1  0  0  0
 48 50  1  0  0  0
 38 29  1  0  0  0
 45 44  1  0  0  0
 25 27  1  0  0  0
 25 35  1  0  0  0
 25 28  1  0  0  0
 21 20  1  0  0  0
 21 22  1  0  0  0
 44 42  1  0  0  0
  2  1  1  0  0  0
  2  4  1  0  0  0
  2  5  1  0  0  0
 26 27  2  0  0  0
 42 43  2  0  0  0
 29 31  1  0  0  0
 29 36  1  0  0  0
  3  4  2  0  0  0
 43  1  1  0  0  0
  6  9  2  0  0  0
  6 10  1  0  0  0
  1 20  1  0  0  0
 30 36  2  0  0  0
  7  8  1  0  0  0
  7  9  1  0  0  0
 22 24  1  0  0  0
 22 23  1  0  0  0
 11 12  1  0  0  0
 11 18  1  0  0  0
 24 27  1  0  0  0
  4 10  1  0  0  0
 51 52  1  0  0  0
 52 53  1  0  0  0
 53 54  1  0  0  0
 54 55  1  0  0  0
 55 56  1  0  0  0
 56 57  1  0  0  0
 57 58  1  0  0  0
 58 59  1  0  0  0
 59 60  1  0  0  0
 60 61  1  0  0  0
 61 62  1  0  0  0
 62 63  1  0  0  0
 63 64  1  0  0  0
 64 65  1  0  0  0
 31 32  1  0  0  0
 32 33  1  0  0  0
 33 34  1  0  0  0
 34 35  1  0  0  0
 35 36  1  0  0  0
  8 10  1  0  0  0
  9 17  1  0  0  0
 12 13  2  0  0  0
 12 17  1  0  0  0
 13 14  1  0  0  0
 14 15  2  0  0  0
 15 16  1  0  0  0
 16 17  2  0  0  0
M  END
> <minimizedAffinity>
-9.02043

> <CNNscore>
0.1784384698

> <CNNaffinity>
7.4313211441

> <CNN_VS>
1.3260335922

> <CNNaffinity_variance>
1.2910563946

$$$$
/media/chris/experiments/cd1a-new-docking/inputs/ligands/1xz0_ligand.pdb


 65 67  0  0  0  0  0  0  0  0999 V2000
  -37.5248   60.8625   65.0062 C   0  0  0  0  0  0  0  0  0  0  0  0
  -37.8517   60.4382   63.6434 N   0  0  0  0  0  0  0  0  0  0  0  0
  -37.1089   62.1732   62.3743 O   0  0  0  0  0  0  0  0  0  0  0  0
  -37.6397   61.0752   62.4787 C   0  0  0  0  0  0  0  0  0  0  0  0
  -38.2900   59.5597   63.5695 H   0  0  0  0  0  0  0  0  0  0  0  0
  -39.3427   59.5585   61.4890 N   0  0  0  0  0  0  0  0  0  0  0  0
  -38.0056   58.2786   60.2375 O   0  0  0  0  0  0  0  0  0  0  0  0
  -37.2904   59.5074   60.3590 C   0  0  0  0  0  0  0  0  0  0  0  0
  -39.2369   58.4083   60.9758 C   0  0  0  0  0  0  0  0  0  0  0  0
  -38.1940   60.4415   61.2109 C   0  0  0  0  0  0  0  0  0  0  0  0
  -41.3415   57.9887   59.0285 O   0  0  0  0  0  0  0  0  0  0  0  0
  -41.2587   57.1612   60.0774 C   0  0  0  0  0  0  0  0  0  0  0  0
  -42.1739   56.1077   60.2025 C   0  0  0  0  0  0  0  0  0  0  0  0
  -42.1140   55.2312   61.2990 C   0  0  0  0  0  0  0  0  0  0  0  0
  -41.1318   55.3921   62.2778 C   0  0  0  0  0  0  0  0  0  0  0  0
  -40.2125   56.4376   62.1543 C   0  0  0  0  0  0  0  0  0  0  0  0
  -40.2755   57.3230   61.0612 C   0  0  0  0  0  0  0  0  0  0  0  0
  -42.0079   57.8609   58.3824 H   0  0  0  0  0  0  0  0  0  0  0  0
  -35.2423   61.0457   65.7076 O   0  0  0  0  0  0  0  0  0  0  0  0
  -36.1376   60.3239   65.3004 C   0  0  0  0  0  0  0  0  0  0  0  0
  -35.8291   58.9158   65.0304 O   0  0  0  0  0  0  0  0  0  0  0  0
  -34.6270   58.5318   64.3367 C   0  0  0  0  0  0  0  0  0  0  0  0
  -33.3379   58.8312   65.0919 C   0  0  0  0  0  0  0  0  0  0  0  0
  -34.6290   59.1980   62.9689 C   0  0  0  0  0  0  0  0  0  0  0  0
  -33.6950   61.4612   63.0017 N   0  0  0  0  0  0  0  0  0  0  0  0
  -32.4073   59.6701   62.5028 O   0  0  0  0  0  0  0  0  0  0  0  0
  -33.4809   60.1571   62.7741 C   0  0  0  0  0  0  0  0  0  0  0  0
  -34.6137   61.7437   63.2146 H   0  0  0  0  0  0  0  0  0  0  0  0
  -33.4074   64.1152   64.6537 N   0  0  0  0  0  0  0  0  0  0  0  0
  -31.3911   63.1333   64.8445 O   0  0  0  0  0  0  0  0  0  0  0  0
  -34.7888   64.1575   64.1522 C   0  0  0  0  0  0  0  0  0  0  0  0
  -34.8257   64.6669   62.6989 C   0  0  0  0  0  0  0  0  0  0  0  0
  -33.4685   64.8371   62.0365 C   0  0  0  0  0  0  0  0  0  0  0  0
  -32.7464   63.5079   61.8009 C   0  0  0  0  0  0  0  0  0  0  0  0
  -32.6564   62.4968   62.9560 C   0  0  0  0  0  0  0  0  0  0  0  0
  -32.4472   63.2713   64.2425 C   0  0  0  0  0  0  0  0  0  0  0  0
  -31.9063   64.5577   66.9063 Si  0  0  0  0  0  0  0  0  0  0  0  0
  -33.0747   65.0056   65.6297 O   0  0  0  0  0  0  0  0  0  0  0  0
  -31.7329   65.6522   67.7943 H   0  0  0  0  0  0  0  0  0  0  0  0
  -30.6594   64.2279   66.3124 H   0  0  0  0  0  0  0  0  0  0  0  0
  -32.3986   63.4373   67.6267 H   0  0  0  0  0  0  0  0  0  0  0  0
  -39.8256   59.8001   65.6932 C   0  0  0  0  0  0  0  0  0  0  0  0
  -38.5585   60.5535   66.1163 C   0  0  0  0  0  0  0  0  0  0  0  0
  -41.0270   59.8687   66.6510 C   0  0  0  0  0  0  0  0  0  0  0  0
  -41.9880   58.6622   66.6746 C   0  0  0  0  0  0  0  0  0  0  0  0
  -43.0890   58.9332   65.7450 N   0  0  0  0  0  0  0  0  0  0  0  0
  -44.3219   58.3635   65.6891 C   0  0  0  0  0  0  0  0  0  0  0  0
  -42.8001   59.9222   64.7943 O   0  0  0  0  0  0  0  0  0  0  0  0
  -44.6603   57.4967   66.4948 O   0  0  0  0  0  0  0  0  0  0  0  0
  -43.5684   60.0490   64.2158 H   0  0  0  0  0  0  0  0  0  0  0  0
  -45.2973   58.8117   64.5955 C   0  0  0  0  0  0  0  0  0  0  0  0
  -46.3632   59.8109   65.0651 C   0  0  0  0  0  0  0  0  0  0  0  0
  -47.6379   59.0603   65.4964 C   0  0  0  0  0  0  0  0  0  0  0  0
  -48.6729   59.9592   66.1991 C   0  0  0  0  0  0  0  0  0  0  0  0
  -50.1122   59.8146   65.6702 C   0  0  0  0  0  0  0  0  0  0  0  0
  -50.3789   58.4389   65.0241 C   0  0  0  0  0  0  0  0  0  0  0  0
  -50.7918   58.4985   63.5350 C   0  0  0  0  0  0  0  0  0  0  0  0
  -49.7391   57.9138   62.5862 C   0  0  0  0  0  0  0  0  0  0  0  0
  -48.8408   58.9413   61.8903 C   0  0  0  0  0  0  0  0  0  0  0  0
  -49.4668   59.4323   60.5722 C   0  0  0  0  0  0  0  0  0  0  0  0
  -49.5685   58.3473   59.4893 C   0  0  0  0  0  0  0  0  0  0  0  0
  -48.2357   57.8014   58.9667 C   0  0  0  0  0  0  0  0  0  0  0  0
  -47.7394   58.4756   57.6634 C   0  0  0  0  0  0  0  0  0  0  0  0
  -47.5881   57.4521   56.5198 C   0  0  0  0  0  0  0  0  0  0  0  0
  -47.7179   55.9688   56.8865 C   0  0  0  0  0  0  0  0  0  0  0  0
 46 47  1  0  0  0
 46 48  1  0  0  0
 46 45  1  0  0  0
 47 49  2  0  0  0
 47 51  1  0  0  0
 19 20  2  0  0  0
 37 38  1  0  0  0
 37 39  1  0  0  0
 37 40  1  0  0  0
 37 41  1  0  0  0
 48 50  1  0  0  0
 38 29  1  0  0  0
 45 44  1  0  0  0
 25 27  1  0  0  0
 25 35  1  0  0  0
 25 28  1  0  0  0
 21 20  1  0  0  0
 21 22  1  0  0  0
 44 42  1  0  0  0
  2  1  1  0  0  0
  2  4  1  0  0  0
  2  5  1  0  0  0
 26 27  2  0  0  0
 42 43  2  0  0  0
 29 31  1  0  0  0
 29 36  1  0  0  0
  3  4  2  0  0  0
 43  1  1  0  0  0
  6  9  2  0  0  0
  6 10  1  0  0  0
  1 20  1  0  0  0
 30 36  2  0  0  0
  7  8  1  0  0  0
  7  9  1  0  0  0
 22 24  1  0  0  0
 22 23  1  0  0  0
 11 12  1  0  0  0
 11 18  1  0  0  0
 24 27  1  0  0  0
  4 10  1  0  0  0
 51 52  1  0  0  0
 52 53  1  0  0  0
 53 54  1  0  0  0
 54 55  1  0  0  0
 55 56  1  0  0  0
 56 57  1  0  0  0
 57 58  1  0  0  0
 58 59  1  0  0  0
 59 60  1  0  0  0
 60 61  1  0  0  0
 61 62  1  0  0  0
 62 63  1  0  0  0
 63 64  1  0  0  0
 64 65  1  0  0  0
 31 32  1  0  0  0
 32 33  1  0  0  0
 33 34  1  0  0  0
 34 35  1  0  0  0
 35 36  1  0  0  0
  8 10  1  0  0  0
  9 17  1  0  0  0
 12 13  2  0  0  0
 12 17  1  0  0  0
 13 14  1  0  0  0
 14 15  2  0  0  0
 15 16  1  0  0  0
 16 17  2  0  0  0
M  END
> <minimizedAffinity>
-8.53949

> <CNNscore>
0.1781770885

> <CNNaffinity>
7.1900148392

> <CNN_VS>
1.2810958624

> <CNNaffinity_variance>
0.3138648570

$$$$
/media/chris/experiments/cd1a-new-docking/inputs/ligands/1xz0_ligand.pdb


 65 67  0  0  0  0  0  0  0  0999 V2000
  -40.6056   57.2349   62.9627 C   0  0  0  0  0  0  0  0  0  0  0  0
  -39.4777   57.3663   63.8872 N   0  0  0  0  0  0  0  0  0  0  0  0
  -39.5596   59.5585   64.4874 O   0  0  0  0  0  0  0  0  0  0  0  0
  -39.0451   58.4500   64.5549 C   0  0  0  0  0  0  0  0  0  0  0  0
  -38.9618   56.5422   64.0422 H   0  0  0  0  0  0  0  0  0  0  0  0
  -36.5957   58.8645   64.6471 N   0  0  0  0  0  0  0  0  0  0  0  0
  -35.9073   56.8347   65.2784 O   0  0  0  0  0  0  0  0  0  0  0  0
  -37.2460   56.9114   65.7669 C   0  0  0  0  0  0  0  0  0  0  0  0
  -35.6134   58.0706   64.5971 C   0  0  0  0  0  0  0  0  0  0  0  0
  -37.7637   58.3205   65.3657 C   0  0  0  0  0  0  0  0  0  0  0  0
  -35.2136   58.6134   61.7788 O   0  0  0  0  0  0  0  0  0  0  0  0
  -34.1564   58.6493   62.5990 C   0  0  0  0  0  0  0  0  0  0  0  0
  -32.8912   58.9622   62.0849 C   0  0  0  0  0  0  0  0  0  0  0  0
  -31.7642   58.9972   62.9234 C   0  0  0  0  0  0  0  0  0  0  0  0
  -31.8914   58.7294   64.2875 C   0  0  0  0  0  0  0  0  0  0  0  0
  -33.1525   58.4229   64.8064 C   0  0  0  0  0  0  0  0  0  0  0  0
  -34.2822   58.3785   63.9671 C   0  0  0  0  0  0  0  0  0  0  0  0
  -35.1054   58.7982   60.8667 H   0  0  0  0  0  0  0  0  0  0  0  0
  -41.1150   59.1380   61.6010 O   0  0  0  0  0  0  0  0  0  0  0  0
  -40.3503   58.2165   61.8348 C   0  0  0  0  0  0  0  0  0  0  0  0
  -39.1951   58.0283   60.9510 O   0  0  0  0  0  0  0  0  0  0  0  0
  -38.5172   59.1503   60.3548 C   0  0  0  0  0  0  0  0  0  0  0  0
  -38.0523   58.9199   58.9223 C   0  0  0  0  0  0  0  0  0  0  0  0
  -37.3533   59.5401   61.2536 C   0  0  0  0  0  0  0  0  0  0  0  0
  -36.5976   61.3367   62.7358 N   0  0  0  0  0  0  0  0  0  0  0  0
  -38.7249   61.2666   61.9707 O   0  0  0  0  0  0  0  0  0  0  0  0
  -37.6170   60.7888   62.0582 C   0  0  0  0  0  0  0  0  0  0  0  0
  -35.7384   60.8563   62.7372 H   0  0  0  0  0  0  0  0  0  0  0  0
  -34.4159   63.5469   63.1943 N   0  0  0  0  0  0  0  0  0  0  0  0
  -36.2168   64.6973   62.4881 O   0  0  0  0  0  0  0  0  0  0  0  0
  -33.7342   62.2952   63.5554 C   0  0  0  0  0  0  0  0  0  0  0  0
  -34.0944   61.8732   64.9923 C   0  0  0  0  0  0  0  0  0  0  0  0
  -35.1847   62.6977   65.6566 C   0  0  0  0  0  0  0  0  0  0  0  0
  -36.5576   62.5098   65.0059 C   0  0  0  0  0  0  0  0  0  0  0  0
  -36.6728   62.6021   63.4752 C   0  0  0  0  0  0  0  0  0  0  0  0
  -35.7361   63.6950   62.9990 C   0  0  0  0  0  0  0  0  0  0  0  0
  -34.3511   66.1916   62.4699 Si  0  0  0  0  0  0  0  0  0  0  0  0
  -33.6369   64.6531   63.0345 O   0  0  0  0  0  0  0  0  0  0  0  0
  -33.3369   67.1820   62.3872 H   0  0  0  0  0  0  0  0  0  0  0  0
  -35.3511   66.6135   63.3856 H   0  0  0  0  0  0  0  0  0  0  0  0
  -34.9326   66.0015   61.1884 H   0  0  0  0  0  0  0  0  0  0  0  0
  -42.2275   56.7843   64.9777 C   0  0  0  0  0  0  0  0  0  0  0  0
  -42.0309   57.3320   63.5588 C   0  0  0  0  0  0  0  0  0  0  0  0
  -43.6709   56.4736   65.4086 C   0  0  0  0  0  0  0  0  0  0  0  0
  -44.3719   57.4901   66.3333 C   0  0  0  0  0  0  0  0  0  0  0  0
  -45.5573   58.0023   65.6388 N   0  0  0  0  0  0  0  0  0  0  0  0
  -45.6385   58.9557   64.6733 C   0  0  0  0  0  0  0  0  0  0  0  0
  -46.7582   57.4059   66.0484 O   0  0  0  0  0  0  0  0  0  0  0  0
  -44.6302   59.5193   64.2482 O   0  0  0  0  0  0  0  0  0  0  0  0
  -47.4965   57.7904   65.5503 H   0  0  0  0  0  0  0  0  0  0  0  0
  -47.0155   59.3319   64.1162 C   0  0  0  0  0  0  0  0  0  0  0  0
  -47.3264   60.8343   64.1508 C   0  0  0  0  0  0  0  0  0  0  0  0
  -48.7182   61.0721   64.7679 C   0  0  0  0  0  0  0  0  0  0  0  0
  -49.0561   60.1014   65.9152 C   0  0  0  0  0  0  0  0  0  0  0  0
  -50.4040   59.3720   65.7623 C   0  0  0  0  0  0  0  0  0  0  0  0
  -50.3765   58.2828   64.6697 C   0  0  0  0  0  0  0  0  0  0  0  0
  -51.1776   58.6331   63.3940 C   0  0  0  0  0  0  0  0  0  0  0  0
  -50.4220   58.3265   62.0958 C   0  0  0  0  0  0  0  0  0  0  0  0
  -49.5261   59.4556   61.5765 C   0  0  0  0  0  0  0  0  0  0  0  0
  -49.6835   59.6425   60.0564 C   0  0  0  0  0  0  0  0  0  0  0  0
  -50.0524   58.3540   59.3057 C   0  0  0  0  0  0  0  0  0  0  0  0
  -48.9877   57.8158   58.3442 C   0  0  0  0  0  0  0  0  0  0  0  0
  -47.7552   57.1915   59.0448 C   0  0  0  0  0  0  0  0  0  0  0  0
  -47.1858   56.0073   58.2375 C   0  0  0  0  0  0  0  0  0  0  0  0
  -47.3504   56.0556   56.7137 C   0  0  0  0  0  0  0  0  0  0  0  0
 46 47  1  0  0  0
 46 48  1  0  0  0
 46 45  1  0  0  0
 47 49  2  0  0  0
 47 51  1  0  0  0
 19 20  2  0  0  0
 37 38  1  0  0  0
 37 39  1  0  0  0
 37 40  1  0  0  0
 37 41  1  0  0  0
 48 50  1  0  0  0
 38 29  1  0  0  0
 45 44  1  0  0  0
 25 27  1  0  0  0
 25 35  1  0  0  0
 25 28  1  0  0  0
 21 20  1  0  0  0
 21 22  1  0  0  0
 44 42  1  0  0  0
  2  1  1  0  0  0
  2  4  1  0  0  0
  2  5  1  0  0  0
 26 27  2  0  0  0
 42 43  2  0  0  0
 29 31  1  0  0  0
 29 36  1  0  0  0
  3  4  2  0  0  0
 43  1  1  0  0  0
  6  9  2  0  0  0
  6 10  1  0  0  0
  1 20  1  0  0  0
 30 36  2  0  0  0
  7  8  1  0  0  0
  7  9  1  0  0  0
 22 24  1  0  0  0
 22 23  1  0  0  0
 11 12  1  0  0  0
 11 18  1  0  0  0
 24 27  1  0  0  0
  4 10  1  0  0  0
 51 52  1  0  0  0
 52 53  1  0  0  0
 53 54  1  0  0  0
 54 55  1  0  0  0
 55 56  1  0  0  0
 56 57  1  0  0  0
 57 58  1  0  0  0
 58 59  1  0  0  0
 59 60  1  0  0  0
 60 61  1  0  0  0
 61 62  1  0  0  0
 62 63  1  0  0  0
 63 64  1  0  0  0
 64 65  1  0  0  0
 31 32  1  0  0  0
 32 33  1  0  0  0
 33 34  1  0  0  0
 34 35  1  0  0  0
 35 36  1  0  0  0
  8 10  1  0  0  0
  9 17  1  0  0  0
 12 13  2  0  0  0
 12 17  1  0  0  0
 13 14  1  0  0  0
 14 15  2  0  0  0
 15 16  1  0  0  0
 16 17  2  0  0  0
M  END
> <minimizedAffinity>
-8.92943

> <CNNscore>
0.1663644165

> <CNNaffinity>
7.4580101967

> <CNN_VS>
1.2407475710

> <CNNaffinity_variance>
0.3934365809

$$$$
