/media/chris/experiments/cd1a-new-docking/inputs/ligands/1xz0_ligand.pdb


 65 67  0  0  0  0  0  0  0  0999 V2000
  -42.0136   59.8109   62.0533 C   0  0  0  0  0  0  0  0  0  0  0  0
  -40.7569   59.2793   61.5221 N   0  0  0  0  0  0  0  0  0  0  0  0
  -41.4269   58.1218   59.6825 O   0  0  0  0  0  0  0  0  0  0  0  0
  -40.5466   58.5141   60.4370 C   0  0  0  0  0  0  0  0  0  0  0  0
  -39.9496   59.5164   62.0333 H   0  0  0  0  0  0  0  0  0  0  0  0
  -38.4421   57.6530   61.4416 N   0  0  0  0  0  0  0  0  0  0  0  0
  -36.9751   58.9849   60.4092 O   0  0  0  0  0  0  0  0  0  0  0  0
  -38.0882   58.9424   59.5171 C   0  0  0  0  0  0  0  0  0  0  0  0
  -37.2985   58.1784   61.5593 C   0  0  0  0  0  0  0  0  0  0  0  0
  -39.1332   58.0079   60.1875 C   0  0  0  0  0  0  0  0  0  0  0  0
  -38.0920   57.1795   64.1611 O   0  0  0  0  0  0  0  0  0  0  0  0
  -36.8003   57.4537   63.9419 C   0  0  0  0  0  0  0  0  0  0  0  0
  -35.8637   57.2382   64.9613 C   0  0  0  0  0  0  0  0  0  0  0  0
  -34.5035   57.5270   64.7593 C   0  0  0  0  0  0  0  0  0  0  0  0
  -34.0630   58.0250   63.5319 C   0  0  0  0  0  0  0  0  0  0  0  0
  -34.9925   58.2357   62.5096 C   0  0  0  0  0  0  0  0  0  0  0  0
  -36.3575   57.9556   62.7120 C   0  0  0  0  0  0  0  0  0  0  0  0
  -38.3653   56.8443   64.9924 H   0  0  0  0  0  0  0  0  0  0  0  0
  -42.4229   61.7674   63.3725 O   0  0  0  0  0  0  0  0  0  0  0  0
  -41.6343   60.8972   63.0417 C   0  0  0  0  0  0  0  0  0  0  0  0
  -40.2680   60.9571   63.5715 O   0  0  0  0  0  0  0  0  0  0  0  0
  -39.8346   60.0790   64.6273 C   0  0  0  0  0  0  0  0  0  0  0  0
  -40.6772   60.1496   65.8948 C   0  0  0  0  0  0  0  0  0  0  0  0
  -38.3714   60.3715   64.9239 C   0  0  0  0  0  0  0  0  0  0  0  0
  -36.3632   61.3591   63.9302 N   0  0  0  0  0  0  0  0  0  0  0  0
  -38.2507   61.0738   62.7174 O   0  0  0  0  0  0  0  0  0  0  0  0
  -37.6454   61.0041   63.7625 C   0  0  0  0  0  0  0  0  0  0  0  0
  -35.8800   61.7119   63.1483 H   0  0  0  0  0  0  0  0  0  0  0  0
  -35.4951   63.5994   65.9507 N   0  0  0  0  0  0  0  0  0  0  0  0
  -36.4893   62.0517   67.2475 O   0  0  0  0  0  0  0  0  0  0  0  0
  -35.0389   64.1019   64.6464 C   0  0  0  0  0  0  0  0  0  0  0  0
  -33.6941   63.4607   64.2553 C   0  0  0  0  0  0  0  0  0  0  0  0
  -33.2193   62.3416   65.1674 C   0  0  0  0  0  0  0  0  0  0  0  0
  -34.1039   61.0942   65.0948 C   0  0  0  0  0  0  0  0  0  0  0  0
  -35.6294   61.2587   65.1971 C   0  0  0  0  0  0  0  0  0  0  0  0
  -35.9170   62.3510   66.2085 C   0  0  0  0  0  0  0  0  0  0  0  0
  -36.5232   64.1908   68.4241 Si  0  0  0  0  0  0  0  0  0  0  0  0
  -35.4989   64.4824   66.9882 O   0  0  0  0  0  0  0  0  0  0  0  0
  -36.3469   65.2493   69.3541 H   0  0  0  0  0  0  0  0  0  0  0  0
  -36.1506   62.9617   69.0296 H   0  0  0  0  0  0  0  0  0  0  0  0
  -37.8857   64.1299   68.0290 H   0  0  0  0  0  0  0  0  0  0  0  0
  -42.9240   58.4423   64.1008 C   0  0  0  0  0  0  0  0  0  0  0  0
  -43.0380   58.7939   62.6124 C   0  0  0  0  0  0  0  0  0  0  0  0
  -43.6179   57.1504   64.5646 C   0  0  0  0  0  0  0  0  0  0  0  0
  -43.9609   57.0254   66.0633 C   0  0  0  0  0  0  0  0  0  0  0  0
  -44.9577   58.0485   66.3939 N   0  0  0  0  0  0  0  0  0  0  0  0
  -46.3081   57.9278   66.4923 C   0  0  0  0  0  0  0  0  0  0  0  0
  -44.4115   59.3165   66.6380 O   0  0  0  0  0  0  0  0  0  0  0  0
  -46.8662   56.8467   66.3062 O   0  0  0  0  0  0  0  0  0  0  0  0
  -45.1237   59.9401   66.8493 H   0  0  0  0  0  0  0  0  0  0  0  0
  -47.1405   59.1677   66.8355 C   0  0  0  0  0  0  0  0  0  0  0  0
  -48.0512   59.6559   65.7006 C   0  0  0  0  0  0  0  0  0  0  0  0
  -49.3934   60.1490   66.2749 C   0  0  0  0  0  0  0  0  0  0  0  0
  -50.5935   59.2698   65.8753 C   0  0  0  0  0  0  0  0  0  0  0  0
  -50.3243   58.3138   64.6981 C   0  0  0  0  0  0  0  0  0  0  0  0
  -51.0221   58.7554   63.3945 C   0  0  0  0  0  0  0  0  0  0  0  0
  -50.6607   60.1839   62.9252 C   0  0  0  0  0  0  0  0  0  0  0  0
  -49.3937   60.2407   62.0641 C   0  0  0  0  0  0  0  0  0  0  0  0
  -49.6296   60.4330   60.5626 C   0  0  0  0  0  0  0  0  0  0  0  0
  -49.5263   59.0978   59.8029 C   0  0  0  0  0  0  0  0  0  0  0  0
  -48.8447   57.9774   60.6031 C   0  0  0  0  0  0  0  0  0  0  0  0
  -48.5156   56.7038   59.8175 C   0  0  0  0  0  0  0  0  0  0  0  0
  -47.3822   56.8743   58.7754 C   0  0  0  0  0  0  0  0  0  0  0  0
  -47.9353   57.3215   57.4071 C   0  0  0  0  0  0  0  0  0  0  0  0
  -47.0283   58.2028   56.5398 C   0  0  0  0  0  0  0  0  0  0  0  0
 46 47  1  0  0  0
 46 48  1  0  0  0
 46 45  1  0  0  0
 47 49  2  0  0  0
 47 51  1  0  0  0
 19 20  2  0  0  0
 37 38  1  0  0  0
 37 39  1  0  0  0
 37 40  1  0  0  0
 37 41  1  0  0  0
 48 50  1  0  0  0
 38 29  1  0  0  0
 45 44  1  0  0  0
 25 27  1  0  0  0
 25 35  1  0  0  0
 25 28  1  0  0  0
 21 20  1  0  0  0
 21 22  1  0  0  0
 44 42  1  0  0  0
  2  1  1  0  0  0
  2  4  1  0  0  0
  2  5  1  0  0  0
 26 27  2  0  0  0
 42 43  2  0  0  0
 29 31  1  0  0  0
 29 36  1  0  0  0
  3  4  2  0  0  0
 43  1  1  0  0  0
  6  9  2  0  0  0
  6 10  1  0  0  0
  1 20  1  0  0  0
 30 36  2  0  0  0
  7  8  1  0  0  0
  7  9  1  0  0  0
 22 24  1  0  0  0
 22 23  1  0  0  0
 11 12  1  0  0  0
 11 18  1  0  0  0
 24 27  1  0  0  0
  4 10  1  0  0  0
 51 52  1  0  0  0
 52 53  1  0  0  0
 53 54  1  0  0  0
 54 55  1  0  0  0
 55 56  1  0  0  0
 56 57  1  0  0  0
 57 58  1  0  0  0
 58 59  1  0  0  0
 59 60  1  0  0  0
 60 61  1  0  0  0
 61 62  1  0  0  0
 62 63  1  0  0  0
 63 64  1  0  0  0
 64 65  1  0  0  0
 31 32  1  0  0  0
 32 33  1  0  0  0
 33 34  1  0  0  0
 34 35  1  0  0  0
 35 36  1  0  0  0
  8 10  1  0  0  0
  9 17  1  0  0  0
 12 13  2  0  0  0
 12 17  1  0  0  0
 13 14  1  0  0  0
 14 15  2  0  0  0
 15 16  1  0  0  0
 16 17  2  0  0  0
M  END
> <minimizedAffinity>
-10.33399

> <CNNscore>
0.1976680756

> <CNNaffinity>
7.6295137405

> <CNN_VS>
1.5081113577

> <CNNaffinity_variance>
0.7127176523

$$$$
/media/chris/experiments/cd1a-new-docking/inputs/ligands/1xz0_ligand.pdb


 65 67  0  0  0  0  0  0  0  0999 V2000
  -40.7905   57.9617   62.9844 C   0  0  0  0  0  0  0  0  0  0  0  0
  -39.9834   58.4772   64.0920 N   0  0  0  0  0  0  0  0  0  0  0  0
  -39.9221   60.7139   63.6840 O   0  0  0  0  0  0  0  0  0  0  0  0
  -39.6176   59.7422   64.3631 C   0  0  0  0  0  0  0  0  0  0  0  0
  -39.6623   57.7999   64.7303 H   0  0  0  0  0  0  0  0  0  0  0  0
  -38.0200   61.2960   65.4645 N   0  0  0  0  0  0  0  0  0  0  0  0
  -36.3029   59.8984   65.7655 O   0  0  0  0  0  0  0  0  0  0  0  0
  -37.4419   59.0397   65.7217 C   0  0  0  0  0  0  0  0  0  0  0  0
  -36.7624   61.2525   65.5833 C   0  0  0  0  0  0  0  0  0  0  0  0
  -38.6695   59.9730   65.5309 C   0  0  0  0  0  0  0  0  0  0  0  0
  -36.0694   62.7660   67.9552 O   0  0  0  0  0  0  0  0  0  0  0  0
  -35.5415   63.1305   66.7803 C   0  0  0  0  0  0  0  0  0  0  0  0
  -34.6590   64.2172   66.7247 C   0  0  0  0  0  0  0  0  0  0  0  0
  -34.0989   64.6253   65.5024 C   0  0  0  0  0  0  0  0  0  0  0  0
  -34.4071   63.9448   64.3233 C   0  0  0  0  0  0  0  0  0  0  0  0
  -35.2820   62.8560   64.3744 C   0  0  0  0  0  0  0  0  0  0  0  0
  -35.8518   62.4503   65.5965 C   0  0  0  0  0  0  0  0  0  0  0  0
  -35.8472   63.2363   68.7347 H   0  0  0  0  0  0  0  0  0  0  0  0
  -39.1463   56.3847   62.2461 O   0  0  0  0  0  0  0  0  0  0  0  0
  -39.8155   57.3706   61.9840 C   0  0  0  0  0  0  0  0  0  0  0  0
  -39.6104   58.0278   60.6890 O   0  0  0  0  0  0  0  0  0  0  0  0
  -38.5202   58.9447   60.4783 C   0  0  0  0  0  0  0  0  0  0  0  0
  -37.9593   58.9459   59.0617 C   0  0  0  0  0  0  0  0  0  0  0  0
  -37.4337   58.6400   61.4987 C   0  0  0  0  0  0  0  0  0  0  0  0
  -35.5760   59.8137   62.5793 N   0  0  0  0  0  0  0  0  0  0  0  0
  -37.4997   60.8871   62.0668 O   0  0  0  0  0  0  0  0  0  0  0  0
  -36.8315   59.8797   62.1125 C   0  0  0  0  0  0  0  0  0  0  0  0
  -35.1701   60.6437   62.9194 H   0  0  0  0  0  0  0  0  0  0  0  0
  -33.4420   58.8667   64.6778 N   0  0  0  0  0  0  0  0  0  0  0  0
  -34.7961   57.0854   64.4361 O   0  0  0  0  0  0  0  0  0  0  0  0
  -33.0382   60.2440   64.3580 C   0  0  0  0  0  0  0  0  0  0  0  0
  -32.2287   60.2845   63.0482 C   0  0  0  0  0  0  0  0  0  0  0  0
  -32.1722   58.9746   62.2797 C   0  0  0  0  0  0  0  0  0  0  0  0
  -33.5288   58.5592   61.7043 C   0  0  0  0  0  0  0  0  0  0  0  0
  -34.7647   58.5916   62.6187 C   0  0  0  0  0  0  0  0  0  0  0  0
  -34.3389   58.1329   63.9997 C   0  0  0  0  0  0  0  0  0  0  0  0
  -33.6118   56.8648   66.5452 Si  0  0  0  0  0  0  0  0  0  0  0  0
  -32.8607   58.2872   65.7650 O   0  0  0  0  0  0  0  0  0  0  0  0
  -32.8164   56.4546   67.6477 H   0  0  0  0  0  0  0  0  0  0  0  0
  -33.7031   55.8033   65.6065 H   0  0  0  0  0  0  0  0  0  0  0  0
  -34.9123   57.2067   67.0012 H   0  0  0  0  0  0  0  0  0  0  0  0
  -42.4740   59.9550   63.2785 C   0  0  0  0  0  0  0  0  0  0  0  0
  -41.8251   58.9220   62.3491 C   0  0  0  0  0  0  0  0  0  0  0  0
  -43.7812   60.6031   62.7918 C   0  0  0  0  0  0  0  0  0  0  0  0
  -44.9179   60.7719   63.8208 C   0  0  0  0  0  0  0  0  0  0  0  0
  -45.1991   59.4612   64.4145 N   0  0  0  0  0  0  0  0  0  0  0  0
  -44.7262   58.9261   65.5712 C   0  0  0  0  0  0  0  0  0  0  0  0
  -46.0823   58.6738   63.6623 O   0  0  0  0  0  0  0  0  0  0  0  0
  -43.9569   59.5560   66.2966 O   0  0  0  0  0  0  0  0  0  0  0  0
  -46.2223   57.8257   64.1116 H   0  0  0  0  0  0  0  0  0  0  0  0
  -45.1606   57.5106   65.9657 C   0  0  0  0  0  0  0  0  0  0  0  0
  -46.4770   57.4456   66.7521 C   0  0  0  0  0  0  0  0  0  0  0  0
  -46.9230   58.8646   67.1543 C   0  0  0  0  0  0  0  0  0  0  0  0
  -48.2075   59.3304   66.4427 C   0  0  0  0  0  0  0  0  0  0  0  0
  -48.9103   58.2417   65.6104 C   0  0  0  0  0  0  0  0  0  0  0  0
  -50.4139   58.5208   65.4042 C   0  0  0  0  0  0  0  0  0  0  0  0
  -50.8141   60.0090   65.5340 C   0  0  0  0  0  0  0  0  0  0  0  0
  -51.1737   60.6629   64.1949 C   0  0  0  0  0  0  0  0  0  0  0  0
  -51.0422   59.7567   62.9666 C   0  0  0  0  0  0  0  0  0  0  0  0
  -49.6429   59.8686   62.3341 C   0  0  0  0  0  0  0  0  0  0  0  0
  -49.6567   60.3378   60.8713 C   0  0  0  0  0  0  0  0  0  0  0  0
  -49.5978   59.2287   59.8159 C   0  0  0  0  0  0  0  0  0  0  0  0
  -49.2074   57.8381   60.3758 C   0  0  0  0  0  0  0  0  0  0  0  0
  -48.0163   57.2329   59.6054 C   0  0  0  0  0  0  0  0  0  0  0  0
  -47.8345   57.6658   58.1456 C   0  0  0  0  0  0  0  0  0  0  0  0
 46 47  1  0  0  0
 46 48  1  0  0  0
 46 45  1  0  0  0
 47 49  2  0  0  0
 47 51  1  0  0  0
 19 20  2  0  0  0
 37 38  1  0  0  0
 37 39  1  0  0  0
 37 40  1  0  0  0
 37 41  1  0  0  0
 48 50  1  0  0  0
 38 29  1  0  0  0
 45 44  1  0  0  0
 25 27  1  0  0  0
 25 35  1  0  0  0
 25 28  1  0  0  0
 21 20  1  0  0  0
 21 22  1  0  0  0
 44 42  1  0  0  0
  2  1  1  0  0  0
  2  4  1  0  0  0
  2  5  1  0  0  0
 26 27  2  0  0  0
 42 43  2  0  0  0
 29 31  1  0  0  0
 29 36  1  0  0  0
  3  4  2  0  0  0
 43  1  1  0  0  0
  6  9  2  0  0  0
  6 10  1  0  0  0
  1 20  1  0  0  0
 30 36  2  0  0  0
  7  8  1  0  0  0
  7  9  1  0  0  0
 22 24  1  0  0  0
 22 23  1  0  0  0
 11 12  1  0  0  0
 11 18  1  0  0  0
 24 27  1  0  0  0
  4 10  1  0  0  0
 51 52  1  0  0  0
 52 53  1  0  0  0
 53 54  1  0  0  0
 54 55  1  0  0  0
 55 56  1  0  0  0
 56 57  1  0  0  0
 57 58  1  0  0  0
 58 59  1  0  0  0
 59 60  1  0  0  0
 60 61  1  0  0  0
 61 62  1  0  0  0
 62 63  1  0  0  0
 63 64  1  0  0  0
 64 65  1  0  0  0
 31 32  1  0  0  0
 32 33  1  0  0  0
 33 34  1  0  0  0
 34 35  1  0  0  0
 35 36  1  0  0  0
  8 10  1  0  0  0
  9 17  1  0  0  0
 12 13  2  0  0  0
 12 17  1  0  0  0
 13 14  1  0  0  0
 14 15  2  0  0  0
 15 16  1  0  0  0
 16 17  2  0  0  0
M  END
> <minimizedAffinity>
-9.05197

> <CNNscore>
0.1846224666

> <CNNaffinity>
7.5678391457

> <CNN_VS>
1.3971930742

> <CNNaffinity_variance>
1.1532526016

$$$$
/media/chris/experiments/cd1a-new-docking/inputs/ligands/1xz0_ligand.pdb


 65 67  0  0  0  0  0  0  0  0999 V2000
  -40.9975   59.4241   64.2503 C   0  0  0  0  0  0  0  0  0  0  0  0
  -39.9205   58.9423   63.3831 N   0  0  0  0  0  0  0  0  0  0  0  0
  -41.0444   57.9475   61.6743 O   0  0  0  0  0  0  0  0  0  0  0  0
  -39.9982   58.2743   62.2191 C   0  0  0  0  0  0  0  0  0  0  0  0
  -39.0079   59.1354   63.6979 H   0  0  0  0  0  0  0  0  0  0  0  0
  -37.6094   57.6856   62.5756 N   0  0  0  0  0  0  0  0  0  0  0  0
  -36.6902   58.8848   60.9296 O   0  0  0  0  0  0  0  0  0  0  0  0
  -38.0224   58.6448   60.4777 C   0  0  0  0  0  0  0  0  0  0  0  0
  -36.5453   58.2714   62.2260 C   0  0  0  0  0  0  0  0  0  0  0  0
  -38.6997   57.7937   61.5875 C   0  0  0  0  0  0  0  0  0  0  0  0
  -36.2894   57.3450   64.9597 O   0  0  0  0  0  0  0  0  0  0  0  0
  -35.2023   57.8088   64.3314 C   0  0  0  0  0  0  0  0  0  0  0  0
  -33.9698   57.8213   64.9973 C   0  0  0  0  0  0  0  0  0  0  0  0
  -32.8160   58.3118   64.3629 C   0  0  0  0  0  0  0  0  0  0  0  0
  -32.8797   58.7860   63.0516 C   0  0  0  0  0  0  0  0  0  0  0  0
  -34.1057   58.7697   62.3806 C   0  0  0  0  0  0  0  0  0  0  0  0
  -35.2654   58.2870   63.0169 C   0  0  0  0  0  0  0  0  0  0  0  0
  -36.2232   57.0300   65.8398 H   0  0  0  0  0  0  0  0  0  0  0  0
  -40.9825   60.9377   66.1062 O   0  0  0  0  0  0  0  0  0  0  0  0
  -40.3845   60.4858   65.1435 C   0  0  0  0  0  0  0  0  0  0  0  0
  -39.0676   61.0427   64.8171 O   0  0  0  0  0  0  0  0  0  0  0  0
  -37.8553   60.3267   65.1195 C   0  0  0  0  0  0  0  0  0  0  0  0
  -37.7545   59.8323   66.5572 C   0  0  0  0  0  0  0  0  0  0  0  0
  -36.6725   61.2131   64.7596 C   0  0  0  0  0  0  0  0  0  0  0  0
  -35.6790   62.4184   62.8739 N   0  0  0  0  0  0  0  0  0  0  0  0
  -37.7161   61.4510   62.7027 O   0  0  0  0  0  0  0  0  0  0  0  0
  -36.7364   61.7442   63.3489 C   0  0  0  0  0  0  0  0  0  0  0  0
  -35.7045   62.7053   61.9324 H   0  0  0  0  0  0  0  0  0  0  0  0
  -34.0638   65.1051   63.0413 N   0  0  0  0  0  0  0  0  0  0  0  0
  -34.4251   64.5517   65.1927 O   0  0  0  0  0  0  0  0  0  0  0  0
  -34.1904   64.8567   61.5976 C   0  0  0  0  0  0  0  0  0  0  0  0
  -33.1247   63.8513   61.1220 C   0  0  0  0  0  0  0  0  0  0  0  0
  -32.3097   63.1988   62.2264 C   0  0  0  0  0  0  0  0  0  0  0  0
  -33.1391   62.2618   63.1086 C   0  0  0  0  0  0  0  0  0  0  0  0
  -34.4865   62.7587   63.6584 C   0  0  0  0  0  0  0  0  0  0  0  0
  -34.3353   64.2240   64.0174 C   0  0  0  0  0  0  0  0  0  0  0  0
  -32.0762   66.5510   64.2590 Si  0  0  0  0  0  0  0  0  0  0  0  0
  -33.6424   66.3433   63.4224 O   0  0  0  0  0  0  0  0  0  0  0  0
  -31.8718   67.9266   64.5462 H   0  0  0  0  0  0  0  0  0  0  0  0
  -31.0279   66.0808   63.4246 H   0  0  0  0  0  0  0  0  0  0  0  0
  -32.0851   65.8108   65.4707 H   0  0  0  0  0  0  0  0  0  0  0  0
  -43.1914   57.9945   64.4434 C   0  0  0  0  0  0  0  0  0  0  0  0
  -41.8198   58.3636   65.0218 C   0  0  0  0  0  0  0  0  0  0  0  0
  -44.1818   57.2998   65.3931 C   0  0  0  0  0  0  0  0  0  0  0  0
  -45.1309   58.1979   66.2128 C   0  0  0  0  0  0  0  0  0  0  0  0
  -46.5069   57.7518   65.9739 N   0  0  0  0  0  0  0  0  0  0  0  0
  -47.5710   58.4643   65.5178 C   0  0  0  0  0  0  0  0  0  0  0  0
  -46.7241   56.3975   66.2644 O   0  0  0  0  0  0  0  0  0  0  0  0
  -47.4625   59.6554   65.2272 O   0  0  0  0  0  0  0  0  0  0  0  0
  -47.6502   56.1725   66.0843 H   0  0  0  0  0  0  0  0  0  0  0  0
  -48.9258   57.7634   65.3728 C   0  0  0  0  0  0  0  0  0  0  0  0
  -49.6071   57.9722   64.0134 C   0  0  0  0  0  0  0  0  0  0  0  0
  -50.8622   58.8504   64.1806 C   0  0  0  0  0  0  0  0  0  0  0  0
  -50.6611   60.3053   63.7159 C   0  0  0  0  0  0  0  0  0  0  0  0
  -50.7295   60.5066   62.1905 C   0  0  0  0  0  0  0  0  0  0  0  0
  -49.4768   59.9807   61.4588 C   0  0  0  0  0  0  0  0  0  0  0  0
  -49.6290   59.8707   59.9238 C   0  0  0  0  0  0  0  0  0  0  0  0
  -50.1231   58.4968   59.4567 C   0  0  0  0  0  0  0  0  0  0  0  0
  -49.9916   57.3685   60.4847 C   0  0  0  0  0  0  0  0  0  0  0  0
  -48.9638   56.3149   60.0331 C   0  0  0  0  0  0  0  0  0  0  0  0
  -47.7299   56.9077   59.3359 C   0  0  0  0  0  0  0  0  0  0  0  0
  -47.0697   56.0160   58.2793 C   0  0  0  0  0  0  0  0  0  0  0  0
  -47.8032   55.9967   56.9150 C   0  0  0  0  0  0  0  0  0  0  0  0
  -48.1069   57.4241   56.4165 C   0  0  0  0  0  0  0  0  0  0  0  0
  -47.0407   58.4962   56.6720 C   0  0  0  0  0  0  0  0  0  0  0  0
 46 47  1  0  0  0
 46 48  1  0  0  0
 46 45  1  0  0  0
 47 49  2  0  0  0
 47 51  1  0  0  0
 19 20  2  0  0  0
 37 38  1  0  0  0
 37 39  1  0  0  0
 37 40  1  0  0  0
 37 41  1  0  0  0
 48 50  1  0  0  0
 38 29  1  0  0  0
 45 44  1  0  0  0
 25 27  1  0  0  0
 25 35  1  0  0  0
 25 28  1  0  0  0
 21 20  1  0  0  0
 21 22  1  0  0  0
 44 42  1  0  0  0
  2  1  1  0  0  0
  2  4  1  0  0  0
  2  5  1  0  0  0
 26 27  2  0  0  0
 42 43  2  0  0  0
 29 31  1  0  0  0
 29 36  1  0  0  0
  3  4  2  0  0  0
 43  1  1  0  0  0
  6  9  2  0  0  0
  6 10  1  0  0  0
  1 20  1  0  0  0
 30 36  2  0  0  0
  7  8  1  0  0  0
  7  9  1  0  0  0
 22 24  1  0  0  0
 22 23  1  0  0  0
 11 12  1  0  0  0
 11 18  1  0  0  0
 24 27  1  0  0  0
  4 10  1  0  0  0
 51 52  1  0  0  0
 52 53  1  0  0  0
 53 54  1  0  0  0
 54 55  1  0  0  0
 55 56  1  0  0  0
 56 57  1  0  0  0
 57 58  1  0  0  0
 58 59  1  0  0  0
 59 60  1  0  0  0
 60 61  1  0  0  0
 61 62  1  0  0  0
 62 63  1  0  0  0
 63 64  1  0  0  0
 64 65  1  0  0  0
 31 32  1  0  0  0
 32 33  1  0  0  0
 33 34  1  0  0  0
 34 35  1  0  0  0
 35 36  1  0  0  0
  8 10  1  0  0  0
  9 17  1  0  0  0
 12 13  2  0  0  0
 12 17  1  0  0  0
 13 14  1  0  0  0
 14 15  2  0  0  0
 15 16  1  0  0  0
 16 17  2  0  0  0
M  END
> <minimizedAffinity>
-9.88696

> <CNNscore>
0.1823062748

> <CNNaffinity>
7.2399649620

> <CNN_VS>
1.3198910952

> <CNNaffinity_variance>
0.3753315210

$$$$
/media/chris/experiments/cd1a-new-docking/inputs/ligands/1xz0_ligand.pdb


 65 67  0  0  0  0  0  0  0  0999 V2000
  -40.6530   59.3135   64.4212 C   0  0  0  0  0  0  0  0  0  0  0  0
  -39.5829   58.8474   63.5370 N   0  0  0  0  0  0  0  0  0  0  0  0
  -40.6821   58.3892   61.5993 O   0  0  0  0  0  0  0  0  0  0  0  0
  -39.6519   58.4378   62.2584 C   0  0  0  0  0  0  0  0  0  0  0  0
  -38.6832   58.8318   63.9364 H   0  0  0  0  0  0  0  0  0  0  0  0
  -37.2768   57.7813   62.5862 N   0  0  0  0  0  0  0  0  0  0  0  0
  -36.3540   58.8930   60.8819 O   0  0  0  0  0  0  0  0  0  0  0  0
  -37.7028   58.6830   60.4657 C   0  0  0  0  0  0  0  0  0  0  0  0
  -36.2017   58.3188   62.1953 C   0  0  0  0  0  0  0  0  0  0  0  0
  -38.3838   57.8928   61.6174 C   0  0  0  0  0  0  0  0  0  0  0  0
  -35.9756   57.8875   65.0518 O   0  0  0  0  0  0  0  0  0  0  0  0
  -34.8600   58.0861   64.3391 C   0  0  0  0  0  0  0  0  0  0  0  0
  -33.6149   58.0650   64.9811 C   0  0  0  0  0  0  0  0  0  0  0  0
  -32.4301   58.2800   64.2569 C   0  0  0  0  0  0  0  0  0  0  0  0
  -32.4764   58.5085   62.8806 C   0  0  0  0  0  0  0  0  0  0  0  0
  -33.7156   58.5241   62.2344 C   0  0  0  0  0  0  0  0  0  0  0  0
  -34.9052   58.3178   62.9590 C   0  0  0  0  0  0  0  0  0  0  0  0
  -35.9209   57.7343   65.9747 H   0  0  0  0  0  0  0  0  0  0  0  0
  -40.6832   60.9717   66.1489 O   0  0  0  0  0  0  0  0  0  0  0  0
  -40.0144   60.2969   65.3835 C   0  0  0  0  0  0  0  0  0  0  0  0
  -38.5625   60.5032   65.3596 O   0  0  0  0  0  0  0  0  0  0  0  0
  -37.9729   61.5964   64.6309 C   0  0  0  0  0  0  0  0  0  0  0  0
  -37.3379   61.2022   63.3031 C   0  0  0  0  0  0  0  0  0  0  0  0
  -36.9657   62.2886   65.5369 C   0  0  0  0  0  0  0  0  0  0  0  0
  -34.5992   62.4533   64.9299 N   0  0  0  0  0  0  0  0  0  0  0  0
  -35.4266   60.5982   65.9246 O   0  0  0  0  0  0  0  0  0  0  0  0
  -35.5805   61.6980   65.4448 C   0  0  0  0  0  0  0  0  0  0  0  0
  -33.6871   62.0828   64.9328 H   0  0  0  0  0  0  0  0  0  0  0  0
  -33.9573   63.5457   62.0577 N   0  0  0  0  0  0  0  0  0  0  0  0
  -36.0790   64.1990   62.4273 O   0  0  0  0  0  0  0  0  0  0  0  0
  -32.7150   62.8745   62.4678 C   0  0  0  0  0  0  0  0  0  0  0  0
  -31.8730   63.7924   63.3740 C   0  0  0  0  0  0  0  0  0  0  0  0
  -32.5525   65.0831   63.8007 C   0  0  0  0  0  0  0  0  0  0  0  0
  -33.7401   64.8525   64.7390 C   0  0  0  0  0  0  0  0  0  0  0  0
  -34.7893   63.7931   64.3624 C   0  0  0  0  0  0  0  0  0  0  0  0
  -34.9909   63.8453   62.8606 C   0  0  0  0  0  0  0  0  0  0  0  0
  -35.6355   63.7020   59.8937 Si  0  0  0  0  0  0  0  0  0  0  0  0
  -34.0734   63.8852   60.7435 O   0  0  0  0  0  0  0  0  0  0  0  0
  -35.4926   64.1215   58.5446 H   0  0  0  0  0  0  0  0  0  0  0  0
  -36.6199   64.4992   60.5355 H   0  0  0  0  0  0  0  0  0  0  0  0
  -36.0349   62.3397   59.9258 H   0  0  0  0  0  0  0  0  0  0  0  0
  -42.5454   57.5018   64.2467 C   0  0  0  0  0  0  0  0  0  0  0  0
  -41.5206   58.2379   65.1185 C   0  0  0  0  0  0  0  0  0  0  0  0
  -43.6838   56.7716   64.9791 C   0  0  0  0  0  0  0  0  0  0  0  0
  -43.9122   57.1187   66.4646 C   0  0  0  0  0  0  0  0  0  0  0  0
  -45.2307   57.7468   66.5927 N   0  0  0  0  0  0  0  0  0  0  0  0
  -45.6236   58.9952   66.2253 C   0  0  0  0  0  0  0  0  0  0  0  0
  -46.2000   56.9200   67.1781 O   0  0  0  0  0  0  0  0  0  0  0  0
  -44.8382   59.7792   65.6930 O   0  0  0  0  0  0  0  0  0  0  0  0
  -47.0428   57.3972   67.2311 H   0  0  0  0  0  0  0  0  0  0  0  0
  -47.0705   59.4251   66.4889 C   0  0  0  0  0  0  0  0  0  0  0  0
  -47.9080   59.6487   65.2223 C   0  0  0  0  0  0  0  0  0  0  0  0
  -48.2549   58.2954   64.5722 C   0  0  0  0  0  0  0  0  0  0  0  0
  -49.7397   57.9091   64.7112 C   0  0  0  0  0  0  0  0  0  0  0  0
  -50.6028   58.2244   63.4751 C   0  0  0  0  0  0  0  0  0  0  0  0
  -51.1775   59.6563   63.4938 C   0  0  0  0  0  0  0  0  0  0  0  0
  -50.4853   60.6385   62.5202 C   0  0  0  0  0  0  0  0  0  0  0  0
  -49.4658   59.9636   61.5954 C   0  0  0  0  0  0  0  0  0  0  0  0
  -49.9137   59.7916   60.1405 C   0  0  0  0  0  0  0  0  0  0  0  0
  -49.9914   58.3045   59.7494 C   0  0  0  0  0  0  0  0  0  0  0  0
  -48.7968   57.4698   60.2353 C   0  0  0  0  0  0  0  0  0  0  0  0
  -47.7139   57.1857   59.1893 C   0  0  0  0  0  0  0  0  0  0  0  0
  -47.7295   58.1523   57.9789 C   0  0  0  0  0  0  0  0  0  0  0  0
  -47.8633   57.3873   56.6466 C   0  0  0  0  0  0  0  0  0  0  0  0
  -47.6549   55.8686   56.6877 C   0  0  0  0  0  0  0  0  0  0  0  0
 46 47  1  0  0  0
 46 48  1  0  0  0
 46 45  1  0  0  0
 47 49  2  0  0  0
 47 51  1  0  0  0
 19 20  2  0  0  0
 37 38  1  0  0  0
 37 39  1  0  0  0
 37 40  1  0  0  0
 37 41  1  0  0  0
 48 50  1  0  0  0
 38 29  1  0  0  0
 45 44  1  0  0  0
 25 27  1  0  0  0
 25 35  1  0  0  0
 25 28  1  0  0  0
 21 20  1  0  0  0
 21 22  1  0  0  0
 44 42  1  0  0  0
  2  1  1  0  0  0
  2  4  1  0  0  0
  2  5  1  0  0  0
 26 27  2  0  0  0
 42 43  2  0  0  0
 29 31  1  0  0  0
 29 36  1  0  0  0
  3  4  2  0  0  0
 43  1  1  0  0  0
  6  9  2  0  0  0
  6 10  1  0  0  0
  1 20  1  0  0  0
 30 36  2  0  0  0
  7  8  1  0  0  0
  7  9  1  0  0  0
 22 24  1  0  0  0
 22 23  1  0  0  0
 11 12  1  0  0  0
 11 18  1  0  0  0
 24 27  1  0  0  0
  4 10  1  0  0  0
 51 52  1  0  0  0
 52 53  1  0  0  0
 53 54  1  0  0  0
 54 55  1  0  0  0
 55 56  1  0  0  0
 56 57  1  0  0  0
 57 58  1  0  0  0
 58 59  1  0  0  0
 59 60  1  0  0  0
 60 61  1  0  0  0
 61 62  1  0  0  0
 62 63  1  0  0  0
 63 64  1  0  0  0
 64 65  1  0  0  0
 31 32  1  0  0  0
 32 33  1  0  0  0
 33 34  1  0  0  0
 34 35  1  0  0  0
 35 36  1  0  0  0
  8 10  1  0  0  0
  9 17  1  0  0  0
 12 13  2  0  0  0
 12 17  1  0  0  0
 13 14  1  0  0  0
 14 15  2  0  0  0
 15 16  1  0  0  0
 16 17  2  0  0  0
M  END
> <minimizedAffinity>
-9.29754

> <CNNscore>
0.1438712180

> <CNNaffinity>
7.2127790451

> <CNN_VS>
1.0377112627

> <CNNaffinity_variance>
0.3191224039

$$$$
/media/chris/experiments/cd1a-new-docking/inputs/ligands/1xz0_ligand.pdb


 65 67  0  0  0  0  0  0  0  0999 V2000
  -40.4698   59.1968   64.5506 C   0  0  0  0  0  0  0  0  0  0  0  0
  -39.3826   58.7642   63.6702 N   0  0  0  0  0  0  0  0  0  0  0  0
  -40.4795   58.0822   61.7982 O   0  0  0  0  0  0  0  0  0  0  0  0
  -39.4434   58.2635   62.4241 C   0  0  0  0  0  0  0  0  0  0  0  0
  -38.4765   58.8528   64.0450 H   0  0  0  0  0  0  0  0  0  0  0  0
  -37.0527   57.6760   62.7696 N   0  0  0  0  0  0  0  0  0  0  0  0
  -36.1409   58.8811   61.1239 O   0  0  0  0  0  0  0  0  0  0  0  0
  -37.4746   58.6412   60.6764 C   0  0  0  0  0  0  0  0  0  0  0  0
  -35.9905   58.2639   62.4178 C   0  0  0  0  0  0  0  0  0  0  0  0
  -38.1468   57.7860   61.7861 C   0  0  0  0  0  0  0  0  0  0  0  0
  -33.3568   58.6143   61.2613 O   0  0  0  0  0  0  0  0  0  0  0  0
  -33.4648   58.4690   62.5876 C   0  0  0  0  0  0  0  0  0  0  0  0
  -32.3131   58.5056   63.3846 C   0  0  0  0  0  0  0  0  0  0  0  0
  -32.3990   58.3462   64.7779 C   0  0  0  0  0  0  0  0  0  0  0  0
  -33.6387   58.1585   65.3913 C   0  0  0  0  0  0  0  0  0  0  0  0
  -34.7914   58.1276   64.6013 C   0  0  0  0  0  0  0  0  0  0  0  0
  -34.7076   58.2782   63.2038 C   0  0  0  0  0  0  0  0  0  0  0  0
  -32.5143   58.7408   60.8709 H   0  0  0  0  0  0  0  0  0  0  0  0
  -40.5701   60.9571   66.1713 O   0  0  0  0  0  0  0  0  0  0  0  0
  -39.8704   60.2157   65.5010 C   0  0  0  0  0  0  0  0  0  0  0  0
  -38.4143   60.3731   65.5788 O   0  0  0  0  0  0  0  0  0  0  0  0
  -37.7444   61.4749   64.9377 C   0  0  0  0  0  0  0  0  0  0  0  0
  -37.5360   61.3026   63.4382 C   0  0  0  0  0  0  0  0  0  0  0  0
  -36.4224   61.7132   65.6518 C   0  0  0  0  0  0  0  0  0  0  0  0
  -34.9201   63.6390   65.8262 N   0  0  0  0  0  0  0  0  0  0  0  0
  -37.1358   63.8419   66.2319 O   0  0  0  0  0  0  0  0  0  0  0  0
  -36.1685   63.1680   65.9606 C   0  0  0  0  0  0  0  0  0  0  0  0
  -34.7768   64.6026   65.9681 H   0  0  0  0  0  0  0  0  0  0  0  0
  -32.4214   64.3172   64.0510 N   0  0  0  0  0  0  0  0  0  0  0  0
  -31.5346   63.4828   65.9439 O   0  0  0  0  0  0  0  0  0  0  0  0
  -33.5666   64.7057   63.2147 C   0  0  0  0  0  0  0  0  0  0  0  0
  -34.1631   63.4770   62.5025 C   0  0  0  0  0  0  0  0  0  0  0  0
  -33.5928   62.1362   62.9348 C   0  0  0  0  0  0  0  0  0  0  0  0
  -33.9532   61.7694   64.3768 C   0  0  0  0  0  0  0  0  0  0  0  0
  -33.7525   62.8192   65.4825 C   0  0  0  0  0  0  0  0  0  0  0  0
  -32.4813   63.5866   65.1759 C   0  0  0  0  0  0  0  0  0  0  0  0
  -30.9303   65.3381   61.9874 Si  0  0  0  0  0  0  0  0  0  0  0  0
  -31.1905   64.7451   63.6537 O   0  0  0  0  0  0  0  0  0  0  0  0
  -29.5724   65.7216   61.8280 H   0  0  0  0  0  0  0  0  0  0  0  0
  -31.7697   66.4579   61.7470 H   0  0  0  0  0  0  0  0  0  0  0  0
  -31.2421   64.3058   61.0636 H   0  0  0  0  0  0  0  0  0  0  0  0
  -42.2902   57.3107   64.3993 C   0  0  0  0  0  0  0  0  0  0  0  0
  -41.2929   58.0950   65.2610 C   0  0  0  0  0  0  0  0  0  0  0  0
  -43.3973   56.5439   65.1421 C   0  0  0  0  0  0  0  0  0  0  0  0
  -44.0184   57.2160   66.3839 C   0  0  0  0  0  0  0  0  0  0  0  0
  -45.3434   57.7253   66.0168 N   0  0  0  0  0  0  0  0  0  0  0  0
  -45.6792   58.9263   65.4759 C   0  0  0  0  0  0  0  0  0  0  0  0
  -46.3885   56.8255   66.2698 O   0  0  0  0  0  0  0  0  0  0  0  0
  -44.8210   59.7679   65.2111 O   0  0  0  0  0  0  0  0  0  0  0  0
  -47.2311   57.2258   66.0044 H   0  0  0  0  0  0  0  0  0  0  0  0
  -47.1559   59.2291   65.2011 C   0  0  0  0  0  0  0  0  0  0  0  0
  -47.8713   59.9825   66.3308 C   0  0  0  0  0  0  0  0  0  0  0  0
  -49.3685   60.1343   65.9997 C   0  0  0  0  0  0  0  0  0  0  0  0
  -50.0527   58.8067   65.6225 C   0  0  0  0  0  0  0  0  0  0  0  0
  -50.9691   58.8858   64.3871 C   0  0  0  0  0  0  0  0  0  0  0  0
  -51.0945   60.3167   63.8234 C   0  0  0  0  0  0  0  0  0  0  0  0
  -50.7766   60.4426   62.3152 C   0  0  0  0  0  0  0  0  0  0  0  0
  -49.3114   60.1476   61.9740 C   0  0  0  0  0  0  0  0  0  0  0  0
  -49.0142   58.7052   61.5519 C   0  0  0  0  0  0  0  0  0  0  0  0
  -49.9908   58.2271   60.4618 C   0  0  0  0  0  0  0  0  0  0  0  0
  -49.3413   58.0420   59.0820 C   0  0  0  0  0  0  0  0  0  0  0  0
  -47.9603   57.3785   59.0799 C   0  0  0  0  0  0  0  0  0  0  0  0
  -47.7937   56.2598   58.0213 C   0  0  0  0  0  0  0  0  0  0  0  0
  -47.4891   56.8427   56.6264 C   0  0  0  0  0  0  0  0  0  0  0  0
  -47.1542   58.3372   56.5504 C   0  0  0  0  0  0  0  0  0  0  0  0
 46 47  1  0  0  0
 46 48  1  0  0  0
 46 45  1  0  0  0
 47 49  2  0  0  0
 47 51  1  0  0  0
 19 20  2  0  0  0
 37 38  1  0  0  0
 37 39  1  0  0  0
 37 40  1  0  0  0
 37 41  1  0  0  0
 48 50  1  0  0  0
 38 29  1  0  0  0
 45 44  1  0  0  0
 25 27  1  0  0  0
 25 35  1  0  0  0
 25 28  1  0  0  0
 21 20  1  0  0  0
 21 22  1  0  0  0
 44 42  1  0  0  0
  2  1  1  0  0  0
  2  4  1  0  0  0
  2  5  1  0  0  0
 26 27  2  0  0  0
 42 43  2  0  0  0
 29 31  1  0  0  0
 29 36  1  0  0  0
  3  4  2  0  0  0
 43  1  1  0  0  0
  6  9  2  0  0  0
  6 10  1  0  0  0
  1 20  1  0  0  0
 30 36  2  0  0  0
  7  8  1  0  0  0
  7  9  1  0  0  0
 22 24  1  0  0  0
 22 23  1  0  0  0
 11 12  1  0  0  0
 11 18  1  0  0  0
 24 27  1  0  0  0
  4 10  1  0  0  0
 51 52  1  0  0  0
 52 53  1  0  0  0
 53 54  1  0  0  0
 54 55  1  0  0  0
 55 56  1  0  0  0
 56 57  1  0  0  0
 57 58  1  0  0  0
 58 59  1  0  0  0
 59 60  1  0  0  0
 60 61  1  0  0  0
 61 62  1  0  0  0
 62 63  1  0  0  0
 63 64  1  0  0  0
 64 65  1  0  0  0
 31 32  1  0  0  0
 32 33  1  0  0  0
 33 34  1  0  0  0
 34 35  1  0  0  0
 35 36  1  0  0  0
  8 10  1  0  0  0
  9 17  1  0  0  0
 12 13  2  0  0  0
 12 17  1  0  0  0
 13 14  1  0  0  0
 14 15  2  0  0  0
 15 16  1  0  0  0
 16 17  2  0  0  0
M  END
> <minimizedAffinity>
-9.38539

> <CNNscore>
0.1385597885

> <CNNaffinity>
7.0654358864

> <CNN_VS>
0.9789853096

> <CNNaffinity_variance>
0.5727351308

$$$$
/media/chris/experiments/cd1a-new-docking/inputs/ligands/1xz0_ligand.pdb


 65 67  0  0  0  0  0  0  0  0999 V2000
  -40.8400   59.2273   64.4990 C   0  0  0  0  0  0  0  0  0  0  0  0
  -39.7810   58.7664   63.5990 N   0  0  0  0  0  0  0  0  0  0  0  0
  -40.9335   57.6872   61.9618 O   0  0  0  0  0  0  0  0  0  0  0  0
  -39.8797   58.0674   62.4548 C   0  0  0  0  0  0  0  0  0  0  0  0
  -38.8647   59.0023   63.8709 H   0  0  0  0  0  0  0  0  0  0  0  0
  -37.4562   57.5836   62.7240 N   0  0  0  0  0  0  0  0  0  0  0  0
  -36.6556   58.7741   61.0112 O   0  0  0  0  0  0  0  0  0  0  0  0
  -37.9945   58.4696   60.6224 C   0  0  0  0  0  0  0  0  0  0  0  0
  -36.4322   58.2015   62.3151 C   0  0  0  0  0  0  0  0  0  0  0  0
  -38.5899   57.6220   61.7808 C   0  0  0  0  0  0  0  0  0  0  0  0
  -36.1666   58.2786   65.1996 O   0  0  0  0  0  0  0  0  0  0  0  0
  -35.0587   58.3055   64.4488 C   0  0  0  0  0  0  0  0  0  0  0  0
  -33.8031   58.3533   65.0684 C   0  0  0  0  0  0  0  0  0  0  0  0
  -32.6257   58.3917   64.3026 C   0  0  0  0  0  0  0  0  0  0  0  0
  -32.6903   58.3726   62.9083 C   0  0  0  0  0  0  0  0  0  0  0  0
  -33.9403   58.3186   62.2854 C   0  0  0  0  0  0  0  0  0  0  0  0
  -35.1223   58.2888   63.0502 C   0  0  0  0  0  0  0  0  0  0  0  0
  -36.0996   58.2905   66.1342 H   0  0  0  0  0  0  0  0  0  0  0  0
  -40.8608   60.9632   66.1488 O   0  0  0  0  0  0  0  0  0  0  0  0
  -40.1946   60.2232   65.4438 C   0  0  0  0  0  0  0  0  0  0  0  0
  -38.7347   60.3599   65.4739 O   0  0  0  0  0  0  0  0  0  0  0  0
  -38.0634   61.3938   64.7295 C   0  0  0  0  0  0  0  0  0  0  0  0
  -38.0438   61.1765   63.2216 C   0  0  0  0  0  0  0  0  0  0  0  0
  -36.6534   61.5431   65.2810 C   0  0  0  0  0  0  0  0  0  0  0  0
  -35.8609   63.7851   64.6966 N   0  0  0  0  0  0  0  0  0  0  0  0
  -36.5455   63.2953   66.7959 O   0  0  0  0  0  0  0  0  0  0  0  0
  -36.3103   62.9635   65.6565 C   0  0  0  0  0  0  0  0  0  0  0  0
  -35.7006   64.7261   64.9378 H   0  0  0  0  0  0  0  0  0  0  0  0
  -33.1484   63.6301   63.1240 N   0  0  0  0  0  0  0  0  0  0  0  0
  -34.1105   61.6302   62.7492 O   0  0  0  0  0  0  0  0  0  0  0  0
  -33.1354   64.9732   63.7221 C   0  0  0  0  0  0  0  0  0  0  0  0
  -33.9625   65.9563   62.8723 C   0  0  0  0  0  0  0  0  0  0  0  0
  -34.7505   65.3270   61.7353 C   0  0  0  0  0  0  0  0  0  0  0  0
  -35.8871   64.4244   62.2225 C   0  0  0  0  0  0  0  0  0  0  0  0
  -35.5912   63.3804   63.3121 C   0  0  0  0  0  0  0  0  0  0  0  0
  -34.2100   62.8109   63.0539 C   0  0  0  0  0  0  0  0  0  0  0  0
  -31.7601   61.4346   62.2426 Si  0  0  0  0  0  0  0  0  0  0  0  0
  -31.9758   63.1724   62.6030 O   0  0  0  0  0  0  0  0  0  0  0  0
  -30.4608   61.2190   61.7120 H   0  0  0  0  0  0  0  0  0  0  0  0
  -32.7331   61.0237   61.2936 H   0  0  0  0  0  0  0  0  0  0  0  0
  -31.9149   60.6810   63.4361 H   0  0  0  0  0  0  0  0  0  0  0  0
  -43.0247   57.7728   64.5741 C   0  0  0  0  0  0  0  0  0  0  0  0
  -41.6843   58.1474   65.2183 C   0  0  0  0  0  0  0  0  0  0  0  0
  -44.0488   57.0544   65.4689 C   0  0  0  0  0  0  0  0  0  0  0  0
  -44.8819   57.9216   66.4349 C   0  0  0  0  0  0  0  0  0  0  0  0
  -46.3015   57.7084   66.1365 N   0  0  0  0  0  0  0  0  0  0  0  0
  -47.2276   58.6014   65.6976 C   0  0  0  0  0  0  0  0  0  0  0  0
  -46.7337   56.3904   66.3409 O   0  0  0  0  0  0  0  0  0  0  0  0
  -46.9277   59.7753   65.4808 O   0  0  0  0  0  0  0  0  0  0  0  0
  -47.6769   56.3222   66.1252 H   0  0  0  0  0  0  0  0  0  0  0  0
  -48.6685   58.1285   65.4783 C   0  0  0  0  0  0  0  0  0  0  0  0
  -49.0788   58.0026   64.0047 C   0  0  0  0  0  0  0  0  0  0  0  0
  -50.6097   58.1148   63.8708 C   0  0  0  0  0  0  0  0  0  0  0  0
  -51.0736   59.4149   63.1869 C   0  0  0  0  0  0  0  0  0  0  0  0
  -50.0403   60.5567   63.2120 C   0  0  0  0  0  0  0  0  0  0  0  0
  -49.0339   60.4813   62.0446 C   0  0  0  0  0  0  0  0  0  0  0  0
  -49.6776   60.5177   60.6390 C   0  0  0  0  0  0  0  0  0  0  0  0
  -49.3547   59.2839   59.7882 C   0  0  0  0  0  0  0  0  0  0  0  0
  -50.5005   58.2795   59.6287 C   0  0  0  0  0  0  0  0  0  0  0  0
  -50.2324   56.9911   60.4278 C   0  0  0  0  0  0  0  0  0  0  0  0
  -48.7583   56.5588   60.4358 C   0  0  0  0  0  0  0  0  0  0  0  0
  -48.2521   55.8957   59.1506 C   0  0  0  0  0  0  0  0  0  0  0  0
  -47.0398   56.6092   58.5017 C   0  0  0  0  0  0  0  0  0  0  0  0
  -47.3390   57.0198   57.0456 C   0  0  0  0  0  0  0  0  0  0  0  0
  -47.2374   58.5113   56.7041 C   0  0  0  0  0  0  0  0  0  0  0  0
 46 47  1  0  0  0
 46 48  1  0  0  0
 46 45  1  0  0  0
 47 49  2  0  0  0
 47 51  1  0  0  0
 19 20  2  0  0  0
 37 38  1  0  0  0
 37 39  1  0  0  0
 37 40  1  0  0  0
 37 41  1  0  0  0
 48 50  1  0  0  0
 38 29  1  0  0  0
 45 44  1  0  0  0
 25 27  1  0  0  0
 25 35  1  0  0  0
 25 28  1  0  0  0
 21 20  1  0  0  0
 21 22  1  0  0  0
 44 42  1  0  0  0
  2  1  1  0  0  0
  2  4  1  0  0  0
  2  5  1  0  0  0
 26 27  2  0  0  0
 42 43  2  0  0  0
 29 31  1  0  0  0
 29 36  1  0  0  0
  3  4  2  0  0  0
 43  1  1  0  0  0
  6  9  2  0  0  0
  6 10  1  0  0  0
  1 20  1  0  0  0
 30 36  2  0  0  0
  7  8  1  0  0  0
  7  9  1  0  0  0
 22 24  1  0  0  0
 22 23  1  0  0  0
 11 12  1  0  0  0
 11 18  1  0  0  0
 24 27  1  0  0  0
  4 10  1  0  0  0
 51 52  1  0  0  0
 52 53  1  0  0  0
 53 54  1  0  0  0
 54 55  1  0  0  0
 55 56  1  0  0  0
 56 57  1  0  0  0
 57 58  1  0  0  0
 58 59  1  0  0  0
 59 60  1  0  0  0
 60 61  1  0  0  0
 61 62  1  0  0  0
 62 63  1  0  0  0
 63 64  1  0  0  0
 64 65  1  0  0  0
 31 32  1  0  0  0
 32 33  1  0  0  0
 33 34  1  0  0  0
 34 35  1  0  0  0
 35 36  1  0  0  0
  8 10  1  0  0  0
  9 17  1  0  0  0
 12 13  2  0  0  0
 12 17  1  0  0  0
 13 14  1  0  0  0
 14 15  2  0  0  0
 15 16  1  0  0  0
 16 17  2  0  0  0
M  END
> <minimizedAffinity>
-9.90897

> <CNNscore>
0.1217111573

> <CNNaffinity>
7.1071524620

> <CNN_VS>
0.8650197387

> <CNNaffinity_variance>
0.5552171469

$$$$
/media/chris/experiments/cd1a-new-docking/inputs/ligands/1xz0_ligand.pdb


 65 67  0  0  0  0  0  0  0  0999 V2000
  -40.2571   57.6007   64.1871 C   0  0  0  0  0  0  0  0  0  0  0  0
  -39.4938   58.5897   64.9509 N   0  0  0  0  0  0  0  0  0  0  0  0
  -40.0009   60.5459   63.9073 O   0  0  0  0  0  0  0  0  0  0  0  0
  -39.4131   59.9208   64.7801 C   0  0  0  0  0  0  0  0  0  0  0  0
  -38.9634   58.2277   65.6971 H   0  0  0  0  0  0  0  0  0  0  0  0
  -37.8915   61.8771   64.9736 N   0  0  0  0  0  0  0  0  0  0  0  0
  -36.0676   60.8437   65.7466 O   0  0  0  0  0  0  0  0  0  0  0  0
  -37.1422   60.0016   66.1621 C   0  0  0  0  0  0  0  0  0  0  0  0
  -36.6304   61.9514   65.0158 C   0  0  0  0  0  0  0  0  0  0  0  0
  -38.4405   60.6924   65.6603 C   0  0  0  0  0  0  0  0  0  0  0  0
  -34.3086   63.1188   66.2976 O   0  0  0  0  0  0  0  0  0  0  0  0
  -34.6857   63.5827   65.1000 C   0  0  0  0  0  0  0  0  0  0  0  0
  -33.9463   64.6036   64.4884 C   0  0  0  0  0  0  0  0  0  0  0  0
  -34.3270   65.1141   63.2359 C   0  0  0  0  0  0  0  0  0  0  0  0
  -35.4457   64.6025   62.5762 C   0  0  0  0  0  0  0  0  0  0  0  0
  -36.1830   63.5796   63.1793 C   0  0  0  0  0  0  0  0  0  0  0  0
  -35.8091   63.0721   64.4383 C   0  0  0  0  0  0  0  0  0  0  0  0
  -33.5531   63.4759   66.7217 H   0  0  0  0  0  0  0  0  0  0  0  0
  -38.4205   56.7401   62.9136 O   0  0  0  0  0  0  0  0  0  0  0  0
  -39.4765   57.3512   62.9107 C   0  0  0  0  0  0  0  0  0  0  0  0
  -39.9549   57.9095   61.6417 O   0  0  0  0  0  0  0  0  0  0  0  0
  -39.1046   58.7255   60.8141 C   0  0  0  0  0  0  0  0  0  0  0  0
  -39.2133   58.4411   59.3212 C   0  0  0  0  0  0  0  0  0  0  0  0
  -37.6712   58.5700   61.2996 C   0  0  0  0  0  0  0  0  0  0  0  0
  -35.9376   59.7575   62.5567 N   0  0  0  0  0  0  0  0  0  0  0  0
  -37.7317   60.8499   61.7182 O   0  0  0  0  0  0  0  0  0  0  0  0
  -37.1137   59.8290   61.9164 C   0  0  0  0  0  0  0  0  0  0  0  0
  -35.5519   60.5957   62.9001 H   0  0  0  0  0  0  0  0  0  0  0  0
  -33.7591   59.0736   64.7111 N   0  0  0  0  0  0  0  0  0  0  0  0
  -35.2069   57.3550   64.8358 O   0  0  0  0  0  0  0  0  0  0  0  0
  -33.3044   60.3498   64.1395 C   0  0  0  0  0  0  0  0  0  0  0  0
  -32.5538   60.1169   62.8147 C   0  0  0  0  0  0  0  0  0  0  0  0
  -32.5951   58.6922   62.2874 C   0  0  0  0  0  0  0  0  0  0  0  0
  -33.9947   58.2586   61.8433 C   0  0  0  0  0  0  0  0  0  0  0  0
  -35.1850   58.5180   62.7816 C   0  0  0  0  0  0  0  0  0  0  0  0
  -34.7200   58.2837   64.2056 C   0  0  0  0  0  0  0  0  0  0  0  0
  -31.7675   57.5384   65.8069 Si  0  0  0  0  0  0  0  0  0  0  0  0
  -33.1579   58.6609   65.8618 O   0  0  0  0  0  0  0  0  0  0  0  0
  -31.3270   57.2655   67.1289 H   0  0  0  0  0  0  0  0  0  0  0  0
  -30.7095   58.1313   65.0684 H   0  0  0  0  0  0  0  0  0  0  0  0
  -32.1617   56.3270   65.1798 H   0  0  0  0  0  0  0  0  0  0  0  0
  -42.6704   57.8810   65.1828 C   0  0  0  0  0  0  0  0  0  0  0  0
  -41.7594   57.8886   63.9492 C   0  0  0  0  0  0  0  0  0  0  0  0
  -44.1801   57.7289   64.9307 C   0  0  0  0  0  0  0  0  0  0  0  0
  -45.0698   58.9659   65.1702 C   0  0  0  0  0  0  0  0  0  0  0  0
  -46.4514   58.6113   64.8314 N   0  0  0  0  0  0  0  0  0  0  0  0
  -47.3320   57.8412   65.5239 C   0  0  0  0  0  0  0  0  0  0  0  0
  -46.8982   59.1579   63.6201 O   0  0  0  0  0  0  0  0  0  0  0  0
  -47.0239   57.3344   66.6024 O   0  0  0  0  0  0  0  0  0  0  0  0
  -47.8147   58.8838   63.4601 H   0  0  0  0  0  0  0  0  0  0  0  0
  -48.7278   57.6017   64.9388 C   0  0  0  0  0  0  0  0  0  0  0  0
  -49.8777   58.1573   65.7900 C   0  0  0  0  0  0  0  0  0  0  0  0
  -49.6916   59.6716   66.0060 C   0  0  0  0  0  0  0  0  0  0  0  0
  -50.6752   60.5343   65.1928 C   0  0  0  0  0  0  0  0  0  0  0  0
  -51.1771   59.8807   63.8916 C   0  0  0  0  0  0  0  0  0  0  0  0
  -50.7226   60.6371   62.6258 C   0  0  0  0  0  0  0  0  0  0  0  0
  -50.3569   59.7265   61.4305 C   0  0  0  0  0  0  0  0  0  0  0  0
  -50.4559   58.2306   61.7508 C   0  0  0  0  0  0  0  0  0  0  0  0
  -50.4343   57.2973   60.5361 C   0  0  0  0  0  0  0  0  0  0  0  0
  -49.1391   56.4662   60.4900 C   0  0  0  0  0  0  0  0  0  0  0  0
  -48.0328   57.0852   59.6223 C   0  0  0  0  0  0  0  0  0  0  0  0
  -48.4855   58.1721   58.6418 C   0  0  0  0  0  0  0  0  0  0  0  0
  -47.5391   58.3714   57.4318 C   0  0  0  0  0  0  0  0  0  0  0  0
  -47.8323   57.3531   56.3114 C   0  0  0  0  0  0  0  0  0  0  0  0
  -47.5699   55.8747   56.6232 C   0  0  0  0  0  0  0  0  0  0  0  0
 46 47  1  0  0  0
 46 48  1  0  0  0
 46 45  1  0  0  0
 47 49  2  0  0  0
 47 51  1  0  0  0
 19 20  2  0  0  0
 37 38  1  0  0  0
 37 39  1  0  0  0
 37 40  1  0  0  0
 37 41  1  0  0  0
 48 50  1  0  0  0
 38 29  1  0  0  0
 45 44  1  0  0  0
 25 27  1  0  0  0
 25 35  1  0  0  0
 25 28  1  0  0  0
 21 20  1  0  0  0
 21 22  1  0  0  0
 44 42  1  0  0  0
  2  1  1  0  0  0
  2  4  1  0  0  0
  2  5  1  0  0  0
 26 27  2  0  0  0
 42 43  2  0  0  0
 29 31  1  0  0  0
 29 36  1  0  0  0
  3  4  2  0  0  0
 43  1  1  0  0  0
  6  9  2  0  0  0
  6 10  1  0  0  0
  1 20  1  0  0  0
 30 36  2  0  0  0
  7  8  1  0  0  0
  7  9  1  0  0  0
 22 24  1  0  0  0
 22 23  1  0  0  0
 11 12  1  0  0  0
 11 18  1  0  0  0
 24 27  1  0  0  0
  4 10  1  0  0  0
 51 52  1  0  0  0
 52 53  1  0  0  0
 53 54  1  0  0  0
 54 55  1  0  0  0
 55 56  1  0  0  0
 56 57  1  0  0  0
 57 58  1  0  0  0
 58 59  1  0  0  0
 59 60  1  0  0  0
 60 61  1  0  0  0
 61 62  1  0  0  0
 62 63  1  0  0  0
 63 64  1  0  0  0
 64 65  1  0  0  0
 31 32  1  0  0  0
 32 33  1  0  0  0
 33 34  1  0  0  0
 34 35  1  0  0  0
 35 36  1  0  0  0
  8 10  1  0  0  0
  9 17  1  0  0  0
 12 13  2  0  0  0
 12 17  1  0  0  0
 13 14  1  0  0  0
 14 15  2  0  0  0
 15 16  1  0  0  0
 16 17  2  0  0  0
M  END
> <minimizedAffinity>
-9.05922

> <CNNscore>
0.1185161024

> <CNNaffinity>
7.2890677452

> <CNN_VS>
0.8638718724

> <CNNaffinity_variance>
0.5503991842

$$$$
/media/chris/experiments/cd1a-new-docking/inputs/ligands/1xz0_ligand.pdb


 65 67  0  0  0  0  0  0  0  0999 V2000
  -42.2683   58.7773   62.3648 C   0  0  0  0  0  0  0  0  0  0  0  0
  -40.9600   58.6825   61.7140 N   0  0  0  0  0  0  0  0  0  0  0  0
  -41.3926   57.4151   59.8757 O   0  0  0  0  0  0  0  0  0  0  0  0
  -40.6167   58.0481   60.5795 C   0  0  0  0  0  0  0  0  0  0  0  0
  -40.2260   59.1509   62.1735 H   0  0  0  0  0  0  0  0  0  0  0  0
  -38.2845   57.6344   61.3341 N   0  0  0  0  0  0  0  0  0  0  0  0
  -37.3208   59.5024   60.5767 O   0  0  0  0  0  0  0  0  0  0  0  0
  -38.4480   59.3249   59.7196 C   0  0  0  0  0  0  0  0  0  0  0  0
  -37.3207   58.4268   61.5363 C   0  0  0  0  0  0  0  0  0  0  0  0
  -39.1435   58.0206   60.1986 C   0  0  0  0  0  0  0  0  0  0  0  0
  -37.7691   57.1925   64.1194 O   0  0  0  0  0  0  0  0  0  0  0  0
  -36.5415   57.6340   63.8198 C   0  0  0  0  0  0  0  0  0  0  0  0
  -35.5032   57.4766   64.7472 C   0  0  0  0  0  0  0  0  0  0  0  0
  -34.2080   57.9398   64.4603 C   0  0  0  0  0  0  0  0  0  0  0  0
  -33.9342   58.5567   63.2385 C   0  0  0  0  0  0  0  0  0  0  0  0
  -34.9651   58.7104   62.3073 C   0  0  0  0  0  0  0  0  0  0  0  0
  -36.2660   58.2551   62.5955 C   0  0  0  0  0  0  0  0  0  0  0  0
  -37.9300   56.7798   64.9452 H   0  0  0  0  0  0  0  0  0  0  0  0
  -43.3621   60.7722   63.1127 O   0  0  0  0  0  0  0  0  0  0  0  0
  -42.3206   60.1432   63.0224 C   0  0  0  0  0  0  0  0  0  0  0  0
  -41.0853   60.7675   63.5072 O   0  0  0  0  0  0  0  0  0  0  0  0
  -40.2585   60.1244   64.4955 C   0  0  0  0  0  0  0  0  0  0  0  0
  -40.7236   60.3194   65.9332 C   0  0  0  0  0  0  0  0  0  0  0  0
  -38.8277   60.6071   64.3111 C   0  0  0  0  0  0  0  0  0  0  0  0
  -36.9553   61.1647   65.7874 N   0  0  0  0  0  0  0  0  0  0  0  0
  -38.2373   59.3392   66.1606 O   0  0  0  0  0  0  0  0  0  0  0  0
  -37.9423   60.3053   65.4949 C   0  0  0  0  0  0  0  0  0  0  0  0
  -36.4241   60.9927   66.5982 H   0  0  0  0  0  0  0  0  0  0  0  0
  -34.2982   61.8803   64.2765 N   0  0  0  0  0  0  0  0  0  0  0  0
  -35.9059   62.2059   62.7354 O   0  0  0  0  0  0  0  0  0  0  0  0
  -33.8496   61.5089   65.6266 C   0  0  0  0  0  0  0  0  0  0  0  0
  -34.0134   62.6914   66.5999 C   0  0  0  0  0  0  0  0  0  0  0  0
  -34.7514   63.8958   66.0392 C   0  0  0  0  0  0  0  0  0  0  0  0
  -36.2303   63.6151   65.7603 C   0  0  0  0  0  0  0  0  0  0  0  0
  -36.6112   62.3435   64.9840 C   0  0  0  0  0  0  0  0  0  0  0  0
  -35.5669   62.1201   63.9078 C   0  0  0  0  0  0  0  0  0  0  0  0
  -33.7945   62.3394   61.6195 Si  0  0  0  0  0  0  0  0  0  0  0  0
  -33.3419   61.9809   63.3115 O   0  0  0  0  0  0  0  0  0  0  0  0
  -32.6240   62.3908   60.8172 H   0  0  0  0  0  0  0  0  0  0  0  0
  -34.4622   63.5913   61.5633 H   0  0  0  0  0  0  0  0  0  0  0  0
  -34.6566   61.3208   61.1341 H   0  0  0  0  0  0  0  0  0  0  0  0
  -43.9428   57.8316   64.1524 C   0  0  0  0  0  0  0  0  0  0  0  0
  -42.6818   57.6197   63.3057 C   0  0  0  0  0  0  0  0  0  0  0  0
  -44.1204   56.9159   65.3755 C   0  0  0  0  0  0  0  0  0  0  0  0
  -44.9035   57.4798   66.5788 C   0  0  0  0  0  0  0  0  0  0  0  0
  -45.9668   58.3507   66.0684 N   0  0  0  0  0  0  0  0  0  0  0  0
  -47.2382   58.0297   65.7101 C   0  0  0  0  0  0  0  0  0  0  0  0
  -45.5899   59.6954   65.9445 O   0  0  0  0  0  0  0  0  0  0  0  0
  -47.6530   56.8744   65.8006 O   0  0  0  0  0  0  0  0  0  0  0  0
  -46.3375   60.2107   65.6035 H   0  0  0  0  0  0  0  0  0  0  0  0
  -48.1603   59.1326   65.1799 C   0  0  0  0  0  0  0  0  0  0  0  0
  -49.3984   59.3975   66.0475 C   0  0  0  0  0  0  0  0  0  0  0  0
  -50.6498   58.7941   65.3810 C   0  0  0  0  0  0  0  0  0  0  0  0
  -50.3973   58.2789   63.9513 C   0  0  0  0  0  0  0  0  0  0  0  0
  -51.1778   59.0254   62.8534 C   0  0  0  0  0  0  0  0  0  0  0  0
  -50.5656   60.3998   62.5107 C   0  0  0  0  0  0  0  0  0  0  0  0
  -49.6029   60.3898   61.3004 C   0  0  0  0  0  0  0  0  0  0  0  0
  -50.0339   59.4293   60.1861 C   0  0  0  0  0  0  0  0  0  0  0  0
  -48.9002   58.6326   59.5325 C   0  0  0  0  0  0  0  0  0  0  0  0
  -48.5245   57.3986   60.3730 C   0  0  0  0  0  0  0  0  0  0  0  0
  -48.2668   56.1334   59.5406 C   0  0  0  0  0  0  0  0  0  0  0  0
  -47.2051   56.2632   58.4436 C   0  0  0  0  0  0  0  0  0  0  0  0
  -47.7380   56.0157   57.0103 C   0  0  0  0  0  0  0  0  0  0  0  0
  -47.9304   57.3393   56.2426 C   0  0  0  0  0  0  0  0  0  0  0  0
  -47.0138   58.5085   56.6228 C   0  0  0  0  0  0  0  0  0  0  0  0
 46 47  1  0  0  0
 46 48  1  0  0  0
 46 45  1  0  0  0
 47 49  2  0  0  0
 47 51  1  0  0  0
 19 20  2  0  0  0
 37 38  1  0  0  0
 37 39  1  0  0  0
 37 40  1  0  0  0
 37 41  1  0  0  0
 48 50  1  0  0  0
 38 29  1  0  0  0
 45 44  1  0  0  0
 25 27  1  0  0  0
 25 35  1  0  0  0
 25 28  1  0  0  0
 21 20  1  0  0  0
 21 22  1  0  0  0
 44 42  1  0  0  0
  2  1  1  0  0  0
  2  4  1  0  0  0
  2  5  1  0  0  0
 26 27  2  0  0  0
 42 43  2  0  0  0
 29 31  1  0  0  0
 29 36  1  0  0  0
  3  4  2  0  0  0
 43  1  1  0  0  0
  6  9  2  0  0  0
  6 10  1  0  0  0
  1 20  1  0  0  0
 30 36  2  0  0  0
  7  8  1  0  0  0
  7  9  1  0  0  0
 22 24  1  0  0  0
 22 23  1  0  0  0
 11 12  1  0  0  0
 11 18  1  0  0  0
 24 27  1  0  0  0
  4 10  1  0  0  0
 51 52  1  0  0  0
 52 53  1  0  0  0
 53 54  1  0  0  0
 54 55  1  0  0  0
 55 56  1  0  0  0
 56 57  1  0  0  0
 57 58  1  0  0  0
 58 59  1  0  0  0
 59 60  1  0  0  0
 60 61  1  0  0  0
 61 62  1  0  0  0
 62 63  1  0  0  0
 63 64  1  0  0  0
 64 65  1  0  0  0
 31 32  1  0  0  0
 32 33  1  0  0  0
 33 34  1  0  0  0
 34 35  1  0  0  0
 35 36  1  0  0  0
  8 10  1  0  0  0
  9 17  1  0  0  0
 12 13  2  0  0  0
 12 17  1  0  0  0
 13 14  1  0  0  0
 14 15  2  0  0  0
 15 16  1  0  0  0
 16 17  2  0  0  0
M  END
> <minimizedAffinity>
-10.36941

> <CNNscore>
0.1177855432

> <CNNaffinity>
7.4164185524

> <CNN_VS>
0.8735468984

> <CNNaffinity_variance>
0.7674421072

$$$$
/media/chris/experiments/cd1a-new-docking/inputs/ligands/1xz0_ligand.pdb


 65 67  0  0  0  0  0  0  0  0999 V2000
  -37.0865   58.8157   61.9021 C   0  0  0  0  0  0  0  0  0  0  0  0
  -35.7497   59.1361   62.4064 N   0  0  0  0  0  0  0  0  0  0  0  0
  -34.9852   57.1255   63.1454 O   0  0  0  0  0  0  0  0  0  0  0  0
  -34.8327   58.3262   62.9638 C   0  0  0  0  0  0  0  0  0  0  0  0
  -35.4841   60.0806   62.3256 H   0  0  0  0  0  0  0  0  0  0  0  0
  -33.8474   60.0951   64.4060 N   0  0  0  0  0  0  0  0  0  0  0  0
  -32.3559   60.9423   62.9742 O   0  0  0  0  0  0  0  0  0  0  0  0
  -32.5395   59.6000   62.5257 C   0  0  0  0  0  0  0  0  0  0  0  0
  -33.2105   61.1479   64.1166 C   0  0  0  0  0  0  0  0  0  0  0  0
  -33.5607   58.9609   63.5072 C   0  0  0  0  0  0  0  0  0  0  0  0
  -33.0334   63.7842   62.9269 O   0  0  0  0  0  0  0  0  0  0  0  0
  -33.2008   63.6841   64.2511 C   0  0  0  0  0  0  0  0  0  0  0  0
  -33.3027   64.8466   65.0264 C   0  0  0  0  0  0  0  0  0  0  0  0
  -33.4694   64.7682   66.4193 C   0  0  0  0  0  0  0  0  0  0  0  0
  -33.5462   63.5262   67.0517 C   0  0  0  0  0  0  0  0  0  0  0  0
  -33.4515   62.3634   66.2820 C   0  0  0  0  0  0  0  0  0  0  0  0
  -33.2756   62.4388   64.8870 C   0  0  0  0  0  0  0  0  0  0  0  0
  -32.9861   64.6285   62.5231 H   0  0  0  0  0  0  0  0  0  0  0  0
  -37.5161   61.1717   61.9117 O   0  0  0  0  0  0  0  0  0  0  0  0
  -37.6497   60.1050   61.3351 C   0  0  0  0  0  0  0  0  0  0  0  0
  -38.4354   60.0758   60.0970 O   0  0  0  0  0  0  0  0  0  0  0  0
  -39.0416   58.8587   59.6227 C   0  0  0  0  0  0  0  0  0  0  0  0
  -38.4313   58.3057   58.3408 C   0  0  0  0  0  0  0  0  0  0  0  0
  -40.5351   59.0984   59.4607 C   0  0  0  0  0  0  0  0  0  0  0  0
  -41.7432   58.9740   61.5870 N   0  0  0  0  0  0  0  0  0  0  0  0
  -41.7221   57.2290   60.1483 O   0  0  0  0  0  0  0  0  0  0  0  0
  -41.3699   58.3423   60.4645 C   0  0  0  0  0  0  0  0  0  0  0  0
  -42.3403   58.4939   62.2053 H   0  0  0  0  0  0  0  0  0  0  0  0
  -41.9597   60.4792   64.3333 N   0  0  0  0  0  0  0  0  0  0  0  0
  -39.8147   60.7735   63.7184 O   0  0  0  0  0  0  0  0  0  0  0  0
  -43.3131   59.9491   64.1117 C   0  0  0  0  0  0  0  0  0  0  0  0
  -44.1082   60.8644   63.1616 C   0  0  0  0  0  0  0  0  0  0  0  0
  -43.3073   61.9848   62.5189 C   0  0  0  0  0  0  0  0  0  0  0  0
  -42.2551   61.4771   61.5296 C   0  0  0  0  0  0  0  0  0  0  0  0
  -41.3245   60.3305   61.9586 C   0  0  0  0  0  0  0  0  0  0  0  0
  -40.9762   60.5306   63.4206 C   0  0  0  0  0  0  0  0  0  0  0  0
  -39.9981   60.9297   66.1971 Si  0  0  0  0  0  0  0  0  0  0  0  0
  -41.6755   60.9518   65.5791 O   0  0  0  0  0  0  0  0  0  0  0  0
  -39.9698   61.4725   67.5089 H   0  0  0  0  0  0  0  0  0  0  0  0
  -39.1696   61.7070   65.3452 H   0  0  0  0  0  0  0  0  0  0  0  0
  -39.5227   59.5920   66.2280 H   0  0  0  0  0  0  0  0  0  0  0  0
  -38.6987   56.7923   62.3500 C   0  0  0  0  0  0  0  0  0  0  0  0
  -38.0552   58.0859   62.8641 C   0  0  0  0  0  0  0  0  0  0  0  0
  -39.9581   56.3030   63.0850 C   0  0  0  0  0  0  0  0  0  0  0  0
  -40.4608   57.1467   64.2744 C   0  0  0  0  0  0  0  0  0  0  0  0
  -41.9070   56.9436   64.4037 N   0  0  0  0  0  0  0  0  0  0  0  0
  -42.6988   57.0980   65.4978 C   0  0  0  0  0  0  0  0  0  0  0  0
  -42.5321   56.5344   63.2172 O   0  0  0  0  0  0  0  0  0  0  0  0
  -42.2316   57.4667   66.5752 O   0  0  0  0  0  0  0  0  0  0  0  0
  -43.4822   56.4199   63.3751 H   0  0  0  0  0  0  0  0  0  0  0  0
  -44.1968   56.7989   65.3776 C   0  0  0  0  0  0  0  0  0  0  0  0
  -45.0770   57.5439   66.3905 C   0  0  0  0  0  0  0  0  0  0  0  0
  -46.4438   57.8744   65.7606 C   0  0  0  0  0  0  0  0  0  0  0  0
  -46.7099   59.3857   65.6263 C   0  0  0  0  0  0  0  0  0  0  0  0
  -48.1478   59.7494   65.2112 C   0  0  0  0  0  0  0  0  0  0  0  0
  -49.1156   58.5498   65.2854 C   0  0  0  0  0  0  0  0  0  0  0  0
  -49.7812   58.1780   63.9399 C   0  0  0  0  0  0  0  0  0  0  0  0
  -50.9493   59.0964   63.5629 C   0  0  0  0  0  0  0  0  0  0  0  0
  -50.6677   60.0813   62.4237 C   0  0  0  0  0  0  0  0  0  0  0  0
  -49.3408   59.7542   61.7145 C   0  0  0  0  0  0  0  0  0  0  0  0
  -49.5149   59.0226   60.3749 C   0  0  0  0  0  0  0  0  0  0  0  0
  -48.5973   57.8162   60.1511 C   0  0  0  0  0  0  0  0  0  0  0  0
  -48.4787   57.3730   58.6715 C   0  0  0  0  0  0  0  0  0  0  0  0
  -47.7833   58.4493   57.8134 C   0  0  0  0  0  0  0  0  0  0  0  0
  -47.3082   58.0313   56.4165 C   0  0  0  0  0  0  0  0  0  0  0  0
 46 47  1  0  0  0
 46 48  1  0  0  0
 46 45  1  0  0  0
 47 49  2  0  0  0
 47 51  1  0  0  0
 19 20  2  0  0  0
 37 38  1  0  0  0
 37 39  1  0  0  0
 37 40  1  0  0  0
 37 41  1  0  0  0
 48 50  1  0  0  0
 38 29  1  0  0  0
 45 44  1  0  0  0
 25 27  1  0  0  0
 25 35  1  0  0  0
 25 28  1  0  0  0
 21 20  1  0  0  0
 21 22  1  0  0  0
 44 42  1  0  0  0
  2  1  1  0  0  0
  2  4  1  0  0  0
  2  5  1  0  0  0
 26 27  2  0  0  0
 42 43  2  0  0  0
 29 31  1  0  0  0
 29 36  1  0  0  0
  3  4  2  0  0  0
 43  1  1  0  0  0
  6  9  2  0  0  0
  6 10  1  0  0  0
  1 20  1  0  0  0
 30 36  2  0  0  0
  7  8  1  0  0  0
  7  9  1  0  0  0
 22 24  1  0  0  0
 22 23  1  0  0  0
 11 12  1  0  0  0
 11 18  1  0  0  0
 24 27  1  0  0  0
  4 10  1  0  0  0
 51 52  1  0  0  0
 52 53  1  0  0  0
 53 54  1  0  0  0
 54 55  1  0  0  0
 55 56  1  0  0  0
 56 57  1  0  0  0
 57 58  1  0  0  0
 58 59  1  0  0  0
 59 60  1  0  0  0
 60 61  1  0  0  0
 61 62  1  0  0  0
 62 63  1  0  0  0
 63 64  1  0  0  0
 64 65  1  0  0  0
 31 32  1  0  0  0
 32 33  1  0  0  0
 33 34  1  0  0  0
 34 35  1  0  0  0
 35 36  1  0  0  0
  8 10  1  0  0  0
  9 17  1  0  0  0
 12 13  2  0  0  0
 12 17  1  0  0  0
 13 14  1  0  0  0
 14 15  2  0  0  0
 15 16  1  0  0  0
 16 17  2  0  0  0
M  END
> <minimizedAffinity>
-9.27377

> <CNNscore>
0.1177347600

> <CNNaffinity>
7.5122399330

> <CNN_VS>
0.8844517469

> <CNNaffinity_variance>
1.0792268515

$$$$
