/media/chris/experiments/cd1a-new-docking/inputs/ligands/1xz0_ligand.pdb


 65 67  0  0  0  0  0  0  0  0999 V2000
  -39.6386   59.6344   64.6467 C   0  0  0  0  0  0  0  0  0  0  0  0
  -38.7280   60.7283   64.9906 N   0  0  0  0  0  0  0  0  0  0  0  0
  -36.9714   59.6499   65.9520 O   0  0  0  0  0  0  0  0  0  0  0  0
  -37.5234   60.6790   65.5855 C   0  0  0  0  0  0  0  0  0  0  0  0
  -39.0434   61.6299   64.7519 H   0  0  0  0  0  0  0  0  0  0  0  0
  -36.7542   62.8936   64.7585 N   0  0  0  0  0  0  0  0  0  0  0  0
  -34.6642   62.8703   65.5482 O   0  0  0  0  0  0  0  0  0  0  0  0
  -35.3741   61.9995   66.4280 C   0  0  0  0  0  0  0  0  0  0  0  0
  -35.5932   63.3506   64.5561 C   0  0  0  0  0  0  0  0  0  0  0  0
  -36.8451   61.9978   65.9272 C   0  0  0  0  0  0  0  0  0  0  0  0
  -33.1242   64.8651   64.4720 O   0  0  0  0  0  0  0  0  0  0  0  0
  -34.0032   65.0084   63.4728 C   0  0  0  0  0  0  0  0  0  0  0  0
  -33.7066   65.8683   62.4072 C   0  0  0  0  0  0  0  0  0  0  0  0
  -34.6167   66.0432   61.3511 C   0  0  0  0  0  0  0  0  0  0  0  0
  -35.8298   65.3524   61.3436 C   0  0  0  0  0  0  0  0  0  0  0  0
  -36.1275   64.4885   62.4012 C   0  0  0  0  0  0  0  0  0  0  0  0
  -35.2214   64.3179   63.4653 C   0  0  0  0  0  0  0  0  0  0  0  0
  -32.3151   65.3375   64.4556 H   0  0  0  0  0  0  0  0  0  0  0  0
  -41.0047   60.9303   63.1668 O   0  0  0  0  0  0  0  0  0  0  0  0
  -40.2418   59.9876   63.3005 C   0  0  0  0  0  0  0  0  0  0  0  0
  -39.9643   59.1447   62.1328 O   0  0  0  0  0  0  0  0  0  0  0  0
  -38.9191   59.4777   61.1998 C   0  0  0  0  0  0  0  0  0  0  0  0
  -39.2500   59.1728   59.7441 C   0  0  0  0  0  0  0  0  0  0  0  0
  -37.6454   58.7677   61.6335 C   0  0  0  0  0  0  0  0  0  0  0  0
  -35.6053   59.1175   62.9419 N   0  0  0  0  0  0  0  0  0  0  0  0
  -36.9057   60.8578   62.3126 O   0  0  0  0  0  0  0  0  0  0  0  0
  -36.6829   59.6700   62.3657 C   0  0  0  0  0  0  0  0  0  0  0  0
  -35.5297   58.1361   62.9245 H   0  0  0  0  0  0  0  0  0  0  0  0
  -32.6213   59.5605   62.0733 N   0  0  0  0  0  0  0  0  0  0  0  0
  -33.3667   61.6326   62.5383 O   0  0  0  0  0  0  0  0  0  0  0  0
  -32.8089   58.1059   61.9694 C   0  0  0  0  0  0  0  0  0  0  0  0
  -32.6629   57.4375   63.3495 C   0  0  0  0  0  0  0  0  0  0  0  0
  -32.5473   58.3943   64.5247 C   0  0  0  0  0  0  0  0  0  0  0  0
  -33.8329   59.1849   64.7817 C   0  0  0  0  0  0  0  0  0  0  0  0
  -34.5310   59.8728   63.5967 C   0  0  0  0  0  0  0  0  0  0  0  0
  -33.4596   60.4203   62.6742 C   0  0  0  0  0  0  0  0  0  0  0  0
  -31.5519   61.6843   60.7060 Si  0  0  0  0  0  0  0  0  0  0  0  0
  -31.5015   60.0835   61.5002 O   0  0  0  0  0  0  0  0  0  0  0  0
  -30.2658   61.9986   60.1924 H   0  0  0  0  0  0  0  0  0  0  0  0
  -31.9374   62.6703   61.6524 H   0  0  0  0  0  0  0  0  0  0  0  0
  -32.4923   61.6557   59.6425 H   0  0  0  0  0  0  0  0  0  0  0  0
  -41.6639   58.1036   65.3169 C   0  0  0  0  0  0  0  0  0  0  0  0
  -40.6878   59.2204   65.7070 C   0  0  0  0  0  0  0  0  0  0  0  0
  -42.9507   57.9829   66.1508 C   0  0  0  0  0  0  0  0  0  0  0  0
  -44.2112   58.6971   65.6214 C   0  0  0  0  0  0  0  0  0  0  0  0
  -45.3494   57.7829   65.7581 N   0  0  0  0  0  0  0  0  0  0  0  0
  -46.6769   58.0428   65.6246 C   0  0  0  0  0  0  0  0  0  0  0  0
  -44.9858   56.4650   66.0688 O   0  0  0  0  0  0  0  0  0  0  0  0
  -47.5175   57.1558   65.7714 O   0  0  0  0  0  0  0  0  0  0  0  0
  -45.7838   55.9186   66.1437 H   0  0  0  0  0  0  0  0  0  0  0  0
  -47.1228   59.4674   65.2792 C   0  0  0  0  0  0  0  0  0  0  0  0
  -47.7054   60.2552   66.4606 C   0  0  0  0  0  0  0  0  0  0  0  0
  -49.2451   60.2188   66.4121 C   0  0  0  0  0  0  0  0  0  0  0  0
  -49.8258   60.5858   65.0333 C   0  0  0  0  0  0  0  0  0  0  0  0
  -51.1772   59.9218   64.7093 C   0  0  0  0  0  0  0  0  0  0  0  0
  -51.1489   59.1129   63.3956 C   0  0  0  0  0  0  0  0  0  0  0  0
  -50.0461   58.0306   63.3320 C   0  0  0  0  0  0  0  0  0  0  0  0
  -49.0368   58.2540   62.1999 C   0  0  0  0  0  0  0  0  0  0  0  0
  -49.0148   59.6680   61.6108 C   0  0  0  0  0  0  0  0  0  0  0  0
  -49.6648   59.7048   60.2156 C   0  0  0  0  0  0  0  0  0  0  0  0
  -50.2796   58.3661   59.7797 C   0  0  0  0  0  0  0  0  0  0  0  0
  -49.6499   57.7156   58.5435 C   0  0  0  0  0  0  0  0  0  0  0  0
  -48.4102   56.8382   58.8483 C   0  0  0  0  0  0  0  0  0  0  0  0
  -47.2544   57.1343   57.8711 C   0  0  0  0  0  0  0  0  0  0  0  0
  -47.1517   56.2523   56.6209 C   0  0  0  0  0  0  0  0  0  0  0  0
 46 47  1  0  0  0
 46 48  1  0  0  0
 46 45  1  0  0  0
 47 49  2  0  0  0
 47 51  1  0  0  0
 19 20  2  0  0  0
 37 38  1  0  0  0
 37 39  1  0  0  0
 37 40  1  0  0  0
 37 41  1  0  0  0
 48 50  1  0  0  0
 38 29  1  0  0  0
 45 44  1  0  0  0
 25 27  1  0  0  0
 25 35  1  0  0  0
 25 28  1  0  0  0
 21 20  1  0  0  0
 21 22  1  0  0  0
 44 42  1  0  0  0
  2  1  1  0  0  0
  2  4  1  0  0  0
  2  5  1  0  0  0
 26 27  2  0  0  0
 42 43  2  0  0  0
 29 31  1  0  0  0
 29 36  1  0  0  0
  3  4  2  0  0  0
 43  1  1  0  0  0
  6  9  2  0  0  0
  6 10  1  0  0  0
  1 20  1  0  0  0
 30 36  2  0  0  0
  7  8  1  0  0  0
  7  9  1  0  0  0
 22 24  1  0  0  0
 22 23  1  0  0  0
 11 12  1  0  0  0
 11 18  1  0  0  0
 24 27  1  0  0  0
  4 10  1  0  0  0
 51 52  1  0  0  0
 52 53  1  0  0  0
 53 54  1  0  0  0
 54 55  1  0  0  0
 55 56  1  0  0  0
 56 57  1  0  0  0
 57 58  1  0  0  0
 58 59  1  0  0  0
 59 60  1  0  0  0
 60 61  1  0  0  0
 61 62  1  0  0  0
 62 63  1  0  0  0
 63 64  1  0  0  0
 64 65  1  0  0  0
 31 32  1  0  0  0
 32 33  1  0  0  0
 33 34  1  0  0  0
 34 35  1  0  0  0
 35 36  1  0  0  0
  8 10  1  0  0  0
  9 17  1  0  0  0
 12 13  2  0  0  0
 12 17  1  0  0  0
 13 14  1  0  0  0
 14 15  2  0  0  0
 15 16  1  0  0  0
 16 17  2  0  0  0
M  END
> <minimizedAffinity>
-9.10275

> <CNNscore>
0.1746723950

> <CNNaffinity>
7.1626787186

> <CNN_VS>
1.2511222363

> <CNNaffinity_variance>
0.3648485839

$$$$
/media/chris/experiments/cd1a-new-docking/inputs/ligands/1xz0_ligand.pdb


 65 67  0  0  0  0  0  0  0  0999 V2000
  -42.1040   58.4797   65.7889 C   0  0  0  0  0  0  0  0  0  0  0  0
  -41.7465   57.6716   64.6214 N   0  0  0  0  0  0  0  0  0  0  0  0
  -42.3059   55.5635   65.2663 O   0  0  0  0  0  0  0  0  0  0  0  0
  -41.8596   56.3448   64.4365 C   0  0  0  0  0  0  0  0  0  0  0  0
  -41.3687   58.1721   63.8623 H   0  0  0  0  0  0  0  0  0  0  0  0
  -40.2175   56.5898   62.5862 N   0  0  0  0  0  0  0  0  0  0  0  0
  -41.5804   56.2654   60.8457 O   0  0  0  0  0  0  0  0  0  0  0  0
  -42.2199   55.5730   61.9171 C   0  0  0  0  0  0  0  0  0  0  0  0
  -40.3752   56.8641   61.3625 C   0  0  0  0  0  0  0  0  0  0  0  0
  -41.2948   55.7555   63.1521 C   0  0  0  0  0  0  0  0  0  0  0  0
  -38.1629   58.4119   62.4146 O   0  0  0  0  0  0  0  0  0  0  0  0
  -38.3512   58.3737   61.0899 C   0  0  0  0  0  0  0  0  0  0  0  0
  -37.4720   59.0638   60.2451 C   0  0  0  0  0  0  0  0  0  0  0  0
  -37.6535   59.0471   58.8519 C   0  0  0  0  0  0  0  0  0  0  0  0
  -38.7108   58.3316   58.2869 C   0  0  0  0  0  0  0  0  0  0  0  0
  -39.5868   57.6362   59.1251 C   0  0  0  0  0  0  0  0  0  0  0  0
  -39.4126   57.6584   60.5221 C   0  0  0  0  0  0  0  0  0  0  0  0
  -37.4456   58.8973   62.7721 H   0  0  0  0  0  0  0  0  0  0  0  0
  -43.4897   59.8301   64.3775 O   0  0  0  0  0  0  0  0  0  0  0  0
  -43.3800   59.2149   65.4254 C   0  0  0  0  0  0  0  0  0  0  0  0
  -44.4961   59.2535   66.3761 O   0  0  0  0  0  0  0  0  0  0  0  0
  -45.8283   58.8725   65.9835 C   0  0  0  0  0  0  0  0  0  0  0  0
  -46.2123   57.4449   66.3518 C   0  0  0  0  0  0  0  0  0  0  0  0
  -45.9742   59.1119   64.4882 C   0  0  0  0  0  0  0  0  0  0  0  0
  -47.9367   59.1005   63.0238 N   0  0  0  0  0  0  0  0  0  0  0  0
  -47.8415   60.4398   64.8439 O   0  0  0  0  0  0  0  0  0  0  0  0
  -47.3372   59.6299   64.1002 C   0  0  0  0  0  0  0  0  0  0  0  0
  -47.4272   58.4484   62.4906 H   0  0  0  0  0  0  0  0  0  0  0  0
  -49.9640   57.4265   61.3084 N   0  0  0  0  0  0  0  0  0  0  0  0
  -51.1693   58.0781   63.0940 O   0  0  0  0  0  0  0  0  0  0  0  0
  -48.7184   57.3825   60.5284 C   0  0  0  0  0  0  0  0  0  0  0  0
  -48.5517   58.6672   59.6950 C   0  0  0  0  0  0  0  0  0  0  0  0
  -49.5690   59.7604   59.9775 C   0  0  0  0  0  0  0  0  0  0  0  0
  -49.4233   60.3671   61.3756 C   0  0  0  0  0  0  0  0  0  0  0  0
  -49.2988   59.4250   62.5846 C   0  0  0  0  0  0  0  0  0  0  0  0
  -50.2113   58.2371   62.3499 C   0  0  0  0  0  0  0  0  0  0  0  0
  -50.5536   54.9020   60.4123 Si  0  0  0  0  0  0  0  0  0  0  0  0
  -50.9519   56.5603   60.9479 O   0  0  0  0  0  0  0  0  0  0  0  0
  -51.7504   54.2065   60.0956 H   0  0  0  0  0  0  0  0  0  0  0  0
  -49.8710   54.2193   61.4538 H   0  0  0  0  0  0  0  0  0  0  0  0
  -49.7228   54.9626   59.2623 H   0  0  0  0  0  0  0  0  0  0  0  0
  -39.8008   59.7043   65.4891 C   0  0  0  0  0  0  0  0  0  0  0  0
  -41.0079   59.3967   66.3838 C   0  0  0  0  0  0  0  0  0  0  0  0
  -38.5344   60.2285   66.1871 C   0  0  0  0  0  0  0  0  0  0  0  0
  -37.2066   60.1483   65.4061 C   0  0  0  0  0  0  0  0  0  0  0  0
  -37.0320   61.4018   64.6657 N   0  0  0  0  0  0  0  0  0  0  0  0
  -36.2752   62.4853   64.9834 C   0  0  0  0  0  0  0  0  0  0  0  0
  -37.7585   61.4605   63.4680 O   0  0  0  0  0  0  0  0  0  0  0  0
  -36.2338   63.4711   64.2477 O   0  0  0  0  0  0  0  0  0  0  0  0
  -37.5966   62.3123   63.0332 H   0  0  0  0  0  0  0  0  0  0  0  0
  -35.4585   62.4653   66.2797 C   0  0  0  0  0  0  0  0  0  0  0  0
  -33.9895   62.0588   66.0993 C   0  0  0  0  0  0  0  0  0  0  0  0
  -33.0796   62.9815   66.9331 C   0  0  0  0  0  0  0  0  0  0  0  0
  -32.2181   63.9307   66.0788 C   0  0  0  0  0  0  0  0  0  0  0  0
  -32.9185   65.2405   65.6714 C   0  0  0  0  0  0  0  0  0  0  0  0
  -32.2084   65.9641   64.5081 C   0  0  0  0  0  0  0  0  0  0  0  0
  -32.0248   65.1057   63.2350 C   0  0  0  0  0  0  0  0  0  0  0  0
  -33.3426   64.5632   62.6698 C   0  0  0  0  0  0  0  0  0  0  0  0
  -33.1986   63.4867   61.5893 C   0  0  0  0  0  0  0  0  0  0  0  0
  -31.8570   62.7418   61.7147 C   0  0  0  0  0  0  0  0  0  0  0  0
  -31.9060   61.5240   62.6499 C   0  0  0  0  0  0  0  0  0  0  0  0
  -33.2847   60.8814   62.8342 C   0  0  0  0  0  0  0  0  0  0  0  0
  -33.2540   59.3389   62.9732 C   0  0  0  0  0  0  0  0  0  0  0  0
  -34.6240   58.7142   62.6398 C   0  0  0  0  0  0  0  0  0  0  0  0
  -35.0115   57.4352   63.3917 C   0  0  0  0  0  0  0  0  0  0  0  0
 46 47  1  0  0  0
 46 48  1  0  0  0
 46 45  1  0  0  0
 47 49  2  0  0  0
 47 51  1  0  0  0
 19 20  2  0  0  0
 37 38  1  0  0  0
 37 39  1  0  0  0
 37 40  1  0  0  0
 37 41  1  0  0  0
 48 50  1  0  0  0
 38 29  1  0  0  0
 45 44  1  0  0  0
 25 27  1  0  0  0
 25 35  1  0  0  0
 25 28  1  0  0  0
 21 20  1  0  0  0
 21 22  1  0  0  0
 44 42  1  0  0  0
  2  1  1  0  0  0
  2  4  1  0  0  0
  2  5  1  0  0  0
 26 27  2  0  0  0
 42 43  2  0  0  0
 29 31  1  0  0  0
 29 36  1  0  0  0
  3  4  2  0  0  0
 43  1  1  0  0  0
  6  9  2  0  0  0
  6 10  1  0  0  0
  1 20  1  0  0  0
 30 36  2  0  0  0
  7  8  1  0  0  0
  7  9  1  0  0  0
 22 24  1  0  0  0
 22 23  1  0  0  0
 11 12  1  0  0  0
 11 18  1  0  0  0
 24 27  1  0  0  0
  4 10  1  0  0  0
 51 52  1  0  0  0
 52 53  1  0  0  0
 53 54  1  0  0  0
 54 55  1  0  0  0
 55 56  1  0  0  0
 56 57  1  0  0  0
 57 58  1  0  0  0
 58 59  1  0  0  0
 59 60  1  0  0  0
 60 61  1  0  0  0
 61 62  1  0  0  0
 62 63  1  0  0  0
 63 64  1  0  0  0
 64 65  1  0  0  0
 31 32  1  0  0  0
 32 33  1  0  0  0
 33 34  1  0  0  0
 34 35  1  0  0  0
 35 36  1  0  0  0
  8 10  1  0  0  0
  9 17  1  0  0  0
 12 13  2  0  0  0
 12 17  1  0  0  0
 13 14  1  0  0  0
 14 15  2  0  0  0
 15 16  1  0  0  0
 16 17  2  0  0  0
M  END
> <minimizedAffinity>
-8.67143

> <CNNscore>
0.1659276187

> <CNNaffinity>
7.4755172729

> <CNN_VS>
1.2403948307

> <CNNaffinity_variance>
0.5160137415

$$$$
/media/chris/experiments/cd1a-new-docking/inputs/ligands/1xz0_ligand.pdb


 65 67  0  0  0  0  0  0  0  0999 V2000
  -42.0732   59.7330   62.3602 C   0  0  0  0  0  0  0  0  0  0  0  0
  -40.8524   59.1969   61.7550 N   0  0  0  0  0  0  0  0  0  0  0  0
  -41.6475   57.8506   60.1033 O   0  0  0  0  0  0  0  0  0  0  0  0
  -40.7157   58.3412   60.7273 C   0  0  0  0  0  0  0  0  0  0  0  0
  -40.0102   59.5080   62.1592 H   0  0  0  0  0  0  0  0  0  0  0  0
  -38.4928   57.6362   61.5886 N   0  0  0  0  0  0  0  0  0  0  0  0
  -37.1846   58.9238   60.3148 O   0  0  0  0  0  0  0  0  0  0  0  0
  -38.3741   58.7705   59.5416 C   0  0  0  0  0  0  0  0  0  0  0  0
  -37.3654   58.2065   61.5520 C   0  0  0  0  0  0  0  0  0  0  0  0
  -39.3128   57.8621   60.3831 C   0  0  0  0  0  0  0  0  0  0  0  0
  -37.8169   57.1613   64.2167 O   0  0  0  0  0  0  0  0  0  0  0  0
  -36.5889   57.5802   63.8876 C   0  0  0  0  0  0  0  0  0  0  0  0
  -35.5517   57.4901   64.8252 C   0  0  0  0  0  0  0  0  0  0  0  0
  -34.2563   57.9316   64.5073 C   0  0  0  0  0  0  0  0  0  0  0  0
  -33.9809   58.4591   63.2444 C   0  0  0  0  0  0  0  0  0  0  0  0
  -35.0107   58.5452   62.3035 C   0  0  0  0  0  0  0  0  0  0  0  0
  -36.3119   58.1117   62.6221 C   0  0  0  0  0  0  0  0  0  0  0  0
  -37.9788   56.8091   65.0698 H   0  0  0  0  0  0  0  0  0  0  0  0
  -42.3263   61.9305   63.2782 O   0  0  0  0  0  0  0  0  0  0  0  0
  -41.6469   60.9199   63.2031 C   0  0  0  0  0  0  0  0  0  0  0  0
  -40.3558   60.8950   63.8983 O   0  0  0  0  0  0  0  0  0  0  0  0
  -40.0953   59.9594   64.9617 C   0  0  0  0  0  0  0  0  0  0  0  0
  -40.9694   60.1452   66.1958 C   0  0  0  0  0  0  0  0  0  0  0  0
  -38.6185   60.0379   65.3181 C   0  0  0  0  0  0  0  0  0  0  0  0
  -37.0796   61.9418   65.2605 N   0  0  0  0  0  0  0  0  0  0  0  0
  -38.0051   61.1264   63.3647 O   0  0  0  0  0  0  0  0  0  0  0  0
  -37.8837   61.1216   64.5683 C   0  0  0  0  0  0  0  0  0  0  0  0
  -37.0625   61.8464   66.2402 H   0  0  0  0  0  0  0  0  0  0  0  0
  -34.0492   61.8348   64.4482 N   0  0  0  0  0  0  0  0  0  0  0  0
  -35.0738   62.6607   62.6224 O   0  0  0  0  0  0  0  0  0  0  0  0
  -34.0653   61.3226   65.8263 C   0  0  0  0  0  0  0  0  0  0  0  0
  -34.1025   62.4830   66.8387 C   0  0  0  0  0  0  0  0  0  0  0  0
  -34.2987   63.8641   66.2355 C   0  0  0  0  0  0  0  0  0  0  0  0
  -35.6834   64.0534   65.6106 C   0  0  0  0  0  0  0  0  0  0  0  0
  -36.2235   62.9716   64.6605 C   0  0  0  0  0  0  0  0  0  0  0  0
  -35.0652   62.4567   63.8286 C   0  0  0  0  0  0  0  0  0  0  0  0
  -32.6810   62.4652   62.1560 Si  0  0  0  0  0  0  0  0  0  0  0  0
  -32.9039   61.6535   63.7330 O   0  0  0  0  0  0  0  0  0  0  0  0
  -31.4141   62.1152   61.6183 H   0  0  0  0  0  0  0  0  0  0  0  0
  -32.7471   63.8724   62.3343 H   0  0  0  0  0  0  0  0  0  0  0  0
  -33.7047   62.0528   61.2624 H   0  0  0  0  0  0  0  0  0  0  0  0
  -43.8293   59.3036   64.2644 C   0  0  0  0  0  0  0  0  0  0  0  0
  -42.9933   58.7388   63.1093 C   0  0  0  0  0  0  0  0  0  0  0  0
  -44.3946   58.2898   65.2735 C   0  0  0  0  0  0  0  0  0  0  0  0
  -45.5579   58.7546   66.1735 C   0  0  0  0  0  0  0  0  0  0  0  0
  -46.6693   57.8120   66.0121 N   0  0  0  0  0  0  0  0  0  0  0  0
  -47.9691   58.0654   65.7056 C   0  0  0  0  0  0  0  0  0  0  0  0
  -46.3099   56.4708   66.2063 O   0  0  0  0  0  0  0  0  0  0  0  0
  -48.7892   57.1533   65.6044 O   0  0  0  0  0  0  0  0  0  0  0  0
  -47.0894   55.9064   66.0847 H   0  0  0  0  0  0  0  0  0  0  0  0
  -48.4084   59.5156   65.4781 C   0  0  0  0  0  0  0  0  0  0  0  0
  -49.7106   59.9047   66.1911 C   0  0  0  0  0  0  0  0  0  0  0  0
  -50.8576   60.0236   65.1690 C   0  0  0  0  0  0  0  0  0  0  0  0
  -50.5533   60.9959   64.0136 C   0  0  0  0  0  0  0  0  0  0  0  0
  -51.1768   60.6007   62.6619 C   0  0  0  0  0  0  0  0  0  0  0  0
  -50.1200   60.2810   61.5840 C   0  0  0  0  0  0  0  0  0  0  0  0
  -49.0331   59.2751   62.0293 C   0  0  0  0  0  0  0  0  0  0  0  0
  -49.5768   57.8656   62.2905 C   0  0  0  0  0  0  0  0  0  0  0  0
  -50.7355   57.4321   61.3869 C   0  0  0  0  0  0  0  0  0  0  0  0
  -50.2376   57.0469   59.9819 C   0  0  0  0  0  0  0  0  0  0  0  0
  -48.9317   56.2378   59.9842 C   0  0  0  0  0  0  0  0  0  0  0  0
  -47.7725   56.8425   59.1853 C   0  0  0  0  0  0  0  0  0  0  0  0
  -48.0692   58.2441   58.5960 C   0  0  0  0  0  0  0  0  0  0  0  0
  -47.4558   58.4074   57.1905 C   0  0  0  0  0  0  0  0  0  0  0  0
  -47.9297   57.4356   56.1030 C   0  0  0  0  0  0  0  0  0  0  0  0
 46 47  1  0  0  0
 46 48  1  0  0  0
 46 45  1  0  0  0
 47 49  2  0  0  0
 47 51  1  0  0  0
 19 20  2  0  0  0
 37 38  1  0  0  0
 37 39  1  0  0  0
 37 40  1  0  0  0
 37 41  1  0  0  0
 48 50  1  0  0  0
 38 29  1  0  0  0
 45 44  1  0  0  0
 25 27  1  0  0  0
 25 35  1  0  0  0
 25 28  1  0  0  0
 21 20  1  0  0  0
 21 22  1  0  0  0
 44 42  1  0  0  0
  2  1  1  0  0  0
  2  4  1  0  0  0
  2  5  1  0  0  0
 26 27  2  0  0  0
 42 43  2  0  0  0
 29 31  1  0  0  0
 29 36  1  0  0  0
  3  4  2  0  0  0
 43  1  1  0  0  0
  6  9  2  0  0  0
  6 10  1  0  0  0
  1 20  1  0  0  0
 30 36  2  0  0  0
  7  8  1  0  0  0
  7  9  1  0  0  0
 22 24  1  0  0  0
 22 23  1  0  0  0
 11 12  1  0  0  0
 11 18  1  0  0  0
 24 27  1  0  0  0
  4 10  1  0  0  0
 51 52  1  0  0  0
 52 53  1  0  0  0
 53 54  1  0  0  0
 54 55  1  0  0  0
 55 56  1  0  0  0
 56 57  1  0  0  0
 57 58  1  0  0  0
 58 59  1  0  0  0
 59 60  1  0  0  0
 60 61  1  0  0  0
 61 62  1  0  0  0
 62 63  1  0  0  0
 63 64  1  0  0  0
 64 65  1  0  0  0
 31 32  1  0  0  0
 32 33  1  0  0  0
 33 34  1  0  0  0
 34 35  1  0  0  0
 35 36  1  0  0  0
  8 10  1  0  0  0
  9 17  1  0  0  0
 12 13  2  0  0  0
 12 17  1  0  0  0
 13 14  1  0  0  0
 14 15  2  0  0  0
 15 16  1  0  0  0
 16 17  2  0  0  0
M  END
> <minimizedAffinity>
-10.25858

> <CNNscore>
0.1591111571

> <CNNaffinity>
7.5123915672

> <CNN_VS>
1.1953053474

> <CNNaffinity_variance>
0.6882507801

$$$$
/media/chris/experiments/cd1a-new-docking/inputs/ligands/1xz0_ligand.pdb


 65 67  0  0  0  0  0  0  0  0999 V2000
  -38.6141   59.4337   65.3991 C   0  0  0  0  0  0  0  0  0  0  0  0
  -37.9801   60.5064   64.6300 N   0  0  0  0  0  0  0  0  0  0  0  0
  -36.3259   61.2227   66.0169 O   0  0  0  0  0  0  0  0  0  0  0  0
  -36.9391   61.2905   64.9597 C   0  0  0  0  0  0  0  0  0  0  0  0
  -38.3728   60.6781   63.7437 H   0  0  0  0  0  0  0  0  0  0  0  0
  -35.4154   62.0522   63.1491 N   0  0  0  0  0  0  0  0  0  0  0  0
  -34.8293   64.0415   63.9805 O   0  0  0  0  0  0  0  0  0  0  0  0
  -36.1040   63.7850   64.5684 C   0  0  0  0  0  0  0  0  0  0  0  0
  -34.4932   62.9165   63.1441 C   0  0  0  0  0  0  0  0  0  0  0  0
  -36.5635   62.4126   64.0028 C   0  0  0  0  0  0  0  0  0  0  0  0
  -32.8758   60.5282   62.8673 O   0  0  0  0  0  0  0  0  0  0  0  0
  -32.5002   61.6399   62.2232 C   0  0  0  0  0  0  0  0  0  0  0  0
  -31.3512   61.6215   61.4218 C   0  0  0  0  0  0  0  0  0  0  0  0
  -30.9307   62.7776   60.7430 C   0  0  0  0  0  0  0  0  0  0  0  0
  -31.6604   63.9630   60.8500 C   0  0  0  0  0  0  0  0  0  0  0  0
  -32.8109   63.9847   61.6432 C   0  0  0  0  0  0  0  0  0  0  0  0
  -33.2298   62.8301   62.3317 C   0  0  0  0  0  0  0  0  0  0  0  0
  -32.3718   59.7431   62.7798 H   0  0  0  0  0  0  0  0  0  0  0  0
  -37.2962   57.4716   65.7848 O   0  0  0  0  0  0  0  0  0  0  0  0
  -37.9247   58.1470   64.9866 C   0  0  0  0  0  0  0  0  0  0  0  0
  -37.9480   57.7245   63.5823 O   0  0  0  0  0  0  0  0  0  0  0  0
  -36.7313   57.5520   62.8315 C   0  0  0  0  0  0  0  0  0  0  0  0
  -35.5193   57.1672   63.6708 C   0  0  0  0  0  0  0  0  0  0  0  0
  -36.4703   58.8262   62.0424 C   0  0  0  0  0  0  0  0  0  0  0  0
  -38.4914   58.3911   60.7301 N   0  0  0  0  0  0  0  0  0  0  0  0
  -37.8791   60.4996   61.2731 O   0  0  0  0  0  0  0  0  0  0  0  0
  -37.6773   59.3068   61.2751 C   0  0  0  0  0  0  0  0  0  0  0  0
  -38.2236   57.4458   60.7924 H   0  0  0  0  0  0  0  0  0  0  0  0
  -41.3797   58.7870   61.8947 N   0  0  0  0  0  0  0  0  0  0  0  0
  -41.0739   60.5834   60.5738 O   0  0  0  0  0  0  0  0  0  0  0  0
  -40.9269   57.5219   62.4915 C   0  0  0  0  0  0  0  0  0  0  0  0
  -41.1180   56.3546   61.5047 C   0  0  0  0  0  0  0  0  0  0  0  0
  -41.5419   56.7545   60.1010 C   0  0  0  0  0  0  0  0  0  0  0  0
  -40.4569   57.5257   59.3449 C   0  0  0  0  0  0  0  0  0  0  0  0
  -39.7534   58.6989   60.0474 C   0  0  0  0  0  0  0  0  0  0  0  0
  -40.7854   59.4346   60.8796 C   0  0  0  0  0  0  0  0  0  0  0  0
  -43.1852   60.8435   61.7080 Si  0  0  0  0  0  0  0  0  0  0  0  0
  -42.4968   59.3580   62.4258 O   0  0  0  0  0  0  0  0  0  0  0  0
  -44.3379   61.2328   62.4403 H   0  0  0  0  0  0  0  0  0  0  0  0
  -43.5448   60.5938   60.3571 H   0  0  0  0  0  0  0  0  0  0  0  0
  -42.2200   61.8838   61.7563 H   0  0  0  0  0  0  0  0  0  0  0  0
  -40.9259   60.2520   66.3371 C   0  0  0  0  0  0  0  0  0  0  0  0
  -40.1593   59.3485   65.3635 C   0  0  0  0  0  0  0  0  0  0  0  0
  -42.3902   59.8790   66.6247 C   0  0  0  0  0  0  0  0  0  0  0  0
  -43.1871   59.1997   65.4921 C   0  0  0  0  0  0  0  0  0  0  0  0
  -44.0126   58.1410   66.0815 N   0  0  0  0  0  0  0  0  0  0  0  0
  -45.3452   58.1437   66.3494 C   0  0  0  0  0  0  0  0  0  0  0  0
  -43.3002   56.9766   66.4017 O   0  0  0  0  0  0  0  0  0  0  0  0
  -45.8961   57.1639   66.8509 O   0  0  0  0  0  0  0  0  0  0  0  0
  -43.9054   56.3226   66.7851 H   0  0  0  0  0  0  0  0  0  0  0  0
  -46.1672   59.3917   66.0111 C   0  0  0  0  0  0  0  0  0  0  0  0
  -47.3003   59.1528   65.0039 C   0  0  0  0  0  0  0  0  0  0  0  0
  -48.6136   58.8449   65.7488 C   0  0  0  0  0  0  0  0  0  0  0  0
  -49.5701   60.0496   65.8324 C   0  0  0  0  0  0  0  0  0  0  0  0
  -50.8491   59.9129   64.9852 C   0  0  0  0  0  0  0  0  0  0  0  0
  -50.8675   60.8620   63.7688 C   0  0  0  0  0  0  0  0  0  0  0  0
  -50.6970   60.1577   62.4026 C   0  0  0  0  0  0  0  0  0  0  0  0
  -51.1778   58.7019   62.4026 C   0  0  0  0  0  0  0  0  0  0  0  0
  -50.0686   57.6453   62.3883 C   0  0  0  0  0  0  0  0  0  0  0  0
  -49.8162   57.1160   60.9648 C   0  0  0  0  0  0  0  0  0  0  0  0
  -48.8487   57.9801   60.1417 C   0  0  0  0  0  0  0  0  0  0  0  0
  -48.9955   57.8782   58.6199 C   0  0  0  0  0  0  0  0  0  0  0  0
  -47.7870   58.4339   57.8258 C   0  0  0  0  0  0  0  0  0  0  0  0
  -47.4248   57.5214   56.6364 C   0  0  0  0  0  0  0  0  0  0  0  0
  -47.7109   56.0230   56.7916 C   0  0  0  0  0  0  0  0  0  0  0  0
 46 47  1  0  0  0
 46 48  1  0  0  0
 46 45  1  0  0  0
 47 49  2  0  0  0
 47 51  1  0  0  0
 19 20  2  0  0  0
 37 38  1  0  0  0
 37 39  1  0  0  0
 37 40  1  0  0  0
 37 41  1  0  0  0
 48 50  1  0  0  0
 38 29  1  0  0  0
 45 44  1  0  0  0
 25 27  1  0  0  0
 25 35  1  0  0  0
 25 28  1  0  0  0
 21 20  1  0  0  0
 21 22  1  0  0  0
 44 42  1  0  0  0
  2  1  1  0  0  0
  2  4  1  0  0  0
  2  5  1  0  0  0
 26 27  2  0  0  0
 42 43  2  0  0  0
 29 31  1  0  0  0
 29 36  1  0  0  0
  3  4  2  0  0  0
 43  1  1  0  0  0
  6  9  2  0  0  0
  6 10  1  0  0  0
  1 20  1  0  0  0
 30 36  2  0  0  0
  7  8  1  0  0  0
  7  9  1  0  0  0
 22 24  1  0  0  0
 22 23  1  0  0  0
 11 12  1  0  0  0
 11 18  1  0  0  0
 24 27  1  0  0  0
  4 10  1  0  0  0
 51 52  1  0  0  0
 52 53  1  0  0  0
 53 54  1  0  0  0
 54 55  1  0  0  0
 55 56  1  0  0  0
 56 57  1  0  0  0
 57 58  1  0  0  0
 58 59  1  0  0  0
 59 60  1  0  0  0
 60 61  1  0  0  0
 61 62  1  0  0  0
 62 63  1  0  0  0
 63 64  1  0  0  0
 64 65  1  0  0  0
 31 32  1  0  0  0
 32 33  1  0  0  0
 33 34  1  0  0  0
 34 35  1  0  0  0
 35 36  1  0  0  0
  8 10  1  0  0  0
  9 17  1  0  0  0
 12 13  2  0  0  0
 12 17  1  0  0  0
 13 14  1  0  0  0
 14 15  2  0  0  0
 15 16  1  0  0  0
 16 17  2  0  0  0
M  END
> <minimizedAffinity>
-10.26394

> <CNNscore>
0.1516807973

> <CNNaffinity>
7.3519630432

> <CNN_VS>
1.1151516438

> <CNNaffinity_variance>
1.3277362585

$$$$
/media/chris/experiments/cd1a-new-docking/inputs/ligands/1xz0_ligand.pdb


 65 67  0  0  0  0  0  0  0  0999 V2000
  -42.8253   59.2663   64.7583 C   0  0  0  0  0  0  0  0  0  0  0  0
  -44.1417   59.0273   65.3533 N   0  0  0  0  0  0  0  0  0  0  0  0
  -43.8906   57.0017   66.3566 O   0  0  0  0  0  0  0  0  0  0  0  0
  -44.5736   57.9768   66.0725 C   0  0  0  0  0  0  0  0  0  0  0  0
  -44.8064   59.7384   65.2051 H   0  0  0  0  0  0  0  0  0  0  0  0
  -46.9348   58.1217   65.3083 N   0  0  0  0  0  0  0  0  0  0  0  0
  -47.7005   59.6217   66.7766 O   0  0  0  0  0  0  0  0  0  0  0  0
  -46.5995   59.0124   67.4497 C   0  0  0  0  0  0  0  0  0  0  0  0
  -47.8106   59.0183   65.4721 C   0  0  0  0  0  0  0  0  0  0  0  0
  -46.0424   57.9431   66.4695 C   0  0  0  0  0  0  0  0  0  0  0  0
  -50.6599   58.8678   65.9772 O   0  0  0  0  0  0  0  0  0  0  0  0
  -50.2385   59.3033   64.7837 C   0  0  0  0  0  0  0  0  0  0  0  0
  -51.1759   59.6898   63.8169 C   0  0  0  0  0  0  0  0  0  0  0  0
  -50.7593   60.1415   62.5533 C   0  0  0  0  0  0  0  0  0  0  0  0
  -49.3999   60.2213   62.2457 C   0  0  0  0  0  0  0  0  0  0  0  0
  -48.4607   59.8429   63.2091 C   0  0  0  0  0  0  0  0  0  0  0  0
  -48.8754   59.3814   64.4731 C   0  0  0  0  0  0  0  0  0  0  0  0
  -51.5774   58.8239   66.1628 H   0  0  0  0  0  0  0  0  0  0  0  0
  -43.6217   58.5029   62.6327 O   0  0  0  0  0  0  0  0  0  0  0  0
  -42.7661   58.4233   63.4987 C   0  0  0  0  0  0  0  0  0  0  0  0
  -41.6962   57.4341   63.3323 O   0  0  0  0  0  0  0  0  0  0  0  0
  -41.9717   56.0208   63.3592 C   0  0  0  0  0  0  0  0  0  0  0  0
  -41.6639   55.3416   64.6879 C   0  0  0  0  0  0  0  0  0  0  0  0
  -41.2120   55.3626   62.2173 C   0  0  0  0  0  0  0  0  0  0  0  0
  -40.1843   57.1984   60.9644 N   0  0  0  0  0  0  0  0  0  0  0  0
  -41.8373   55.9460   60.0620 O   0  0  0  0  0  0  0  0  0  0  0  0
  -41.1152   56.2334   60.9890 C   0  0  0  0  0  0  0  0  0  0  0  0
  -39.6539   57.3435   61.7810 H   0  0  0  0  0  0  0  0  0  0  0  0
  -38.7261   59.9738   60.8049 N   0  0  0  0  0  0  0  0  0  0  0  0
  -37.7197   58.7376   59.2161 O   0  0  0  0  0  0  0  0  0  0  0  0
  -39.7161   60.1544   61.8769 C   0  0  0  0  0  0  0  0  0  0  0  0
  -41.1048   60.4686   61.2890 C   0  0  0  0  0  0  0  0  0  0  0  0
  -41.2121   60.3473   59.7778 C   0  0  0  0  0  0  0  0  0  0  0  0
  -41.0675   58.9064   59.2811 C   0  0  0  0  0  0  0  0  0  0  0  0
  -39.9006   58.0535   59.8060 C   0  0  0  0  0  0  0  0  0  0  0  0
  -38.6852   58.9505   59.9366 C   0  0  0  0  0  0  0  0  0  0  0  0
  -37.4524   62.0762   62.0221 Si  0  0  0  0  0  0  0  0  0  0  0  0
  -37.7580   60.9254   60.6887 O   0  0  0  0  0  0  0  0  0  0  0  0
  -36.4022   62.9585   61.6545 H   0  0  0  0  0  0  0  0  0  0  0  0
  -37.0811   61.3594   63.1903 H   0  0  0  0  0  0  0  0  0  0  0  0
  -38.6309   62.8249   62.2807 H   0  0  0  0  0  0  0  0  0  0  0  0
  -40.2786   59.7359   65.1918 C   0  0  0  0  0  0  0  0  0  0  0  0
  -41.5885   59.1006   65.6743 C   0  0  0  0  0  0  0  0  0  0  0  0
  -38.9797   59.2267   65.8394 C   0  0  0  0  0  0  0  0  0  0  0  0
  -37.8515   60.2523   66.0731 C   0  0  0  0  0  0  0  0  0  0  0  0
  -37.2677   60.5980   64.7733 N   0  0  0  0  0  0  0  0  0  0  0  0
  -36.2826   59.9660   64.0820 C   0  0  0  0  0  0  0  0  0  0  0  0
  -37.8240   61.7436   64.1869 O   0  0  0  0  0  0  0  0  0  0  0  0
  -35.9006   60.3860   62.9900 O   0  0  0  0  0  0  0  0  0  0  0  0
  -37.3930   61.9121   63.3344 H   0  0  0  0  0  0  0  0  0  0  0  0
  -35.6482   58.7058   64.6797 C   0  0  0  0  0  0  0  0  0  0  0  0
  -35.4867   57.5445   63.6894 C   0  0  0  0  0  0  0  0  0  0  0  0
  -34.0461   57.5120   63.1433 C   0  0  0  0  0  0  0  0  0  0  0  0
  -33.0472   58.3175   63.9955 C   0  0  0  0  0  0  0  0  0  0  0  0
  -31.9825   59.0806   63.1853 C   0  0  0  0  0  0  0  0  0  0  0  0
  -32.4909   60.4370   62.6536 C   0  0  0  0  0  0  0  0  0  0  0  0
  -31.5038   61.1691   61.7150 C   0  0  0  0  0  0  0  0  0  0  0  0
  -31.3643   62.6644   62.0231 C   0  0  0  0  0  0  0  0  0  0  0  0
  -32.2631   63.5905   61.1975 C   0  0  0  0  0  0  0  0  0  0  0  0
  -33.1779   64.4367   62.1015 C   0  0  0  0  0  0  0  0  0  0  0  0
  -34.5254   63.7715   62.4209 C   0  0  0  0  0  0  0  0  0  0  0  0
  -34.8600   63.6267   63.9092 C   0  0  0  0  0  0  0  0  0  0  0  0
  -33.7178   64.0577   64.8627 C   0  0  0  0  0  0  0  0  0  0  0  0
  -32.9514   62.8381   65.4137 C   0  0  0  0  0  0  0  0  0  0  0  0
  -33.7733   61.7616   66.1327 C   0  0  0  0  0  0  0  0  0  0  0  0
 46 47  1  0  0  0
 46 48  1  0  0  0
 46 45  1  0  0  0
 47 49  2  0  0  0
 47 51  1  0  0  0
 19 20  2  0  0  0
 37 38  1  0  0  0
 37 39  1  0  0  0
 37 40  1  0  0  0
 37 41  1  0  0  0
 48 50  1  0  0  0
 38 29  1  0  0  0
 45 44  1  0  0  0
 25 27  1  0  0  0
 25 35  1  0  0  0
 25 28  1  0  0  0
 21 20  1  0  0  0
 21 22  1  0  0  0
 44 42  1  0  0  0
  2  1  1  0  0  0
  2  4  1  0  0  0
  2  5  1  0  0  0
 26 27  2  0  0  0
 42 43  2  0  0  0
 29 31  1  0  0  0
 29 36  1  0  0  0
  3  4  2  0  0  0
 43  1  1  0  0  0
  6  9  2  0  0  0
  6 10  1  0  0  0
  1 20  1  0  0  0
 30 36  2  0  0  0
  7  8  1  0  0  0
  7  9  1  0  0  0
 22 24  1  0  0  0
 22 23  1  0  0  0
 11 12  1  0  0  0
 11 18  1  0  0  0
 24 27  1  0  0  0
  4 10  1  0  0  0
 51 52  1  0  0  0
 52 53  1  0  0  0
 53 54  1  0  0  0
 54 55  1  0  0  0
 55 56  1  0  0  0
 56 57  1  0  0  0
 57 58  1  0  0  0
 58 59  1  0  0  0
 59 60  1  0  0  0
 60 61  1  0  0  0
 61 62  1  0  0  0
 62 63  1  0  0  0
 63 64  1  0  0  0
 64 65  1  0  0  0
 31 32  1  0  0  0
 32 33  1  0  0  0
 33 34  1  0  0  0
 34 35  1  0  0  0
 35 36  1  0  0  0
  8 10  1  0  0  0
  9 17  1  0  0  0
 12 13  2  0  0  0
 12 17  1  0  0  0
 13 14  1  0  0  0
 14 15  2  0  0  0
 15 16  1  0  0  0
 16 17  2  0  0  0
M  END
> <minimizedAffinity>
-9.06946

> <CNNscore>
0.1514120847

> <CNNaffinity>
7.5828642845

> <CNN_VS>
1.1481373310

> <CNNaffinity_variance>
1.8049390316

$$$$
/media/chris/experiments/cd1a-new-docking/inputs/ligands/1xz0_ligand.pdb


 65 67  0  0  0  0  0  0  0  0999 V2000
  -41.9197   59.1261   64.9640 C   0  0  0  0  0  0  0  0  0  0  0  0
  -40.5987   59.2168   65.5892 N   0  0  0  0  0  0  0  0  0  0  0  0
  -39.5284   60.7585   64.3046 O   0  0  0  0  0  0  0  0  0  0  0  0
  -39.5448   59.9781   65.2474 C   0  0  0  0  0  0  0  0  0  0  0  0
  -40.4628   58.6365   66.3729 H   0  0  0  0  0  0  0  0  0  0  0  0
  -37.4739   61.0312   66.1319 N   0  0  0  0  0  0  0  0  0  0  0  0
  -35.9671   59.5719   65.3625 O   0  0  0  0  0  0  0  0  0  0  0  0
  -37.1671   58.8063   65.4634 C   0  0  0  0  0  0  0  0  0  0  0  0
  -36.2654   60.9193   65.7788 C   0  0  0  0  0  0  0  0  0  0  0  0
  -38.2458   59.7794   66.0149 C   0  0  0  0  0  0  0  0  0  0  0  0
  -36.8905   63.7345   66.0634 O   0  0  0  0  0  0  0  0  0  0  0  0
  -35.6066   63.3629   65.9914 C   0  0  0  0  0  0  0  0  0  0  0  0
  -34.5991   64.3332   66.0710 C   0  0  0  0  0  0  0  0  0  0  0  0
  -33.2443   63.9698   65.9886 C   0  0  0  0  0  0  0  0  0  0  0  0
  -32.8813   62.6305   65.8357 C   0  0  0  0  0  0  0  0  0  0  0  0
  -33.8825   61.6581   65.7621 C   0  0  0  0  0  0  0  0  0  0  0  0
  -35.2413   62.0201   65.8355 C   0  0  0  0  0  0  0  0  0  0  0  0
  -37.1113   64.6392   66.1677 H   0  0  0  0  0  0  0  0  0  0  0  0
  -42.9231   59.8107   67.0281 O   0  0  0  0  0  0  0  0  0  0  0  0
  -42.9227   59.0220   66.0972 C   0  0  0  0  0  0  0  0  0  0  0  0
  -43.8801   57.9113   66.1245 O   0  0  0  0  0  0  0  0  0  0  0  0
  -45.1919   58.0385   65.5439 C   0  0  0  0  0  0  0  0  0  0  0  0
  -45.5213   59.4324   65.0245 C   0  0  0  0  0  0  0  0  0  0  0  0
  -46.2167   57.5785   66.5698 C   0  0  0  0  0  0  0  0  0  0  0  0
  -48.2958   58.2312   65.4530 N   0  0  0  0  0  0  0  0  0  0  0  0
  -47.8350   56.0614   65.8945 O   0  0  0  0  0  0  0  0  0  0  0  0
  -47.5540   57.2362   65.9607 C   0  0  0  0  0  0  0  0  0  0  0  0
  -47.9666   59.1519   65.5676 H   0  0  0  0  0  0  0  0  0  0  0  0
  -49.2683   59.4111   62.7113 N   0  0  0  0  0  0  0  0  0  0  0  0
  -49.6873   57.2069   62.5351 O   0  0  0  0  0  0  0  0  0  0  0  0
  -48.7775   60.5848   63.4484 C   0  0  0  0  0  0  0  0  0  0  0  0
  -49.8459   61.0956   64.4335 C   0  0  0  0  0  0  0  0  0  0  0  0
  -51.0716   60.2087   64.5786 C   0  0  0  0  0  0  0  0  0  0  0  0
  -50.7627   58.8647   65.2435 C   0  0  0  0  0  0  0  0  0  0  0  0
  -49.5640   58.0445   64.7386 C   0  0  0  0  0  0  0  0  0  0  0  0
  -49.4944   58.1940   63.2314 C   0  0  0  0  0  0  0  0  0  0  0  0
  -50.6356   58.4821   60.5224 Si  0  0  0  0  0  0  0  0  0  0  0  0
  -49.5058   59.5706   61.3792 O   0  0  0  0  0  0  0  0  0  0  0  0
  -50.7072   58.8559   59.1543 H   0  0  0  0  0  0  0  0  0  0  0  0
  -51.9252   58.5820   61.1083 H   0  0  0  0  0  0  0  0  0  0  0  0
  -50.1721   57.1437   60.6238 H   0  0  0  0  0  0  0  0  0  0  0  0
  -41.2935   56.7678   63.9943 C   0  0  0  0  0  0  0  0  0  0  0  0
  -42.1150   58.0561   63.8626 C   0  0  0  0  0  0  0  0  0  0  0  0
  -41.1398   55.9092   62.7274 C   0  0  0  0  0  0  0  0  0  0  0  0
  -40.1055   56.3672   61.6786 C   0  0  0  0  0  0  0  0  0  0  0  0
  -40.8153   57.0871   60.6166 N   0  0  0  0  0  0  0  0  0  0  0  0
  -40.3147   57.9125   59.6597 C   0  0  0  0  0  0  0  0  0  0  0  0
  -42.2010   56.8737   60.6132 O   0  0  0  0  0  0  0  0  0  0  0  0
  -41.0507   58.4458   58.8298 O   0  0  0  0  0  0  0  0  0  0  0  0
  -42.6038   57.3774   59.8887 H   0  0  0  0  0  0  0  0  0  0  0  0
  -38.8050   58.1715   59.6193 C   0  0  0  0  0  0  0  0  0  0  0  0
  -38.3880   59.5739   60.0828 C   0  0  0  0  0  0  0  0  0  0  0  0
  -37.9411   59.5323   61.5569 C   0  0  0  0  0  0  0  0  0  0  0  0
  -37.0433   58.3266   61.8934 C   0  0  0  0  0  0  0  0  0  0  0  0
  -35.5907   58.6897   62.2545 C   0  0  0  0  0  0  0  0  0  0  0  0
  -34.8248   57.5209   62.9090 C   0  0  0  0  0  0  0  0  0  0  0  0
  -33.2850   57.6528   62.8556 C   0  0  0  0  0  0  0  0  0  0  0  0
  -32.7784   59.0470   63.2431 C   0  0  0  0  0  0  0  0  0  0  0  0
  -32.1001   59.8342   62.1173 C   0  0  0  0  0  0  0  0  0  0  0  0
  -31.0362   60.8000   62.6701 C   0  0  0  0  0  0  0  0  0  0  0  0
  -31.3987   62.2842   62.5086 C   0  0  0  0  0  0  0  0  0  0  0  0
  -32.8627   62.5783   62.1651 C   0  0  0  0  0  0  0  0  0  0  0  0
  -33.2521   64.0740   62.2684 C   0  0  0  0  0  0  0  0  0  0  0  0
  -34.6142   64.3507   61.6001 C   0  0  0  0  0  0  0  0  0  0  0  0
  -35.8087   64.6081   62.5265 C   0  0  0  0  0  0  0  0  0  0  0  0
 46 47  1  0  0  0
 46 48  1  0  0  0
 46 45  1  0  0  0
 47 49  2  0  0  0
 47 51  1  0  0  0
 19 20  2  0  0  0
 37 38  1  0  0  0
 37 39  1  0  0  0
 37 40  1  0  0  0
 37 41  1  0  0  0
 48 50  1  0  0  0
 38 29  1  0  0  0
 45 44  1  0  0  0
 25 27  1  0  0  0
 25 35  1  0  0  0
 25 28  1  0  0  0
 21 20  1  0  0  0
 21 22  1  0  0  0
 44 42  1  0  0  0
  2  1  1  0  0  0
  2  4  1  0  0  0
  2  5  1  0  0  0
 26 27  2  0  0  0
 42 43  2  0  0  0
 29 31  1  0  0  0
 29 36  1  0  0  0
  3  4  2  0  0  0
 43  1  1  0  0  0
  6  9  2  0  0  0
  6 10  1  0  0  0
  1 20  1  0  0  0
 30 36  2  0  0  0
  7  8  1  0  0  0
  7  9  1  0  0  0
 22 24  1  0  0  0
 22 23  1  0  0  0
 11 12  1  0  0  0
 11 18  1  0  0  0
 24 27  1  0  0  0
  4 10  1  0  0  0
 51 52  1  0  0  0
 52 53  1  0  0  0
 53 54  1  0  0  0
 54 55  1  0  0  0
 55 56  1  0  0  0
 56 57  1  0  0  0
 57 58  1  0  0  0
 58 59  1  0  0  0
 59 60  1  0  0  0
 60 61  1  0  0  0
 61 62  1  0  0  0
 62 63  1  0  0  0
 63 64  1  0  0  0
 64 65  1  0  0  0
 31 32  1  0  0  0
 32 33  1  0  0  0
 33 34  1  0  0  0
 34 35  1  0  0  0
 35 36  1  0  0  0
  8 10  1  0  0  0
  9 17  1  0  0  0
 12 13  2  0  0  0
 12 17  1  0  0  0
 13 14  1  0  0  0
 14 15  2  0  0  0
 15 16  1  0  0  0
 16 17  2  0  0  0
M  END
> <minimizedAffinity>
-9.02617

> <CNNscore>
0.1487626880

> <CNNaffinity>
7.4054656029

> <CNN_VS>
1.1016569138

> <CNNaffinity_variance>
1.3933317661

$$$$
/media/chris/experiments/cd1a-new-docking/inputs/ligands/1xz0_ligand.pdb


 65 67  0  0  0  0  0  0  0  0999 V2000
  -42.2930   58.3092   65.7394 C   0  0  0  0  0  0  0  0  0  0  0  0
  -41.9136   57.5361   64.5552 N   0  0  0  0  0  0  0  0  0  0  0  0
  -42.4770   55.4088   65.1298 O   0  0  0  0  0  0  0  0  0  0  0  0
  -42.0195   56.2149   64.3304 C   0  0  0  0  0  0  0  0  0  0  0  0
  -41.5248   58.0592   63.8173 H   0  0  0  0  0  0  0  0  0  0  0  0
  -40.3124   56.4883   62.5440 N   0  0  0  0  0  0  0  0  0  0  0  0
  -41.6278   56.2821   60.7498 O   0  0  0  0  0  0  0  0  0  0  0  0
  -42.3217   55.5642   61.7695 C   0  0  0  0  0  0  0  0  0  0  0  0
  -40.4226   56.8200   61.3294 C   0  0  0  0  0  0  0  0  0  0  0  0
  -41.4315   55.6643   63.0392 C   0  0  0  0  0  0  0  0  0  0  0  0
  -38.1223   58.1373   62.5002 O   0  0  0  0  0  0  0  0  0  0  0  0
  -38.3085   58.2192   61.1772 C   0  0  0  0  0  0  0  0  0  0  0  0
  -37.3860   58.9207   60.3899 C   0  0  0  0  0  0  0  0  0  0  0  0
  -37.5639   59.0292   59.0004 C   0  0  0  0  0  0  0  0  0  0  0  0
  -38.6615   58.4288   58.3809 C   0  0  0  0  0  0  0  0  0  0  0  0
  -39.5812   57.7225   59.1610 C   0  0  0  0  0  0  0  0  0  0  0  0
  -39.4103   57.6195   60.5549 C   0  0  0  0  0  0  0  0  0  0  0  0
  -37.3775   58.5467   62.8947 H   0  0  0  0  0  0  0  0  0  0  0  0
  -43.9448   59.3712   64.3684 O   0  0  0  0  0  0  0  0  0  0  0  0
  -43.6668   58.8845   65.4521 C   0  0  0  0  0  0  0  0  0  0  0  0
  -44.6774   58.9256   66.5142 O   0  0  0  0  0  0  0  0  0  0  0  0
  -46.0825   58.8226   66.2159 C   0  0  0  0  0  0  0  0  0  0  0  0
  -47.0017   59.3528   67.3092 C   0  0  0  0  0  0  0  0  0  0  0  0
  -46.3981   57.3706   65.8897 C   0  0  0  0  0  0  0  0  0  0  0  0
  -48.3146   57.9239   64.4695 N   0  0  0  0  0  0  0  0  0  0  0  0
  -48.4205   56.2395   65.9752 O   0  0  0  0  0  0  0  0  0  0  0  0
  -47.8273   57.1568   65.4556 C   0  0  0  0  0  0  0  0  0  0  0  0
  -47.7396   58.6440   64.1231 H   0  0  0  0  0  0  0  0  0  0  0  0
  -49.5456   59.2346   61.8962 N   0  0  0  0  0  0  0  0  0  0  0  0
  -49.9765   57.0395   61.6490 O   0  0  0  0  0  0  0  0  0  0  0  0
  -48.9883   60.3726   62.6420 C   0  0  0  0  0  0  0  0  0  0  0  0
  -49.9586   60.8265   63.7490 C   0  0  0  0  0  0  0  0  0  0  0  0
  -51.1637   59.9259   63.9647 C   0  0  0  0  0  0  0  0  0  0  0  0
  -50.7911   58.5520   64.5281 C   0  0  0  0  0  0  0  0  0  0  0  0
  -49.6449   57.7657   63.8705 C   0  0  0  0  0  0  0  0  0  0  0  0
  -49.7194   57.9914   62.3730 C   0  0  0  0  0  0  0  0  0  0  0  0
  -50.8954   58.2611   59.7158 Si  0  0  0  0  0  0  0  0  0  0  0  0
  -49.9091   59.4596   60.6027 O   0  0  0  0  0  0  0  0  0  0  0  0
  -51.1360   58.7290   58.3969 H   0  0  0  0  0  0  0  0  0  0  0  0
  -52.1336   58.0778   60.3863 H   0  0  0  0  0  0  0  0  0  0  0  0
  -50.2000   57.0242   59.6598 H   0  0  0  0  0  0  0  0  0  0  0  0
  -40.0361   59.6074   65.4002 C   0  0  0  0  0  0  0  0  0  0  0  0
  -41.2793   59.3558   66.2622 C   0  0  0  0  0  0  0  0  0  0  0  0
  -38.8403   60.2883   66.0874 C   0  0  0  0  0  0  0  0  0  0  0  0
  -37.4348   59.7252   65.7925 C   0  0  0  0  0  0  0  0  0  0  0  0
  -36.8572   60.4885   64.6819 N   0  0  0  0  0  0  0  0  0  0  0  0
  -35.7346   60.2324   63.9596 C   0  0  0  0  0  0  0  0  0  0  0  0
  -37.5871   61.6358   64.3403 O   0  0  0  0  0  0  0  0  0  0  0  0
  -35.3800   60.9786   63.0473 O   0  0  0  0  0  0  0  0  0  0  0  0
  -37.1501   62.0892   63.6026 H   0  0  0  0  0  0  0  0  0  0  0  0
  -34.9070   58.9864   64.2919 C   0  0  0  0  0  0  0  0  0  0  0  0
  -34.7416   58.0033   63.1250 C   0  0  0  0  0  0  0  0  0  0  0  0
  -33.3324   58.1378   62.5163 C   0  0  0  0  0  0  0  0  0  0  0  0
  -32.3214   58.8268   63.4524 C   0  0  0  0  0  0  0  0  0  0  0  0
  -31.1081   59.4509   62.7380 C   0  0  0  0  0  0  0  0  0  0  0  0
  -31.4156   60.8365   62.1323 C   0  0  0  0  0  0  0  0  0  0  0  0
  -32.0220   61.8520   63.1286 C   0  0  0  0  0  0  0  0  0  0  0  0
  -32.0031   63.2963   62.6146 C   0  0  0  0  0  0  0  0  0  0  0  0
  -33.3638   63.8596   62.1925 C   0  0  0  0  0  0  0  0  0  0  0  0
  -34.1190   64.4605   63.3922 C   0  0  0  0  0  0  0  0  0  0  0  0
  -33.2457   65.3391   64.3008 C   0  0  0  0  0  0  0  0  0  0  0  0
  -33.3094   65.0183   65.7977 C   0  0  0  0  0  0  0  0  0  0  0  0
  -32.4559   63.7976   66.2234 C   0  0  0  0  0  0  0  0  0  0  0  0
  -33.3412   62.5880   66.5859 C   0  0  0  0  0  0  0  0  0  0  0  0
  -34.8554   62.8223   66.6463 C   0  0  0  0  0  0  0  0  0  0  0  0
 46 47  1  0  0  0
 46 48  1  0  0  0
 46 45  1  0  0  0
 47 49  2  0  0  0
 47 51  1  0  0  0
 19 20  2  0  0  0
 37 38  1  0  0  0
 37 39  1  0  0  0
 37 40  1  0  0  0
 37 41  1  0  0  0
 48 50  1  0  0  0
 38 29  1  0  0  0
 45 44  1  0  0  0
 25 27  1  0  0  0
 25 35  1  0  0  0
 25 28  1  0  0  0
 21 20  1  0  0  0
 21 22  1  0  0  0
 44 42  1  0  0  0
  2  1  1  0  0  0
  2  4  1  0  0  0
  2  5  1  0  0  0
 26 27  2  0  0  0
 42 43  2  0  0  0
 29 31  1  0  0  0
 29 36  1  0  0  0
  3  4  2  0  0  0
 43  1  1  0  0  0
  6  9  2  0  0  0
  6 10  1  0  0  0
  1 20  1  0  0  0
 30 36  2  0  0  0
  7  8  1  0  0  0
  7  9  1  0  0  0
 22 24  1  0  0  0
 22 23  1  0  0  0
 11 12  1  0  0  0
 11 18  1  0  0  0
 24 27  1  0  0  0
  4 10  1  0  0  0
 51 52  1  0  0  0
 52 53  1  0  0  0
 53 54  1  0  0  0
 54 55  1  0  0  0
 55 56  1  0  0  0
 56 57  1  0  0  0
 57 58  1  0  0  0
 58 59  1  0  0  0
 59 60  1  0  0  0
 60 61  1  0  0  0
 61 62  1  0  0  0
 62 63  1  0  0  0
 63 64  1  0  0  0
 64 65  1  0  0  0
 31 32  1  0  0  0
 32 33  1  0  0  0
 33 34  1  0  0  0
 34 35  1  0  0  0
 35 36  1  0  0  0
  8 10  1  0  0  0
  9 17  1  0  0  0
 12 13  2  0  0  0
 12 17  1  0  0  0
 13 14  1  0  0  0
 14 15  2  0  0  0
 15 16  1  0  0  0
 16 17  2  0  0  0
M  END
> <minimizedAffinity>
-8.25705

> <CNNscore>
0.1293002218

> <CNNaffinity>
7.3709564209

> <CNN_VS>
0.9530662894

> <CNNaffinity_variance>
0.4018712938

$$$$
/media/chris/experiments/cd1a-new-docking/inputs/ligands/1xz0_ligand.pdb


 65 67  0  0  0  0  0  0  0  0999 V2000
  -38.0287   58.9695   65.7575 C   0  0  0  0  0  0  0  0  0  0  0  0
  -36.9788   59.9860   65.8503 N   0  0  0  0  0  0  0  0  0  0  0  0
  -37.7757   61.6670   64.5419 O   0  0  0  0  0  0  0  0  0  0  0  0
  -36.9144   61.1993   65.2750 C   0  0  0  0  0  0  0  0  0  0  0  0
  -36.2091   59.7463   66.4156 H   0  0  0  0  0  0  0  0  0  0  0  0
  -35.5988   63.1908   64.5797 N   0  0  0  0  0  0  0  0  0  0  0  0
  -33.6291   62.2087   64.1949 O   0  0  0  0  0  0  0  0  0  0  0  0
  -34.2624   61.3499   65.1425 C   0  0  0  0  0  0  0  0  0  0  0  0
  -34.5341   63.2929   63.9062 C   0  0  0  0  0  0  0  0  0  0  0  0
  -35.6360   62.0049   65.4566 C   0  0  0  0  0  0  0  0  0  0  0  0
  -36.5054   64.8574   62.4698 O   0  0  0  0  0  0  0  0  0  0  0  0
  -35.2092   65.1529   62.3140 C   0  0  0  0  0  0  0  0  0  0  0  0
  -34.8362   66.2144   61.4793 C   0  0  0  0  0  0  0  0  0  0  0  0
  -33.4819   66.5386   61.2918 C   0  0  0  0  0  0  0  0  0  0  0  0
  -32.4855   65.8110   61.9451 C   0  0  0  0  0  0  0  0  0  0  0  0
  -32.8529   64.7551   62.7839 C   0  0  0  0  0  0  0  0  0  0  0  0
  -34.2087   64.4223   62.9668 C   0  0  0  0  0  0  0  0  0  0  0  0
  -37.1576   65.3602   62.0227 H   0  0  0  0  0  0  0  0  0  0  0  0
  -36.6516   57.0103   65.7273 O   0  0  0  0  0  0  0  0  0  0  0  0
  -37.3922   57.7558   65.1074 C   0  0  0  0  0  0  0  0  0  0  0  0
  -37.6085   57.4947   63.6805 O   0  0  0  0  0  0  0  0  0  0  0  0
  -36.5897   57.7808   62.7036 C   0  0  0  0  0  0  0  0  0  0  0  0
  -35.1673   57.5019   63.1730 C   0  0  0  0  0  0  0  0  0  0  0  0
  -36.7468   59.2264   62.2565 C   0  0  0  0  0  0  0  0  0  0  0  0
  -38.9187   58.4877   61.4001 N   0  0  0  0  0  0  0  0  0  0  0  0
  -38.1477   60.5746   60.9930 O   0  0  0  0  0  0  0  0  0  0  0  0
  -38.0057   59.4680   61.4606 C   0  0  0  0  0  0  0  0  0  0  0  0
  -38.6924   57.6252   61.8173 H   0  0  0  0  0  0  0  0  0  0  0  0
  -41.7881   57.8778   62.5179 N   0  0  0  0  0  0  0  0  0  0  0  0
  -41.9753   59.9381   61.6316 O   0  0  0  0  0  0  0  0  0  0  0  0
  -41.0171   56.6683   62.8410 C   0  0  0  0  0  0  0  0  0  0  0  0
  -40.9266   55.7367   61.6176 C   0  0  0  0  0  0  0  0  0  0  0  0
  -41.4671   56.3152   60.3203 C   0  0  0  0  0  0  0  0  0  0  0  0
  -40.6290   57.4814   59.7897 C   0  0  0  0  0  0  0  0  0  0  0  0
  -40.2314   58.6099   60.7556 C   0  0  0  0  0  0  0  0  0  0  0  0
  -41.3987   58.8608   61.6902 C   0  0  0  0  0  0  0  0  0  0  0  0
  -43.7679   56.6332   63.9515 Si  0  0  0  0  0  0  0  0  0  0  0  0
  -43.0022   58.0181   63.1199 O   0  0  0  0  0  0  0  0  0  0  0  0
  -45.0175   57.0372   64.4914 H   0  0  0  0  0  0  0  0  0  0  0  0
  -42.9222   56.1842   65.0001 H   0  0  0  0  0  0  0  0  0  0  0  0
  -43.9722   55.5779   63.0236 H   0  0  0  0  0  0  0  0  0  0  0  0
  -40.4551   59.9296   66.0492 C   0  0  0  0  0  0  0  0  0  0  0  0
  -39.3707   59.3881   65.1095 C   0  0  0  0  0  0  0  0  0  0  0  0
  -41.8976   59.9350   65.5154 C   0  0  0  0  0  0  0  0  0  0  0  0
  -43.0344   59.7172   66.5349 C   0  0  0  0  0  0  0  0  0  0  0  0
  -43.7028   58.4520   66.2152 N   0  0  0  0  0  0  0  0  0  0  0  0
  -45.0164   58.2200   65.9535 C   0  0  0  0  0  0  0  0  0  0  0  0
  -42.8411   57.3465   66.1814 O   0  0  0  0  0  0  0  0  0  0  0  0
  -45.4247   57.0872   65.6988 O   0  0  0  0  0  0  0  0  0  0  0  0
  -43.3479   56.5482   65.9652 H   0  0  0  0  0  0  0  0  0  0  0  0
  -45.9958   59.3982   65.9728 C   0  0  0  0  0  0  0  0  0  0  0  0
  -47.0992   59.2904   67.0341 C   0  0  0  0  0  0  0  0  0  0  0  0
  -48.4510   59.7278   66.4376 C   0  0  0  0  0  0  0  0  0  0  0  0
  -48.8867   58.8889   65.2213 C   0  0  0  0  0  0  0  0  0  0  0  0
  -50.4109   58.7382   65.0590 C   0  0  0  0  0  0  0  0  0  0  0  0
  -51.1500   60.0927   65.0480 C   0  0  0  0  0  0  0  0  0  0  0  0
  -50.9425   60.9265   63.7623 C   0  0  0  0  0  0  0  0  0  0  0  0
  -50.8242   60.0731   62.4942 C   0  0  0  0  0  0  0  0  0  0  0  0
  -49.4496   60.0910   61.8179 C   0  0  0  0  0  0  0  0  0  0  0  0
  -49.5792   60.1596   60.2853 C   0  0  0  0  0  0  0  0  0  0  0  0
  -49.6584   58.7844   59.6050 C   0  0  0  0  0  0  0  0  0  0  0  0
  -48.5910   57.7699   60.0284 C   0  0  0  0  0  0  0  0  0  0  0  0
  -47.7405   57.2159   58.8582 C   0  0  0  0  0  0  0  0  0  0  0  0
  -47.6769   58.2139   57.6841 C   0  0  0  0  0  0  0  0  0  0  0  0
  -47.9017   57.6519   56.2752 C   0  0  0  0  0  0  0  0  0  0  0  0
 46 47  1  0  0  0
 46 48  1  0  0  0
 46 45  1  0  0  0
 47 49  2  0  0  0
 47 51  1  0  0  0
 19 20  2  0  0  0
 37 38  1  0  0  0
 37 39  1  0  0  0
 37 40  1  0  0  0
 37 41  1  0  0  0
 48 50  1  0  0  0
 38 29  1  0  0  0
 45 44  1  0  0  0
 25 27  1  0  0  0
 25 35  1  0  0  0
 25 28  1  0  0  0
 21 20  1  0  0  0
 21 22  1  0  0  0
 44 42  1  0  0  0
  2  1  1  0  0  0
  2  4  1  0  0  0
  2  5  1  0  0  0
 26 27  2  0  0  0
 42 43  2  0  0  0
 29 31  1  0  0  0
 29 36  1  0  0  0
  3  4  2  0  0  0
 43  1  1  0  0  0
  6  9  2  0  0  0
  6 10  1  0  0  0
  1 20  1  0  0  0
 30 36  2  0  0  0
  7  8  1  0  0  0
  7  9  1  0  0  0
 22 24  1  0  0  0
 22 23  1  0  0  0
 11 12  1  0  0  0
 11 18  1  0  0  0
 24 27  1  0  0  0
  4 10  1  0  0  0
 51 52  1  0  0  0
 52 53  1  0  0  0
 53 54  1  0  0  0
 54 55  1  0  0  0
 55 56  1  0  0  0
 56 57  1  0  0  0
 57 58  1  0  0  0
 58 59  1  0  0  0
 59 60  1  0  0  0
 60 61  1  0  0  0
 61 62  1  0  0  0
 62 63  1  0  0  0
 63 64  1  0  0  0
 64 65  1  0  0  0
 31 32  1  0  0  0
 32 33  1  0  0  0
 33 34  1  0  0  0
 34 35  1  0  0  0
 35 36  1  0  0  0
  8 10  1  0  0  0
  9 17  1  0  0  0
 12 13  2  0  0  0
 12 17  1  0  0  0
 13 14  1  0  0  0
 14 15  2  0  0  0
 15 16  1  0  0  0
 16 17  2  0  0  0
M  END
> <minimizedAffinity>
-10.04974

> <CNNscore>
0.1021688879

> <CNNaffinity>
7.4032239914

> <CNN_VS>
0.7563791871

> <CNNaffinity_variance>
1.2773554325

$$$$
/media/chris/experiments/cd1a-new-docking/inputs/ligands/1xz0_ligand.pdb


 65 67  0  0  0  0  0  0  0  0999 V2000
  -37.9825   59.5423   65.4077 C   0  0  0  0  0  0  0  0  0  0  0  0
  -37.0417   60.4578   64.7589 N   0  0  0  0  0  0  0  0  0  0  0  0
  -38.3469   61.5490   63.2493 O   0  0  0  0  0  0  0  0  0  0  0  0
  -37.2614   61.3521   63.7794 C   0  0  0  0  0  0  0  0  0  0  0  0
  -36.1147   60.4117   65.0872 H   0  0  0  0  0  0  0  0  0  0  0  0
  -35.1281   62.5304   64.2703 N   0  0  0  0  0  0  0  0  0  0  0  0
  -35.4609   64.3938   63.0833 O   0  0  0  0  0  0  0  0  0  0  0  0
  -36.2736   63.4198   62.4297 C   0  0  0  0  0  0  0  0  0  0  0  0
  -34.8166   63.7535   64.2026 C   0  0  0  0  0  0  0  0  0  0  0  0
  -36.0600   62.0948   63.2127 C   0  0  0  0  0  0  0  0  0  0  0  0
  -35.2568   64.1686   67.0364 O   0  0  0  0  0  0  0  0  0  0  0  0
  -34.1171   64.6087   66.4894 C   0  0  0  0  0  0  0  0  0  0  0  0
  -33.1611   65.2413   67.2948 C   0  0  0  0  0  0  0  0  0  0  0  0
  -31.9611   65.7205   66.7430 C   0  0  0  0  0  0  0  0  0  0  0  0
  -31.6991   65.5635   65.3807 C   0  0  0  0  0  0  0  0  0  0  0  0
  -32.6468   64.9274   64.5742 C   0  0  0  0  0  0  0  0  0  0  0  0
  -33.8542   64.4541   65.1227 C   0  0  0  0  0  0  0  0  0  0  0  0
  -35.4111   64.2832   67.9536 H   0  0  0  0  0  0  0  0  0  0  0  0
  -36.9972   57.3821   65.7214 O   0  0  0  0  0  0  0  0  0  0  0  0
  -37.5869   58.1440   64.9728 C   0  0  0  0  0  0  0  0  0  0  0  0
  -37.8528   57.7043   63.5992 O   0  0  0  0  0  0  0  0  0  0  0  0
  -36.7923   57.5842   62.6323 C   0  0  0  0  0  0  0  0  0  0  0  0
  -35.4010   57.4338   63.2350 C   0  0  0  0  0  0  0  0  0  0  0  0
  -36.8587   58.7820   61.6968 C   0  0  0  0  0  0  0  0  0  0  0  0
  -39.2555   58.6737   61.2073 N   0  0  0  0  0  0  0  0  0  0  0  0
  -37.7243   58.7736   59.5457 O   0  0  0  0  0  0  0  0  0  0  0  0
  -38.0066   58.7095   60.7202 C   0  0  0  0  0  0  0  0  0  0  0  0
  -39.3643   58.6213   62.1843 H   0  0  0  0  0  0  0  0  0  0  0  0
  -41.7535   60.5685   61.3644 N   0  0  0  0  0  0  0  0  0  0  0  0
  -41.1650   60.6218   59.1927 O   0  0  0  0  0  0  0  0  0  0  0  0
  -41.5746   60.1020   62.7472 C   0  0  0  0  0  0  0  0  0  0  0  0
  -42.1976   58.7060   62.9364 C   0  0  0  0  0  0  0  0  0  0  0  0
  -42.6855   58.0353   61.6629 C   0  0  0  0  0  0  0  0  0  0  0  0
  -41.5472   57.6573   60.7114 C   0  0  0  0  0  0  0  0  0  0  0  0
  -40.4715   58.7070   60.3865 C   0  0  0  0  0  0  0  0  0  0  0  0
  -41.1514   60.0579   60.2783 C   0  0  0  0  0  0  0  0  0  0  0  0
  -42.1713   62.9274   60.0284 Si  0  0  0  0  0  0  0  0  0  0  0  0
  -42.5987   61.6191   61.1692 O   0  0  0  0  0  0  0  0  0  0  0  0
  -43.2105   63.8949   60.0069 H   0  0  0  0  0  0  0  0  0  0  0  0
  -42.0031   62.3846   58.7271 H   0  0  0  0  0  0  0  0  0  0  0  0
  -40.9608   63.5420   60.4449 H   0  0  0  0  0  0  0  0  0  0  0  0
  -40.3225   59.9403   66.5301 C   0  0  0  0  0  0  0  0  0  0  0  0
  -39.4930   59.8386   65.2442 C   0  0  0  0  0  0  0  0  0  0  0  0
  -41.8472   59.7971   66.3865 C   0  0  0  0  0  0  0  0  0  0  0  0
  -42.5386   58.6905   67.2092 C   0  0  0  0  0  0  0  0  0  0  0  0
  -43.2987   57.8396   66.2883 N   0  0  0  0  0  0  0  0  0  0  0  0
  -44.5793   57.9786   65.8540 C   0  0  0  0  0  0  0  0  0  0  0  0
  -42.5776   56.7387   65.8051 O   0  0  0  0  0  0  0  0  0  0  0  0
  -45.0776   57.1702   65.0711 O   0  0  0  0  0  0  0  0  0  0  0  0
  -43.1387   56.2229   65.2051 H   0  0  0  0  0  0  0  0  0  0  0  0
  -45.4054   59.1701   66.3497 C   0  0  0  0  0  0  0  0  0  0  0  0
  -46.7097   58.7868   67.0622 C   0  0  0  0  0  0  0  0  0  0  0  0
  -47.9148   59.4048   66.3272 C   0  0  0  0  0  0  0  0  0  0  0  0
  -48.2992   58.6548   65.0378 C   0  0  0  0  0  0  0  0  0  0  0  0
  -49.7625   58.1771   64.9857 C   0  0  0  0  0  0  0  0  0  0  0  0
  -50.7465   59.2991   64.5934 C   0  0  0  0  0  0  0  0  0  0  0  0
  -50.4076   60.0142   63.2648 C   0  0  0  0  0  0  0  0  0  0  0  0
  -50.4004   59.0766   62.0519 C   0  0  0  0  0  0  0  0  0  0  0  0
  -49.6692   59.6097   60.8157 C   0  0  0  0  0  0  0  0  0  0  0  0
  -49.7515   58.6155   59.6430 C   0  0  0  0  0  0  0  0  0  0  0  0
  -49.0506   57.2753   59.9126 C   0  0  0  0  0  0  0  0  0  0  0  0
  -47.6771   57.0986   59.2570 C   0  0  0  0  0  0  0  0  0  0  0  0
  -47.6609   56.0987   58.0740 C   0  0  0  0  0  0  0  0  0  0  0  0
  -47.3743   56.8106   56.7363 C   0  0  0  0  0  0  0  0  0  0  0  0
  -47.2713   58.3403   56.7658 C   0  0  0  0  0  0  0  0  0  0  0  0
 46 47  1  0  0  0
 46 48  1  0  0  0
 46 45  1  0  0  0
 47 49  2  0  0  0
 47 51  1  0  0  0
 19 20  2  0  0  0
 37 38  1  0  0  0
 37 39  1  0  0  0
 37 40  1  0  0  0
 37 41  1  0  0  0
 48 50  1  0  0  0
 38 29  1  0  0  0
 45 44  1  0  0  0
 25 27  1  0  0  0
 25 35  1  0  0  0
 25 28  1  0  0  0
 21 20  1  0  0  0
 21 22  1  0  0  0
 44 42  1  0  0  0
  2  1  1  0  0  0
  2  4  1  0  0  0
  2  5  1  0  0  0
 26 27  2  0  0  0
 42 43  2  0  0  0
 29 31  1  0  0  0
 29 36  1  0  0  0
  3  4  2  0  0  0
 43  1  1  0  0  0
  6  9  2  0  0  0
  6 10  1  0  0  0
  1 20  1  0  0  0
 30 36  2  0  0  0
  7  8  1  0  0  0
  7  9  1  0  0  0
 22 24  1  0  0  0
 22 23  1  0  0  0
 11 12  1  0  0  0
 11 18  1  0  0  0
 24 27  1  0  0  0
  4 10  1  0  0  0
 51 52  1  0  0  0
 52 53  1  0  0  0
 53 54  1  0  0  0
 54 55  1  0  0  0
 55 56  1  0  0  0
 56 57  1  0  0  0
 57 58  1  0  0  0
 58 59  1  0  0  0
 59 60  1  0  0  0
 60 61  1  0  0  0
 61 62  1  0  0  0
 62 63  1  0  0  0
 63 64  1  0  0  0
 64 65  1  0  0  0
 31 32  1  0  0  0
 32 33  1  0  0  0
 33 34  1  0  0  0
 34 35  1  0  0  0
 35 36  1  0  0  0
  8 10  1  0  0  0
  9 17  1  0  0  0
 12 13  2  0  0  0
 12 17  1  0  0  0
 13 14  1  0  0  0
 14 15  2  0  0  0
 15 16  1  0  0  0
 16 17  2  0  0  0
M  END
> <minimizedAffinity>
-9.47645

> <CNNscore>
0.1013358310

> <CNNaffinity>
7.2977294922

> <CNN_VS>
0.7395215034

> <CNNaffinity_variance>
1.1772960424

$$$$
