/media/chris/experiments/cd1a-new-docking/inputs/ligands/1xz0_ligand.pdb


 65 67  0  0  0  0  0  0  0  0999 V2000
  -36.5800   60.7500   63.8394 C   0  0  0  0  0  0  0  0  0  0  0  0
  -35.1419   60.5593   64.0382 N   0  0  0  0  0  0  0  0  0  0  0  0
  -33.1668   59.4366   63.9321 O   0  0  0  0  0  0  0  0  0  0  0  0
  -34.3687   59.5089   63.7123 C   0  0  0  0  0  0  0  0  0  0  0  0
  -34.6737   61.3082   64.4732 H   0  0  0  0  0  0  0  0  0  0  0  0
  -36.0629   58.8629   62.0116 N   0  0  0  0  0  0  0  0  0  0  0  0
  -37.0575   57.1889   63.1074 O   0  0  0  0  0  0  0  0  0  0  0  0
  -35.7450   57.2337   63.6658 C   0  0  0  0  0  0  0  0  0  0  0  0
  -37.1539   58.2337   62.1189 C   0  0  0  0  0  0  0  0  0  0  0  0
  -35.0050   58.3774   62.9181 C   0  0  0  0  0  0  0  0  0  0  0  0
  -37.7147   60.7076   60.7181 O   0  0  0  0  0  0  0  0  0  0  0  0
  -38.5901   59.6995   60.6227 C   0  0  0  0  0  0  0  0  0  0  0  0
  -39.7422   59.8542   59.8407 C   0  0  0  0  0  0  0  0  0  0  0  0
  -40.6811   58.8145   59.7319 C   0  0  0  0  0  0  0  0  0  0  0  0
  -40.4735   57.6044   60.3963 C   0  0  0  0  0  0  0  0  0  0  0  0
  -39.3226   57.4428   61.1727 C   0  0  0  0  0  0  0  0  0  0  0  0
  -38.3843   58.4861   61.2905 C   0  0  0  0  0  0  0  0  0  0  0  0
  -37.8735   61.5106   60.2622 H   0  0  0  0  0  0  0  0  0  0  0  0
  -36.8073   62.7217   62.4992 O   0  0  0  0  0  0  0  0  0  0  0  0
  -36.7875   62.2363   63.6183 C   0  0  0  0  0  0  0  0  0  0  0  0
  -36.9019   63.1365   64.7705 O   0  0  0  0  0  0  0  0  0  0  0  0
  -35.8849   63.1825   65.7891 C   0  0  0  0  0  0  0  0  0  0  0  0
  -36.3503   63.7554   67.1221 C   0  0  0  0  0  0  0  0  0  0  0  0
  -34.6950   63.9578   65.2439 C   0  0  0  0  0  0  0  0  0  0  0  0
  -32.3859   63.5968   64.5134 N   0  0  0  0  0  0  0  0  0  0  0  0
  -33.3637   62.2275   66.0248 O   0  0  0  0  0  0  0  0  0  0  0  0
  -33.4114   63.1651   65.2619 C   0  0  0  0  0  0  0  0  0  0  0  0
  -31.5330   63.1096   64.5811 H   0  0  0  0  0  0  0  0  0  0  0  0
  -33.3684   63.7676   61.5367 N   0  0  0  0  0  0  0  0  0  0  0  0
  -34.4410   65.4597   62.5624 O   0  0  0  0  0  0  0  0  0  0  0  0
  -32.4425   62.6255   61.5396 C   0  0  0  0  0  0  0  0  0  0  0  0
  -30.9826   63.1069   61.4414 C   0  0  0  0  0  0  0  0  0  0  0  0
  -30.7867   64.6103   61.5477 C   0  0  0  0  0  0  0  0  0  0  0  0
  -31.1225   65.1610   62.9362 C   0  0  0  0  0  0  0  0  0  0  0  0
  -32.4452   64.7441   63.6005 C   0  0  0  0  0  0  0  0  0  0  0  0
  -33.5086   64.6686   62.5224 C   0  0  0  0  0  0  0  0  0  0  0  0
  -35.8927   63.4779   60.5036 Si  0  0  0  0  0  0  0  0  0  0  0  0
  -34.1616   63.9195   60.4396 O   0  0  0  0  0  0  0  0  0  0  0  0
  -36.4922   63.7289   59.2411 H   0  0  0  0  0  0  0  0  0  0  0  0
  -36.5428   64.2543   61.4990 H   0  0  0  0  0  0  0  0  0  0  0  0
  -36.0182   62.0996   60.8214 H   0  0  0  0  0  0  0  0  0  0  0  0
  -39.0311   60.1570   64.5706 C   0  0  0  0  0  0  0  0  0  0  0  0
  -37.5327   60.1413   64.8968 C   0  0  0  0  0  0  0  0  0  0  0  0
  -40.0009   59.9709   65.7498 C   0  0  0  0  0  0  0  0  0  0  0  0
  -40.8891   58.7097   65.7485 C   0  0  0  0  0  0  0  0  0  0  0  0
  -42.2572   59.1104   66.0912 N   0  0  0  0  0  0  0  0  0  0  0  0
  -43.4338   58.6670   65.5746 C   0  0  0  0  0  0  0  0  0  0  0  0
  -42.3293   60.0871   67.0944 O   0  0  0  0  0  0  0  0  0  0  0  0
  -43.4595   57.8016   64.6998 O   0  0  0  0  0  0  0  0  0  0  0  0
  -43.2587   60.3031   67.2692 H   0  0  0  0  0  0  0  0  0  0  0  0
  -44.7448   59.2667   66.0938 C   0  0  0  0  0  0  0  0  0  0  0  0
  -46.0084   58.7047   65.4283 C   0  0  0  0  0  0  0  0  0  0  0  0
  -47.2417   58.9960   66.3049 C   0  0  0  0  0  0  0  0  0  0  0  0
  -48.5672   58.9997   65.5199 C   0  0  0  0  0  0  0  0  0  0  0  0
  -49.5952   60.0402   66.0022 C   0  0  0  0  0  0  0  0  0  0  0  0
  -50.9700   59.8873   65.3182 C   0  0  0  0  0  0  0  0  0  0  0  0
  -51.2167   60.8670   64.1474 C   0  0  0  0  0  0  0  0  0  0  0  0
  -51.5290   60.1653   62.8205 C   0  0  0  0  0  0  0  0  0  0  0  0
  -51.3468   58.6442   62.8247 C   0  0  0  0  0  0  0  0  0  0  0  0
  -50.0770   58.2291   62.0596 C   0  0  0  0  0  0  0  0  0  0  0  0
  -49.5081   59.3312   61.1530 C   0  0  0  0  0  0  0  0  0  0  0  0
  -49.0748   58.8837   59.7531 C   0  0  0  0  0  0  0  0  0  0  0  0
  -48.5477   57.4286   59.6852 C   0  0  0  0  0  0  0  0  0  0  0  0
  -47.5997   57.2265   58.4858 C   0  0  0  0  0  0  0  0  0  0  0  0
  -47.5825   58.3237   57.4146 C   0  0  0  0  0  0  0  0  0  0  0  0
 46 47  1  0  0  0
 46 48  1  0  0  0
 46 45  1  0  0  0
 47 49  2  0  0  0
 47 51  1  0  0  0
 19 20  2  0  0  0
 37 38  1  0  0  0
 37 39  1  0  0  0
 37 40  1  0  0  0
 37 41  1  0  0  0
 48 50  1  0  0  0
 38 29  1  0  0  0
 45 44  1  0  0  0
 25 27  1  0  0  0
 25 35  1  0  0  0
 25 28  1  0  0  0
 21 20  1  0  0  0
 21 22  1  0  0  0
 44 42  1  0  0  0
  2  1  1  0  0  0
  2  4  1  0  0  0
  2  5  1  0  0  0
 26 27  2  0  0  0
 42 43  2  0  0  0
 29 31  1  0  0  0
 29 36  1  0  0  0
  3  4  2  0  0  0
 43  1  1  0  0  0
  6  9  2  0  0  0
  6 10  1  0  0  0
  1 20  1  0  0  0
 30 36  2  0  0  0
  7  8  1  0  0  0
  7  9  1  0  0  0
 22 24  1  0  0  0
 22 23  1  0  0  0
 11 12  1  0  0  0
 11 18  1  0  0  0
 24 27  1  0  0  0
  4 10  1  0  0  0
 51 52  1  0  0  0
 52 53  1  0  0  0
 53 54  1  0  0  0
 54 55  1  0  0  0
 55 56  1  0  0  0
 56 57  1  0  0  0
 57 58  1  0  0  0
 58 59  1  0  0  0
 59 60  1  0  0  0
 60 61  1  0  0  0
 61 62  1  0  0  0
 62 63  1  0  0  0
 63 64  1  0  0  0
 64 65  1  0  0  0
 31 32  1  0  0  0
 32 33  1  0  0  0
 33 34  1  0  0  0
 34 35  1  0  0  0
 35 36  1  0  0  0
  8 10  1  0  0  0
  9 17  1  0  0  0
 12 13  2  0  0  0
 12 17  1  0  0  0
 13 14  1  0  0  0
 14 15  2  0  0  0
 15 16  1  0  0  0
 16 17  2  0  0  0
M  END
> <minimizedAffinity>
-9.85522

> <CNNscore>
0.3342724741

> <CNNaffinity>
7.3270254135

> <CNN_VS>
2.4492228031

> <CNNaffinity_variance>
0.3465462923

$$$$
/media/chris/experiments/cd1a-new-docking/inputs/ligands/1xz0_ligand.pdb


 65 67  0  0  0  0  0  0  0  0999 V2000
  -36.7162   61.3672   63.8923 C   0  0  0  0  0  0  0  0  0  0  0  0
  -35.6063   60.8624   64.7032 N   0  0  0  0  0  0  0  0  0  0  0  0
  -33.9300   59.4286   65.2573 O   0  0  0  0  0  0  0  0  0  0  0  0
  -34.8342   59.7789   64.5104 C   0  0  0  0  0  0  0  0  0  0  0  0
  -35.3950   61.3930   65.5051 H   0  0  0  0  0  0  0  0  0  0  0  0
  -36.2443   59.3946   62.4994 N   0  0  0  0  0  0  0  0  0  0  0  0
  -36.4148   57.1689   62.5953 O   0  0  0  0  0  0  0  0  0  0  0  0
  -35.1932   57.4500   63.2774 C   0  0  0  0  0  0  0  0  0  0  0  0
  -36.9855   58.4238   62.1742 C   0  0  0  0  0  0  0  0  0  0  0  0
  -35.0213   58.9933   63.2205 C   0  0  0  0  0  0  0  0  0  0  0  0
  -37.8465   60.8000   60.7567 O   0  0  0  0  0  0  0  0  0  0  0  0
  -38.6211   59.7091   60.7171 C   0  0  0  0  0  0  0  0  0  0  0  0
  -39.8145   59.7331   59.9836 C   0  0  0  0  0  0  0  0  0  0  0  0
  -40.6496   58.6042   59.9341 C   0  0  0  0  0  0  0  0  0  0  0  0
  -40.2957   57.4349   60.6096 C   0  0  0  0  0  0  0  0  0  0  0  0
  -39.1029   57.4038   61.3376 C   0  0  0  0  0  0  0  0  0  0  0  0
  -38.2685   58.5364   61.3961 C   0  0  0  0  0  0  0  0  0  0  0  0
  -38.1029   61.5736   60.2943 H   0  0  0  0  0  0  0  0  0  0  0  0
  -36.2866   63.6406   64.5108 O   0  0  0  0  0  0  0  0  0  0  0  0
  -36.4110   62.8262   63.6110 C   0  0  0  0  0  0  0  0  0  0  0  0
  -36.3265   63.3000   62.2256 O   0  0  0  0  0  0  0  0  0  0  0  0
  -35.8256   64.6133   61.9121 C   0  0  0  0  0  0  0  0  0  0  0  0
  -36.3423   65.1908   60.6002 C   0  0  0  0  0  0  0  0  0  0  0  0
  -34.3052   64.5631   61.9288 C   0  0  0  0  0  0  0  0  0  0  0  0
  -32.5401   65.6509   63.2314 N   0  0  0  0  0  0  0  0  0  0  0  0
  -34.2028   66.8528   62.2793 O   0  0  0  0  0  0  0  0  0  0  0  0
  -33.6773   65.7936   62.5352 C   0  0  0  0  0  0  0  0  0  0  0  0
  -32.1045   66.4669   63.5686 H   0  0  0  0  0  0  0  0  0  0  0  0
  -32.9935   63.6624   65.6180 N   0  0  0  0  0  0  0  0  0  0  0  0
  -33.1100   62.3549   63.7898 O   0  0  0  0  0  0  0  0  0  0  0  0
  -32.8112   64.9664   66.2724 C   0  0  0  0  0  0  0  0  0  0  0  0
  -31.3147   65.3088   66.3980 C   0  0  0  0  0  0  0  0  0  0  0  0
  -30.3694   64.3592   65.6808 C   0  0  0  0  0  0  0  0  0  0  0  0
  -30.4979   64.4246   64.1566 C   0  0  0  0  0  0  0  0  0  0  0  0
  -31.8992   64.3642   63.5263 C   0  0  0  0  0  0  0  0  0  0  0  0
  -32.7337   63.3861   64.3299 C   0  0  0  0  0  0  0  0  0  0  0  0
  -34.2610   62.9891   67.9553 Si  0  0  0  0  0  0  0  0  0  0  0  0
  -33.4782   62.6464   66.3851 O   0  0  0  0  0  0  0  0  0  0  0  0
  -34.6758   61.7698   68.5536 H   0  0  0  0  0  0  0  0  0  0  0  0
  -35.3912   63.8235   67.7487 H   0  0  0  0  0  0  0  0  0  0  0  0
  -33.3378   63.6460   68.8112 H   0  0  0  0  0  0  0  0  0  0  0  0
  -38.3448   59.9524   65.3890 C   0  0  0  0  0  0  0  0  0  0  0  0
  -38.1515   61.1240   64.4185 C   0  0  0  0  0  0  0  0  0  0  0  0
  -39.7805   59.4322   65.5730 C   0  0  0  0  0  0  0  0  0  0  0  0
  -40.2924   58.3839   64.5638 C   0  0  0  0  0  0  0  0  0  0  0  0
  -41.6678   58.7336   64.1952 N   0  0  0  0  0  0  0  0  0  0  0  0
  -42.6465   57.9382   63.6882 C   0  0  0  0  0  0  0  0  0  0  0  0
  -41.9880   60.0819   64.4074 O   0  0  0  0  0  0  0  0  0  0  0  0
  -42.4520   56.7402   63.4842 O   0  0  0  0  0  0  0  0  0  0  0  0
  -42.9077   60.2412   64.1434 H   0  0  0  0  0  0  0  0  0  0  0  0
  -44.0104   58.5563   63.3628 C   0  0  0  0  0  0  0  0  0  0  0  0
  -45.0370   58.4654   64.5000 C   0  0  0  0  0  0  0  0  0  0  0  0
  -46.0676   59.6041   64.3741 C   0  0  0  0  0  0  0  0  0  0  0  0
  -47.4420   59.1355   63.8597 C   0  0  0  0  0  0  0  0  0  0  0  0
  -48.6393   59.6158   64.7009 C   0  0  0  0  0  0  0  0  0  0  0  0
  -49.5132   60.6525   63.9641 C   0  0  0  0  0  0  0  0  0  0  0  0
  -51.0353   60.4016   64.0725 C   0  0  0  0  0  0  0  0  0  0  0  0
  -51.6603   59.8737   62.7760 C   0  0  0  0  0  0  0  0  0  0  0  0
  -51.3200   58.4210   62.4283 C   0  0  0  0  0  0  0  0  0  0  0  0
  -50.3552   58.3419   61.2311 C   0  0  0  0  0  0  0  0  0  0  0  0
  -49.9975   56.9075   60.8135 C   0  0  0  0  0  0  0  0  0  0  0  0
  -48.8503   56.7739   59.8065 C   0  0  0  0  0  0  0  0  0  0  0  0
  -48.8406   57.8633   58.7052 C   0  0  0  0  0  0  0  0  0  0  0  0
  -47.5144   57.8595   57.9184 C   0  0  0  0  0  0  0  0  0  0  0  0
  -47.6024   58.0353   56.3975 C   0  0  0  0  0  0  0  0  0  0  0  0
 46 47  1  0  0  0
 46 48  1  0  0  0
 46 45  1  0  0  0
 47 49  2  0  0  0
 47 51  1  0  0  0
 19 20  2  0  0  0
 37 38  1  0  0  0
 37 39  1  0  0  0
 37 40  1  0  0  0
 37 41  1  0  0  0
 48 50  1  0  0  0
 38 29  1  0  0  0
 45 44  1  0  0  0
 25 27  1  0  0  0
 25 35  1  0  0  0
 25 28  1  0  0  0
 21 20  1  0  0  0
 21 22  1  0  0  0
 44 42  1  0  0  0
  2  1  1  0  0  0
  2  4  1  0  0  0
  2  5  1  0  0  0
 26 27  2  0  0  0
 42 43  2  0  0  0
 29 31  1  0  0  0
 29 36  1  0  0  0
  3  4  2  0  0  0
 43  1  1  0  0  0
  6  9  2  0  0  0
  6 10  1  0  0  0
  1 20  1  0  0  0
 30 36  2  0  0  0
  7  8  1  0  0  0
  7  9  1  0  0  0
 22 24  1  0  0  0
 22 23  1  0  0  0
 11 12  1  0  0  0
 11 18  1  0  0  0
 24 27  1  0  0  0
  4 10  1  0  0  0
 51 52  1  0  0  0
 52 53  1  0  0  0
 53 54  1  0  0  0
 54 55  1  0  0  0
 55 56  1  0  0  0
 56 57  1  0  0  0
 57 58  1  0  0  0
 58 59  1  0  0  0
 59 60  1  0  0  0
 60 61  1  0  0  0
 61 62  1  0  0  0
 62 63  1  0  0  0
 63 64  1  0  0  0
 64 65  1  0  0  0
 31 32  1  0  0  0
 32 33  1  0  0  0
 33 34  1  0  0  0
 34 35  1  0  0  0
 35 36  1  0  0  0
  8 10  1  0  0  0
  9 17  1  0  0  0
 12 13  2  0  0  0
 12 17  1  0  0  0
 13 14  1  0  0  0
 14 15  2  0  0  0
 15 16  1  0  0  0
 16 17  2  0  0  0
M  END
> <minimizedAffinity>
-9.73662

> <CNNscore>
0.2927911878

> <CNNaffinity>
7.2653923035

> <CNN_VS>
2.1272428036

> <CNNaffinity_variance>
0.2128939331

$$$$
/media/chris/experiments/cd1a-new-docking/inputs/ligands/1xz0_ligand.pdb


 65 67  0  0  0  0  0  0  0  0999 V2000
  -42.0245   58.9640   65.1773 C   0  0  0  0  0  0  0  0  0  0  0  0
  -41.8201   57.5611   65.5438 N   0  0  0  0  0  0  0  0  0  0  0  0
  -41.7478   55.3160   65.1871 O   0  0  0  0  0  0  0  0  0  0  0  0
  -41.9281   56.4575   64.7838 C   0  0  0  0  0  0  0  0  0  0  0  0
  -41.5671   57.4034   66.4821 H   0  0  0  0  0  0  0  0  0  0  0  0
  -40.9304   56.7701   62.5284 N   0  0  0  0  0  0  0  0  0  0  0  0
  -42.1313   58.5238   61.8398 O   0  0  0  0  0  0  0  0  0  0  0  0
  -42.9738   57.8851   62.7984 C   0  0  0  0  0  0  0  0  0  0  0  0
  -40.9027   57.7740   61.7609 C   0  0  0  0  0  0  0  0  0  0  0  0
  -42.1843   56.6422   63.2951 C   0  0  0  0  0  0  0  0  0  0  0  0
  -41.0833   57.7669   58.8688 O   0  0  0  0  0  0  0  0  0  0  0  0
  -39.9260   58.1186   59.4420 C   0  0  0  0  0  0  0  0  0  0  0  0
  -38.8395   58.4889   58.6388 C   0  0  0  0  0  0  0  0  0  0  0  0
  -37.6112   58.8532   59.2158 C   0  0  0  0  0  0  0  0  0  0  0  0
  -37.4585   58.8609   60.6034 C   0  0  0  0  0  0  0  0  0  0  0  0
  -38.5414   58.4984   61.4094 C   0  0  0  0  0  0  0  0  0  0  0  0
  -39.7708   58.1244   60.8336 C   0  0  0  0  0  0  0  0  0  0  0  0
  -41.1638   57.7704   57.9353 H   0  0  0  0  0  0  0  0  0  0  0  0
  -40.8838   60.9256   65.9429 O   0  0  0  0  0  0  0  0  0  0  0  0
  -40.8326   59.7266   65.7238 C   0  0  0  0  0  0  0  0  0  0  0  0
  -39.5579   59.0332   65.9365 O   0  0  0  0  0  0  0  0  0  0  0  0
  -38.4921   59.1116   64.9713 C   0  0  0  0  0  0  0  0  0  0  0  0
  -37.6489   57.8477   64.8559 C   0  0  0  0  0  0  0  0  0  0  0  0
  -37.6289   60.3185   65.3072 C   0  0  0  0  0  0  0  0  0  0  0  0
  -36.1551   61.7590   63.9849 N   0  0  0  0  0  0  0  0  0  0  0  0
  -38.2687   61.3148   63.3136 O   0  0  0  0  0  0  0  0  0  0  0  0
  -37.3727   61.2138   64.1201 C   0  0  0  0  0  0  0  0  0  0  0  0
  -35.9787   62.2895   63.1744 H   0  0  0  0  0  0  0  0  0  0  0  0
  -34.3506   63.9480   65.3293 N   0  0  0  0  0  0  0  0  0  0  0  0
  -35.0755   62.7024   67.0581 O   0  0  0  0  0  0  0  0  0  0  0  0
  -34.2827   64.2642   63.8951 C   0  0  0  0  0  0  0  0  0  0  0  0
  -33.2517   63.3652   63.1868 C   0  0  0  0  0  0  0  0  0  0  0  0
  -32.6712   62.2484   64.0386 C   0  0  0  0  0  0  0  0  0  0  0  0
  -33.7024   61.1782   64.4062 C   0  0  0  0  0  0  0  0  0  0  0  0
  -35.0670   61.6209   64.9598 C   0  0  0  0  0  0  0  0  0  0  0  0
  -34.8414   62.8177   65.8628 C   0  0  0  0  0  0  0  0  0  0  0  0
  -34.4635   64.9391   67.8844 Si  0  0  0  0  0  0  0  0  0  0  0  0
  -33.8823   64.8903   66.1945 O   0  0  0  0  0  0  0  0  0  0  0  0
  -33.8270   66.0053   68.5733 H   0  0  0  0  0  0  0  0  0  0  0  0
  -34.1561   63.7104   68.5264 H   0  0  0  0  0  0  0  0  0  0  0  0
  -35.8691   65.1405   67.8960 H   0  0  0  0  0  0  0  0  0  0  0  0
  -44.5613   58.6452   65.7749 C   0  0  0  0  0  0  0  0  0  0  0  0
  -43.3877   59.6033   65.5367 C   0  0  0  0  0  0  0  0  0  0  0  0
  -45.9751   59.2460   65.6988 C   0  0  0  0  0  0  0  0  0  0  0  0
  -46.9582   58.8984   66.8355 C   0  0  0  0  0  0  0  0  0  0  0  0
  -48.2891   58.7082   66.2505 N   0  0  0  0  0  0  0  0  0  0  0  0
  -49.3471   59.5614   66.2349 C   0  0  0  0  0  0  0  0  0  0  0  0
  -48.4637   57.4645   65.6272 O   0  0  0  0  0  0  0  0  0  0  0  0
  -49.2730   60.6775   66.7481 O   0  0  0  0  0  0  0  0  0  0  0  0
  -49.3616   57.4078   65.2646 H   0  0  0  0  0  0  0  0  0  0  0  0
  -50.6522   59.1126   65.5690 C   0  0  0  0  0  0  0  0  0  0  0  0
  -51.3756   60.2138   64.7820 C   0  0  0  0  0  0  0  0  0  0  0  0
  -51.6853   59.7261   63.3535 C   0  0  0  0  0  0  0  0  0  0  0  0
  -50.8000   58.5499   62.8997 C   0  0  0  0  0  0  0  0  0  0  0  0
  -49.3336   58.9240   62.6138 C   0  0  0  0  0  0  0  0  0  0  0  0
  -49.1896   60.2831   61.8974 C   0  0  0  0  0  0  0  0  0  0  0  0
  -49.7791   60.3208   60.4682 C   0  0  0  0  0  0  0  0  0  0  0  0
  -49.1804   59.2634   59.5335 C   0  0  0  0  0  0  0  0  0  0  0  0
  -50.0721   58.0476   59.2624 C   0  0  0  0  0  0  0  0  0  0  0  0
  -49.3380   56.7317   59.5784 C   0  0  0  0  0  0  0  0  0  0  0  0
  -47.8070   56.8588   59.5844 C   0  0  0  0  0  0  0  0  0  0  0  0
  -47.0801   56.2036   58.4054 C   0  0  0  0  0  0  0  0  0  0  0  0
  -47.9485   56.0432   57.1325 C   0  0  0  0  0  0  0  0  0  0  0  0
  -47.9847   57.3444   56.3057 C   0  0  0  0  0  0  0  0  0  0  0  0
  -46.8914   58.3825   56.5860 C   0  0  0  0  0  0  0  0  0  0  0  0
 46 47  1  0  0  0
 46 48  1  0  0  0
 46 45  1  0  0  0
 47 49  2  0  0  0
 47 51  1  0  0  0
 19 20  2  0  0  0
 37 38  1  0  0  0
 37 39  1  0  0  0
 37 40  1  0  0  0
 37 41  1  0  0  0
 48 50  1  0  0  0
 38 29  1  0  0  0
 45 44  1  0  0  0
 25 27  1  0  0  0
 25 35  1  0  0  0
 25 28  1  0  0  0
 21 20  1  0  0  0
 21 22  1  0  0  0
 44 42  1  0  0  0
  2  1  1  0  0  0
  2  4  1  0  0  0
  2  5  1  0  0  0
 26 27  2  0  0  0
 42 43  2  0  0  0
 29 31  1  0  0  0
 29 36  1  0  0  0
  3  4  2  0  0  0
 43  1  1  0  0  0
  6  9  2  0  0  0
  6 10  1  0  0  0
  1 20  1  0  0  0
 30 36  2  0  0  0
  7  8  1  0  0  0
  7  9  1  0  0  0
 22 24  1  0  0  0
 22 23  1  0  0  0
 11 12  1  0  0  0
 11 18  1  0  0  0
 24 27  1  0  0  0
  4 10  1  0  0  0
 51 52  1  0  0  0
 52 53  1  0  0  0
 53 54  1  0  0  0
 54 55  1  0  0  0
 55 56  1  0  0  0
 56 57  1  0  0  0
 57 58  1  0  0  0
 58 59  1  0  0  0
 59 60  1  0  0  0
 60 61  1  0  0  0
 61 62  1  0  0  0
 62 63  1  0  0  0
 63 64  1  0  0  0
 64 65  1  0  0  0
 31 32  1  0  0  0
 32 33  1  0  0  0
 33 34  1  0  0  0
 34 35  1  0  0  0
 35 36  1  0  0  0
  8 10  1  0  0  0
  9 17  1  0  0  0
 12 13  2  0  0  0
 12 17  1  0  0  0
 13 14  1  0  0  0
 14 15  2  0  0  0
 15 16  1  0  0  0
 16 17  2  0  0  0
M  END
> <minimizedAffinity>
-10.65138

> <CNNscore>
0.2149818391

> <CNNaffinity>
7.4786748886

> <CNN_VS>
1.6077792645

> <CNNaffinity_variance>
0.9918602109

$$$$
/media/chris/experiments/cd1a-new-docking/inputs/ligands/1xz0_ligand.pdb


 65 67  0  0  0  0  0  0  0  0999 V2000
  -40.3517   57.4989   62.7912 C   0  0  0  0  0  0  0  0  0  0  0  0
  -40.6909   57.4707   61.3670 N   0  0  0  0  0  0  0  0  0  0  0  0
  -41.3361   58.3544   59.3731 O   0  0  0  0  0  0  0  0  0  0  0  0
  -41.0582   58.4800   60.5585 C   0  0  0  0  0  0  0  0  0  0  0  0
  -40.6431   56.5849   60.9400 H   0  0  0  0  0  0  0  0  0  0  0  0
  -39.6652   60.2819   61.5550 N   0  0  0  0  0  0  0  0  0  0  0  0
  -40.9281   60.7776   63.3302 O   0  0  0  0  0  0  0  0  0  0  0  0
  -41.8548   60.2373   62.3890 C   0  0  0  0  0  0  0  0  0  0  0  0
  -39.6180   60.7458   62.7298 C   0  0  0  0  0  0  0  0  0  0  0  0
  -41.0213   59.8926   61.1236 C   0  0  0  0  0  0  0  0  0  0  0  0
  -39.0028   60.3682   65.5362 O   0  0  0  0  0  0  0  0  0  0  0  0
  -38.1290   61.0293   64.7676 C   0  0  0  0  0  0  0  0  0  0  0  0
  -36.9369   61.5071   65.3275 C   0  0  0  0  0  0  0  0  0  0  0  0
  -36.0077   62.2122   64.5441 C   0  0  0  0  0  0  0  0  0  0  0  0
  -36.2556   62.4390   63.1891 C   0  0  0  0  0  0  0  0  0  0  0  0
  -37.4406   61.9589   62.6243 C   0  0  0  0  0  0  0  0  0  0  0  0
  -38.3775   61.2596   63.4089 C   0  0  0  0  0  0  0  0  0  0  0  0
  -38.8151   60.2259   66.4431 H   0  0  0  0  0  0  0  0  0  0  0  0
  -38.3172   56.4514   62.0846 O   0  0  0  0  0  0  0  0  0  0  0  0
  -38.8696   57.1894   62.8837 C   0  0  0  0  0  0  0  0  0  0  0  0
  -38.0794   57.7291   63.9952 O   0  0  0  0  0  0  0  0  0  0  0  0
  -36.6894   57.3909   64.1599 C   0  0  0  0  0  0  0  0  0  0  0  0
  -36.3617   56.6812   65.4677 C   0  0  0  0  0  0  0  0  0  0  0  0
  -35.8653   58.6601   64.0026 C   0  0  0  0  0  0  0  0  0  0  0  0
  -34.0717   59.0776   62.3887 N   0  0  0  0  0  0  0  0  0  0  0  0
  -36.2108   58.7881   61.7134 O   0  0  0  0  0  0  0  0  0  0  0  0
  -35.3832   58.8835   62.5905 C   0  0  0  0  0  0  0  0  0  0  0  0
  -33.7590   59.1587   61.4587 H   0  0  0  0  0  0  0  0  0  0  0  0
  -32.5824   61.5904   63.5390 N   0  0  0  0  0  0  0  0  0  0  0  0
  -33.3587   60.5327   65.3677 O   0  0  0  0  0  0  0  0  0  0  0  0
  -32.4094   61.7108   62.0839 C   0  0  0  0  0  0  0  0  0  0  0  0
  -31.2480   60.8233   61.5977 C   0  0  0  0  0  0  0  0  0  0  0  0
  -30.6589   59.8939   62.6461 C   0  0  0  0  0  0  0  0  0  0  0  0
  -31.6288   58.7927   63.0826 C   0  0  0  0  0  0  0  0  0  0  0  0
  -33.0700   59.1778   63.4563 C   0  0  0  0  0  0  0  0  0  0  0  0
  -33.0263   60.5035   64.1907 C   0  0  0  0  0  0  0  0  0  0  0  0
  -32.6110   62.6988   66.0477 Si  0  0  0  0  0  0  0  0  0  0  0  0
  -32.2737   62.6827   64.2922 O   0  0  0  0  0  0  0  0  0  0  0  0
  -32.1995   63.9418   66.5974 H   0  0  0  0  0  0  0  0  0  0  0  0
  -31.8980   61.6440   66.6765 H   0  0  0  0  0  0  0  0  0  0  0  0
  -34.0035   62.5236   66.2639 H   0  0  0  0  0  0  0  0  0  0  0  0
  -42.6838   57.0846   63.9241 C   0  0  0  0  0  0  0  0  0  0  0  0
  -41.2234   56.6505   63.7485 C   0  0  0  0  0  0  0  0  0  0  0  0
  -43.4238   56.5492   65.1616 C   0  0  0  0  0  0  0  0  0  0  0  0
  -43.9938   57.5843   66.1531 C   0  0  0  0  0  0  0  0  0  0  0  0
  -45.4345   57.7083   65.9110 N   0  0  0  0  0  0  0  0  0  0  0  0
  -46.1221   58.7350   65.3446 C   0  0  0  0  0  0  0  0  0  0  0  0
  -46.1795   56.5976   66.3319 O   0  0  0  0  0  0  0  0  0  0  0  0
  -45.5426   59.7412   64.9365 O   0  0  0  0  0  0  0  0  0  0  0  0
  -47.1188   56.7475   66.1419 H   0  0  0  0  0  0  0  0  0  0  0  0
  -47.6459   58.6295   65.2228 C   0  0  0  0  0  0  0  0  0  0  0  0
  -48.3600   59.9694   64.9993 C   0  0  0  0  0  0  0  0  0  0  0  0
  -49.5280   60.1182   65.9933 C   0  0  0  0  0  0  0  0  0  0  0  0
  -50.8978   59.7501   65.3921 C   0  0  0  0  0  0  0  0  0  0  0  0
  -51.2803   60.5482   64.1317 C   0  0  0  0  0  0  0  0  0  0  0  0
  -51.5001   59.6501   62.8963 C   0  0  0  0  0  0  0  0  0  0  0  0
  -50.9209   58.2223   63.0296 C   0  0  0  0  0  0  0  0  0  0  0  0
  -49.7164   57.9651   62.1167 C   0  0  0  0  0  0  0  0  0  0  0  0
  -49.4119   59.0745   61.1051 C   0  0  0  0  0  0  0  0  0  0  0  0
  -49.0446   58.4926   59.7279 C   0  0  0  0  0  0  0  0  0  0  0  0
  -48.5292   57.0463   59.7804 C   0  0  0  0  0  0  0  0  0  0  0  0
  -47.3459   56.7275   58.8606 C   0  0  0  0  0  0  0  0  0  0  0  0
  -47.7475   56.1047   57.5002 C   0  0  0  0  0  0  0  0  0  0  0  0
  -47.9485   57.1873   56.4206 C   0  0  0  0  0  0  0  0  0  0  0  0
  -47.1218   58.4719   56.5551 C   0  0  0  0  0  0  0  0  0  0  0  0
 46 47  1  0  0  0
 46 48  1  0  0  0
 46 45  1  0  0  0
 47 49  2  0  0  0
 47 51  1  0  0  0
 19 20  2  0  0  0
 37 38  1  0  0  0
 37 39  1  0  0  0
 37 40  1  0  0  0
 37 41  1  0  0  0
 48 50  1  0  0  0
 38 29  1  0  0  0
 45 44  1  0  0  0
 25 27  1  0  0  0
 25 35  1  0  0  0
 25 28  1  0  0  0
 21 20  1  0  0  0
 21 22  1  0  0  0
 44 42  1  0  0  0
  2  1  1  0  0  0
  2  4  1  0  0  0
  2  5  1  0  0  0
 26 27  2  0  0  0
 42 43  2  0  0  0
 29 31  1  0  0  0
 29 36  1  0  0  0
  3  4  2  0  0  0
 43  1  1  0  0  0
  6  9  2  0  0  0
  6 10  1  0  0  0
  1 20  1  0  0  0
 30 36  2  0  0  0
  7  8  1  0  0  0
  7  9  1  0  0  0
 22 24  1  0  0  0
 22 23  1  0  0  0
 11 12  1  0  0  0
 11 18  1  0  0  0
 24 27  1  0  0  0
  4 10  1  0  0  0
 51 52  1  0  0  0
 52 53  1  0  0  0
 53 54  1  0  0  0
 54 55  1  0  0  0
 55 56  1  0  0  0
 56 57  1  0  0  0
 57 58  1  0  0  0
 58 59  1  0  0  0
 59 60  1  0  0  0
 60 61  1  0  0  0
 61 62  1  0  0  0
 62 63  1  0  0  0
 63 64  1  0  0  0
 64 65  1  0  0  0
 31 32  1  0  0  0
 32 33  1  0  0  0
 33 34  1  0  0  0
 34 35  1  0  0  0
 35 36  1  0  0  0
  8 10  1  0  0  0
  9 17  1  0  0  0
 12 13  2  0  0  0
 12 17  1  0  0  0
 13 14  1  0  0  0
 14 15  2  0  0  0
 15 16  1  0  0  0
 16 17  2  0  0  0
M  END
> <minimizedAffinity>
-9.81269

> <CNNscore>
0.2129250467

> <CNNaffinity>
7.2955045700

> <CNN_VS>
1.5533956289

> <CNNaffinity_variance>
0.9498316646

$$$$
/media/chris/experiments/cd1a-new-docking/inputs/ligands/1xz0_ligand.pdb


 65 67  0  0  0  0  0  0  0  0999 V2000
  -37.5425   58.0735   62.6877 C   0  0  0  0  0  0  0  0  0  0  0  0
  -37.5159   58.1509   61.2257 N   0  0  0  0  0  0  0  0  0  0  0  0
  -37.8589   59.1175   59.1957 O   0  0  0  0  0  0  0  0  0  0  0  0
  -37.9095   59.1511   60.4182 C   0  0  0  0  0  0  0  0  0  0  0  0
  -37.1583   57.3560   60.7682 H   0  0  0  0  0  0  0  0  0  0  0  0
  -37.3301   60.9795   61.9997 N   0  0  0  0  0  0  0  0  0  0  0  0
  -39.2071   61.0205   63.2110 O   0  0  0  0  0  0  0  0  0  0  0  0
  -39.6209   60.4881   61.9532 C   0  0  0  0  0  0  0  0  0  0  0  0
  -37.7894   61.2719   63.1404 C   0  0  0  0  0  0  0  0  0  0  0  0
  -38.3457   60.4574   61.0657 C   0  0  0  0  0  0  0  0  0  0  0  0
  -36.5203   63.8760   63.0715 O   0  0  0  0  0  0  0  0  0  0  0  0
  -36.4150   63.1363   64.1820 C   0  0  0  0  0  0  0  0  0  0  0  0
  -35.7130   63.6391   65.2853 C   0  0  0  0  0  0  0  0  0  0  0  0
  -35.5803   62.8784   66.4592 C   0  0  0  0  0  0  0  0  0  0  0  0
  -36.1567   61.6100   66.5467 C   0  0  0  0  0  0  0  0  0  0  0  0
  -36.8635   61.1065   65.4511 C   0  0  0  0  0  0  0  0  0  0  0  0
  -36.9907   61.8629   64.2703 C   0  0  0  0  0  0  0  0  0  0  0  0
  -36.1267   64.7255   63.0354 H   0  0  0  0  0  0  0  0  0  0  0  0
  -36.0498   56.7201   63.9822 O   0  0  0  0  0  0  0  0  0  0  0  0
  -36.1775   57.5675   63.1138 C   0  0  0  0  0  0  0  0  0  0  0  0
  -34.9669   58.1492   62.5246 O   0  0  0  0  0  0  0  0  0  0  0  0
  -33.9186   58.6920   63.3493 C   0  0  0  0  0  0  0  0  0  0  0  0
  -34.2082   58.6574   64.8448 C   0  0  0  0  0  0  0  0  0  0  0  0
  -33.6243   60.1089   62.8798 C   0  0  0  0  0  0  0  0  0  0  0  0
  -31.7931   61.7201   63.0952 N   0  0  0  0  0  0  0  0  0  0  0  0
  -31.3844   59.5154   62.7986 O   0  0  0  0  0  0  0  0  0  0  0  0
  -32.1535   60.4446   62.8914 C   0  0  0  0  0  0  0  0  0  0  0  0
  -30.8312   61.9183   63.1646 H   0  0  0  0  0  0  0  0  0  0  0  0
  -31.9901   64.3907   61.4569 N   0  0  0  0  0  0  0  0  0  0  0  0
  -34.0921   63.5865   61.4426 O   0  0  0  0  0  0  0  0  0  0  0  0
  -30.5727   64.3134   61.8401 C   0  0  0  0  0  0  0  0  0  0  0  0
  -30.3695   64.8160   63.2819 C   0  0  0  0  0  0  0  0  0  0  0  0
  -31.6463   65.1019   64.0553 C   0  0  0  0  0  0  0  0  0  0  0  0
  -32.4574   63.8395   64.3590 C   0  0  0  0  0  0  0  0  0  0  0  0
  -32.7313   62.8413   63.2218 C   0  0  0  0  0  0  0  0  0  0  0  0
  -32.9810   63.6324   61.9527 C   0  0  0  0  0  0  0  0  0  0  0  0
  -33.9040   66.1452   60.5725 Si  0  0  0  0  0  0  0  0  0  0  0  0
  -32.3260   65.3076   60.5070 O   0  0  0  0  0  0  0  0  0  0  0  0
  -34.0091   67.0432   59.4775 H   0  0  0  0  0  0  0  0  0  0  0  0
  -34.0054   66.8693   61.7898 H   0  0  0  0  0  0  0  0  0  0  0  0
  -34.9510   65.1886   60.5022 H   0  0  0  0  0  0  0  0  0  0  0  0
  -39.7254   56.6450   62.3908 C   0  0  0  0  0  0  0  0  0  0  0  0
  -38.7192   57.3077   63.3397 C   0  0  0  0  0  0  0  0  0  0  0  0
  -41.0950   56.2702   62.9820 C   0  0  0  0  0  0  0  0  0  0  0  0
  -41.3200   56.5411   64.4838 C   0  0  0  0  0  0  0  0  0  0  0  0
  -42.7140   56.9545   64.6728 N   0  0  0  0  0  0  0  0  0  0  0  0
  -43.3814   57.2115   65.8287 C   0  0  0  0  0  0  0  0  0  0  0  0
  -43.4319   57.0970   63.4769 O   0  0  0  0  0  0  0  0  0  0  0  0
  -42.8212   57.1226   66.9210 O   0  0  0  0  0  0  0  0  0  0  0  0
  -44.3409   57.3707   63.6762 H   0  0  0  0  0  0  0  0  0  0  0  0
  -44.8588   57.6121   65.7590 C   0  0  0  0  0  0  0  0  0  0  0  0
  -45.1537   59.0395   66.2394 C   0  0  0  0  0  0  0  0  0  0  0  0
  -46.4750   59.5414   65.6257 C   0  0  0  0  0  0  0  0  0  0  0  0
  -47.7258   58.8761   66.2306 C   0  0  0  0  0  0  0  0  0  0  0  0
  -48.9229   58.7664   65.2678 C   0  0  0  0  0  0  0  0  0  0  0  0
  -50.2528   59.2132   65.9102 C   0  0  0  0  0  0  0  0  0  0  0  0
  -50.9886   60.3384   65.1458 C   0  0  0  0  0  0  0  0  0  0  0  0
  -50.3750   60.6467   63.7751 C   0  0  0  0  0  0  0  0  0  0  0  0
  -51.2739   60.3456   62.5717 C   0  0  0  0  0  0  0  0  0  0  0  0
  -51.7398   58.8782   62.5726 C   0  0  0  0  0  0  0  0  0  0  0  0
  -50.7820   57.9204   61.8479 C   0  0  0  0  0  0  0  0  0  0  0  0
  -50.5703   58.1939   60.3552 C   0  0  0  0  0  0  0  0  0  0  0  0
  -49.5207   57.2742   59.6826 C   0  0  0  0  0  0  0  0  0  0  0  0
  -49.1813   57.7528   58.2565 C   0  0  0  0  0  0  0  0  0  0  0  0
  -47.7286   57.5930   57.7918 C   0  0  0  0  0  0  0  0  0  0  0  0
 46 47  1  0  0  0
 46 48  1  0  0  0
 46 45  1  0  0  0
 47 49  2  0  0  0
 47 51  1  0  0  0
 19 20  2  0  0  0
 37 38  1  0  0  0
 37 39  1  0  0  0
 37 40  1  0  0  0
 37 41  1  0  0  0
 48 50  1  0  0  0
 38 29  1  0  0  0
 45 44  1  0  0  0
 25 27  1  0  0  0
 25 35  1  0  0  0
 25 28  1  0  0  0
 21 20  1  0  0  0
 21 22  1  0  0  0
 44 42  1  0  0  0
  2  1  1  0  0  0
  2  4  1  0  0  0
  2  5  1  0  0  0
 26 27  2  0  0  0
 42 43  2  0  0  0
 29 31  1  0  0  0
 29 36  1  0  0  0
  3  4  2  0  0  0
 43  1  1  0  0  0
  6  9  2  0  0  0
  6 10  1  0  0  0
  1 20  1  0  0  0
 30 36  2  0  0  0
  7  8  1  0  0  0
  7  9  1  0  0  0
 22 24  1  0  0  0
 22 23  1  0  0  0
 11 12  1  0  0  0
 11 18  1  0  0  0
 24 27  1  0  0  0
  4 10  1  0  0  0
 51 52  1  0  0  0
 52 53  1  0  0  0
 53 54  1  0  0  0
 54 55  1  0  0  0
 55 56  1  0  0  0
 56 57  1  0  0  0
 57 58  1  0  0  0
 58 59  1  0  0  0
 59 60  1  0  0  0
 60 61  1  0  0  0
 61 62  1  0  0  0
 62 63  1  0  0  0
 63 64  1  0  0  0
 64 65  1  0  0  0
 31 32  1  0  0  0
 32 33  1  0  0  0
 33 34  1  0  0  0
 34 35  1  0  0  0
 35 36  1  0  0  0
  8 10  1  0  0  0
  9 17  1  0  0  0
 12 13  2  0  0  0
 12 17  1  0  0  0
 13 14  1  0  0  0
 14 15  2  0  0  0
 15 16  1  0  0  0
 16 17  2  0  0  0
M  END
> <minimizedAffinity>
-9.25595

> <CNNscore>
0.2117760777

> <CNNaffinity>
6.8013129234

> <CNN_VS>
1.4403554201

> <CNNaffinity_variance>
0.6061112285

$$$$
/media/chris/experiments/cd1a-new-docking/inputs/ligands/1xz0_ligand.pdb


 65 67  0  0  0  0  0  0  0  0999 V2000
  -43.1656   58.1541   66.2370 C   0  0  0  0  0  0  0  0  0  0  0  0
  -42.2007   59.2494   66.3530 N   0  0  0  0  0  0  0  0  0  0  0  0
  -40.9173   60.9684   65.5976 O   0  0  0  0  0  0  0  0  0  0  0  0
  -41.7401   60.0831   65.4042 C   0  0  0  0  0  0  0  0  0  0  0  0
  -41.8369   59.3965   67.2559 H   0  0  0  0  0  0  0  0  0  0  0  0
  -41.4944   59.2772   63.0654 N   0  0  0  0  0  0  0  0  0  0  0  0
  -41.9978   61.1623   61.9769 O   0  0  0  0  0  0  0  0  0  0  0  0
  -42.6694   61.2982   63.2287 C   0  0  0  0  0  0  0  0  0  0  0  0
  -41.2977   59.9023   61.9846 C   0  0  0  0  0  0  0  0  0  0  0  0
  -42.3622   59.9954   64.0182 C   0  0  0  0  0  0  0  0  0  0  0  0
  -38.5765   60.7011   61.3899 O   0  0  0  0  0  0  0  0  0  0  0  0
  -39.1727   59.8023   60.5973 C   0  0  0  0  0  0  0  0  0  0  0  0
  -38.4690   59.2584   59.5148 C   0  0  0  0  0  0  0  0  0  0  0  0
  -39.0757   58.3204   58.6625 C   0  0  0  0  0  0  0  0  0  0  0  0
  -40.3900   57.9081   58.8890 C   0  0  0  0  0  0  0  0  0  0  0  0
  -41.0942   58.4430   59.9714 C   0  0  0  0  0  0  0  0  0  0  0  0
  -40.4918   59.3897   60.8220 C   0  0  0  0  0  0  0  0  0  0  0  0
  -37.6928   60.9623   61.2201 H   0  0  0  0  0  0  0  0  0  0  0  0
  -41.7707   56.2101   66.1329 O   0  0  0  0  0  0  0  0  0  0  0  0
  -42.4461   57.0243   65.5251 C   0  0  0  0  0  0  0  0  0  0  0  0
  -42.4983   56.9330   64.0622 O   0  0  0  0  0  0  0  0  0  0  0  0
  -41.4836   56.2322   63.3186 C   0  0  0  0  0  0  0  0  0  0  0  0
  -41.5716   54.7135   63.4047 C   0  0  0  0  0  0  0  0  0  0  0  0
  -40.1218   56.7302   63.7790 C   0  0  0  0  0  0  0  0  0  0  0  0
  -37.9183   57.3587   62.9157 N   0  0  0  0  0  0  0  0  0  0  0  0
  -39.3852   56.1954   61.6465 O   0  0  0  0  0  0  0  0  0  0  0  0
  -39.0996   56.7733   62.6703 C   0  0  0  0  0  0  0  0  0  0  0  0
  -37.2352   57.3253   62.2075 H   0  0  0  0  0  0  0  0  0  0  0  0
  -35.9639   59.7605   63.4321 N   0  0  0  0  0  0  0  0  0  0  0  0
  -37.8614   60.3672   64.4794 O   0  0  0  0  0  0  0  0  0  0  0  0
  -35.1654   58.8187   62.6338 C   0  0  0  0  0  0  0  0  0  0  0  0
  -34.5790   57.7085   63.5261 C   0  0  0  0  0  0  0  0  0  0  0  0
  -35.0765   57.6997   64.9621 C   0  0  0  0  0  0  0  0  0  0  0  0
  -36.5592   57.3365   65.0796 C   0  0  0  0  0  0  0  0  0  0  0  0
  -37.5721   58.0455   64.1654 C   0  0  0  0  0  0  0  0  0  0  0  0
  -37.1410   59.4918   64.0196 C   0  0  0  0  0  0  0  0  0  0  0  0
  -34.7025   61.8631   62.2028 Si  0  0  0  0  0  0  0  0  0  0  0  0
  -35.4695   61.0212   63.5807 O   0  0  0  0  0  0  0  0  0  0  0  0
  -34.2737   63.1525   62.6153 H   0  0  0  0  0  0  0  0  0  0  0  0
  -35.6410   61.9923   61.1451 H   0  0  0  0  0  0  0  0  0  0  0  0
  -33.5832   61.1135   61.7537 H   0  0  0  0  0  0  0  0  0  0  0  0
  -45.7776   57.9141   66.3532 C   0  0  0  0  0  0  0  0  0  0  0  0
  -44.5511   58.4859   65.6317 C   0  0  0  0  0  0  0  0  0  0  0  0
  -47.0904   57.8576   65.5537 C   0  0  0  0  0  0  0  0  0  0  0  0
  -47.3930   59.0305   64.5988 C   0  0  0  0  0  0  0  0  0  0  0  0
  -48.6851   59.6107   64.9780 N   0  0  0  0  0  0  0  0  0  0  0  0
  -49.9258   59.0609   64.9012 C   0  0  0  0  0  0  0  0  0  0  0  0
  -48.5955   60.9137   65.4879 O   0  0  0  0  0  0  0  0  0  0  0  0
  -50.0906   57.9171   64.4776 O   0  0  0  0  0  0  0  0  0  0  0  0
  -49.4825   61.2329   65.7167 H   0  0  0  0  0  0  0  0  0  0  0  0
  -51.1340   59.8913   65.3470 C   0  0  0  0  0  0  0  0  0  0  0  0
  -51.6954   60.8269   64.2677 C   0  0  0  0  0  0  0  0  0  0  0  0
  -51.7394   60.1008   62.9094 C   0  0  0  0  0  0  0  0  0  0  0  0
  -50.8372   60.7435   61.8389 C   0  0  0  0  0  0  0  0  0  0  0  0
  -49.5719   59.9347   61.4969 C   0  0  0  0  0  0  0  0  0  0  0  0
  -49.4854   59.5588   60.0027 C   0  0  0  0  0  0  0  0  0  0  0  0
  -50.3990   58.3838   59.5827 C   0  0  0  0  0  0  0  0  0  0  0  0
  -50.7152   57.4170   60.7297 C   0  0  0  0  0  0  0  0  0  0  0  0
  -49.6889   56.3007   60.9480 C   0  0  0  0  0  0  0  0  0  0  0  0
  -49.0318   55.8757   59.6222 C   0  0  0  0  0  0  0  0  0  0  0  0
  -47.5925   56.3845   59.4494 C   0  0  0  0  0  0  0  0  0  0  0  0
  -46.9829   56.1970   58.0563 C   0  0  0  0  0  0  0  0  0  0  0  0
  -48.0079   56.2771   56.8974 C   0  0  0  0  0  0  0  0  0  0  0  0
  -47.8729   57.5985   56.1141 C   0  0  0  0  0  0  0  0  0  0  0  0
  -47.1720   58.7639   56.8229 C   0  0  0  0  0  0  0  0  0  0  0  0
 46 47  1  0  0  0
 46 48  1  0  0  0
 46 45  1  0  0  0
 47 49  2  0  0  0
 47 51  1  0  0  0
 19 20  2  0  0  0
 37 38  1  0  0  0
 37 39  1  0  0  0
 37 40  1  0  0  0
 37 41  1  0  0  0
 48 50  1  0  0  0
 38 29  1  0  0  0
 45 44  1  0  0  0
 25 27  1  0  0  0
 25 35  1  0  0  0
 25 28  1  0  0  0
 21 20  1  0  0  0
 21 22  1  0  0  0
 44 42  1  0  0  0
  2  1  1  0  0  0
  2  4  1  0  0  0
  2  5  1  0  0  0
 26 27  2  0  0  0
 42 43  2  0  0  0
 29 31  1  0  0  0
 29 36  1  0  0  0
  3  4  2  0  0  0
 43  1  1  0  0  0
  6  9  2  0  0  0
  6 10  1  0  0  0
  1 20  1  0  0  0
 30 36  2  0  0  0
  7  8  1  0  0  0
  7  9  1  0  0  0
 22 24  1  0  0  0
 22 23  1  0  0  0
 11 12  1  0  0  0
 11 18  1  0  0  0
 24 27  1  0  0  0
  4 10  1  0  0  0
 51 52  1  0  0  0
 52 53  1  0  0  0
 53 54  1  0  0  0
 54 55  1  0  0  0
 55 56  1  0  0  0
 56 57  1  0  0  0
 57 58  1  0  0  0
 58 59  1  0  0  0
 59 60  1  0  0  0
 60 61  1  0  0  0
 61 62  1  0  0  0
 62 63  1  0  0  0
 63 64  1  0  0  0
 64 65  1  0  0  0
 31 32  1  0  0  0
 32 33  1  0  0  0
 33 34  1  0  0  0
 34 35  1  0  0  0
 35 36  1  0  0  0
  8 10  1  0  0  0
  9 17  1  0  0  0
 12 13  2  0  0  0
 12 17  1  0  0  0
 13 14  1  0  0  0
 14 15  2  0  0  0
 15 16  1  0  0  0
 16 17  2  0  0  0
M  END
> <minimizedAffinity>
-9.95224

> <CNNscore>
0.2022064179

> <CNNaffinity>
7.8151717186

> <CNN_VS>
1.5802779198

> <CNNaffinity_variance>
1.8604640961

$$$$
/media/chris/experiments/cd1a-new-docking/inputs/ligands/1xz0_ligand.pdb


 65 67  0  0  0  0  0  0  0  0999 V2000
  -37.9057   58.0794   62.0797 C   0  0  0  0  0  0  0  0  0  0  0  0
  -37.6325   58.1759   60.6443 N   0  0  0  0  0  0  0  0  0  0  0  0
  -37.9004   58.9806   58.5340 O   0  0  0  0  0  0  0  0  0  0  0  0
  -38.1890   58.9819   59.7235 C   0  0  0  0  0  0  0  0  0  0  0  0
  -36.9418   57.5621   60.3047 H   0  0  0  0  0  0  0  0  0  0  0  0
  -39.2101   60.1288   61.6785 N   0  0  0  0  0  0  0  0  0  0  0  0
  -41.3648   59.9664   61.1103 O   0  0  0  0  0  0  0  0  0  0  0  0
  -40.6751   59.9163   59.8619 C   0  0  0  0  0  0  0  0  0  0  0  0
  -40.3793   60.0806   62.1561 C   0  0  0  0  0  0  0  0  0  0  0  0
  -39.1652   60.0448   60.2063 C   0  0  0  0  0  0  0  0  0  0  0  0
  -42.9851   60.8248   63.1821 O   0  0  0  0  0  0  0  0  0  0  0  0
  -42.0083   60.5366   64.0505 C   0  0  0  0  0  0  0  0  0  0  0  0
  -42.2681   60.5844   65.4264 C   0  0  0  0  0  0  0  0  0  0  0  0
  -41.2571   60.2954   66.3584 C   0  0  0  0  0  0  0  0  0  0  0  0
  -39.9771   59.9456   65.9249 C   0  0  0  0  0  0  0  0  0  0  0  0
  -39.7145   59.8903   64.5532 C   0  0  0  0  0  0  0  0  0  0  0  0
  -40.7233   60.1879   63.6170 C   0  0  0  0  0  0  0  0  0  0  0  0
  -43.8375   61.0556   63.4954 H   0  0  0  0  0  0  0  0  0  0  0  0
  -36.3848   57.5820   63.8615 O   0  0  0  0  0  0  0  0  0  0  0  0
  -36.5575   58.1078   62.7742 C   0  0  0  0  0  0  0  0  0  0  0  0
  -35.4399   58.8393   62.1685 O   0  0  0  0  0  0  0  0  0  0  0  0
  -34.0748   58.5523   62.5265 C   0  0  0  0  0  0  0  0  0  0  0  0
  -33.8037   57.0919   62.8663 C   0  0  0  0  0  0  0  0  0  0  0  0
  -33.6785   59.4662   63.6763 C   0  0  0  0  0  0  0  0  0  0  0  0
  -33.2575   61.8422   64.0923 N   0  0  0  0  0  0  0  0  0  0  0  0
  -32.7355   60.8903   62.1082 O   0  0  0  0  0  0  0  0  0  0  0  0
  -33.2090   60.8253   63.2195 C   0  0  0  0  0  0  0  0  0  0  0  0
  -32.8899   62.7093   63.8054 H   0  0  0  0  0  0  0  0  0  0  0  0
  -35.5906   63.4652   65.4256 N   0  0  0  0  0  0  0  0  0  0  0  0
  -36.1019   61.3174   65.8626 O   0  0  0  0  0  0  0  0  0  0  0  0
  -34.7264   64.5014   64.8412 C   0  0  0  0  0  0  0  0  0  0  0  0
  -33.5333   64.8025   65.7677 C   0  0  0  0  0  0  0  0  0  0  0  0
  -33.3888   63.8738   66.9621 C   0  0  0  0  0  0  0  0  0  0  0  0
  -33.0222   62.4412   66.5654 C   0  0  0  0  0  0  0  0  0  0  0  0
  -33.8198   61.7537   65.4448 C   0  0  0  0  0  0  0  0  0  0  0  0
  -35.2716   62.1699   65.5786 C   0  0  0  0  0  0  0  0  0  0  0  0
  -37.1491   64.1682   67.5703 Si  0  0  0  0  0  0  0  0  0  0  0  0
  -36.8291   63.8526   65.8401 O   0  0  0  0  0  0  0  0  0  0  0  0
  -38.5054   64.5543   67.7381 H   0  0  0  0  0  0  0  0  0  0  0  0
  -36.3002   65.2113   68.0262 H   0  0  0  0  0  0  0  0  0  0  0  0
  -36.8962   62.9898   68.3212 H   0  0  0  0  0  0  0  0  0  0  0  0
  -40.0969   56.6739   61.7378 C   0  0  0  0  0  0  0  0  0  0  0  0
  -38.8239   56.9272   62.5546 C   0  0  0  0  0  0  0  0  0  0  0  0
  -41.2090   55.8586   62.4193 C   0  0  0  0  0  0  0  0  0  0  0  0
  -41.6025   56.2549   63.8572 C   0  0  0  0  0  0  0  0  0  0  0  0
  -42.8099   57.0841   63.7916 N   0  0  0  0  0  0  0  0  0  0  0  0
  -43.7332   57.3297   64.7586 C   0  0  0  0  0  0  0  0  0  0  0  0
  -43.0126   57.6959   62.5465 O   0  0  0  0  0  0  0  0  0  0  0  0
  -43.6229   56.8420   65.8832 O   0  0  0  0  0  0  0  0  0  0  0  0
  -43.8246   58.2258   62.5750 H   0  0  0  0  0  0  0  0  0  0  0  0
  -44.9315   58.2262   64.4295 C   0  0  0  0  0  0  0  0  0  0  0  0
  -45.5712   58.9051   65.6482 C   0  0  0  0  0  0  0  0  0  0  0  0
  -46.8792   59.6076   65.2360 C   0  0  0  0  0  0  0  0  0  0  0  0
  -48.1049   59.1523   66.0505 C   0  0  0  0  0  0  0  0  0  0  0  0
  -49.2383   60.1913   66.1386 C   0  0  0  0  0  0  0  0  0  0  0  0
  -50.6096   59.6207   65.7202 C   0  0  0  0  0  0  0  0  0  0  0  0
  -51.1828   60.2201   64.4149 C   0  0  0  0  0  0  0  0  0  0  0  0
  -51.4397   59.1734   63.3245 C   0  0  0  0  0  0  0  0  0  0  0  0
  -50.2767   58.2153   63.0485 C   0  0  0  0  0  0  0  0  0  0  0  0
  -49.1039   58.9394   62.3625 C   0  0  0  0  0  0  0  0  0  0  0  0
  -49.2333   59.0250   60.8341 C   0  0  0  0  0  0  0  0  0  0  0  0
  -48.7400   57.8015   60.0548 C   0  0  0  0  0  0  0  0  0  0  0  0
  -48.9975   57.8731   58.5289 C   0  0  0  0  0  0  0  0  0  0  0  0
  -47.7116   58.2269   57.7548 C   0  0  0  0  0  0  0  0  0  0  0  0
  -47.6627   57.8498   56.2692 C   0  0  0  0  0  0  0  0  0  0  0  0
 46 47  1  0  0  0
 46 48  1  0  0  0
 46 45  1  0  0  0
 47 49  2  0  0  0
 47 51  1  0  0  0
 19 20  2  0  0  0
 37 38  1  0  0  0
 37 39  1  0  0  0
 37 40  1  0  0  0
 37 41  1  0  0  0
 48 50  1  0  0  0
 38 29  1  0  0  0
 45 44  1  0  0  0
 25 27  1  0  0  0
 25 35  1  0  0  0
 25 28  1  0  0  0
 21 20  1  0  0  0
 21 22  1  0  0  0
 44 42  1  0  0  0
  2  1  1  0  0  0
  2  4  1  0  0  0
  2  5  1  0  0  0
 26 27  2  0  0  0
 42 43  2  0  0  0
 29 31  1  0  0  0
 29 36  1  0  0  0
  3  4  2  0  0  0
 43  1  1  0  0  0
  6  9  2  0  0  0
  6 10  1  0  0  0
  1 20  1  0  0  0
 30 36  2  0  0  0
  7  8  1  0  0  0
  7  9  1  0  0  0
 22 24  1  0  0  0
 22 23  1  0  0  0
 11 12  1  0  0  0
 11 18  1  0  0  0
 24 27  1  0  0  0
  4 10  1  0  0  0
 51 52  1  0  0  0
 52 53  1  0  0  0
 53 54  1  0  0  0
 54 55  1  0  0  0
 55 56  1  0  0  0
 56 57  1  0  0  0
 57 58  1  0  0  0
 58 59  1  0  0  0
 59 60  1  0  0  0
 60 61  1  0  0  0
 61 62  1  0  0  0
 62 63  1  0  0  0
 63 64  1  0  0  0
 64 65  1  0  0  0
 31 32  1  0  0  0
 32 33  1  0  0  0
 33 34  1  0  0  0
 34 35  1  0  0  0
 35 36  1  0  0  0
  8 10  1  0  0  0
  9 17  1  0  0  0
 12 13  2  0  0  0
 12 17  1  0  0  0
 13 14  1  0  0  0
 14 15  2  0  0  0
 15 16  1  0  0  0
 16 17  2  0  0  0
M  END
> <minimizedAffinity>
-10.19915

> <CNNscore>
0.1954372972

> <CNNaffinity>
7.4131517410

> <CNN_VS>
1.4488062859

> <CNNaffinity_variance>
1.2865766287

$$$$
/media/chris/experiments/cd1a-new-docking/inputs/ligands/1xz0_ligand.pdb


 65 67  0  0  0  0  0  0  0  0999 V2000
  -36.6042   61.0997   65.2503 C   0  0  0  0  0  0  0  0  0  0  0  0
  -36.7835   62.3642   65.9665 N   0  0  0  0  0  0  0  0  0  0  0  0
  -36.1200   64.1704   67.1792 O   0  0  0  0  0  0  0  0  0  0  0  0
  -35.8694   63.1258   66.5924 C   0  0  0  0  0  0  0  0  0  0  0  0
  -37.7063   62.7059   65.9936 H   0  0  0  0  0  0  0  0  0  0  0  0
  -33.6890   63.5334   65.4700 N   0  0  0  0  0  0  0  0  0  0  0  0
  -33.1811   61.4362   64.8905 O   0  0  0  0  0  0  0  0  0  0  0  0
  -34.0396   61.2826   66.0201 C   0  0  0  0  0  0  0  0  0  0  0  0
  -33.0440   62.8468   64.6273 C   0  0  0  0  0  0  0  0  0  0  0  0
  -34.4067   62.7232   66.4726 C   0  0  0  0  0  0  0  0  0  0  0  0
  -33.1558   61.9900   61.8614 O   0  0  0  0  0  0  0  0  0  0  0  0
  -32.3030   62.9642   62.2010 C   0  0  0  0  0  0  0  0  0  0  0  0
  -31.5002   63.5562   61.2172 C   0  0  0  0  0  0  0  0  0  0  0  0
  -30.5904   64.5741   61.5496 C   0  0  0  0  0  0  0  0  0  0  0  0
  -30.4803   65.0186   62.8683 C   0  0  0  0  0  0  0  0  0  0  0  0
  -31.2835   64.4356   63.8525 C   0  0  0  0  0  0  0  0  0  0  0  0
  -32.1898   63.4093   63.5238 C   0  0  0  0  0  0  0  0  0  0  0  0
  -33.2143   61.7084   60.9697 H   0  0  0  0  0  0  0  0  0  0  0  0
  -37.2148   62.3144   63.2787 O   0  0  0  0  0  0  0  0  0  0  0  0
  -36.5109   61.4520   63.7779 C   0  0  0  0  0  0  0  0  0  0  0  0
  -35.6044   60.7002   62.9038 O   0  0  0  0  0  0  0  0  0  0  0  0
  -35.4408   59.2760   63.0411 C   0  0  0  0  0  0  0  0  0  0  0  0
  -34.0024   58.7895   62.9156 C   0  0  0  0  0  0  0  0  0  0  0  0
  -36.3430   58.5898   62.0263 C   0  0  0  0  0  0  0  0  0  0  0  0
  -38.6268   57.7092   62.0952 N   0  0  0  0  0  0  0  0  0  0  0  0
  -37.0759   57.0620   63.6089 O   0  0  0  0  0  0  0  0  0  0  0  0
  -37.4125   57.7376   62.6635 C   0  0  0  0  0  0  0  0  0  0  0  0
  -39.2984   57.1014   62.4808 H   0  0  0  0  0  0  0  0  0  0  0  0
  -41.2636   59.3298   61.5702 N   0  0  0  0  0  0  0  0  0  0  0  0
  -39.6210   60.7981   61.1101 O   0  0  0  0  0  0  0  0  0  0  0  0
  -41.7399   58.0025   61.9863 C   0  0  0  0  0  0  0  0  0  0  0  0
  -41.7085   57.0165   60.8033 C   0  0  0  0  0  0  0  0  0  0  0  0
  -41.0411   57.5382   59.5414 C   0  0  0  0  0  0  0  0  0  0  0  0
  -39.5345   57.7544   59.7068 C   0  0  0  0  0  0  0  0  0  0  0  0
  -39.0250   58.5204   60.9390 C   0  0  0  0  0  0  0  0  0  0  0  0
  -40.0023   59.6420   61.2317 C   0  0  0  0  0  0  0  0  0  0  0  0
  -42.1603   61.6293   62.7669 Si  0  0  0  0  0  0  0  0  0  0  0  0
  -42.1827   60.3348   61.5341 O   0  0  0  0  0  0  0  0  0  0  0  0
  -43.2125   62.5472   62.5085 H   0  0  0  0  0  0  0  0  0  0  0  0
  -40.9152   62.3099   62.7160 H   0  0  0  0  0  0  0  0  0  0  0  0
  -42.3357   61.0589   64.0554 H   0  0  0  0  0  0  0  0  0  0  0  0
  -38.9669   60.0281   64.8462 C   0  0  0  0  0  0  0  0  0  0  0  0
  -37.6077   59.9606   65.5531 C   0  0  0  0  0  0  0  0  0  0  0  0
  -40.1048   59.1848   65.4460 C   0  0  0  0  0  0  0  0  0  0  0  0
  -41.3253   59.9378   66.0141 C   0  0  0  0  0  0  0  0  0  0  0  0
  -42.5178   59.1138   65.7931 N   0  0  0  0  0  0  0  0  0  0  0  0
  -43.5444   59.3095   64.9240 C   0  0  0  0  0  0  0  0  0  0  0  0
  -42.5786   57.9724   66.6050 O   0  0  0  0  0  0  0  0  0  0  0  0
  -43.5619   60.2796   64.1668 O   0  0  0  0  0  0  0  0  0  0  0  0
  -43.3887   57.4772   66.4064 H   0  0  0  0  0  0  0  0  0  0  0  0
  -44.6981   58.3013   64.8996 C   0  0  0  0  0  0  0  0  0  0  0  0
  -45.9653   58.8023   64.1935 C   0  0  0  0  0  0  0  0  0  0  0  0
  -46.8501   59.5817   65.1855 C   0  0  0  0  0  0  0  0  0  0  0  0
  -48.0899   58.7958   65.6525 C   0  0  0  0  0  0  0  0  0  0  0  0
  -49.2403   59.6702   66.1853 C   0  0  0  0  0  0  0  0  0  0  0  0
  -50.6156   59.2663   65.6138 C   0  0  0  0  0  0  0  0  0  0  0  0
  -51.1996   60.2609   64.5835 C   0  0  0  0  0  0  0  0  0  0  0  0
  -51.7152   59.5850   63.3078 C   0  0  0  0  0  0  0  0  0  0  0  0
  -50.7779   58.5395   62.6951 C   0  0  0  0  0  0  0  0  0  0  0  0
  -51.4782   57.7438   61.5786 C   0  0  0  0  0  0  0  0  0  0  0  0
  -50.5157   57.1538   60.5367 C   0  0  0  0  0  0  0  0  0  0  0  0
  -50.0046   58.1316   59.4736 C   0  0  0  0  0  0  0  0  0  0  0  0
  -49.1891   57.4661   58.3369 C   0  0  0  0  0  0  0  0  0  0  0  0
  -47.8429   58.1839   58.1125 C   0  0  0  0  0  0  0  0  0  0  0  0
  -47.3400   58.2928   56.6679 C   0  0  0  0  0  0  0  0  0  0  0  0
 46 47  1  0  0  0
 46 48  1  0  0  0
 46 45  1  0  0  0
 47 49  2  0  0  0
 47 51  1  0  0  0
 19 20  2  0  0  0
 37 38  1  0  0  0
 37 39  1  0  0  0
 37 40  1  0  0  0
 37 41  1  0  0  0
 48 50  1  0  0  0
 38 29  1  0  0  0
 45 44  1  0  0  0
 25 27  1  0  0  0
 25 35  1  0  0  0
 25 28  1  0  0  0
 21 20  1  0  0  0
 21 22  1  0  0  0
 44 42  1  0  0  0
  2  1  1  0  0  0
  2  4  1  0  0  0
  2  5  1  0  0  0
 26 27  2  0  0  0
 42 43  2  0  0  0
 29 31  1  0  0  0
 29 36  1  0  0  0
  3  4  2  0  0  0
 43  1  1  0  0  0
  6  9  2  0  0  0
  6 10  1  0  0  0
  1 20  1  0  0  0
 30 36  2  0  0  0
  7  8  1  0  0  0
  7  9  1  0  0  0
 22 24  1  0  0  0
 22 23  1  0  0  0
 11 12  1  0  0  0
 11 18  1  0  0  0
 24 27  1  0  0  0
  4 10  1  0  0  0
 51 52  1  0  0  0
 52 53  1  0  0  0
 53 54  1  0  0  0
 54 55  1  0  0  0
 55 56  1  0  0  0
 56 57  1  0  0  0
 57 58  1  0  0  0
 58 59  1  0  0  0
 59 60  1  0  0  0
 60 61  1  0  0  0
 61 62  1  0  0  0
 62 63  1  0  0  0
 63 64  1  0  0  0
 64 65  1  0  0  0
 31 32  1  0  0  0
 32 33  1  0  0  0
 33 34  1  0  0  0
 34 35  1  0  0  0
 35 36  1  0  0  0
  8 10  1  0  0  0
  9 17  1  0  0  0
 12 13  2  0  0  0
 12 17  1  0  0  0
 13 14  1  0  0  0
 14 15  2  0  0  0
 15 16  1  0  0  0
 16 17  2  0  0  0
M  END
> <minimizedAffinity>
-10.05368

> <CNNscore>
0.1918665022

> <CNNaffinity>
7.3014183044

> <CNN_VS>
1.4008976221

> <CNNaffinity_variance>
0.6556521654

$$$$
/media/chris/experiments/cd1a-new-docking/inputs/ligands/1xz0_ligand.pdb


 65 67  0  0  0  0  0  0  0  0999 V2000
  -39.6148   57.7726   62.8191 C   0  0  0  0  0  0  0  0  0  0  0  0
  -38.9932   57.6340   61.5006 N   0  0  0  0  0  0  0  0  0  0  0  0
  -38.2311   58.3567   59.4832 O   0  0  0  0  0  0  0  0  0  0  0  0
  -38.7492   58.5738   60.5708 C   0  0  0  0  0  0  0  0  0  0  0  0
  -38.7137   56.7211   61.2604 H   0  0  0  0  0  0  0  0  0  0  0  0
  -37.8640   60.6829   61.5445 N   0  0  0  0  0  0  0  0  0  0  0  0
  -39.5145   61.1416   62.9788 O   0  0  0  0  0  0  0  0  0  0  0  0
  -40.1449   60.3537   61.9696 C   0  0  0  0  0  0  0  0  0  0  0  0
  -38.1208   61.2704   62.6337 C   0  0  0  0  0  0  0  0  0  0  0  0
  -39.0343   60.0239   60.9340 C   0  0  0  0  0  0  0  0  0  0  0  0
  -36.3831   63.3295   61.5671 O   0  0  0  0  0  0  0  0  0  0  0  0
  -36.3291   63.0539   62.8758 C   0  0  0  0  0  0  0  0  0  0  0  0
  -35.4522   63.7722   63.6993 C   0  0  0  0  0  0  0  0  0  0  0  0
  -35.3699   63.4955   65.0745 C   0  0  0  0  0  0  0  0  0  0  0  0
  -36.1709   62.5039   65.6436 C   0  0  0  0  0  0  0  0  0  0  0  0
  -37.0520   61.7889   64.8274 C   0  0  0  0  0  0  0  0  0  0  0  0
  -37.1302   62.0580   63.4475 C   0  0  0  0  0  0  0  0  0  0  0  0
  -35.8374   64.0005   61.2067 H   0  0  0  0  0  0  0  0  0  0  0  0
  -38.6207   58.1305   64.9683 O   0  0  0  0  0  0  0  0  0  0  0  0
  -38.4877   57.7067   63.8321 C   0  0  0  0  0  0  0  0  0  0  0  0
  -37.1768   57.1846   63.4321 O   0  0  0  0  0  0  0  0  0  0  0  0
  -36.0049   57.4033   64.2401 C   0  0  0  0  0  0  0  0  0  0  0  0
  -36.0843   58.6204   65.1533 C   0  0  0  0  0  0  0  0  0  0  0  0
  -34.7965   57.4855   63.3196 C   0  0  0  0  0  0  0  0  0  0  0  0
  -33.9424   59.5927   62.4106 N   0  0  0  0  0  0  0  0  0  0  0  0
  -35.7319   58.5601   61.4903 O   0  0  0  0  0  0  0  0  0  0  0  0
  -34.8735   58.6302   62.3398 C   0  0  0  0  0  0  0  0  0  0  0  0
  -33.9637   60.3010   61.7272 H   0  0  0  0  0  0  0  0  0  0  0  0
  -32.3275   62.0607   63.4857 N   0  0  0  0  0  0  0  0  0  0  0  0
  -33.0596   61.0345   65.3503 O   0  0  0  0  0  0  0  0  0  0  0  0
  -32.2118   62.1706   62.0241 C   0  0  0  0  0  0  0  0  0  0  0  0
  -31.1005   61.2449   61.4941 C   0  0  0  0  0  0  0  0  0  0  0  0
  -30.4977   60.3009   62.5214 C   0  0  0  0  0  0  0  0  0  0  0  0
  -31.4828   59.2326   63.0033 C   0  0  0  0  0  0  0  0  0  0  0  0
  -32.8941   59.6646   63.4349 C   0  0  0  0  0  0  0  0  0  0  0  0
  -32.7779   60.9908   64.1605 C   0  0  0  0  0  0  0  0  0  0  0  0
  -32.4090   63.2747   65.9440 Si  0  0  0  0  0  0  0  0  0  0  0  0
  -31.9531   63.1452   64.2202 O   0  0  0  0  0  0  0  0  0  0  0  0
  -31.9017   64.4888   66.4779 H   0  0  0  0  0  0  0  0  0  0  0  0
  -31.8633   62.1776   66.6616 H   0  0  0  0  0  0  0  0  0  0  0  0
  -33.8240   63.2607   66.0618 H   0  0  0  0  0  0  0  0  0  0  0  0
  -42.0677   57.4921   63.7129 C   0  0  0  0  0  0  0  0  0  0  0  0
  -40.8015   56.8352   63.1498 C   0  0  0  0  0  0  0  0  0  0  0  0
  -43.0632   56.5722   64.4397 C   0  0  0  0  0  0  0  0  0  0  0  0
  -43.2342   56.7687   65.9601 C   0  0  0  0  0  0  0  0  0  0  0  0
  -44.5014   57.4683   66.1938 N   0  0  0  0  0  0  0  0  0  0  0  0
  -44.7342   58.8027   66.3070 C   0  0  0  0  0  0  0  0  0  0  0  0
  -45.6082   56.6158   66.3116 O   0  0  0  0  0  0  0  0  0  0  0  0
  -43.8198   59.6199   66.2031 O   0  0  0  0  0  0  0  0  0  0  0  0
  -46.4078   57.1433   66.4641 H   0  0  0  0  0  0  0  0  0  0  0  0
  -46.1634   59.2863   66.5747 C   0  0  0  0  0  0  0  0  0  0  0  0
  -46.8096   60.0389   65.4037 C   0  0  0  0  0  0  0  0  0  0  0  0
  -46.7261   59.1909   64.1198 C   0  0  0  0  0  0  0  0  0  0  0  0
  -47.9899   58.3510   63.8543 C   0  0  0  0  0  0  0  0  0  0  0  0
  -48.8031   58.0001   65.1142 C   0  0  0  0  0  0  0  0  0  0  0  0
  -50.3049   58.3235   64.9688 C   0  0  0  0  0  0  0  0  0  0  0  0
  -50.8191   58.3417   63.5104 C   0  0  0  0  0  0  0  0  0  0  0  0
  -51.7402   59.5281   63.2032 C   0  0  0  0  0  0  0  0  0  0  0  0
  -51.1080   60.6517   62.3756 C   0  0  0  0  0  0  0  0  0  0  0  0
  -49.7069   60.2584   61.8732 C   0  0  0  0  0  0  0  0  0  0  0  0
  -49.5261   60.4046   60.3547 C   0  0  0  0  0  0  0  0  0  0  0  0
  -49.2783   59.1029   59.5854 C   0  0  0  0  0  0  0  0  0  0  0  0
  -50.2400   57.9484   59.9623 C   0  0  0  0  0  0  0  0  0  0  0  0
  -49.4702   56.6451   60.2567 C   0  0  0  0  0  0  0  0  0  0  0  0
  -48.0765   56.4995   59.6338 C   0  0  0  0  0  0  0  0  0  0  0  0
 46 47  1  0  0  0
 46 48  1  0  0  0
 46 45  1  0  0  0
 47 49  2  0  0  0
 47 51  1  0  0  0
 19 20  2  0  0  0
 37 38  1  0  0  0
 37 39  1  0  0  0
 37 40  1  0  0  0
 37 41  1  0  0  0
 48 50  1  0  0  0
 38 29  1  0  0  0
 45 44  1  0  0  0
 25 27  1  0  0  0
 25 35  1  0  0  0
 25 28  1  0  0  0
 21 20  1  0  0  0
 21 22  1  0  0  0
 44 42  1  0  0  0
  2  1  1  0  0  0
  2  4  1  0  0  0
  2  5  1  0  0  0
 26 27  2  0  0  0
 42 43  2  0  0  0
 29 31  1  0  0  0
 29 36  1  0  0  0
  3  4  2  0  0  0
 43  1  1  0  0  0
  6  9  2  0  0  0
  6 10  1  0  0  0
  1 20  1  0  0  0
 30 36  2  0  0  0
  7  8  1  0  0  0
  7  9  1  0  0  0
 22 24  1  0  0  0
 22 23  1  0  0  0
 11 12  1  0  0  0
 11 18  1  0  0  0
 24 27  1  0  0  0
  4 10  1  0  0  0
 51 52  1  0  0  0
 52 53  1  0  0  0
 53 54  1  0  0  0
 54 55  1  0  0  0
 55 56  1  0  0  0
 56 57  1  0  0  0
 57 58  1  0  0  0
 58 59  1  0  0  0
 59 60  1  0  0  0
 60 61  1  0  0  0
 61 62  1  0  0  0
 62 63  1  0  0  0
 63 64  1  0  0  0
 64 65  1  0  0  0
 31 32  1  0  0  0
 32 33  1  0  0  0
 33 34  1  0  0  0
 34 35  1  0  0  0
 35 36  1  0  0  0
  8 10  1  0  0  0
  9 17  1  0  0  0
 12 13  2  0  0  0
 12 17  1  0  0  0
 13 14  1  0  0  0
 14 15  2  0  0  0
 15 16  1  0  0  0
 16 17  2  0  0  0
M  END
> <minimizedAffinity>
-9.41451

> <CNNscore>
0.1676311642

> <CNNaffinity>
7.1102919579

> <CNN_VS>
1.1919065714

> <CNNaffinity_variance>
0.6740540266

$$$$
