/media/chris/experiments/cd1a-new-docking/inputs/ligands/1xz0_ligand.pdb


 65 67  0  0  0  0  0  0  0  0999 V2000
  -40.8228   58.5376   63.9011 C   0  0  0  0  0  0  0  0  0  0  0  0
  -40.2530   59.7310   64.5297 N   0  0  0  0  0  0  0  0  0  0  0  0
  -38.7397   60.9035   65.7578 O   0  0  0  0  0  0  0  0  0  0  0  0
  -39.1308   59.8563   65.2593 C   0  0  0  0  0  0  0  0  0  0  0  0
  -40.7655   60.5614   64.3993 H   0  0  0  0  0  0  0  0  0  0  0  0
  -36.8001   58.9915   65.2360 N   0  0  0  0  0  0  0  0  0  0  0  0
  -37.0579   57.2911   63.8098 O   0  0  0  0  0  0  0  0  0  0  0  0
  -38.3589   57.4726   64.3674 C   0  0  0  0  0  0  0  0  0  0  0  0
  -36.1843   58.2775   64.3942 C   0  0  0  0  0  0  0  0  0  0  0  0
  -38.2251   58.6396   65.3846 C   0  0  0  0  0  0  0  0  0  0  0  0
  -35.1082   58.7128   61.7391 O   0  0  0  0  0  0  0  0  0  0  0  0
  -34.2607   58.6146   62.7705 C   0  0  0  0  0  0  0  0  0  0  0  0
  -32.8829   58.7395   62.5492 C   0  0  0  0  0  0  0  0  0  0  0  0
  -31.9722   58.6309   63.6136 C   0  0  0  0  0  0  0  0  0  0  0  0
  -32.4296   58.4059   64.9131 C   0  0  0  0  0  0  0  0  0  0  0  0
  -33.8036   58.2868   65.1400 C   0  0  0  0  0  0  0  0  0  0  0  0
  -34.7182   58.3865   64.0741 C   0  0  0  0  0  0  0  0  0  0  0  0
  -34.7792   58.8657   60.8752 H   0  0  0  0  0  0  0  0  0  0  0  0
  -41.8893   59.3472   61.9155 O   0  0  0  0  0  0  0  0  0  0  0  0
  -40.9020   58.8335   62.4155 C   0  0  0  0  0  0  0  0  0  0  0  0
  -39.7999   58.4373   61.5327 O   0  0  0  0  0  0  0  0  0  0  0  0
  -39.0558   59.4131   60.7789 C   0  0  0  0  0  0  0  0  0  0  0  0
  -38.8059   59.0328   59.3248 C   0  0  0  0  0  0  0  0  0  0  0  0
  -37.7484   59.6864   61.5072 C   0  0  0  0  0  0  0  0  0  0  0  0
  -36.6297   61.4263   62.8177 N   0  0  0  0  0  0  0  0  0  0  0  0
  -38.8640   61.4766   62.4703 O   0  0  0  0  0  0  0  0  0  0  0  0
  -37.7871   60.9398   62.3463 C   0  0  0  0  0  0  0  0  0  0  0  0
  -35.8130   60.9007   62.6563 H   0  0  0  0  0  0  0  0  0  0  0  0
  -34.3885   63.6206   62.6871 N   0  0  0  0  0  0  0  0  0  0  0  0
  -36.3042   64.7862   62.4947 O   0  0  0  0  0  0  0  0  0  0  0  0
  -33.6443   62.3625   62.8458 C   0  0  0  0  0  0  0  0  0  0  0  0
  -33.6099   61.9324   64.3245 C   0  0  0  0  0  0  0  0  0  0  0  0
  -34.4764   62.7584   65.2607 C   0  0  0  0  0  0  0  0  0  0  0  0
  -35.9749   62.5829   65.0002 C   0  0  0  0  0  0  0  0  0  0  0  0
  -36.4948   62.6866   63.5568 C   0  0  0  0  0  0  0  0  0  0  0  0
  -35.7117   63.7776   62.8531 C   0  0  0  0  0  0  0  0  0  0  0  0
  -33.7709   65.3696   60.6664 Si  0  0  0  0  0  0  0  0  0  0  0  0
  -33.6725   64.7233   62.3304 O   0  0  0  0  0  0  0  0  0  0  0  0
  -32.9368   66.5133   60.5529 H   0  0  0  0  0  0  0  0  0  0  0  0
  -35.1132   65.7321   60.3781 H   0  0  0  0  0  0  0  0  0  0  0  0
  -33.3406   64.3769   59.7468 H   0  0  0  0  0  0  0  0  0  0  0  0
  -43.0894   58.9916   65.1462 C   0  0  0  0  0  0  0  0  0  0  0  0
  -42.1396   57.9798   64.4935 C   0  0  0  0  0  0  0  0  0  0  0  0
  -44.1557   58.4280   66.1006 C   0  0  0  0  0  0  0  0  0  0  0  0
  -45.4231   59.2763   66.3322 C   0  0  0  0  0  0  0  0  0  0  0  0
  -46.5913   58.3970   66.2226 N   0  0  0  0  0  0  0  0  0  0  0  0
  -47.5222   58.3295   65.2345 C   0  0  0  0  0  0  0  0  0  0  0  0
  -46.7417   57.5143   67.3014 O   0  0  0  0  0  0  0  0  0  0  0  0
  -47.4563   59.0602   64.2462 O   0  0  0  0  0  0  0  0  0  0  0  0
  -47.5299   56.9662   67.1632 H   0  0  0  0  0  0  0  0  0  0  0  0
  -48.6730   57.3265   65.3666 C   0  0  0  0  0  0  0  0  0  0  0  0
  -50.0511   57.8868   64.9893 C   0  0  0  0  0  0  0  0  0  0  0  0
  -50.3843   59.1075   65.8685 C   0  0  0  0  0  0  0  0  0  0  0  0
  -50.5838   60.4073   65.0661 C   0  0  0  0  0  0  0  0  0  0  0  0
  -51.9587   60.5353   64.3841 C   0  0  0  0  0  0  0  0  0  0  0  0
  -51.8683   60.5195   62.8437 C   0  0  0  0  0  0  0  0  0  0  0  0
  -50.4261   60.5275   62.2854 C   0  0  0  0  0  0  0  0  0  0  0  0
  -50.0755   59.2686   61.4838 C   0  0  0  0  0  0  0  0  0  0  0  0
  -51.1152   58.1450   61.5402 C   0  0  0  0  0  0  0  0  0  0  0  0
  -50.5961   56.8653   60.8594 C   0  0  0  0  0  0  0  0  0  0  0  0
  -49.5724   57.1249   59.7440 C   0  0  0  0  0  0  0  0  0  0  0  0
  -48.4797   56.0630   59.5829 C   0  0  0  0  0  0  0  0  0  0  0  0
  -47.4015   56.4148   58.5276 C   0  0  0  0  0  0  0  0  0  0  0  0
  -47.6088   57.8334   57.9594 C   0  0  0  0  0  0  0  0  0  0  0  0
  -47.5692   57.9890   56.4344 C   0  0  0  0  0  0  0  0  0  0  0  0
 46 47  1  0  0  0
 46 48  1  0  0  0
 46 45  1  0  0  0
 47 49  2  0  0  0
 47 51  1  0  0  0
 19 20  2  0  0  0
 37 38  1  0  0  0
 37 39  1  0  0  0
 37 40  1  0  0  0
 37 41  1  0  0  0
 48 50  1  0  0  0
 38 29  1  0  0  0
 45 44  1  0  0  0
 25 27  1  0  0  0
 25 35  1  0  0  0
 25 28  1  0  0  0
 21 20  1  0  0  0
 21 22  1  0  0  0
 44 42  1  0  0  0
  2  1  1  0  0  0
  2  4  1  0  0  0
  2  5  1  0  0  0
 26 27  2  0  0  0
 42 43  2  0  0  0
 29 31  1  0  0  0
 29 36  1  0  0  0
  3  4  2  0  0  0
 43  1  1  0  0  0
  6  9  2  0  0  0
  6 10  1  0  0  0
  1 20  1  0  0  0
 30 36  2  0  0  0
  7  8  1  0  0  0
  7  9  1  0  0  0
 22 24  1  0  0  0
 22 23  1  0  0  0
 11 12  1  0  0  0
 11 18  1  0  0  0
 24 27  1  0  0  0
  4 10  1  0  0  0
 51 52  1  0  0  0
 52 53  1  0  0  0
 53 54  1  0  0  0
 54 55  1  0  0  0
 55 56  1  0  0  0
 56 57  1  0  0  0
 57 58  1  0  0  0
 58 59  1  0  0  0
 59 60  1  0  0  0
 60 61  1  0  0  0
 61 62  1  0  0  0
 62 63  1  0  0  0
 63 64  1  0  0  0
 64 65  1  0  0  0
 31 32  1  0  0  0
 32 33  1  0  0  0
 33 34  1  0  0  0
 34 35  1  0  0  0
 35 36  1  0  0  0
  8 10  1  0  0  0
  9 17  1  0  0  0
 12 13  2  0  0  0
 12 17  1  0  0  0
 13 14  1  0  0  0
 14 15  2  0  0  0
 15 16  1  0  0  0
 16 17  2  0  0  0
M  END
> <minimizedAffinity>
-9.82390

> <CNNscore>
0.3977634013

> <CNNaffinity>
7.6568207741

> <CNN_VS>
3.0456030369

> <CNNaffinity_variance>
0.4200803638

$$$$
/media/chris/experiments/cd1a-new-docking/inputs/ligands/1xz0_ligand.pdb


 65 67  0  0  0  0  0  0  0  0999 V2000
  -39.9448   59.4953   64.9739 C   0  0  0  0  0  0  0  0  0  0  0  0
  -38.9853   60.0486   65.9317 N   0  0  0  0  0  0  0  0  0  0  0  0
  -37.0004   60.9376   66.5970 O   0  0  0  0  0  0  0  0  0  0  0  0
  -37.7367   60.5008   65.7223 C   0  0  0  0  0  0  0  0  0  0  0  0
  -39.2999   60.0964   66.8634 H   0  0  0  0  0  0  0  0  0  0  0  0
  -35.9154   59.9519   64.1217 N   0  0  0  0  0  0  0  0  0  0  0  0
  -35.6544   61.9552   63.1676 O   0  0  0  0  0  0  0  0  0  0  0  0
  -37.0054   61.9665   63.6270 C   0  0  0  0  0  0  0  0  0  0  0  0
  -35.0731   60.6878   63.5331 C   0  0  0  0  0  0  0  0  0  0  0  0
  -37.2407   60.5788   64.2856 C   0  0  0  0  0  0  0  0  0  0  0  0
  -33.1993   62.3500   62.0761 O   0  0  0  0  0  0  0  0  0  0  0  0
  -32.7981   61.1459   62.5012 C   0  0  0  0  0  0  0  0  0  0  0  0
  -31.4861   60.7240   62.2492 C   0  0  0  0  0  0  0  0  0  0  0  0
  -31.0436   59.4608   62.6767 C   0  0  0  0  0  0  0  0  0  0  0  0
  -31.9053   58.6090   63.3698 C   0  0  0  0  0  0  0  0  0  0  0  0
  -33.2133   59.0277   63.6291 C   0  0  0  0  0  0  0  0  0  0  0  0
  -33.6623   60.2895   63.1945 C   0  0  0  0  0  0  0  0  0  0  0  0
  -32.6034   62.9063   61.6141 H   0  0  0  0  0  0  0  0  0  0  0  0
  -41.5139   61.2470   65.4265 O   0  0  0  0  0  0  0  0  0  0  0  0
  -40.8708   60.6338   64.5904 C   0  0  0  0  0  0  0  0  0  0  0  0
  -41.0611   60.9752   63.1768 O   0  0  0  0  0  0  0  0  0  0  0  0
  -42.3427   61.3973   62.6739 C   0  0  0  0  0  0  0  0  0  0  0  0
  -43.5009   60.4789   63.0435 C   0  0  0  0  0  0  0  0  0  0  0  0
  -42.2346   61.5645   61.1657 C   0  0  0  0  0  0  0  0  0  0  0  0
  -41.3707   59.2734   61.1943 N   0  0  0  0  0  0  0  0  0  0  0  0
  -41.3298   60.5168   59.3054 O   0  0  0  0  0  0  0  0  0  0  0  0
  -41.5686   60.3942   60.4849 C   0  0  0  0  0  0  0  0  0  0  0  0
  -41.6025   59.2906   62.1510 H   0  0  0  0  0  0  0  0  0  0  0  0
  -38.6632   57.7995   61.7876 N   0  0  0  0  0  0  0  0  0  0  0  0
  -40.2184   56.1857   61.9930 O   0  0  0  0  0  0  0  0  0  0  0  0
  -38.2596   59.1870   61.5157 C   0  0  0  0  0  0  0  0  0  0  0  0
  -38.1788   59.4439   59.9991 C   0  0  0  0  0  0  0  0  0  0  0  0
  -38.6940   58.3151   59.1216 C   0  0  0  0  0  0  0  0  0  0  0  0
  -40.2055   58.1043   59.2435 C   0  0  0  0  0  0  0  0  0  0  0  0
  -40.8333   58.0235   60.6450 C   0  0  0  0  0  0  0  0  0  0  0  0
  -39.8739   57.2713   61.5464 C   0  0  0  0  0  0  0  0  0  0  0  0
  -36.3567   57.6616   63.2656 Si  0  0  0  0  0  0  0  0  0  0  0  0
  -37.7276   56.9796   62.3428 O   0  0  0  0  0  0  0  0  0  0  0  0
  -35.5313   56.6062   63.7362 H   0  0  0  0  0  0  0  0  0  0  0  0
  -36.8522   58.4035   64.3703 H   0  0  0  0  0  0  0  0  0  0  0  0
  -35.5977   58.5164   62.4234 H   0  0  0  0  0  0  0  0  0  0  0  0
  -41.8431   57.7520   64.4730 C   0  0  0  0  0  0  0  0  0  0  0  0
  -40.6891   58.1997   65.3783 C   0  0  0  0  0  0  0  0  0  0  0  0
  -42.8484   56.7534   65.0712 C   0  0  0  0  0  0  0  0  0  0  0  0
  -43.4162   57.0673   66.4707 C   0  0  0  0  0  0  0  0  0  0  0  0
  -44.3666   58.1764   66.3432 N   0  0  0  0  0  0  0  0  0  0  0  0
  -45.7127   58.1335   66.1592 C   0  0  0  0  0  0  0  0  0  0  0  0
  -43.7750   59.4447   66.4278 O   0  0  0  0  0  0  0  0  0  0  0  0
  -46.3118   57.0606   66.0872 O   0  0  0  0  0  0  0  0  0  0  0  0
  -44.4582   60.1269   66.3359 H   0  0  0  0  0  0  0  0  0  0  0  0
  -46.4867   59.4499   66.0343 C   0  0  0  0  0  0  0  0  0  0  0  0
  -46.9329   59.7919   64.6062 C   0  0  0  0  0  0  0  0  0  0  0  0
  -48.4155   60.2119   64.6019 C   0  0  0  0  0  0  0  0  0  0  0  0
  -49.2351   59.5868   65.7467 C   0  0  0  0  0  0  0  0  0  0  0  0
  -50.7606   59.6249   65.5382 C   0  0  0  0  0  0  0  0  0  0  0  0
  -51.1880   60.5844   64.4078 C   0  0  0  0  0  0  0  0  0  0  0  0
  -51.9221   59.9020   63.2301 C   0  0  0  0  0  0  0  0  0  0  0  0
  -50.9844   59.1405   62.2861 C   0  0  0  0  0  0  0  0  0  0  0  0
  -51.5442   57.8306   61.7223 C   0  0  0  0  0  0  0  0  0  0  0  0
  -50.7096   57.3313   60.5288 C   0  0  0  0  0  0  0  0  0  0  0  0
  -49.2918   56.8769   60.9071 C   0  0  0  0  0  0  0  0  0  0  0  0
  -48.1925   57.2129   59.8941 C   0  0  0  0  0  0  0  0  0  0  0  0
  -48.6363   58.1857   58.7732 C   0  0  0  0  0  0  0  0  0  0  0  0
  -48.2409   57.6592   57.3787 C   0  0  0  0  0  0  0  0  0  0  0  0
  -47.1007   58.3847   56.6542 C   0  0  0  0  0  0  0  0  0  0  0  0
 46 47  1  0  0  0
 46 48  1  0  0  0
 46 45  1  0  0  0
 47 49  2  0  0  0
 47 51  1  0  0  0
 19 20  2  0  0  0
 37 38  1  0  0  0
 37 39  1  0  0  0
 37 40  1  0  0  0
 37 41  1  0  0  0
 48 50  1  0  0  0
 38 29  1  0  0  0
 45 44  1  0  0  0
 25 27  1  0  0  0
 25 35  1  0  0  0
 25 28  1  0  0  0
 21 20  1  0  0  0
 21 22  1  0  0  0
 44 42  1  0  0  0
  2  1  1  0  0  0
  2  4  1  0  0  0
  2  5  1  0  0  0
 26 27  2  0  0  0
 42 43  2  0  0  0
 29 31  1  0  0  0
 29 36  1  0  0  0
  3  4  2  0  0  0
 43  1  1  0  0  0
  6  9  2  0  0  0
  6 10  1  0  0  0
  1 20  1  0  0  0
 30 36  2  0  0  0
  7  8  1  0  0  0
  7  9  1  0  0  0
 22 24  1  0  0  0
 22 23  1  0  0  0
 11 12  1  0  0  0
 11 18  1  0  0  0
 24 27  1  0  0  0
  4 10  1  0  0  0
 51 52  1  0  0  0
 52 53  1  0  0  0
 53 54  1  0  0  0
 54 55  1  0  0  0
 55 56  1  0  0  0
 56 57  1  0  0  0
 57 58  1  0  0  0
 58 59  1  0  0  0
 59 60  1  0  0  0
 60 61  1  0  0  0
 61 62  1  0  0  0
 62 63  1  0  0  0
 63 64  1  0  0  0
 64 65  1  0  0  0
 31 32  1  0  0  0
 32 33  1  0  0  0
 33 34  1  0  0  0
 34 35  1  0  0  0
 35 36  1  0  0  0
  8 10  1  0  0  0
  9 17  1  0  0  0
 12 13  2  0  0  0
 12 17  1  0  0  0
 13 14  1  0  0  0
 14 15  2  0  0  0
 15 16  1  0  0  0
 16 17  2  0  0  0
M  END
> <minimizedAffinity>
-10.49967

> <CNNscore>
0.2963444591

> <CNNaffinity>
7.7970151901

> <CNN_VS>
2.3106021881

> <CNNaffinity_variance>
1.4086034298

$$$$
/media/chris/experiments/cd1a-new-docking/inputs/ligands/1xz0_ligand.pdb


 65 67  0  0  0  0  0  0  0  0999 V2000
  -41.3722   57.7156   62.6457 C   0  0  0  0  0  0  0  0  0  0  0  0
  -40.1708   57.1834   63.2918 N   0  0  0  0  0  0  0  0  0  0  0  0
  -38.2841   57.2800   64.5584 O   0  0  0  0  0  0  0  0  0  0  0  0
  -39.2720   57.8119   64.0694 C   0  0  0  0  0  0  0  0  0  0  0  0
  -39.9959   56.2274   63.1342 H   0  0  0  0  0  0  0  0  0  0  0  0
  -38.5581   60.1875   63.9042 N   0  0  0  0  0  0  0  0  0  0  0  0
  -38.6193   60.7365   66.0691 O   0  0  0  0  0  0  0  0  0  0  0  0
  -39.5509   59.6610   65.9605 C   0  0  0  0  0  0  0  0  0  0  0  0
  -38.0575   60.9690   64.7622 C   0  0  0  0  0  0  0  0  0  0  0  0
  -39.5567   59.2549   64.4606 C   0  0  0  0  0  0  0  0  0  0  0  0
  -36.3884   62.2497   66.7550 O   0  0  0  0  0  0  0  0  0  0  0  0
  -36.2607   62.6167   65.4741 C   0  0  0  0  0  0  0  0  0  0  0  0
  -35.3188   63.5930   65.1239 C   0  0  0  0  0  0  0  0  0  0  0  0
  -35.1721   64.0023   63.7878 C   0  0  0  0  0  0  0  0  0  0  0  0
  -35.9588   63.4328   62.7852 C   0  0  0  0  0  0  0  0  0  0  0  0
  -36.8955   62.4540   63.1285 C   0  0  0  0  0  0  0  0  0  0  0  0
  -37.0509   62.0479   64.4677 C   0  0  0  0  0  0  0  0  0  0  0  0
  -35.8486   62.6441   67.4114 H   0  0  0  0  0  0  0  0  0  0  0  0
  -41.3838   59.7630   61.4034 O   0  0  0  0  0  0  0  0  0  0  0  0
  -40.8911   58.6577   61.5586 C   0  0  0  0  0  0  0  0  0  0  0  0
  -39.8542   58.2187   60.6188 O   0  0  0  0  0  0  0  0  0  0  0  0
  -39.0374   59.1678   59.9075 C   0  0  0  0  0  0  0  0  0  0  0  0
  -38.3574   58.6099   58.6634 C   0  0  0  0  0  0  0  0  0  0  0  0
  -38.0179   59.7451   60.8780 C   0  0  0  0  0  0  0  0  0  0  0  0
  -36.0676   59.0938   62.2078 N   0  0  0  0  0  0  0  0  0  0  0  0
  -37.5274   57.5484   61.4357 O   0  0  0  0  0  0  0  0  0  0  0  0
  -37.1456   58.6933   61.5179 C   0  0  0  0  0  0  0  0  0  0  0  0
  -35.8524   60.0545   62.2032 H   0  0  0  0  0  0  0  0  0  0  0  0
  -34.0665   59.7306   64.5412 N   0  0  0  0  0  0  0  0  0  0  0  0
  -35.2784   58.0012   65.3196 O   0  0  0  0  0  0  0  0  0  0  0  0
  -33.7254   60.7143   63.5030 C   0  0  0  0  0  0  0  0  0  0  0  0
  -32.8101   60.0851   62.4357 C   0  0  0  0  0  0  0  0  0  0  0  0
  -32.6041   58.5846   62.5606 C   0  0  0  0  0  0  0  0  0  0  0  0
  -33.8768   57.7805   62.2818 C   0  0  0  0  0  0  0  0  0  0  0  0
  -35.1865   58.2011   62.9692 C   0  0  0  0  0  0  0  0  0  0  0  0
  -34.8530   58.6549   64.3769 C   0  0  0  0  0  0  0  0  0  0  0  0
  -34.0997   61.3075   66.7853 Si  0  0  0  0  0  0  0  0  0  0  0  0
  -33.5453   59.9347   65.7832 O   0  0  0  0  0  0  0  0  0  0  0  0
  -33.4076   61.2982   68.0252 H   0  0  0  0  0  0  0  0  0  0  0  0
  -35.4949   61.1883   67.0211 H   0  0  0  0  0  0  0  0  0  0  0  0
  -33.8368   62.5262   66.1057 H   0  0  0  0  0  0  0  0  0  0  0  0
  -42.8233   57.5438   64.8272 C   0  0  0  0  0  0  0  0  0  0  0  0
  -42.4613   58.3277   63.5597 C   0  0  0  0  0  0  0  0  0  0  0  0
  -44.1638   57.8884   65.4981 C   0  0  0  0  0  0  0  0  0  0  0  0
  -45.1185   58.8315   64.7375 C   0  0  0  0  0  0  0  0  0  0  0  0
  -46.4680   58.6583   65.2840 N   0  0  0  0  0  0  0  0  0  0  0  0
  -47.6684   58.8956   64.6920 C   0  0  0  0  0  0  0  0  0  0  0  0
  -46.4907   58.1792   66.6015 O   0  0  0  0  0  0  0  0  0  0  0  0
  -47.7372   59.3048   63.5332 O   0  0  0  0  0  0  0  0  0  0  0  0
  -47.4101   58.0891   66.8969 H   0  0  0  0  0  0  0  0  0  0  0  0
  -48.9516   58.6519   65.4929 C   0  0  0  0  0  0  0  0  0  0  0  0
  -49.6715   59.9298   65.9446 C   0  0  0  0  0  0  0  0  0  0  0  0
  -51.1655   59.8538   65.5750 C   0  0  0  0  0  0  0  0  0  0  0  0
  -51.5706   60.8237   64.4490 C   0  0  0  0  0  0  0  0  0  0  0  0
  -52.1284   60.1423   63.1854 C   0  0  0  0  0  0  0  0  0  0  0  0
  -51.0233   59.5511   62.2850 C   0  0  0  0  0  0  0  0  0  0  0  0
  -50.8971   58.0111   62.3512 C   0  0  0  0  0  0  0  0  0  0  0  0
  -51.1533   57.3198   61.0071 C   0  0  0  0  0  0  0  0  0  0  0  0
  -50.2254   57.7443   59.8644 C   0  0  0  0  0  0  0  0  0  0  0  0
  -48.7617   57.3710   60.1619 C   0  0  0  0  0  0  0  0  0  0  0  0
  -48.3193   56.0395   59.5366 C   0  0  0  0  0  0  0  0  0  0  0  0
  -47.1903   56.1312   58.5048 C   0  0  0  0  0  0  0  0  0  0  0  0
  -47.6553   55.9642   57.0366 C   0  0  0  0  0  0  0  0  0  0  0  0
  -48.0962   57.3104   56.4270 C   0  0  0  0  0  0  0  0  0  0  0  0
  -47.2253   58.5352   56.7318 C   0  0  0  0  0  0  0  0  0  0  0  0
 46 47  1  0  0  0
 46 48  1  0  0  0
 46 45  1  0  0  0
 47 49  2  0  0  0
 47 51  1  0  0  0
 19 20  2  0  0  0
 37 38  1  0  0  0
 37 39  1  0  0  0
 37 40  1  0  0  0
 37 41  1  0  0  0
 48 50  1  0  0  0
 38 29  1  0  0  0
 45 44  1  0  0  0
 25 27  1  0  0  0
 25 35  1  0  0  0
 25 28  1  0  0  0
 21 20  1  0  0  0
 21 22  1  0  0  0
 44 42  1  0  0  0
  2  1  1  0  0  0
  2  4  1  0  0  0
  2  5  1  0  0  0
 26 27  2  0  0  0
 42 43  2  0  0  0
 29 31  1  0  0  0
 29 36  1  0  0  0
  3  4  2  0  0  0
 43  1  1  0  0  0
  6  9  2  0  0  0
  6 10  1  0  0  0
  1 20  1  0  0  0
 30 36  2  0  0  0
  7  8  1  0  0  0
  7  9  1  0  0  0
 22 24  1  0  0  0
 22 23  1  0  0  0
 11 12  1  0  0  0
 11 18  1  0  0  0
 24 27  1  0  0  0
  4 10  1  0  0  0
 51 52  1  0  0  0
 52 53  1  0  0  0
 53 54  1  0  0  0
 54 55  1  0  0  0
 55 56  1  0  0  0
 56 57  1  0  0  0
 57 58  1  0  0  0
 58 59  1  0  0  0
 59 60  1  0  0  0
 60 61  1  0  0  0
 61 62  1  0  0  0
 62 63  1  0  0  0
 63 64  1  0  0  0
 64 65  1  0  0  0
 31 32  1  0  0  0
 32 33  1  0  0  0
 33 34  1  0  0  0
 34 35  1  0  0  0
 35 36  1  0  0  0
  8 10  1  0  0  0
  9 17  1  0  0  0
 12 13  2  0  0  0
 12 17  1  0  0  0
 13 14  1  0  0  0
 14 15  2  0  0  0
 15 16  1  0  0  0
 16 17  2  0  0  0
M  END
> <minimizedAffinity>
-9.88880

> <CNNscore>
0.2631101608

> <CNNaffinity>
7.5063066483

> <CNN_VS>
1.9749855995

> <CNNaffinity_variance>
0.6651972532

$$$$
/media/chris/experiments/cd1a-new-docking/inputs/ligands/1xz0_ligand.pdb


 65 67  0  0  0  0  0  0  0  0999 V2000
  -41.6212   57.1766   60.1551 C   0  0  0  0  0  0  0  0  0  0  0  0
  -41.4584   55.8560   60.7665 N   0  0  0  0  0  0  0  0  0  0  0  0
  -41.1946   54.3850   62.4809 O   0  0  0  0  0  0  0  0  0  0  0  0
  -41.3402   55.5267   62.0645 C   0  0  0  0  0  0  0  0  0  0  0  0
  -41.4317   55.1003   60.1360 H   0  0  0  0  0  0  0  0  0  0  0  0
  -40.2754   57.4257   63.2648 N   0  0  0  0  0  0  0  0  0  0  0  0
  -40.8248   56.8839   65.3616 O   0  0  0  0  0  0  0  0  0  0  0  0
  -41.8391   56.2667   64.5699 C   0  0  0  0  0  0  0  0  0  0  0  0
  -39.9116   57.5520   64.4686 C   0  0  0  0  0  0  0  0  0  0  0  0
  -41.5081   56.6327   63.0964 C   0  0  0  0  0  0  0  0  0  0  0  0
  -40.0633   60.0564   65.9184 O   0  0  0  0  0  0  0  0  0  0  0  0
  -38.8586   59.5401   65.6471 C   0  0  0  0  0  0  0  0  0  0  0  0
  -37.7054   60.2075   66.0803 C   0  0  0  0  0  0  0  0  0  0  0  0
  -36.4291   59.6911   65.7998 C   0  0  0  0  0  0  0  0  0  0  0  0
  -36.2917   58.4962   65.0914 C   0  0  0  0  0  0  0  0  0  0  0  0
  -37.4392   57.8233   64.6625 C   0  0  0  0  0  0  0  0  0  0  0  0
  -38.7193   58.3428   64.9344 C   0  0  0  0  0  0  0  0  0  0  0  0
  -40.1321   60.8591   66.3969 H   0  0  0  0  0  0  0  0  0  0  0  0
  -39.9692   57.5863   58.4704 O   0  0  0  0  0  0  0  0  0  0  0  0
  -40.2489   57.5895   59.6579 C   0  0  0  0  0  0  0  0  0  0  0  0
  -39.1991   57.9400   60.6202 O   0  0  0  0  0  0  0  0  0  0  0  0
  -38.3516   59.0869   60.4198 C   0  0  0  0  0  0  0  0  0  0  0  0
  -37.4817   59.0201   59.1707 C   0  0  0  0  0  0  0  0  0  0  0  0
  -37.5048   59.2814   61.6686 C   0  0  0  0  0  0  0  0  0  0  0  0
  -36.6040   61.3677   62.5808 N   0  0  0  0  0  0  0  0  0  0  0  0
  -38.8338   61.0086   62.4606 O   0  0  0  0  0  0  0  0  0  0  0  0
  -37.6935   60.6344   62.3091 C   0  0  0  0  0  0  0  0  0  0  0  0
  -35.7241   60.9575   62.4174 H   0  0  0  0  0  0  0  0  0  0  0  0
  -34.4284   63.6273   62.4539 N   0  0  0  0  0  0  0  0  0  0  0  0
  -36.3085   64.6407   61.7442 O   0  0  0  0  0  0  0  0  0  0  0  0
  -33.6932   62.4543   62.9495 C   0  0  0  0  0  0  0  0  0  0  0  0
  -33.9077   62.2769   64.4646 C   0  0  0  0  0  0  0  0  0  0  0  0
  -34.9444   63.1986   65.0854 C   0  0  0  0  0  0  0  0  0  0  0  0
  -36.3694   62.9024   64.6105 C   0  0  0  0  0  0  0  0  0  0  0  0
  -36.6311   62.7383   63.1041 C   0  0  0  0  0  0  0  0  0  0  0  0
  -35.7636   63.7384   62.3653 C   0  0  0  0  0  0  0  0  0  0  0  0
  -34.2647   65.7333   60.7042 Si  0  0  0  0  0  0  0  0  0  0  0  0
  -33.6879   64.6926   62.0385 O   0  0  0  0  0  0  0  0  0  0  0  0
  -33.3184   66.7649   60.4657 H   0  0  0  0  0  0  0  0  0  0  0  0
  -35.5133   66.3090   61.0588 H   0  0  0  0  0  0  0  0  0  0  0  0
  -34.4201   64.9526   59.5283 H   0  0  0  0  0  0  0  0  0  0  0  0
  -41.7702   59.6912   60.8958 C   0  0  0  0  0  0  0  0  0  0  0  0
  -42.3314   58.2673   60.9931 C   0  0  0  0  0  0  0  0  0  0  0  0
  -42.1612   60.6702   62.0157 C   0  0  0  0  0  0  0  0  0  0  0  0
  -42.5570   60.0692   63.3802 C   0  0  0  0  0  0  0  0  0  0  0  0
  -43.9971   60.2686   63.5701 N   0  0  0  0  0  0  0  0  0  0  0  0
  -44.9081   59.4383   64.1431 C   0  0  0  0  0  0  0  0  0  0  0  0
  -44.4703   61.4955   63.0837 O   0  0  0  0  0  0  0  0  0  0  0  0
  -44.5734   58.3483   64.6068 O   0  0  0  0  0  0  0  0  0  0  0  0
  -45.4251   61.5595   63.2419 H   0  0  0  0  0  0  0  0  0  0  0  0
  -46.3757   59.8746   64.2019 C   0  0  0  0  0  0  0  0  0  0  0  0
  -47.0035   59.8072   65.6007 C   0  0  0  0  0  0  0  0  0  0  0  0
  -48.3673   59.0934   65.5343 C   0  0  0  0  0  0  0  0  0  0  0  0
  -49.5516   59.9906   65.9411 C   0  0  0  0  0  0  0  0  0  0  0  0
  -50.9254   59.5042   65.4430 C   0  0  0  0  0  0  0  0  0  0  0  0
  -51.6695   60.5646   64.6044 C   0  0  0  0  0  0  0  0  0  0  0  0
  -52.0562   60.1011   63.1806 C   0  0  0  0  0  0  0  0  0  0  0  0
  -51.3828   58.7888   62.7625 C   0  0  0  0  0  0  0  0  0  0  0  0
  -50.4386   58.8907   61.5605 C   0  0  0  0  0  0  0  0  0  0  0  0
  -50.7430   57.8032   60.5139 C   0  0  0  0  0  0  0  0  0  0  0  0
  -50.0870   58.0530   59.1476 C   0  0  0  0  0  0  0  0  0  0  0  0
  -48.5842   58.3506   59.1751 C   0  0  0  0  0  0  0  0  0  0  0  0
  -47.9173   58.3868   57.7773 C   0  0  0  0  0  0  0  0  0  0  0  0
  -47.0767   57.1199   57.5195 C   0  0  0  0  0  0  0  0  0  0  0  0
  -47.7926   55.9226   56.8830 C   0  0  0  0  0  0  0  0  0  0  0  0
 46 47  1  0  0  0
 46 48  1  0  0  0
 46 45  1  0  0  0
 47 49  2  0  0  0
 47 51  1  0  0  0
 19 20  2  0  0  0
 37 38  1  0  0  0
 37 39  1  0  0  0
 37 40  1  0  0  0
 37 41  1  0  0  0
 48 50  1  0  0  0
 38 29  1  0  0  0
 45 44  1  0  0  0
 25 27  1  0  0  0
 25 35  1  0  0  0
 25 28  1  0  0  0
 21 20  1  0  0  0
 21 22  1  0  0  0
 44 42  1  0  0  0
  2  1  1  0  0  0
  2  4  1  0  0  0
  2  5  1  0  0  0
 26 27  2  0  0  0
 42 43  2  0  0  0
 29 31  1  0  0  0
 29 36  1  0  0  0
  3  4  2  0  0  0
 43  1  1  0  0  0
  6  9  2  0  0  0
  6 10  1  0  0  0
  1 20  1  0  0  0
 30 36  2  0  0  0
  7  8  1  0  0  0
  7  9  1  0  0  0
 22 24  1  0  0  0
 22 23  1  0  0  0
 11 12  1  0  0  0
 11 18  1  0  0  0
 24 27  1  0  0  0
  4 10  1  0  0  0
 51 52  1  0  0  0
 52 53  1  0  0  0
 53 54  1  0  0  0
 54 55  1  0  0  0
 55 56  1  0  0  0
 56 57  1  0  0  0
 57 58  1  0  0  0
 58 59  1  0  0  0
 59 60  1  0  0  0
 60 61  1  0  0  0
 61 62  1  0  0  0
 62 63  1  0  0  0
 63 64  1  0  0  0
 64 65  1  0  0  0
 31 32  1  0  0  0
 32 33  1  0  0  0
 33 34  1  0  0  0
 34 35  1  0  0  0
 35 36  1  0  0  0
  8 10  1  0  0  0
  9 17  1  0  0  0
 12 13  2  0  0  0
 12 17  1  0  0  0
 13 14  1  0  0  0
 14 15  2  0  0  0
 15 16  1  0  0  0
 16 17  2  0  0  0
M  END
> <minimizedAffinity>
-9.29951

> <CNNscore>
0.2354199290

> <CNNaffinity>
7.6015229225

> <CNN_VS>
1.7895499468

> <CNNaffinity_variance>
0.6156555414

$$$$
/media/chris/experiments/cd1a-new-docking/inputs/ligands/1xz0_ligand.pdb


 65 67  0  0  0  0  0  0  0  0999 V2000
  -42.3683   58.8552   65.4392 C   0  0  0  0  0  0  0  0  0  0  0  0
  -42.0806   57.4287   65.6016 N   0  0  0  0  0  0  0  0  0  0  0  0
  -41.9093   55.2608   64.9353 O   0  0  0  0  0  0  0  0  0  0  0  0
  -42.1613   56.4351   64.6995 C   0  0  0  0  0  0  0  0  0  0  0  0
  -41.7856   57.1580   66.5011 H   0  0  0  0  0  0  0  0  0  0  0  0
  -41.2611   57.0183   62.4568 N   0  0  0  0  0  0  0  0  0  0  0  0
  -42.4646   58.8561   62.0490 O   0  0  0  0  0  0  0  0  0  0  0  0
  -43.2728   58.1104   62.9585 C   0  0  0  0  0  0  0  0  0  0  0  0
  -41.2525   58.1102   61.8202 C   0  0  0  0  0  0  0  0  0  0  0  0
  -42.4812   56.8075   63.2590 C   0  0  0  0  0  0  0  0  0  0  0  0
  -39.6590   60.5007   62.1989 O   0  0  0  0  0  0  0  0  0  0  0  0
  -39.4108   59.7212   61.1396 C   0  0  0  0  0  0  0  0  0  0  0  0
  -38.3831   60.0656   60.2517 C   0  0  0  0  0  0  0  0  0  0  0  0
  -38.1091   59.2689   59.1273 C   0  0  0  0  0  0  0  0  0  0  0  0
  -38.8531   58.1134   58.8831 C   0  0  0  0  0  0  0  0  0  0  0  0
  -39.8753   57.7621   59.7693 C   0  0  0  0  0  0  0  0  0  0  0  0
  -40.1581   58.5630   60.8923 C   0  0  0  0  0  0  0  0  0  0  0  0
  -39.1458   61.2711   62.3443 H   0  0  0  0  0  0  0  0  0  0  0  0
  -41.0801   60.8026   65.9718 O   0  0  0  0  0  0  0  0  0  0  0  0
  -41.0969   59.5929   65.8138 C   0  0  0  0  0  0  0  0  0  0  0  0
  -39.8330   58.8576   65.9271 O   0  0  0  0  0  0  0  0  0  0  0  0
  -38.7833   59.0177   64.9543 C   0  0  0  0  0  0  0  0  0  0  0  0
  -38.3666   57.7294   64.2556 C   0  0  0  0  0  0  0  0  0  0  0  0
  -37.5958   59.6817   65.6352 C   0  0  0  0  0  0  0  0  0  0  0  0
  -36.6026   61.8944   65.9719 N   0  0  0  0  0  0  0  0  0  0  0  0
  -37.9319   61.4660   64.1929 O   0  0  0  0  0  0  0  0  0  0  0  0
  -37.4061   61.1216   65.2265 C   0  0  0  0  0  0  0  0  0  0  0  0
  -36.2304   61.5060   66.7964 H   0  0  0  0  0  0  0  0  0  0  0  0
  -34.2455   63.0098   64.2240 N   0  0  0  0  0  0  0  0  0  0  0  0
  -36.0634   64.0722   63.4290 O   0  0  0  0  0  0  0  0  0  0  0  0
  -33.5908   62.0655   65.1415 C   0  0  0  0  0  0  0  0  0  0  0  0
  -33.3364   62.7237   66.5107 C   0  0  0  0  0  0  0  0  0  0  0  0
  -33.9572   64.0986   66.6950 C   0  0  0  0  0  0  0  0  0  0  0  0
  -35.4874   64.0643   66.7319 C   0  0  0  0  0  0  0  0  0  0  0  0
  -36.2390   63.2778   65.6451 C   0  0  0  0  0  0  0  0  0  0  0  0
  -35.5026   63.4688   64.3336 C   0  0  0  0  0  0  0  0  0  0  0  0
  -33.7468   62.7354   61.5408 Si  0  0  0  0  0  0  0  0  0  0  0  0
  -33.5140   63.4506   63.1627 O   0  0  0  0  0  0  0  0  0  0  0  0
  -32.8715   63.3642   60.6162 H   0  0  0  0  0  0  0  0  0  0  0  0
  -35.0912   62.9291   61.1267 H   0  0  0  0  0  0  0  0  0  0  0  0
  -33.4626   61.3451   61.5913 H   0  0  0  0  0  0  0  0  0  0  0  0
  -44.6783   58.3853   66.5954 C   0  0  0  0  0  0  0  0  0  0  0  0
  -43.6352   59.4104   66.1340 C   0  0  0  0  0  0  0  0  0  0  0  0
  -46.0950   58.9140   66.8770 C   0  0  0  0  0  0  0  0  0  0  0  0
  -47.2664   58.2428   66.1308 C   0  0  0  0  0  0  0  0  0  0  0  0
  -47.8888   59.2429   65.2578 N   0  0  0  0  0  0  0  0  0  0  0  0
  -48.7285   60.2607   65.5845 C   0  0  0  0  0  0  0  0  0  0  0  0
  -47.5513   59.1047   63.9040 O   0  0  0  0  0  0  0  0  0  0  0  0
  -49.0644   60.4595   66.7519 O   0  0  0  0  0  0  0  0  0  0  0  0
  -47.9958   59.7952   63.3879 H   0  0  0  0  0  0  0  0  0  0  0  0
  -49.2650   61.1663   64.4711 C   0  0  0  0  0  0  0  0  0  0  0  0
  -50.6935   61.6782   64.7010 C   0  0  0  0  0  0  0  0  0  0  0  0
  -51.6906   60.5047   64.6472 C   0  0  0  0  0  0  0  0  0  0  0  0
  -52.3227   60.2979   63.2578 C   0  0  0  0  0  0  0  0  0  0  0  0
  -51.9457   58.9711   62.5727 C   0  0  0  0  0  0  0  0  0  0  0  0
  -50.4620   58.9131   62.1523 C   0  0  0  0  0  0  0  0  0  0  0  0
  -50.0337   60.0158   61.1562 C   0  0  0  0  0  0  0  0  0  0  0  0
  -49.2849   59.4750   59.9326 C   0  0  0  0  0  0  0  0  0  0  0  0
  -48.4158   58.2398   60.1893 C   0  0  0  0  0  0  0  0  0  0  0  0
  -49.0314   56.9790   59.5555 C   0  0  0  0  0  0  0  0  0  0  0  0
  -48.0154   55.8592   59.2840 C   0  0  0  0  0  0  0  0  0  0  0  0
  -47.0444   56.1079   58.1251 C   0  0  0  0  0  0  0  0  0  0  0  0
  -47.7028   56.0651   56.7235 C   0  0  0  0  0  0  0  0  0  0  0  0
  -47.9033   57.4825   56.1500 C   0  0  0  0  0  0  0  0  0  0  0  0
  -47.0861   58.6154   56.7826 C   0  0  0  0  0  0  0  0  0  0  0  0
 46 47  1  0  0  0
 46 48  1  0  0  0
 46 45  1  0  0  0
 47 49  2  0  0  0
 47 51  1  0  0  0
 19 20  2  0  0  0
 37 38  1  0  0  0
 37 39  1  0  0  0
 37 40  1  0  0  0
 37 41  1  0  0  0
 48 50  1  0  0  0
 38 29  1  0  0  0
 45 44  1  0  0  0
 25 27  1  0  0  0
 25 35  1  0  0  0
 25 28  1  0  0  0
 21 20  1  0  0  0
 21 22  1  0  0  0
 44 42  1  0  0  0
  2  1  1  0  0  0
  2  4  1  0  0  0
  2  5  1  0  0  0
 26 27  2  0  0  0
 42 43  2  0  0  0
 29 31  1  0  0  0
 29 36  1  0  0  0
  3  4  2  0  0  0
 43  1  1  0  0  0
  6  9  2  0  0  0
  6 10  1  0  0  0
  1 20  1  0  0  0
 30 36  2  0  0  0
  7  8  1  0  0  0
  7  9  1  0  0  0
 22 24  1  0  0  0
 22 23  1  0  0  0
 11 12  1  0  0  0
 11 18  1  0  0  0
 24 27  1  0  0  0
  4 10  1  0  0  0
 51 52  1  0  0  0
 52 53  1  0  0  0
 53 54  1  0  0  0
 54 55  1  0  0  0
 55 56  1  0  0  0
 56 57  1  0  0  0
 57 58  1  0  0  0
 58 59  1  0  0  0
 59 60  1  0  0  0
 60 61  1  0  0  0
 61 62  1  0  0  0
 62 63  1  0  0  0
 63 64  1  0  0  0
 64 65  1  0  0  0
 31 32  1  0  0  0
 32 33  1  0  0  0
 33 34  1  0  0  0
 34 35  1  0  0  0
 35 36  1  0  0  0
  8 10  1  0  0  0
  9 17  1  0  0  0
 12 13  2  0  0  0
 12 17  1  0  0  0
 13 14  1  0  0  0
 14 15  2  0  0  0
 15 16  1  0  0  0
 16 17  2  0  0  0
M  END
> <minimizedAffinity>
-10.65590

> <CNNscore>
0.2316717803

> <CNNaffinity>
7.3042554855

> <CNN_VS>
1.6921899319

> <CNNaffinity_variance>
1.1351644993

$$$$
/media/chris/experiments/cd1a-new-docking/inputs/ligands/1xz0_ligand.pdb


 65 67  0  0  0  0  0  0  0  0999 V2000
  -37.1987   58.1831   63.6038 C   0  0  0  0  0  0  0  0  0  0  0  0
  -37.2634   57.9830   62.1547 N   0  0  0  0  0  0  0  0  0  0  0  0
  -37.6819   58.5734   59.9985 O   0  0  0  0  0  0  0  0  0  0  0  0
  -37.6504   58.8389   61.1928 C   0  0  0  0  0  0  0  0  0  0  0  0
  -36.9832   57.0935   61.8392 H   0  0  0  0  0  0  0  0  0  0  0  0
  -36.8896   60.8666   62.4136 N   0  0  0  0  0  0  0  0  0  0  0  0
  -38.7251   61.2738   63.6207 O   0  0  0  0  0  0  0  0  0  0  0  0
  -39.2120   60.5616   62.4840 C   0  0  0  0  0  0  0  0  0  0  0  0
  -37.2947   61.3932   63.4888 C   0  0  0  0  0  0  0  0  0  0  0  0
  -37.9670   60.2705   61.6008 C   0  0  0  0  0  0  0  0  0  0  0  0
  -37.3452   60.9335   66.3494 O   0  0  0  0  0  0  0  0  0  0  0  0
  -36.4825   61.8297   65.8553 C   0  0  0  0  0  0  0  0  0  0  0  0
  -35.6174   62.5097   66.7225 C   0  0  0  0  0  0  0  0  0  0  0  0
  -34.7094   63.4620   66.2297 C   0  0  0  0  0  0  0  0  0  0  0  0
  -34.6493   63.7379   64.8627 C   0  0  0  0  0  0  0  0  0  0  0  0
  -35.5058   63.0576   63.9926 C   0  0  0  0  0  0  0  0  0  0  0  0
  -36.4229   62.1092   64.4844 C   0  0  0  0  0  0  0  0  0  0  0  0
  -37.3673   60.7628   67.2705 H   0  0  0  0  0  0  0  0  0  0  0  0
  -35.9566   56.8074   65.1203 O   0  0  0  0  0  0  0  0  0  0  0  0
  -35.9611   57.4478   64.0819 C   0  0  0  0  0  0  0  0  0  0  0  0
  -34.7105   57.5542   63.3232 O   0  0  0  0  0  0  0  0  0  0  0  0
  -33.6760   58.4784   63.7098 C   0  0  0  0  0  0  0  0  0  0  0  0
  -33.9864   59.2872   64.9631 C   0  0  0  0  0  0  0  0  0  0  0  0
  -33.3809   59.3895   62.5277 C   0  0  0  0  0  0  0  0  0  0  0  0
  -31.9989   61.4102   62.5849 N   0  0  0  0  0  0  0  0  0  0  0  0
  -31.0803   59.3563   62.8158 O   0  0  0  0  0  0  0  0  0  0  0  0
  -32.0378   60.0702   62.6237 C   0  0  0  0  0  0  0  0  0  0  0  0
  -32.8440   61.8878   62.4205 H   0  0  0  0  0  0  0  0  0  0  0  0
  -31.6677   64.4958   63.0583 N   0  0  0  0  0  0  0  0  0  0  0  0
  -30.4125   63.5588   64.6745 O   0  0  0  0  0  0  0  0  0  0  0  0
  -32.5601   64.4095   61.8930 C   0  0  0  0  0  0  0  0  0  0  0  0
  -31.7511   64.1772   60.6029 C   0  0  0  0  0  0  0  0  0  0  0  0
  -30.2698   63.9054   60.8062 C   0  0  0  0  0  0  0  0  0  0  0  0
  -29.9963   62.5676   61.4987 C   0  0  0  0  0  0  0  0  0  0  0  0
  -30.7858   62.2145   62.7702 C   0  0  0  0  0  0  0  0  0  0  0  0
  -30.9590   63.4829   63.5825 C   0  0  0  0  0  0  0  0  0  0  0  0
  -31.1512   65.8215   65.4033 Si  0  0  0  0  0  0  0  0  0  0  0  0
  -31.5577   65.7101   63.6660 O   0  0  0  0  0  0  0  0  0  0  0  0
  -31.0974   67.1868   65.7901 H   0  0  0  0  0  0  0  0  0  0  0  0
  -29.8885   65.2142   65.6339 H   0  0  0  0  0  0  0  0  0  0  0  0
  -32.1447   65.1524   66.1659 H   0  0  0  0  0  0  0  0  0  0  0  0
  -39.6829   57.3340   63.6476 C   0  0  0  0  0  0  0  0  0  0  0  0
  -38.4696   57.8579   64.4256 C   0  0  0  0  0  0  0  0  0  0  0  0
  -41.0488   57.4216   64.3492 C   0  0  0  0  0  0  0  0  0  0  0  0
  -42.2945   57.0155   63.5350 C   0  0  0  0  0  0  0  0  0  0  0  0
  -43.2829   58.0935   63.6383 N   0  0  0  0  0  0  0  0  0  0  0  0
  -44.3351   58.2113   64.4907 C   0  0  0  0  0  0  0  0  0  0  0  0
  -43.0890   59.1329   62.7177 O   0  0  0  0  0  0  0  0  0  0  0  0
  -44.5681   57.3494   65.3381 O   0  0  0  0  0  0  0  0  0  0  0  0
  -43.7748   59.8074   62.8423 H   0  0  0  0  0  0  0  0  0  0  0  0
  -45.2442   59.4398   64.3817 C   0  0  0  0  0  0  0  0  0  0  0  0
  -46.5776   59.3125   65.1309 C   0  0  0  0  0  0  0  0  0  0  0  0
  -47.7489   59.6409   64.1852 C   0  0  0  0  0  0  0  0  0  0  0  0
  -48.9361   60.3235   64.8906 C   0  0  0  0  0  0  0  0  0  0  0  0
  -50.2170   59.4711   64.9601 C   0  0  0  0  0  0  0  0  0  0  0  0
  -51.4122   60.1236   64.2343 C   0  0  0  0  0  0  0  0  0  0  0  0
  -51.8423   59.4065   62.9333 C   0  0  0  0  0  0  0  0  0  0  0  0
  -50.8799   58.2930   62.5041 C   0  0  0  0  0  0  0  0  0  0  0  0
  -51.3572   57.4301   61.3317 C   0  0  0  0  0  0  0  0  0  0  0  0
  -50.6499   57.8224   60.0216 C   0  0  0  0  0  0  0  0  0  0  0  0
  -49.1956   58.2791   60.2120 C   0  0  0  0  0  0  0  0  0  0  0  0
  -48.1258   57.2056   59.9866 C   0  0  0  0  0  0  0  0  0  0  0  0
  -48.0978   56.6275   58.5496 C   0  0  0  0  0  0  0  0  0  0  0  0
  -47.2126   57.4775   57.6158 C   0  0  0  0  0  0  0  0  0  0  0  0
  -47.7930   57.8456   56.2451 C   0  0  0  0  0  0  0  0  0  0  0  0
 46 47  1  0  0  0
 46 48  1  0  0  0
 46 45  1  0  0  0
 47 49  2  0  0  0
 47 51  1  0  0  0
 19 20  2  0  0  0
 37 38  1  0  0  0
 37 39  1  0  0  0
 37 40  1  0  0  0
 37 41  1  0  0  0
 48 50  1  0  0  0
 38 29  1  0  0  0
 45 44  1  0  0  0
 25 27  1  0  0  0
 25 35  1  0  0  0
 25 28  1  0  0  0
 21 20  1  0  0  0
 21 22  1  0  0  0
 44 42  1  0  0  0
  2  1  1  0  0  0
  2  4  1  0  0  0
  2  5  1  0  0  0
 26 27  2  0  0  0
 42 43  2  0  0  0
 29 31  1  0  0  0
 29 36  1  0  0  0
  3  4  2  0  0  0
 43  1  1  0  0  0
  6  9  2  0  0  0
  6 10  1  0  0  0
  1 20  1  0  0  0
 30 36  2  0  0  0
  7  8  1  0  0  0
  7  9  1  0  0  0
 22 24  1  0  0  0
 22 23  1  0  0  0
 11 12  1  0  0  0
 11 18  1  0  0  0
 24 27  1  0  0  0
  4 10  1  0  0  0
 51 52  1  0  0  0
 52 53  1  0  0  0
 53 54  1  0  0  0
 54 55  1  0  0  0
 55 56  1  0  0  0
 56 57  1  0  0  0
 57 58  1  0  0  0
 58 59  1  0  0  0
 59 60  1  0  0  0
 60 61  1  0  0  0
 61 62  1  0  0  0
 62 63  1  0  0  0
 63 64  1  0  0  0
 64 65  1  0  0  0
 31 32  1  0  0  0
 32 33  1  0  0  0
 33 34  1  0  0  0
 34 35  1  0  0  0
 35 36  1  0  0  0
  8 10  1  0  0  0
  9 17  1  0  0  0
 12 13  2  0  0  0
 12 17  1  0  0  0
 13 14  1  0  0  0
 14 15  2  0  0  0
 15 16  1  0  0  0
 16 17  2  0  0  0
M  END
> <minimizedAffinity>
-9.90671

> <CNNscore>
0.2069207579

> <CNNaffinity>
6.6664047241

> <CNN_VS>
1.3794175386

> <CNNaffinity_variance>
0.7555162311

$$$$
/media/chris/experiments/cd1a-new-docking/inputs/ligands/1xz0_ligand.pdb


 65 67  0  0  0  0  0  0  0  0999 V2000
  -40.4158   59.7737   66.0964 C   0  0  0  0  0  0  0  0  0  0  0  0
  -40.9385   61.0840   65.7039 N   0  0  0  0  0  0  0  0  0  0  0  0
  -41.9744   62.5759   64.3350 O   0  0  0  0  0  0  0  0  0  0  0  0
  -41.5831   61.4423   64.5799 C   0  0  0  0  0  0  0  0  0  0  0  0
  -40.7976   61.8068   66.3574 H   0  0  0  0  0  0  0  0  0  0  0  0
  -40.7817   59.8805   62.8195 N   0  0  0  0  0  0  0  0  0  0  0  0
  -42.3017   60.3051   61.2379 O   0  0  0  0  0  0  0  0  0  0  0  0
  -42.9673   60.6430   62.4542 C   0  0  0  0  0  0  0  0  0  0  0  0
  -40.9694   59.8661   61.5697 C   0  0  0  0  0  0  0  0  0  0  0  0
  -41.9503   60.3455   63.5908 C   0  0  0  0  0  0  0  0  0  0  0  0
  -38.2290   60.7941   61.4083 O   0  0  0  0  0  0  0  0  0  0  0  0
  -38.6506   59.8729   60.5336 C   0  0  0  0  0  0  0  0  0  0  0  0
  -37.7609   59.3684   59.5761 C   0  0  0  0  0  0  0  0  0  0  0  0
  -38.1817   58.4079   58.6409 C   0  0  0  0  0  0  0  0  0  0  0  0
  -39.4945   57.9336   58.6588 C   0  0  0  0  0  0  0  0  0  0  0  0
  -40.3842   58.4292   59.6161 C   0  0  0  0  0  0  0  0  0  0  0  0
  -39.9679   59.3981   60.5490 C   0  0  0  0  0  0  0  0  0  0  0  0
  -37.3428   61.0970   61.3791 H   0  0  0  0  0  0  0  0  0  0  0  0
  -38.2967   60.7009   65.4759 O   0  0  0  0  0  0  0  0  0  0  0  0
  -38.9951   59.7049   65.5694 C   0  0  0  0  0  0  0  0  0  0  0  0
  -38.4545   58.4275   65.0930 O   0  0  0  0  0  0  0  0  0  0  0  0
  -37.8639   58.3050   63.7853 C   0  0  0  0  0  0  0  0  0  0  0  0
  -38.4009   57.1461   62.9547 C   0  0  0  0  0  0  0  0  0  0  0  0
  -36.3542   58.2103   63.9481 C   0  0  0  0  0  0  0  0  0  0  0  0
  -35.5830   60.5314   64.0649 N   0  0  0  0  0  0  0  0  0  0  0  0
  -35.0316   59.2006   62.3212 O   0  0  0  0  0  0  0  0  0  0  0  0
  -35.6188   59.3900   63.3618 C   0  0  0  0  0  0  0  0  0  0  0  0
  -36.1025   60.5706   64.9002 H   0  0  0  0  0  0  0  0  0  0  0  0
  -33.8981   62.5177   65.8172 N   0  0  0  0  0  0  0  0  0  0  0  0
  -32.5198   61.9853   64.1194 O   0  0  0  0  0  0  0  0  0  0  0  0
  -35.1813   62.4186   66.5280 C   0  0  0  0  0  0  0  0  0  0  0  0
  -36.2328   63.3433   65.8861 C   0  0  0  0  0  0  0  0  0  0  0  0
  -35.8080   64.0039   64.5851 C   0  0  0  0  0  0  0  0  0  0  0  0
  -35.6388   63.0074   63.4352 C   0  0  0  0  0  0  0  0  0  0  0  0
  -34.8241   61.7258   63.6770 C   0  0  0  0  0  0  0  0  0  0  0  0
  -33.6524   62.0765   64.5730 C   0  0  0  0  0  0  0  0  0  0  0  0
  -33.1149   63.8098   68.1065 Si  0  0  0  0  0  0  0  0  0  0  0  0
  -32.8635   63.1008   66.4846 O   0  0  0  0  0  0  0  0  0  0  0  0
  -31.8906   64.3498   68.5818 H   0  0  0  0  0  0  0  0  0  0  0  0
  -33.5658   62.8016   68.9990 H   0  0  0  0  0  0  0  0  0  0  0  0
  -34.0877   64.8410   68.0266 H   0  0  0  0  0  0  0  0  0  0  0  0
  -42.6052   58.3761   66.4802 C   0  0  0  0  0  0  0  0  0  0  0  0
  -41.2690   58.5312   65.7437 C   0  0  0  0  0  0  0  0  0  0  0  0
  -43.2419   56.9760   66.4770 C   0  0  0  0  0  0  0  0  0  0  0  0
  -44.2954   56.6758   65.3910 C   0  0  0  0  0  0  0  0  0  0  0  0
  -45.2471   57.7906   65.3530 N   0  0  0  0  0  0  0  0  0  0  0  0
  -46.2303   58.1073   66.2365 C   0  0  0  0  0  0  0  0  0  0  0  0
  -45.0964   58.6290   64.2395 O   0  0  0  0  0  0  0  0  0  0  0  0
  -46.4210   57.4306   67.2469 O   0  0  0  0  0  0  0  0  0  0  0  0
  -45.7546   59.3404   64.2790 H   0  0  0  0  0  0  0  0  0  0  0  0
  -47.1149   59.3266   65.9563 C   0  0  0  0  0  0  0  0  0  0  0  0
  -48.0837   59.1521   64.7789 C   0  0  0  0  0  0  0  0  0  0  0  0
  -49.0550   57.9897   65.0613 C   0  0  0  0  0  0  0  0  0  0  0  0
  -50.4715   58.4529   65.4512 C   0  0  0  0  0  0  0  0  0  0  0  0
  -50.7106   59.9684   65.3162 C   0  0  0  0  0  0  0  0  0  0  0  0
  -51.8625   60.3102   64.3479 C   0  0  0  0  0  0  0  0  0  0  0  0
  -51.5564   60.0231   62.8595 C   0  0  0  0  0  0  0  0  0  0  0  0
  -50.2696   60.6916   62.3616 C   0  0  0  0  0  0  0  0  0  0  0  0
  -49.6958   60.1212   61.0607 C   0  0  0  0  0  0  0  0  0  0  0  0
  -49.5988   58.5856   61.1159 C   0  0  0  0  0  0  0  0  0  0  0  0
  -50.4149   57.8708   60.0284 C   0  0  0  0  0  0  0  0  0  0  0  0
  -49.6676   57.5695   58.7252 C   0  0  0  0  0  0  0  0  0  0  0  0
  -48.1248   57.6396   58.8460 C   0  0  0  0  0  0  0  0  0  0  0  0
  -47.4383   57.3420   57.4975 C   0  0  0  0  0  0  0  0  0  0  0  0
  -47.0641   58.5443   56.6224 C   0  0  0  0  0  0  0  0  0  0  0  0
 46 47  1  0  0  0
 46 48  1  0  0  0
 46 45  1  0  0  0
 47 49  2  0  0  0
 47 51  1  0  0  0
 19 20  2  0  0  0
 37 38  1  0  0  0
 37 39  1  0  0  0
 37 40  1  0  0  0
 37 41  1  0  0  0
 48 50  1  0  0  0
 38 29  1  0  0  0
 45 44  1  0  0  0
 25 27  1  0  0  0
 25 35  1  0  0  0
 25 28  1  0  0  0
 21 20  1  0  0  0
 21 22  1  0  0  0
 44 42  1  0  0  0
  2  1  1  0  0  0
  2  4  1  0  0  0
  2  5  1  0  0  0
 26 27  2  0  0  0
 42 43  2  0  0  0
 29 31  1  0  0  0
 29 36  1  0  0  0
  3  4  2  0  0  0
 43  1  1  0  0  0
  6  9  2  0  0  0
  6 10  1  0  0  0
  1 20  1  0  0  0
 30 36  2  0  0  0
  7  8  1  0  0  0
  7  9  1  0  0  0
 22 24  1  0  0  0
 22 23  1  0  0  0
 11 12  1  0  0  0
 11 18  1  0  0  0
 24 27  1  0  0  0
  4 10  1  0  0  0
 51 52  1  0  0  0
 52 53  1  0  0  0
 53 54  1  0  0  0
 54 55  1  0  0  0
 55 56  1  0  0  0
 56 57  1  0  0  0
 57 58  1  0  0  0
 58 59  1  0  0  0
 59 60  1  0  0  0
 60 61  1  0  0  0
 61 62  1  0  0  0
 62 63  1  0  0  0
 63 64  1  0  0  0
 64 65  1  0  0  0
 31 32  1  0  0  0
 32 33  1  0  0  0
 33 34  1  0  0  0
 34 35  1  0  0  0
 35 36  1  0  0  0
  8 10  1  0  0  0
  9 17  1  0  0  0
 12 13  2  0  0  0
 12 17  1  0  0  0
 13 14  1  0  0  0
 14 15  2  0  0  0
 15 16  1  0  0  0
 16 17  2  0  0  0
M  END
> <minimizedAffinity>
-9.05071

> <CNNscore>
0.1998692304

> <CNNaffinity>
7.5922126770

> <CNN_VS>
1.5174497366

> <CNNaffinity_variance>
0.7647454739

$$$$
/media/chris/experiments/cd1a-new-docking/inputs/ligands/1xz0_ligand.pdb


 65 67  0  0  0  0  0  0  0  0999 V2000
  -40.7688   58.1574   63.8091 C   0  0  0  0  0  0  0  0  0  0  0  0
  -41.2972   58.9601   62.7043 N   0  0  0  0  0  0  0  0  0  0  0  0
  -41.3142   59.8436   60.6086 O   0  0  0  0  0  0  0  0  0  0  0  0
  -40.8024   59.1369   61.4669 C   0  0  0  0  0  0  0  0  0  0  0  0
  -42.1357   59.4395   62.8952 H   0  0  0  0  0  0  0  0  0  0  0  0
  -38.7258   57.9976   62.2222 N   0  0  0  0  0  0  0  0  0  0  0  0
  -37.2861   58.8460   60.7391 O   0  0  0  0  0  0  0  0  0  0  0  0
  -38.5469   58.9181   60.0746 C   0  0  0  0  0  0  0  0  0  0  0  0
  -37.5072   58.2845   62.0481 C   0  0  0  0  0  0  0  0  0  0  0  0
  -39.5833   58.3190   61.0655 C   0  0  0  0  0  0  0  0  0  0  0  0
  -34.7640   59.1615   61.7278 O   0  0  0  0  0  0  0  0  0  0  0  0
  -35.1017   58.4914   62.8361 C   0  0  0  0  0  0  0  0  0  0  0  0
  -34.1335   58.2439   63.8181 C   0  0  0  0  0  0  0  0  0  0  0  0
  -34.4605   57.5345   64.9860 C   0  0  0  0  0  0  0  0  0  0  0  0
  -35.7621   57.0730   65.1898 C   0  0  0  0  0  0  0  0  0  0  0  0
  -36.7331   57.3227   64.2160 C   0  0  0  0  0  0  0  0  0  0  0  0
  -36.4064   58.0258   63.0406 C   0  0  0  0  0  0  0  0  0  0  0  0
  -33.8845   59.4636   61.6125 H   0  0  0  0  0  0  0  0  0  0  0  0
  -41.9775   56.0980   63.6261 O   0  0  0  0  0  0  0  0  0  0  0  0
  -41.8625   57.1760   64.1856 C   0  0  0  0  0  0  0  0  0  0  0  0
  -42.8562   57.5445   65.1995 O   0  0  0  0  0  0  0  0  0  0  0  0
  -44.2456   57.7125   64.8604 C   0  0  0  0  0  0  0  0  0  0  0  0
  -44.6266   59.1252   64.4354 C   0  0  0  0  0  0  0  0  0  0  0  0
  -45.0865   57.2489   66.0404 C   0  0  0  0  0  0  0  0  0  0  0  0
  -47.3584   58.0621   65.6239 N   0  0  0  0  0  0  0  0  0  0  0  0
  -46.0996   58.9114   67.3000 O   0  0  0  0  0  0  0  0  0  0  0  0
  -46.2367   58.1751   66.3501 C   0  0  0  0  0  0  0  0  0  0  0  0
  -47.3538   57.4281   64.8707 H   0  0  0  0  0  0  0  0  0  0  0  0
  -49.8644   58.5095   63.7869 N   0  0  0  0  0  0  0  0  0  0  0  0
  -50.7402   57.8455   65.7509 O   0  0  0  0  0  0  0  0  0  0  0  0
  -48.7249   58.8454   62.9204 C   0  0  0  0  0  0  0  0  0  0  0  0
  -48.2418   60.2832   63.1884 C   0  0  0  0  0  0  0  0  0  0  0  0
  -48.8892   60.9743   64.3770 C   0  0  0  0  0  0  0  0  0  0  0  0
  -48.5047   60.3440   65.7182 C   0  0  0  0  0  0  0  0  0  0  0  0
  -48.5920   58.8165   65.8730 C   0  0  0  0  0  0  0  0  0  0  0  0
  -49.8162   58.3374   65.1177 C   0  0  0  0  0  0  0  0  0  0  0  0
  -51.4632   59.2330   61.6788 Si  0  0  0  0  0  0  0  0  0  0  0  0
  -51.0754   58.3493   63.1837 O   0  0  0  0  0  0  0  0  0  0  0  0
  -52.7759   58.8945   61.2561 H   0  0  0  0  0  0  0  0  0  0  0  0
  -50.5332   58.8756   60.6670 H   0  0  0  0  0  0  0  0  0  0  0  0
  -51.3887   60.6307   61.9180 H   0  0  0  0  0  0  0  0  0  0  0  0
  -39.1458   60.0130   64.7127 C   0  0  0  0  0  0  0  0  0  0  0  0
  -40.1724   58.9158   65.0196 C   0  0  0  0  0  0  0  0  0  0  0  0
  -38.2406   60.4616   65.8724 C   0  0  0  0  0  0  0  0  0  0  0  0
  -36.7550   60.7280   65.5536 C   0  0  0  0  0  0  0  0  0  0  0  0
  -36.6401   62.0772   64.9914 N   0  0  0  0  0  0  0  0  0  0  0  0
  -36.2881   62.4534   63.7335 C   0  0  0  0  0  0  0  0  0  0  0  0
  -36.9426   63.1001   65.9013 O   0  0  0  0  0  0  0  0  0  0  0  0
  -36.0198   61.6178   62.8704 O   0  0  0  0  0  0  0  0  0  0  0  0
  -36.8464   63.9606   65.4642 H   0  0  0  0  0  0  0  0  0  0  0  0
  -36.2214   63.9467   63.3970 C   0  0  0  0  0  0  0  0  0  0  0  0
  -35.5700   64.2651   62.0443 C   0  0  0  0  0  0  0  0  0  0  0  0
  -36.1386   65.5815   61.4806 C   0  0  0  0  0  0  0  0  0  0  0  0
  -35.2152   66.7946   61.7012 C   0  0  0  0  0  0  0  0  0  0  0  0
  -33.8173   66.4460   62.2456 C   0  0  0  0  0  0  0  0  0  0  0  0
  -32.7124   66.5513   61.1735 C   0  0  0  0  0  0  0  0  0  0  0  0
  -31.4150   65.7804   61.5112 C   0  0  0  0  0  0  0  0  0  0  0  0
  -31.2227   64.5126   60.6710 C   0  0  0  0  0  0  0  0  0  0  0  0
  -32.2469   63.4007   60.9186 C   0  0  0  0  0  0  0  0  0  0  0  0
  -31.6972   62.3364   61.8858 C   0  0  0  0  0  0  0  0  0  0  0  0
  -32.5495   62.1436   63.1491 C   0  0  0  0  0  0  0  0  0  0  0  0
  -32.5813   63.3300   64.1182 C   0  0  0  0  0  0  0  0  0  0  0  0
  -33.1036   62.9808   65.5341 C   0  0  0  0  0  0  0  0  0  0  0  0
  -33.6201   64.2334   66.2707 C   0  0  0  0  0  0  0  0  0  0  0  0
  -32.8909   65.5548   65.9999 C   0  0  0  0  0  0  0  0  0  0  0  0
 46 47  1  0  0  0
 46 48  1  0  0  0
 46 45  1  0  0  0
 47 49  2  0  0  0
 47 51  1  0  0  0
 19 20  2  0  0  0
 37 38  1  0  0  0
 37 39  1  0  0  0
 37 40  1  0  0  0
 37 41  1  0  0  0
 48 50  1  0  0  0
 38 29  1  0  0  0
 45 44  1  0  0  0
 25 27  1  0  0  0
 25 35  1  0  0  0
 25 28  1  0  0  0
 21 20  1  0  0  0
 21 22  1  0  0  0
 44 42  1  0  0  0
  2  1  1  0  0  0
  2  4  1  0  0  0
  2  5  1  0  0  0
 26 27  2  0  0  0
 42 43  2  0  0  0
 29 31  1  0  0  0
 29 36  1  0  0  0
  3  4  2  0  0  0
 43  1  1  0  0  0
  6  9  2  0  0  0
  6 10  1  0  0  0
  1 20  1  0  0  0
 30 36  2  0  0  0
  7  8  1  0  0  0
  7  9  1  0  0  0
 22 24  1  0  0  0
 22 23  1  0  0  0
 11 12  1  0  0  0
 11 18  1  0  0  0
 24 27  1  0  0  0
  4 10  1  0  0  0
 51 52  1  0  0  0
 52 53  1  0  0  0
 53 54  1  0  0  0
 54 55  1  0  0  0
 55 56  1  0  0  0
 56 57  1  0  0  0
 57 58  1  0  0  0
 58 59  1  0  0  0
 59 60  1  0  0  0
 60 61  1  0  0  0
 61 62  1  0  0  0
 62 63  1  0  0  0
 63 64  1  0  0  0
 64 65  1  0  0  0
 31 32  1  0  0  0
 32 33  1  0  0  0
 33 34  1  0  0  0
 34 35  1  0  0  0
 35 36  1  0  0  0
  8 10  1  0  0  0
  9 17  1  0  0  0
 12 13  2  0  0  0
 12 17  1  0  0  0
 13 14  1  0  0  0
 14 15  2  0  0  0
 15 16  1  0  0  0
 16 17  2  0  0  0
M  END
> <minimizedAffinity>
-8.65600

> <CNNscore>
0.1965308487

> <CNNaffinity>
7.1670331955

> <CNN_VS>
1.4085431099

> <CNNaffinity_variance>
1.4484903812

$$$$
/media/chris/experiments/cd1a-new-docking/inputs/ligands/1xz0_ligand.pdb


 65 67  0  0  0  0  0  0  0  0999 V2000
  -40.9707   57.2989   63.8792 C   0  0  0  0  0  0  0  0  0  0  0  0
  -41.1323   58.6616   63.3683 N   0  0  0  0  0  0  0  0  0  0  0  0
  -40.8601   60.9197   63.3675 O   0  0  0  0  0  0  0  0  0  0  0  0
  -40.6599   59.8188   63.8635 C   0  0  0  0  0  0  0  0  0  0  0  0
  -41.6635   58.7421   62.5433 H   0  0  0  0  0  0  0  0  0  0  0  0
  -38.9508   60.9956   65.2326 N   0  0  0  0  0  0  0  0  0  0  0  0
  -37.3777   59.4101   65.2912 O   0  0  0  0  0  0  0  0  0  0  0  0
  -38.5899   58.6847   65.0891 C   0  0  0  0  0  0  0  0  0  0  0  0
  -37.7057   60.8125   65.3491 C   0  0  0  0  0  0  0  0  0  0  0  0
  -39.7213   59.7495   65.0595 C   0  0  0  0  0  0  0  0  0  0  0  0
  -36.9764   62.8259   63.3967 O   0  0  0  0  0  0  0  0  0  0  0  0
  -36.3919   62.8532   64.6006 C   0  0  0  0  0  0  0  0  0  0  0  0
  -35.4591   63.8562   64.8951 C   0  0  0  0  0  0  0  0  0  0  0  0
  -34.8248   63.9010   66.1480 C   0  0  0  0  0  0  0  0  0  0  0  0
  -35.1234   62.9489   67.1243 C   0  0  0  0  0  0  0  0  0  0  0  0
  -36.0579   61.9499   66.8375 C   0  0  0  0  0  0  0  0  0  0  0  0
  -36.6888   61.8973   65.5798 C   0  0  0  0  0  0  0  0  0  0  0  0
  -36.7622   63.4761   62.7570 H   0  0  0  0  0  0  0  0  0  0  0  0
  -40.8361   55.4530   62.3593 O   0  0  0  0  0  0  0  0  0  0  0  0
  -40.3408   56.4942   62.7583 C   0  0  0  0  0  0  0  0  0  0  0  0
  -39.0679   56.9292   62.1738 O   0  0  0  0  0  0  0  0  0  0  0  0
  -39.0018   58.0503   61.2724 C   0  0  0  0  0  0  0  0  0  0  0  0
  -39.8395   57.8965   60.0090 C   0  0  0  0  0  0  0  0  0  0  0  0
  -37.5411   58.3082   60.9342 C   0  0  0  0  0  0  0  0  0  0  0  0
  -35.7624   58.8531   62.5266 N   0  0  0  0  0  0  0  0  0  0  0  0
  -37.3333   60.3780   61.9587 O   0  0  0  0  0  0  0  0  0  0  0  0
  -36.8699   59.2626   61.8908 C   0  0  0  0  0  0  0  0  0  0  0  0
  -35.4789   57.9193   62.3962 H   0  0  0  0  0  0  0  0  0  0  0  0
  -32.8335   59.9190   62.1521 N   0  0  0  0  0  0  0  0  0  0  0  0
  -34.0144   61.7534   62.7052 O   0  0  0  0  0  0  0  0  0  0  0  0
  -32.7244   58.4784   61.8788 C   0  0  0  0  0  0  0  0  0  0  0  0
  -32.6277   57.6802   63.1927 C   0  0  0  0  0  0  0  0  0  0  0  0
  -32.8459   58.4890   64.4607 C   0  0  0  0  0  0  0  0  0  0  0  0
  -34.2811   59.0027   64.6034 C   0  0  0  0  0  0  0  0  0  0  0  0
  -34.9436   59.6985   63.4028 C   0  0  0  0  0  0  0  0  0  0  0  0
  -33.8896   60.5364   62.7056 C   0  0  0  0  0  0  0  0  0  0  0  0
  -30.8938   60.4034   60.2743 Si  0  0  0  0  0  0  0  0  0  0  0  0
  -31.7716   60.6980   61.8036 O   0  0  0  0  0  0  0  0  0  0  0  0
  -29.8374   61.3437   60.1463 H   0  0  0  0  0  0  0  0  0  0  0  0
  -31.7882   60.5445   59.1804 H   0  0  0  0  0  0  0  0  0  0  0  0
  -30.3584   59.0883   60.2815 H   0  0  0  0  0  0  0  0  0  0  0  0
  -43.4382   57.5102   64.7515 C   0  0  0  0  0  0  0  0  0  0  0  0
  -42.2127   56.6212   64.5071 C   0  0  0  0  0  0  0  0  0  0  0  0
  -44.4893   56.9868   65.7450 C   0  0  0  0  0  0  0  0  0  0  0  0
  -45.3424   58.0310   66.4943 C   0  0  0  0  0  0  0  0  0  0  0  0
  -46.5691   58.2604   65.7246 N   0  0  0  0  0  0  0  0  0  0  0  0
  -47.6427   57.4429   65.5611 C   0  0  0  0  0  0  0  0  0  0  0  0
  -46.6114   59.5047   65.0799 O   0  0  0  0  0  0  0  0  0  0  0  0
  -47.6910   56.3389   66.1034 O   0  0  0  0  0  0  0  0  0  0  0  0
  -47.4459   59.5881   64.5926 H   0  0  0  0  0  0  0  0  0  0  0  0
  -48.8046   57.9116   64.6791 C   0  0  0  0  0  0  0  0  0  0  0  0
  -50.1716   57.9135   65.3767 C   0  0  0  0  0  0  0  0  0  0  0  0
  -50.4418   59.2936   66.0065 C   0  0  0  0  0  0  0  0  0  0  0  0
  -50.5006   60.4384   64.9774 C   0  0  0  0  0  0  0  0  0  0  0  0
  -51.9089   60.7372   64.4302 C   0  0  0  0  0  0  0  0  0  0  0  0
  -51.9666   60.7342   62.8881 C   0  0  0  0  0  0  0  0  0  0  0  0
  -50.9757   59.7591   62.2107 C   0  0  0  0  0  0  0  0  0  0  0  0
  -51.5345   58.3415   62.0417 C   0  0  0  0  0  0  0  0  0  0  0  0
  -51.2412   57.6780   60.6924 C   0  0  0  0  0  0  0  0  0  0  0  0
  -50.1298   56.6198   60.8172 C   0  0  0  0  0  0  0  0  0  0  0  0
  -48.7172   57.2116   60.9349 C   0  0  0  0  0  0  0  0  0  0  0  0
  -47.8572   57.1387   59.6689 C   0  0  0  0  0  0  0  0  0  0  0  0
  -48.2244   58.1871   58.5893 C   0  0  0  0  0  0  0  0  0  0  0  0
  -47.3192   58.0601   57.3473 C   0  0  0  0  0  0  0  0  0  0  0  0
  -47.9925   57.6622   56.0284 C   0  0  0  0  0  0  0  0  0  0  0  0
 46 47  1  0  0  0
 46 48  1  0  0  0
 46 45  1  0  0  0
 47 49  2  0  0  0
 47 51  1  0  0  0
 19 20  2  0  0  0
 37 38  1  0  0  0
 37 39  1  0  0  0
 37 40  1  0  0  0
 37 41  1  0  0  0
 48 50  1  0  0  0
 38 29  1  0  0  0
 45 44  1  0  0  0
 25 27  1  0  0  0
 25 35  1  0  0  0
 25 28  1  0  0  0
 21 20  1  0  0  0
 21 22  1  0  0  0
 44 42  1  0  0  0
  2  1  1  0  0  0
  2  4  1  0  0  0
  2  5  1  0  0  0
 26 27  2  0  0  0
 42 43  2  0  0  0
 29 31  1  0  0  0
 29 36  1  0  0  0
  3  4  2  0  0  0
 43  1  1  0  0  0
  6  9  2  0  0  0
  6 10  1  0  0  0
  1 20  1  0  0  0
 30 36  2  0  0  0
  7  8  1  0  0  0
  7  9  1  0  0  0
 22 24  1  0  0  0
 22 23  1  0  0  0
 11 12  1  0  0  0
 11 18  1  0  0  0
 24 27  1  0  0  0
  4 10  1  0  0  0
 51 52  1  0  0  0
 52 53  1  0  0  0
 53 54  1  0  0  0
 54 55  1  0  0  0
 55 56  1  0  0  0
 56 57  1  0  0  0
 57 58  1  0  0  0
 58 59  1  0  0  0
 59 60  1  0  0  0
 60 61  1  0  0  0
 61 62  1  0  0  0
 62 63  1  0  0  0
 63 64  1  0  0  0
 64 65  1  0  0  0
 31 32  1  0  0  0
 32 33  1  0  0  0
 33 34  1  0  0  0
 34 35  1  0  0  0
 35 36  1  0  0  0
  8 10  1  0  0  0
  9 17  1  0  0  0
 12 13  2  0  0  0
 12 17  1  0  0  0
 13 14  1  0  0  0
 14 15  2  0  0  0
 15 16  1  0  0  0
 16 17  2  0  0  0
M  END
> <minimizedAffinity>
-10.18991

> <CNNscore>
0.1796393394

> <CNNaffinity>
7.2921309471

> <CNN_VS>
1.3099535704

> <CNNaffinity_variance>
0.5510665178

$$$$
