/media/chris/experiments/cd1a-new-docking/inputs/ligands/1xz0_ligand.pdb


 65 67  0  0  0  0  0  0  0  0999 V2000
  -42.3784   58.7379   64.2227 C   0  0  0  0  0  0  0  0  0  0  0  0
  -41.1599   58.9191   65.0143 N   0  0  0  0  0  0  0  0  0  0  0  0
  -40.1408   60.6765   63.9914 O   0  0  0  0  0  0  0  0  0  0  0  0
  -40.1728   59.8195   64.8647 C   0  0  0  0  0  0  0  0  0  0  0  0
  -41.0473   58.2911   65.7640 H   0  0  0  0  0  0  0  0  0  0  0  0
  -38.1503   60.9340   65.7853 N   0  0  0  0  0  0  0  0  0  0  0  0
  -36.6393   59.3394   65.3771 O   0  0  0  0  0  0  0  0  0  0  0  0
  -37.8732   58.6285   65.4701 C   0  0  0  0  0  0  0  0  0  0  0  0
  -36.9202   60.7403   65.5685 C   0  0  0  0  0  0  0  0  0  0  0  0
  -38.9577   59.6993   65.7731 C   0  0  0  0  0  0  0  0  0  0  0  0
  -36.2668   62.4113   67.8439 O   0  0  0  0  0  0  0  0  0  0  0  0
  -35.5814   62.5744   66.7058 C   0  0  0  0  0  0  0  0  0  0  0  0
  -34.5593   63.5307   66.6436 C   0  0  0  0  0  0  0  0  0  0  0  0
  -33.8315   63.7276   65.4579 C   0  0  0  0  0  0  0  0  0  0  0  0
  -34.1110   62.9633   64.3236 C   0  0  0  0  0  0  0  0  0  0  0  0
  -35.1253   62.0037   64.3825 C   0  0  0  0  0  0  0  0  0  0  0  0
  -35.8623   61.8101   65.5666 C   0  0  0  0  0  0  0  0  0  0  0  0
  -36.0611   62.9343   68.5937 H   0  0  0  0  0  0  0  0  0  0  0  0
  -43.4122   56.6989   64.9362 O   0  0  0  0  0  0  0  0  0  0  0  0
  -43.3210   57.9078   65.0731 C   0  0  0  0  0  0  0  0  0  0  0  0
  -44.2013   58.5676   66.0430 O   0  0  0  0  0  0  0  0  0  0  0  0
  -45.6207   58.6668   65.8203 C   0  0  0  0  0  0  0  0  0  0  0  0
  -46.4175   57.4470   66.2661 C   0  0  0  0  0  0  0  0  0  0  0  0
  -45.8551   58.9673   64.3476 C   0  0  0  0  0  0  0  0  0  0  0  0
  -47.8979   59.0437   62.9996 N   0  0  0  0  0  0  0  0  0  0  0  0
  -47.6861   60.2879   64.8764 O   0  0  0  0  0  0  0  0  0  0  0  0
  -47.2328   59.5135   64.0652 C   0  0  0  0  0  0  0  0  0  0  0  0
  -47.4259   58.4160   62.4060 H   0  0  0  0  0  0  0  0  0  0  0  0
  -50.0095   57.5104   61.2546 N   0  0  0  0  0  0  0  0  0  0  0  0
  -51.1243   58.0097   63.1449 O   0  0  0  0  0  0  0  0  0  0  0  0
  -48.8041   57.5342   60.4131 C   0  0  0  0  0  0  0  0  0  0  0  0
  -48.6770   58.8836   59.6810 C   0  0  0  0  0  0  0  0  0  0  0  0
  -49.6779   59.9469   60.1021 C   0  0  0  0  0  0  0  0  0  0  0  0
  -49.4625   60.4371   61.5365 C   0  0  0  0  0  0  0  0  0  0  0  0
  -49.2796   59.3992   62.6563 C   0  0  0  0  0  0  0  0  0  0  0  0
  -50.2040   58.2320   62.3701 C   0  0  0  0  0  0  0  0  0  0  0  0
  -50.6925   54.9392   60.5864 Si  0  0  0  0  0  0  0  0  0  0  0  0
  -51.0151   56.6741   60.8732 O   0  0  0  0  0  0  0  0  0  0  0  0
  -51.8962   54.2913   60.2020 H   0  0  0  0  0  0  0  0  0  0  0  0
  -50.1955   54.3469   61.7773 H   0  0  0  0  0  0  0  0  0  0  0  0
  -49.7296   54.8016   59.5518 H   0  0  0  0  0  0  0  0  0  0  0  0
  -40.8813   57.5393   62.4293 C   0  0  0  0  0  0  0  0  0  0  0  0
  -42.2171   58.2075   62.7774 C   0  0  0  0  0  0  0  0  0  0  0  0
  -40.5388   57.4073   60.9356 C   0  0  0  0  0  0  0  0  0  0  0  0
  -39.0963   57.7420   60.5040 C   0  0  0  0  0  0  0  0  0  0  0  0
  -38.7375   59.0459   61.0707 N   0  0  0  0  0  0  0  0  0  0  0  0
  -37.6282   59.3981   61.7729 C   0  0  0  0  0  0  0  0  0  0  0  0
  -39.6902   60.0480   60.8390 O   0  0  0  0  0  0  0  0  0  0  0  0
  -37.4730   60.5477   62.1841 O   0  0  0  0  0  0  0  0  0  0  0  0
  -39.3894   60.8788   61.2393 H   0  0  0  0  0  0  0  0  0  0  0  0
  -36.5556   58.3384   62.0459 C   0  0  0  0  0  0  0  0  0  0  0  0
  -35.1932   58.9064   62.4664 C   0  0  0  0  0  0  0  0  0  0  0  0
  -34.4028   57.8496   63.2618 C   0  0  0  0  0  0  0  0  0  0  0  0
  -32.8838   58.1053   63.2831 C   0  0  0  0  0  0  0  0  0  0  0  0
  -32.4753   59.5649   63.0096 C   0  0  0  0  0  0  0  0  0  0  0  0
  -31.7989   59.7513   61.6352 C   0  0  0  0  0  0  0  0  0  0  0  0
  -30.7917   60.9231   61.5693 C   0  0  0  0  0  0  0  0  0  0  0  0
  -31.0731   62.0274   62.5948 C   0  0  0  0  0  0  0  0  0  0  0  0
  -31.2831   63.4275   62.0096 C   0  0  0  0  0  0  0  0  0  0  0  0
  -30.9679   64.5218   63.0457 C   0  0  0  0  0  0  0  0  0  0  0  0
  -31.9241   65.7230   62.9931 C   0  0  0  0  0  0  0  0  0  0  0  0
  -32.3706   66.1575   61.5932 C   0  0  0  0  0  0  0  0  0  0  0  0
  -33.9061   66.2682   61.4211 C   0  0  0  0  0  0  0  0  0  0  0  0
  -34.5649   64.8776   61.3183 C   0  0  0  0  0  0  0  0  0  0  0  0
  -36.0610   64.7865   61.6416 C   0  0  0  0  0  0  0  0  0  0  0  0
 46 47  1  0  0  0
 46 48  1  0  0  0
 46 45  1  0  0  0
 47 49  2  0  0  0
 47 51  1  0  0  0
 19 20  2  0  0  0
 37 38  1  0  0  0
 37 39  1  0  0  0
 37 40  1  0  0  0
 37 41  1  0  0  0
 48 50  1  0  0  0
 38 29  1  0  0  0
 45 44  1  0  0  0
 25 27  1  0  0  0
 25 35  1  0  0  0
 25 28  1  0  0  0
 21 20  1  0  0  0
 21 22  1  0  0  0
 44 42  1  0  0  0
  2  1  1  0  0  0
  2  4  1  0  0  0
  2  5  1  0  0  0
 26 27  2  0  0  0
 42 43  2  0  0  0
 29 31  1  0  0  0
 29 36  1  0  0  0
  3  4  2  0  0  0
 43  1  1  0  0  0
  6  9  2  0  0  0
  6 10  1  0  0  0
  1 20  1  0  0  0
 30 36  2  0  0  0
  7  8  1  0  0  0
  7  9  1  0  0  0
 22 24  1  0  0  0
 22 23  1  0  0  0
 11 12  1  0  0  0
 11 18  1  0  0  0
 24 27  1  0  0  0
  4 10  1  0  0  0
 51 52  1  0  0  0
 52 53  1  0  0  0
 53 54  1  0  0  0
 54 55  1  0  0  0
 55 56  1  0  0  0
 56 57  1  0  0  0
 57 58  1  0  0  0
 58 59  1  0  0  0
 59 60  1  0  0  0
 60 61  1  0  0  0
 61 62  1  0  0  0
 62 63  1  0  0  0
 63 64  1  0  0  0
 64 65  1  0  0  0
 31 32  1  0  0  0
 32 33  1  0  0  0
 33 34  1  0  0  0
 34 35  1  0  0  0
 35 36  1  0  0  0
  8 10  1  0  0  0
  9 17  1  0  0  0
 12 13  2  0  0  0
 12 17  1  0  0  0
 13 14  1  0  0  0
 14 15  2  0  0  0
 15 16  1  0  0  0
 16 17  2  0  0  0
M  END
> <minimizedAffinity>
-9.04100

> <CNNscore>
0.1987632662

> <CNNaffinity>
7.4051275253

> <CNN_VS>
1.4718673229

> <CNNaffinity_variance>
1.0361938477

$$$$
/media/chris/experiments/cd1a-new-docking/inputs/ligands/1xz0_ligand.pdb


 65 67  0  0  0  0  0  0  0  0999 V2000
  -38.1363   59.0539   65.6451 C   0  0  0  0  0  0  0  0  0  0  0  0
  -37.1337   60.1203   65.6051 N   0  0  0  0  0  0  0  0  0  0  0  0
  -37.8866   61.4694   63.9360 O   0  0  0  0  0  0  0  0  0  0  0  0
  -37.0683   61.1987   64.8050 C   0  0  0  0  0  0  0  0  0  0  0  0
  -36.4019   60.0352   66.2583 H   0  0  0  0  0  0  0  0  0  0  0  0
  -35.0421   62.0815   63.6669 N   0  0  0  0  0  0  0  0  0  0  0  0
  -33.5223   61.6549   65.2482 O   0  0  0  0  0  0  0  0  0  0  0  0
  -34.7473   61.7709   65.9708 C   0  0  0  0  0  0  0  0  0  0  0  0
  -33.8138   61.8453   63.8493 C   0  0  0  0  0  0  0  0  0  0  0  0
  -35.8373   62.0875   64.9095 C   0  0  0  0  0  0  0  0  0  0  0  0
  -33.3868   63.9704   61.9262 O   0  0  0  0  0  0  0  0  0  0  0  0
  -32.5985   62.8896   61.8789 C   0  0  0  0  0  0  0  0  0  0  0  0
  -31.5808   62.8159   60.9189 C   0  0  0  0  0  0  0  0  0  0  0  0
  -30.7462   61.6882   60.8425 C   0  0  0  0  0  0  0  0  0  0  0  0
  -30.9134   60.6254   61.7322 C   0  0  0  0  0  0  0  0  0  0  0  0
  -31.9231   60.6970   62.6959 C   0  0  0  0  0  0  0  0  0  0  0  0
  -32.7668   61.8219   62.7691 C   0  0  0  0  0  0  0  0  0  0  0  0
  -33.2555   64.6729   61.3202 H   0  0  0  0  0  0  0  0  0  0  0  0
  -36.7231   57.1206   65.6703 O   0  0  0  0  0  0  0  0  0  0  0  0
  -37.4832   57.8299   65.0319 C   0  0  0  0  0  0  0  0  0  0  0  0
  -37.7076   57.5147   63.6172 O   0  0  0  0  0  0  0  0  0  0  0  0
  -36.6629   57.6752   62.6390 C   0  0  0  0  0  0  0  0  0  0  0  0
  -35.2550   57.4436   63.1734 C   0  0  0  0  0  0  0  0  0  0  0  0
  -36.7943   59.0585   62.0198 C   0  0  0  0  0  0  0  0  0  0  0  0
  -39.1193   58.5100   61.4818 N   0  0  0  0  0  0  0  0  0  0  0  0
  -37.9600   60.0206   60.2614 O   0  0  0  0  0  0  0  0  0  0  0  0
  -38.0216   59.2076   61.1550 C   0  0  0  0  0  0  0  0  0  0  0  0
  -39.0512   57.8738   62.2300 H   0  0  0  0  0  0  0  0  0  0  0  0
  -42.0159   57.8951   62.5244 N   0  0  0  0  0  0  0  0  0  0  0  0
  -42.1843   59.9535   61.6301 O   0  0  0  0  0  0  0  0  0  0  0  0
  -41.2509   56.6878   62.8696 C   0  0  0  0  0  0  0  0  0  0  0  0
  -41.1257   55.7546   61.6504 C   0  0  0  0  0  0  0  0  0  0  0  0
  -41.6332   56.3299   60.3384 C   0  0  0  0  0  0  0  0  0  0  0  0
  -40.7840   57.4972   59.8284 C   0  0  0  0  0  0  0  0  0  0  0  0
  -40.4148   58.6282   60.8027 C   0  0  0  0  0  0  0  0  0  0  0  0
  -41.6069   58.8777   61.7058 C   0  0  0  0  0  0  0  0  0  0  0  0
  -43.9844   59.6511   63.2764 Si  0  0  0  0  0  0  0  0  0  0  0  0
  -43.2458   58.0333   63.0938 O   0  0  0  0  0  0  0  0  0  0  0  0
  -45.2568   59.5234   63.8937 H   0  0  0  0  0  0  0  0  0  0  0  0
  -44.1364   60.2491   61.9976 H   0  0  0  0  0  0  0  0  0  0  0  0
  -43.1465   60.4656   64.0833 H   0  0  0  0  0  0  0  0  0  0  0  0
  -40.5534   60.0123   66.0107 C   0  0  0  0  0  0  0  0  0  0  0  0
  -39.5351   59.3686   65.0615 C   0  0  0  0  0  0  0  0  0  0  0  0
  -42.0336   59.9306   65.6008 C   0  0  0  0  0  0  0  0  0  0  0  0
  -43.0570   59.5722   66.6978 C   0  0  0  0  0  0  0  0  0  0  0  0
  -43.7655   58.3563   66.2862 N   0  0  0  0  0  0  0  0  0  0  0  0
  -45.0950   58.1713   66.0718 C   0  0  0  0  0  0  0  0  0  0  0  0
  -42.9285   57.2480   66.0941 O   0  0  0  0  0  0  0  0  0  0  0  0
  -45.5379   57.0767   65.7245 O   0  0  0  0  0  0  0  0  0  0  0  0
  -43.4612   56.4835   65.8244 H   0  0  0  0  0  0  0  0  0  0  0  0
  -46.0489   59.3550   66.2630 C   0  0  0  0  0  0  0  0  0  0  0  0
  -47.3795   59.2274   65.5089 C   0  0  0  0  0  0  0  0  0  0  0  0
  -48.5323   59.7701   66.3754 C   0  0  0  0  0  0  0  0  0  0  0  0
  -49.8819   59.8312   65.6352 C   0  0  0  0  0  0  0  0  0  0  0  0
  -50.3630   58.4830   65.0667 C   0  0  0  0  0  0  0  0  0  0  0  0
  -50.8671   58.5907   63.6121 C   0  0  0  0  0  0  0  0  0  0  0  0
  -51.0039   60.0385   63.0859 C   0  0  0  0  0  0  0  0  0  0  0  0
  -50.1265   60.3283   61.8627 C   0  0  0  0  0  0  0  0  0  0  0  0
  -49.2129   59.1795   61.4241 C   0  0  0  0  0  0  0  0  0  0  0  0
  -49.1781   59.0443   59.8909 C   0  0  0  0  0  0  0  0  0  0  0  0
  -49.0959   57.5923   59.3956 C   0  0  0  0  0  0  0  0  0  0  0  0
  -47.6923   56.9786   59.3634 C   0  0  0  0  0  0  0  0  0  0  0  0
  -47.3666   56.2038   58.0622 C   0  0  0  0  0  0  0  0  0  0  0  0
  -47.7966   56.9955   56.8105 C   0  0  0  0  0  0  0  0  0  0  0  0
  -47.1236   58.3532   56.5760 C   0  0  0  0  0  0  0  0  0  0  0  0
 46 47  1  0  0  0
 46 48  1  0  0  0
 46 45  1  0  0  0
 47 49  2  0  0  0
 47 51  1  0  0  0
 19 20  2  0  0  0
 37 38  1  0  0  0
 37 39  1  0  0  0
 37 40  1  0  0  0
 37 41  1  0  0  0
 48 50  1  0  0  0
 38 29  1  0  0  0
 45 44  1  0  0  0
 25 27  1  0  0  0
 25 35  1  0  0  0
 25 28  1  0  0  0
 21 20  1  0  0  0
 21 22  1  0  0  0
 44 42  1  0  0  0
  2  1  1  0  0  0
  2  4  1  0  0  0
  2  5  1  0  0  0
 26 27  2  0  0  0
 42 43  2  0  0  0
 29 31  1  0  0  0
 29 36  1  0  0  0
  3  4  2  0  0  0
 43  1  1  0  0  0
  6  9  2  0  0  0
  6 10  1  0  0  0
  1 20  1  0  0  0
 30 36  2  0  0  0
  7  8  1  0  0  0
  7  9  1  0  0  0
 22 24  1  0  0  0
 22 23  1  0  0  0
 11 12  1  0  0  0
 11 18  1  0  0  0
 24 27  1  0  0  0
  4 10  1  0  0  0
 51 52  1  0  0  0
 52 53  1  0  0  0
 53 54  1  0  0  0
 54 55  1  0  0  0
 55 56  1  0  0  0
 56 57  1  0  0  0
 57 58  1  0  0  0
 58 59  1  0  0  0
 59 60  1  0  0  0
 60 61  1  0  0  0
 61 62  1  0  0  0
 62 63  1  0  0  0
 63 64  1  0  0  0
 64 65  1  0  0  0
 31 32  1  0  0  0
 32 33  1  0  0  0
 33 34  1  0  0  0
 34 35  1  0  0  0
 35 36  1  0  0  0
  8 10  1  0  0  0
  9 17  1  0  0  0
 12 13  2  0  0  0
 12 17  1  0  0  0
 13 14  1  0  0  0
 14 15  2  0  0  0
 15 16  1  0  0  0
 16 17  2  0  0  0
M  END
> <minimizedAffinity>
-10.19638

> <CNNscore>
0.1624258012

> <CNNaffinity>
7.4650545120

> <CNN_VS>
1.2125174999

> <CNNaffinity_variance>
1.4889459610

$$$$
/media/chris/experiments/cd1a-new-docking/inputs/ligands/1xz0_ligand.pdb


 65 67  0  0  0  0  0  0  0  0999 V2000
  -42.2652   58.0693   64.4490 C   0  0  0  0  0  0  0  0  0  0  0  0
  -41.0712   58.4839   65.1882 N   0  0  0  0  0  0  0  0  0  0  0  0
  -40.6302   60.5456   64.3347 O   0  0  0  0  0  0  0  0  0  0  0  0
  -40.3656   59.6246   65.0963 C   0  0  0  0  0  0  0  0  0  0  0  0
  -40.7369   57.8337   65.8475 H   0  0  0  0  0  0  0  0  0  0  0  0
  -38.3769   61.0053   65.6610 N   0  0  0  0  0  0  0  0  0  0  0  0
  -36.7796   59.4646   65.4024 O   0  0  0  0  0  0  0  0  0  0  0  0
  -37.9470   58.7022   65.7066 C   0  0  0  0  0  0  0  0  0  0  0  0
  -37.1528   60.8568   65.3833 C   0  0  0  0  0  0  0  0  0  0  0  0
  -39.0872   59.7372   65.9142 C   0  0  0  0  0  0  0  0  0  0  0  0
  -36.0808   62.6110   67.4255 O   0  0  0  0  0  0  0  0  0  0  0  0
  -35.6862   62.7802   66.1577 C   0  0  0  0  0  0  0  0  0  0  0  0
  -34.7579   63.7832   65.8491 C   0  0  0  0  0  0  0  0  0  0  0  0
  -34.3349   63.9871   64.5248 C   0  0  0  0  0  0  0  0  0  0  0  0
  -34.8280   63.1834   63.4952 C   0  0  0  0  0  0  0  0  0  0  0  0
  -35.7494   62.1774   63.7989 C   0  0  0  0  0  0  0  0  0  0  0  0
  -36.1818   61.9764   65.1237 C   0  0  0  0  0  0  0  0  0  0  0  0
  -35.7355   63.1609   68.1010 H   0  0  0  0  0  0  0  0  0  0  0  0
  -42.3842   55.7306   64.9512 O   0  0  0  0  0  0  0  0  0  0  0  0
  -42.8127   56.8519   65.1695 C   0  0  0  0  0  0  0  0  0  0  0  0
  -43.9314   57.0002   66.1062 O   0  0  0  0  0  0  0  0  0  0  0  0
  -45.1399   57.6857   65.7275 C   0  0  0  0  0  0  0  0  0  0  0  0
  -45.0111   59.2023   65.6565 C   0  0  0  0  0  0  0  0  0  0  0  0
  -46.2460   57.2732   66.6870 C   0  0  0  0  0  0  0  0  0  0  0  0
  -48.2201   58.0797   65.4835 N   0  0  0  0  0  0  0  0  0  0  0  0
  -47.9137   55.8754   65.8864 O   0  0  0  0  0  0  0  0  0  0  0  0
  -47.5669   57.0286   66.0003 C   0  0  0  0  0  0  0  0  0  0  0  0
  -47.8429   58.9753   65.6411 H   0  0  0  0  0  0  0  0  0  0  0  0
  -49.0346   59.5131   62.8120 N   0  0  0  0  0  0  0  0  0  0  0  0
  -49.4968   57.3440   62.4292 O   0  0  0  0  0  0  0  0  0  0  0  0
  -48.5514   60.6065   63.6682 C   0  0  0  0  0  0  0  0  0  0  0  0
  -49.6525   61.0614   64.6447 C   0  0  0  0  0  0  0  0  0  0  0  0
  -50.9042   60.1996   64.6581 C   0  0  0  0  0  0  0  0  0  0  0  0
  -50.6587   58.7962   65.2187 C   0  0  0  0  0  0  0  0  0  0  0  0
  -49.4572   57.9889   64.6997 C   0  0  0  0  0  0  0  0  0  0  0  0
  -49.3134   58.2632   63.2154 C   0  0  0  0  0  0  0  0  0  0  0  0
  -50.3712   61.0424   60.9684 Si  0  0  0  0  0  0  0  0  0  0  0  0
  -49.2055   59.7911   61.4893 O   0  0  0  0  0  0  0  0  0  0  0  0
  -50.3605   61.1387   59.5517 H   0  0  0  0  0  0  0  0  0  0  0  0
  -50.0052   62.2938   61.5307 H   0  0  0  0  0  0  0  0  0  0  0  0
  -51.6739   60.6884   61.4090 H   0  0  0  0  0  0  0  0  0  0  0  0
  -41.1453   56.7929   62.4462 C   0  0  0  0  0  0  0  0  0  0  0  0
  -42.1248   57.8739   62.9198 C   0  0  0  0  0  0  0  0  0  0  0  0
  -40.6713   56.8767   60.9854 C   0  0  0  0  0  0  0  0  0  0  0  0
  -40.7516   58.2507   60.2890 C   0  0  0  0  0  0  0  0  0  0  0  0
  -39.5604   58.4110   59.4492 N   0  0  0  0  0  0  0  0  0  0  0  0
  -38.4538   59.1691   59.6689 C   0  0  0  0  0  0  0  0  0  0  0  0
  -39.5972   57.6656   58.2622 O   0  0  0  0  0  0  0  0  0  0  0  0
  -37.5285   59.1956   58.8577 O   0  0  0  0  0  0  0  0  0  0  0  0
  -38.7822   57.8187   57.7590 H   0  0  0  0  0  0  0  0  0  0  0  0
  -38.3650   59.9965   60.9555 C   0  0  0  0  0  0  0  0  0  0  0  0
  -37.9852   59.1900   62.2049 C   0  0  0  0  0  0  0  0  0  0  0  0
  -36.5019   58.7779   62.1373 C   0  0  0  0  0  0  0  0  0  0  0  0
  -36.1887   57.4800   62.9057 C   0  0  0  0  0  0  0  0  0  0  0  0
  -34.7645   57.4071   63.4875 C   0  0  0  0  0  0  0  0  0  0  0  0
  -33.8337   58.5074   62.9360 C   0  0  0  0  0  0  0  0  0  0  0  0
  -32.4627   58.6031   63.6452 C   0  0  0  0  0  0  0  0  0  0  0  0
  -31.3787   59.2688   62.7898 C   0  0  0  0  0  0  0  0  0  0  0  0
  -31.7879   60.5843   62.1199 C   0  0  0  0  0  0  0  0  0  0  0  0
  -30.7424   61.6876   62.3646 C   0  0  0  0  0  0  0  0  0  0  0  0
  -31.2776   62.8866   63.1622 C   0  0  0  0  0  0  0  0  0  0  0  0
  -31.2083   64.2427   62.4521 C   0  0  0  0  0  0  0  0  0  0  0  0
  -31.7689   64.2339   61.0081 C   0  0  0  0  0  0  0  0  0  0  0  0
  -32.4020   65.5909   60.6395 C   0  0  0  0  0  0  0  0  0  0  0  0
  -33.4572   66.1544   61.5988 C   0  0  0  0  0  0  0  0  0  0  0  0
 46 47  1  0  0  0
 46 48  1  0  0  0
 46 45  1  0  0  0
 47 49  2  0  0  0
 47 51  1  0  0  0
 19 20  2  0  0  0
 37 38  1  0  0  0
 37 39  1  0  0  0
 37 40  1  0  0  0
 37 41  1  0  0  0
 48 50  1  0  0  0
 38 29  1  0  0  0
 45 44  1  0  0  0
 25 27  1  0  0  0
 25 35  1  0  0  0
 25 28  1  0  0  0
 21 20  1  0  0  0
 21 22  1  0  0  0
 44 42  1  0  0  0
  2  1  1  0  0  0
  2  4  1  0  0  0
  2  5  1  0  0  0
 26 27  2  0  0  0
 42 43  2  0  0  0
 29 31  1  0  0  0
 29 36  1  0  0  0
  3  4  2  0  0  0
 43  1  1  0  0  0
  6  9  2  0  0  0
  6 10  1  0  0  0
  1 20  1  0  0  0
 30 36  2  0  0  0
  7  8  1  0  0  0
  7  9  1  0  0  0
 22 24  1  0  0  0
 22 23  1  0  0  0
 11 12  1  0  0  0
 11 18  1  0  0  0
 24 27  1  0  0  0
  4 10  1  0  0  0
 51 52  1  0  0  0
 52 53  1  0  0  0
 53 54  1  0  0  0
 54 55  1  0  0  0
 55 56  1  0  0  0
 56 57  1  0  0  0
 57 58  1  0  0  0
 58 59  1  0  0  0
 59 60  1  0  0  0
 60 61  1  0  0  0
 61 62  1  0  0  0
 62 63  1  0  0  0
 63 64  1  0  0  0
 64 65  1  0  0  0
 31 32  1  0  0  0
 32 33  1  0  0  0
 33 34  1  0  0  0
 34 35  1  0  0  0
 35 36  1  0  0  0
  8 10  1  0  0  0
  9 17  1  0  0  0
 12 13  2  0  0  0
 12 17  1  0  0  0
 13 14  1  0  0  0
 14 15  2  0  0  0
 15 16  1  0  0  0
 16 17  2  0  0  0
M  END
> <minimizedAffinity>
-9.13289

> <CNNscore>
0.1450924128

> <CNNaffinity>
7.3773603439

> <CNN_VS>
1.0703990459

> <CNNaffinity_variance>
1.2209931612

$$$$
/media/chris/experiments/cd1a-new-docking/inputs/ligands/1xz0_ligand.pdb


 65 67  0  0  0  0  0  0  0  0999 V2000
  -42.5830   59.5852   65.5350 C   0  0  0  0  0  0  0  0  0  0  0  0
  -41.9961   58.5365   64.6983 N   0  0  0  0  0  0  0  0  0  0  0  0
  -42.3689   56.6470   65.9080 O   0  0  0  0  0  0  0  0  0  0  0  0
  -41.9259   57.2119   64.9167 C   0  0  0  0  0  0  0  0  0  0  0  0
  -41.5950   58.8463   63.8542 H   0  0  0  0  0  0  0  0  0  0  0  0
  -40.2094   57.1782   63.1188 N   0  0  0  0  0  0  0  0  0  0  0  0
  -41.3262   56.0152   61.5721 O   0  0  0  0  0  0  0  0  0  0  0  0
  -41.9082   55.5948   62.8053 C   0  0  0  0  0  0  0  0  0  0  0  0
  -40.3110   56.9935   61.8725 C   0  0  0  0  0  0  0  0  0  0  0  0
  -41.1473   56.3673   63.9184 C   0  0  0  0  0  0  0  0  0  0  0  0
  -37.7656   58.2738   62.4006 O   0  0  0  0  0  0  0  0  0  0  0  0
  -38.2224   58.2407   61.1428 C   0  0  0  0  0  0  0  0  0  0  0  0
  -37.4590   58.8067   60.1134 C   0  0  0  0  0  0  0  0  0  0  0  0
  -37.9207   58.7931   58.7864 C   0  0  0  0  0  0  0  0  0  0  0  0
  -39.1469   58.2044   58.4723 C   0  0  0  0  0  0  0  0  0  0  0  0
  -39.9093   57.6328   59.4947 C   0  0  0  0  0  0  0  0  0  0  0  0
  -39.4533   57.6527   60.8267 C   0  0  0  0  0  0  0  0  0  0  0  0
  -36.9388   58.6728   62.5884 H   0  0  0  0  0  0  0  0  0  0  0  0
  -41.6068   59.9478   67.6916 O   0  0  0  0  0  0  0  0  0  0  0  0
  -41.4880   60.0402   66.4809 C   0  0  0  0  0  0  0  0  0  0  0  0
  -40.2770   60.6712   65.9457 O   0  0  0  0  0  0  0  0  0  0  0  0
  -39.3280   59.9254   65.1602 C   0  0  0  0  0  0  0  0  0  0  0  0
  -38.2722   59.1890   65.9754 C   0  0  0  0  0  0  0  0  0  0  0  0
  -38.6857   60.8726   64.1580 C   0  0  0  0  0  0  0  0  0  0  0  0
  -36.2568   60.6670   63.9256 N   0  0  0  0  0  0  0  0  0  0  0  0
  -37.1747   62.1937   65.3191 O   0  0  0  0  0  0  0  0  0  0  0  0
  -37.2825   61.2764   64.5379 C   0  0  0  0  0  0  0  0  0  0  0  0
  -36.4656   59.9294   63.3079 H   0  0  0  0  0  0  0  0  0  0  0  0
  -33.6729   59.4418   62.6304 N   0  0  0  0  0  0  0  0  0  0  0  0
  -33.4341   61.6594   62.3296 O   0  0  0  0  0  0  0  0  0  0  0  0
  -34.4123   58.2704   63.1232 C   0  0  0  0  0  0  0  0  0  0  0  0
  -34.1652   58.0640   64.6296 C   0  0  0  0  0  0  0  0  0  0  0  0
  -33.3904   59.1755   65.3182 C   0  0  0  0  0  0  0  0  0  0  0  0
  -34.1671   60.4931   65.3862 C   0  0  0  0  0  0  0  0  0  0  0  0
  -34.8452   61.0221   64.1114 C   0  0  0  0  0  0  0  0  0  0  0  0
  -33.9347   60.7226   62.9366 C   0  0  0  0  0  0  0  0  0  0  0  0
  -31.5117   60.5237   61.3332 Si  0  0  0  0  0  0  0  0  0  0  0  0
  -32.6354   59.2067   61.7794 O   0  0  0  0  0  0  0  0  0  0  0  0
  -30.5265   60.0233   60.4413 H   0  0  0  0  0  0  0  0  0  0  0  0
  -30.8809   61.0243   62.5027 H   0  0  0  0  0  0  0  0  0  0  0  0
  -32.2352   61.5693   60.7010 H   0  0  0  0  0  0  0  0  0  0  0  0
  -45.0924   58.8346   65.3518 C   0  0  0  0  0  0  0  0  0  0  0  0
  -43.9216   59.2658   66.2437 C   0  0  0  0  0  0  0  0  0  0  0  0
  -46.5023   58.9375   65.9580 C   0  0  0  0  0  0  0  0  0  0  0  0
  -47.6127   59.5467   65.0776 C   0  0  0  0  0  0  0  0  0  0  0  0
  -48.8281   59.6682   65.8888 N   0  0  0  0  0  0  0  0  0  0  0  0
  -49.9626   58.9206   65.8482 C   0  0  0  0  0  0  0  0  0  0  0  0
  -48.7831   60.7081   66.8281 O   0  0  0  0  0  0  0  0  0  0  0  0
  -50.9050   59.1516   66.6053 O   0  0  0  0  0  0  0  0  0  0  0  0
  -49.6150   60.7298   67.3264 H   0  0  0  0  0  0  0  0  0  0  0  0
  -50.0562   57.7686   64.8422 C   0  0  0  0  0  0  0  0  0  0  0  0
  -50.4085   58.2005   63.4122 C   0  0  0  0  0  0  0  0  0  0  0  0
  -51.3647   59.4084   63.4453 C   0  0  0  0  0  0  0  0  0  0  0  0
  -50.7975   60.6609   62.7508 C   0  0  0  0  0  0  0  0  0  0  0  0
  -49.4753   60.4317   61.9949 C   0  0  0  0  0  0  0  0  0  0  0  0
  -49.6026   60.6731   60.4761 C   0  0  0  0  0  0  0  0  0  0  0  0
  -49.4670   59.3989   59.6102 C   0  0  0  0  0  0  0  0  0  0  0  0
  -50.5560   58.3556   59.8855 C   0  0  0  0  0  0  0  0  0  0  0  0
  -50.0525   56.9273   60.1155 C   0  0  0  0  0  0  0  0  0  0  0  0
  -48.5199   56.8885   60.2570 C   0  0  0  0  0  0  0  0  0  0  0  0
  -47.8367   55.8555   59.3480 C   0  0  0  0  0  0  0  0  0  0  0  0
  -46.8405   56.4205   58.3300 C   0  0  0  0  0  0  0  0  0  0  0  0
  -47.1696   57.8549   57.8466 C   0  0  0  0  0  0  0  0  0  0  0  0
  -47.7801   57.8478   56.4305 C   0  0  0  0  0  0  0  0  0  0  0  0
  -48.9651   56.9065   56.1840 C   0  0  0  0  0  0  0  0  0  0  0  0
 46 47  1  0  0  0
 46 48  1  0  0  0
 46 45  1  0  0  0
 47 49  2  0  0  0
 47 51  1  0  0  0
 19 20  2  0  0  0
 37 38  1  0  0  0
 37 39  1  0  0  0
 37 40  1  0  0  0
 37 41  1  0  0  0
 48 50  1  0  0  0
 38 29  1  0  0  0
 45 44  1  0  0  0
 25 27  1  0  0  0
 25 35  1  0  0  0
 25 28  1  0  0  0
 21 20  1  0  0  0
 21 22  1  0  0  0
 44 42  1  0  0  0
  2  1  1  0  0  0
  2  4  1  0  0  0
  2  5  1  0  0  0
 26 27  2  0  0  0
 42 43  2  0  0  0
 29 31  1  0  0  0
 29 36  1  0  0  0
  3  4  2  0  0  0
 43  1  1  0  0  0
  6  9  2  0  0  0
  6 10  1  0  0  0
  1 20  1  0  0  0
 30 36  2  0  0  0
  7  8  1  0  0  0
  7  9  1  0  0  0
 22 24  1  0  0  0
 22 23  1  0  0  0
 11 12  1  0  0  0
 11 18  1  0  0  0
 24 27  1  0  0  0
  4 10  1  0  0  0
 51 52  1  0  0  0
 52 53  1  0  0  0
 53 54  1  0  0  0
 54 55  1  0  0  0
 55 56  1  0  0  0
 56 57  1  0  0  0
 57 58  1  0  0  0
 58 59  1  0  0  0
 59 60  1  0  0  0
 60 61  1  0  0  0
 61 62  1  0  0  0
 62 63  1  0  0  0
 63 64  1  0  0  0
 64 65  1  0  0  0
 31 32  1  0  0  0
 32 33  1  0  0  0
 33 34  1  0  0  0
 34 35  1  0  0  0
 35 36  1  0  0  0
  8 10  1  0  0  0
  9 17  1  0  0  0
 12 13  2  0  0  0
 12 17  1  0  0  0
 13 14  1  0  0  0
 14 15  2  0  0  0
 15 16  1  0  0  0
 16 17  2  0  0  0
M  END
> <minimizedAffinity>
-9.92919

> <CNNscore>
0.1334932446

> <CNNaffinity>
7.5042281151

> <CNN_VS>
1.0017637014

> <CNNaffinity_variance>
0.4550112188

$$$$
/media/chris/experiments/cd1a-new-docking/inputs/ligands/1xz0_ligand.pdb


 65 67  0  0  0  0  0  0  0  0999 V2000
  -38.5023   59.3797   65.4294 C   0  0  0  0  0  0  0  0  0  0  0  0
  -37.8390   60.4524   64.6855 N   0  0  0  0  0  0  0  0  0  0  0  0
  -36.6084   61.5006   66.2855 O   0  0  0  0  0  0  0  0  0  0  0  0
  -36.9846   61.3923   65.1258 C   0  0  0  0  0  0  0  0  0  0  0  0
  -38.0491   60.4909   63.7244 H   0  0  0  0  0  0  0  0  0  0  0  0
  -35.4230   62.0034   63.2905 N   0  0  0  0  0  0  0  0  0  0  0  0
  -34.6928   63.9648   64.0728 O   0  0  0  0  0  0  0  0  0  0  0  0
  -35.9785   63.8122   64.6729 C   0  0  0  0  0  0  0  0  0  0  0  0
  -34.4423   62.8002   63.2610 C   0  0  0  0  0  0  0  0  0  0  0  0
  -36.5372   62.4632   64.1413 C   0  0  0  0  0  0  0  0  0  0  0  0
  -32.9183   60.3383   63.1450 O   0  0  0  0  0  0  0  0  0  0  0  0
  -32.5100   61.3847   62.4168 C   0  0  0  0  0  0  0  0  0  0  0  0
  -31.3728   61.2639   61.6074 C   0  0  0  0  0  0  0  0  0  0  0  0
  -30.9185   62.3503   60.8409 C   0  0  0  0  0  0  0  0  0  0  0  0
  -31.6022   63.5672   60.8675 C   0  0  0  0  0  0  0  0  0  0  0  0
  -32.7409   63.6907   61.6684 C   0  0  0  0  0  0  0  0  0  0  0  0
  -33.1935   62.6065   62.4445 C   0  0  0  0  0  0  0  0  0  0  0  0
  -32.4449   59.5304   63.1106 H   0  0  0  0  0  0  0  0  0  0  0  0
  -37.1428   57.4365   65.7633 O   0  0  0  0  0  0  0  0  0  0  0  0
  -37.8370   58.0863   64.9988 C   0  0  0  0  0  0  0  0  0  0  0  0
  -37.9662   57.6255   63.6125 O   0  0  0  0  0  0  0  0  0  0  0  0
  -36.8286   57.5739   62.7309 C   0  0  0  0  0  0  0  0  0  0  0  0
  -35.5365   57.1103   63.3923 C   0  0  0  0  0  0  0  0  0  0  0  0
  -36.6565   58.9426   62.0897 C   0  0  0  0  0  0  0  0  0  0  0  0
  -38.6964   58.4015   60.8480 N   0  0  0  0  0  0  0  0  0  0  0  0
  -37.9648   60.5342   61.0259 O   0  0  0  0  0  0  0  0  0  0  0  0
  -37.8320   59.3504   61.2364 C   0  0  0  0  0  0  0  0  0  0  0  0
  -38.4835   57.4677   61.0760 H   0  0  0  0  0  0  0  0  0  0  0  0
  -41.6415   58.7324   61.8831 N   0  0  0  0  0  0  0  0  0  0  0  0
  -41.3337   60.5105   60.5382 O   0  0  0  0  0  0  0  0  0  0  0  0
  -41.1770   57.4938   62.5249 C   0  0  0  0  0  0  0  0  0  0  0  0
  -41.2917   56.3017   61.5560 C   0  0  0  0  0  0  0  0  0  0  0  0
  -41.6679   56.6604   60.1278 C   0  0  0  0  0  0  0  0  0  0  0  0
  -40.5752   57.4491   59.4012 C   0  0  0  0  0  0  0  0  0  0  0  0
  -39.9370   58.6570   60.1072 C   0  0  0  0  0  0  0  0  0  0  0  0
  -41.0245   59.3774   60.8801 C   0  0  0  0  0  0  0  0  0  0  0  0
  -43.2397   60.9610   61.9402 Si  0  0  0  0  0  0  0  0  0  0  0  0
  -42.7964   59.2795   62.3552 O   0  0  0  0  0  0  0  0  0  0  0  0
  -44.4788   61.2884   62.5518 H   0  0  0  0  0  0  0  0  0  0  0  0
  -43.3602   61.0846   60.5308 H   0  0  0  0  0  0  0  0  0  0  0  0
  -42.2323   61.8454   62.4086 H   0  0  0  0  0  0  0  0  0  0  0  0
  -40.8039   60.1741   66.4121 C   0  0  0  0  0  0  0  0  0  0  0  0
  -40.0486   59.3283   65.3795 C   0  0  0  0  0  0  0  0  0  0  0  0
  -42.2771   59.8106   66.6641 C   0  0  0  0  0  0  0  0  0  0  0  0
  -43.0973   59.2923   65.4650 C   0  0  0  0  0  0  0  0  0  0  0  0
  -43.9735   58.2161   65.9379 N   0  0  0  0  0  0  0  0  0  0  0  0
  -45.3250   58.2141   66.0834 C   0  0  0  0  0  0  0  0  0  0  0  0
  -43.2939   57.0381   66.2789 O   0  0  0  0  0  0  0  0  0  0  0  0
  -45.9198   57.2190   66.4966 O   0  0  0  0  0  0  0  0  0  0  0  0
  -43.9318   56.3730   66.5815 H   0  0  0  0  0  0  0  0  0  0  0  0
  -46.1122   59.4767   65.7174 C   0  0  0  0  0  0  0  0  0  0  0  0
  -47.5614   59.2187   65.2829 C   0  0  0  0  0  0  0  0  0  0  0  0
  -48.5371   59.8379   66.3023 C   0  0  0  0  0  0  0  0  0  0  0  0
  -50.0085   59.7969   65.8483 C   0  0  0  0  0  0  0  0  0  0  0  0
  -50.2871   60.5085   64.5110 C   0  0  0  0  0  0  0  0  0  0  0  0
  -51.2999   59.7504   63.6274 C   0  0  0  0  0  0  0  0  0  0  0  0
  -50.9161   58.2828   63.3260 C   0  0  0  0  0  0  0  0  0  0  0  0
  -50.0269   58.1270   62.0870 C   0  0  0  0  0  0  0  0  0  0  0  0
  -50.6827   57.4258   60.8933 C   0  0  0  0  0  0  0  0  0  0  0  0
  -49.7464   57.4046   59.6713 C   0  0  0  0  0  0  0  0  0  0  0  0
  -48.7795   56.2110   59.6484 C   0  0  0  0  0  0  0  0  0  0  0  0
  -47.5065   56.4015   58.8173 C   0  0  0  0  0  0  0  0  0  0  0  0
  -47.6493   55.9885   57.3312 C   0  0  0  0  0  0  0  0  0  0  0  0
  -47.9308   57.2081   56.4303 C   0  0  0  0  0  0  0  0  0  0  0  0
  -47.1468   58.4922   56.7260 C   0  0  0  0  0  0  0  0  0  0  0  0
 46 47  1  0  0  0
 46 48  1  0  0  0
 46 45  1  0  0  0
 47 49  2  0  0  0
 47 51  1  0  0  0
 19 20  2  0  0  0
 37 38  1  0  0  0
 37 39  1  0  0  0
 37 40  1  0  0  0
 37 41  1  0  0  0
 48 50  1  0  0  0
 38 29  1  0  0  0
 45 44  1  0  0  0
 25 27  1  0  0  0
 25 35  1  0  0  0
 25 28  1  0  0  0
 21 20  1  0  0  0
 21 22  1  0  0  0
 44 42  1  0  0  0
  2  1  1  0  0  0
  2  4  1  0  0  0
  2  5  1  0  0  0
 26 27  2  0  0  0
 42 43  2  0  0  0
 29 31  1  0  0  0
 29 36  1  0  0  0
  3  4  2  0  0  0
 43  1  1  0  0  0
  6  9  2  0  0  0
  6 10  1  0  0  0
  1 20  1  0  0  0
 30 36  2  0  0  0
  7  8  1  0  0  0
  7  9  1  0  0  0
 22 24  1  0  0  0
 22 23  1  0  0  0
 11 12  1  0  0  0
 11 18  1  0  0  0
 24 27  1  0  0  0
  4 10  1  0  0  0
 51 52  1  0  0  0
 52 53  1  0  0  0
 53 54  1  0  0  0
 54 55  1  0  0  0
 55 56  1  0  0  0
 56 57  1  0  0  0
 57 58  1  0  0  0
 58 59  1  0  0  0
 59 60  1  0  0  0
 60 61  1  0  0  0
 61 62  1  0  0  0
 62 63  1  0  0  0
 63 64  1  0  0  0
 64 65  1  0  0  0
 31 32  1  0  0  0
 32 33  1  0  0  0
 33 34  1  0  0  0
 34 35  1  0  0  0
 35 36  1  0  0  0
  8 10  1  0  0  0
  9 17  1  0  0  0
 12 13  2  0  0  0
 12 17  1  0  0  0
 13 14  1  0  0  0
 14 15  2  0  0  0
 15 16  1  0  0  0
 16 17  2  0  0  0
M  END
> <minimizedAffinity>
-10.49076

> <CNNscore>
0.1167797819

> <CNNaffinity>
7.3226175308

> <CNN_VS>
0.8551336527

> <CNNaffinity_variance>
1.2600351572

$$$$
/media/chris/experiments/cd1a-new-docking/inputs/ligands/1xz0_ligand.pdb


 65 67  0  0  0  0  0  0  0  0999 V2000
  -42.1381   58.9805   64.4513 C   0  0  0  0  0  0  0  0  0  0  0  0
  -40.8982   59.1011   65.2209 N   0  0  0  0  0  0  0  0  0  0  0  0
  -39.7491   60.7075   64.0931 O   0  0  0  0  0  0  0  0  0  0  0  0
  -39.8411   59.9052   65.0129 C   0  0  0  0  0  0  0  0  0  0  0  0
  -40.8287   58.5077   66.0034 H   0  0  0  0  0  0  0  0  0  0  0  0
  -37.7907   60.9463   65.9574 N   0  0  0  0  0  0  0  0  0  0  0  0
  -36.3200   59.3257   65.5070 O   0  0  0  0  0  0  0  0  0  0  0  0
  -37.5709   58.6433   65.5844 C   0  0  0  0  0  0  0  0  0  0  0  0
  -36.5660   60.7279   65.7337 C   0  0  0  0  0  0  0  0  0  0  0  0
  -38.6284   59.7326   65.9159 C   0  0  0  0  0  0  0  0  0  0  0  0
  -37.0317   63.5790   65.9595 O   0  0  0  0  0  0  0  0  0  0  0  0
  -35.7711   63.1352   65.8850 C   0  0  0  0  0  0  0  0  0  0  0  0
  -34.7107   64.0496   65.9339 C   0  0  0  0  0  0  0  0  0  0  0  0
  -33.3790   63.6098   65.8482 C   0  0  0  0  0  0  0  0  0  0  0  0
  -33.0921   62.2494   65.7226 C   0  0  0  0  0  0  0  0  0  0  0  0
  -34.1462   61.3327   65.6798 C   0  0  0  0  0  0  0  0  0  0  0  0
  -35.4821   61.7711   65.7566 C   0  0  0  0  0  0  0  0  0  0  0  0
  -37.2011   64.4966   66.0452 H   0  0  0  0  0  0  0  0  0  0  0  0
  -42.7626   57.7074   66.3812 O   0  0  0  0  0  0  0  0  0  0  0  0
  -43.0561   58.0818   65.2578 C   0  0  0  0  0  0  0  0  0  0  0  0
  -44.3010   57.5865   64.6613 O   0  0  0  0  0  0  0  0  0  0  0  0
  -45.4835   58.4067   64.6059 C   0  0  0  0  0  0  0  0  0  0  0  0
  -45.2156   59.8872   64.3650 C   0  0  0  0  0  0  0  0  0  0  0  0
  -46.2752   58.1936   65.8873 C   0  0  0  0  0  0  0  0  0  0  0  0
  -48.3794   57.9665   64.6557 N   0  0  0  0  0  0  0  0  0  0  0  0
  -48.2910   59.0660   66.6302 O   0  0  0  0  0  0  0  0  0  0  0  0
  -47.7496   58.4705   65.7271 C   0  0  0  0  0  0  0  0  0  0  0  0
  -47.8340   57.4998   63.9820 H   0  0  0  0  0  0  0  0  0  0  0  0
  -49.9626   59.4268   62.3718 N   0  0  0  0  0  0  0  0  0  0  0  0
  -50.8449   57.3566   62.4087 O   0  0  0  0  0  0  0  0  0  0  0  0
  -49.0300   60.4500   62.8671 C   0  0  0  0  0  0  0  0  0  0  0  0
  -49.5810   61.1189   64.1407 C   0  0  0  0  0  0  0  0  0  0  0  0
  -50.8366   60.4842   64.7155 C   0  0  0  0  0  0  0  0  0  0  0  0
  -50.5952   59.0793   65.2741 C   0  0  0  0  0  0  0  0  0  0  0  0
  -49.8241   58.0617   64.4169 C   0  0  0  0  0  0  0  0  0  0  0  0
  -50.2372   58.2571   62.9712 C   0  0  0  0  0  0  0  0  0  0  0  0
  -49.8618   60.7803   59.9882 Si  0  0  0  0  0  0  0  0  0  0  0  0
  -50.5975   59.6849   61.1944 O   0  0  0  0  0  0  0  0  0  0  0  0
  -50.7156   60.8816   58.8580 H   0  0  0  0  0  0  0  0  0  0  0  0
  -48.6024   60.2632   59.5851 H   0  0  0  0  0  0  0  0  0  0  0  0
  -49.6834   62.0663   60.5634 H   0  0  0  0  0  0  0  0  0  0  0  0
  -40.8486   57.6466   62.5933 C   0  0  0  0  0  0  0  0  0  0  0  0
  -42.0167   58.5687   62.9640 C   0  0  0  0  0  0  0  0  0  0  0  0
  -40.4581   57.5834   61.1069 C   0  0  0  0  0  0  0  0  0  0  0  0
  -38.9760   57.8185   60.7499 C   0  0  0  0  0  0  0  0  0  0  0  0
  -38.5847   59.1377   61.2564 N   0  0  0  0  0  0  0  0  0  0  0  0
  -37.4382   59.5072   61.8861 C   0  0  0  0  0  0  0  0  0  0  0  0
  -39.5468   60.1356   61.0463 O   0  0  0  0  0  0  0  0  0  0  0  0
  -37.2588   60.6682   62.2532 O   0  0  0  0  0  0  0  0  0  0  0  0
  -39.2232   60.9771   61.4042 H   0  0  0  0  0  0  0  0  0  0  0  0
  -36.3542   58.4526   62.1326 C   0  0  0  0  0  0  0  0  0  0  0  0
  -35.0060   59.0225   62.5942 C   0  0  0  0  0  0  0  0  0  0  0  0
  -33.8506   58.1967   61.9965 C   0  0  0  0  0  0  0  0  0  0  0  0
  -32.7732   57.8105   63.0276 C   0  0  0  0  0  0  0  0  0  0  0  0
  -32.0681   59.0053   63.6964 C   0  0  0  0  0  0  0  0  0  0  0  0
  -31.1354   59.7682   62.7323 C   0  0  0  0  0  0  0  0  0  0  0  0
  -31.2858   61.3067   62.7772 C   0  0  0  0  0  0  0  0  0  0  0  0
  -32.6125   61.8071   62.1942 C   0  0  0  0  0  0  0  0  0  0  0  0
  -32.8594   63.3133   62.3247 C   0  0  0  0  0  0  0  0  0  0  0  0
  -33.3760   63.9137   61.0045 C   0  0  0  0  0  0  0  0  0  0  0  0
  -33.3857   65.4498   60.9808 C   0  0  0  0  0  0  0  0  0  0  0  0
  -32.3435   66.1357   61.8701 C   0  0  0  0  0  0  0  0  0  0  0  0
  -32.9186   66.7354   63.1775 C   0  0  0  0  0  0  0  0  0  0  0  0
  -32.0180   66.4187   64.3885 C   0  0  0  0  0  0  0  0  0  0  0  0
  -30.7420   65.6120   64.1196 C   0  0  0  0  0  0  0  0  0  0  0  0
 46 47  1  0  0  0
 46 48  1  0  0  0
 46 45  1  0  0  0
 47 49  2  0  0  0
 47 51  1  0  0  0
 19 20  2  0  0  0
 37 38  1  0  0  0
 37 39  1  0  0  0
 37 40  1  0  0  0
 37 41  1  0  0  0
 48 50  1  0  0  0
 38 29  1  0  0  0
 45 44  1  0  0  0
 25 27  1  0  0  0
 25 35  1  0  0  0
 25 28  1  0  0  0
 21 20  1  0  0  0
 21 22  1  0  0  0
 44 42  1  0  0  0
  2  1  1  0  0  0
  2  4  1  0  0  0
  2  5  1  0  0  0
 26 27  2  0  0  0
 42 43  2  0  0  0
 29 31  1  0  0  0
 29 36  1  0  0  0
  3  4  2  0  0  0
 43  1  1  0  0  0
  6  9  2  0  0  0
  6 10  1  0  0  0
  1 20  1  0  0  0
 30 36  2  0  0  0
  7  8  1  0  0  0
  7  9  1  0  0  0
 22 24  1  0  0  0
 22 23  1  0  0  0
 11 12  1  0  0  0
 11 18  1  0  0  0
 24 27  1  0  0  0
  4 10  1  0  0  0
 51 52  1  0  0  0
 52 53  1  0  0  0
 53 54  1  0  0  0
 54 55  1  0  0  0
 55 56  1  0  0  0
 56 57  1  0  0  0
 57 58  1  0  0  0
 58 59  1  0  0  0
 59 60  1  0  0  0
 60 61  1  0  0  0
 61 62  1  0  0  0
 62 63  1  0  0  0
 63 64  1  0  0  0
 64 65  1  0  0  0
 31 32  1  0  0  0
 32 33  1  0  0  0
 33 34  1  0  0  0
 34 35  1  0  0  0
 35 36  1  0  0  0
  8 10  1  0  0  0
  9 17  1  0  0  0
 12 13  2  0  0  0
 12 17  1  0  0  0
 13 14  1  0  0  0
 14 15  2  0  0  0
 15 16  1  0  0  0
 16 17  2  0  0  0
M  END
> <minimizedAffinity>
-8.40564

> <CNNscore>
0.1090868041

> <CNNaffinity>
7.1206159592

> <CNN_VS>
0.7767652273

> <CNNaffinity_variance>
0.7790638208

$$$$
/media/chris/experiments/cd1a-new-docking/inputs/ligands/1xz0_ligand.pdb


 65 67  0  0  0  0  0  0  0  0999 V2000
  -41.4687   58.9048   64.2997 C   0  0  0  0  0  0  0  0  0  0  0  0
  -40.1420   58.8546   64.9173 N   0  0  0  0  0  0  0  0  0  0  0  0
  -39.9534   60.9001   65.8937 O   0  0  0  0  0  0  0  0  0  0  0  0
  -39.4995   59.7937   65.6333 C   0  0  0  0  0  0  0  0  0  0  0  0
  -39.6495   58.0117   64.7897 H   0  0  0  0  0  0  0  0  0  0  0  0
  -37.3438   60.7358   66.4367 N   0  0  0  0  0  0  0  0  0  0  0  0
  -35.9553   59.7519   64.9889 O   0  0  0  0  0  0  0  0  0  0  0  0
  -37.0760   58.8702   65.0442 C   0  0  0  0  0  0  0  0  0  0  0  0
  -36.2254   60.8664   65.8624 C   0  0  0  0  0  0  0  0  0  0  0  0
  -38.0666   59.5066   66.0582 C   0  0  0  0  0  0  0  0  0  0  0  0
  -36.9900   63.6463   66.1527 O   0  0  0  0  0  0  0  0  0  0  0  0
  -35.6947   63.3208   66.2417 C   0  0  0  0  0  0  0  0  0  0  0  0
  -34.7446   64.3206   66.4878 C   0  0  0  0  0  0  0  0  0  0  0  0
  -33.3780   64.0062   66.5763 C   0  0  0  0  0  0  0  0  0  0  0  0
  -32.9469   62.6865   66.4297 C   0  0  0  0  0  0  0  0  0  0  0  0
  -33.8915   61.6846   66.1904 C   0  0  0  0  0  0  0  0  0  0  0  0
  -35.2608   61.9979   66.0924 C   0  0  0  0  0  0  0  0  0  0  0  0
  -37.2571   64.5385   66.2561 H   0  0  0  0  0  0  0  0  0  0  0  0
  -41.9988   56.6194   64.7810 O   0  0  0  0  0  0  0  0  0  0  0  0
  -42.2808   57.7956   64.9407 C   0  0  0  0  0  0  0  0  0  0  0  0
  -43.4784   58.1253   65.7205 O   0  0  0  0  0  0  0  0  0  0  0  0
  -44.7674   58.2608   65.0928 C   0  0  0  0  0  0  0  0  0  0  0  0
  -44.8581   59.3876   64.0712 C   0  0  0  0  0  0  0  0  0  0  0  0
  -45.8167   58.4220   66.1824 C   0  0  0  0  0  0  0  0  0  0  0  0
  -48.0138   58.5523   65.1093 N   0  0  0  0  0  0  0  0  0  0  0  0
  -47.3165   56.6547   66.1234 O   0  0  0  0  0  0  0  0  0  0  0  0
  -47.1484   57.8133   65.8189 C   0  0  0  0  0  0  0  0  0  0  0  0
  -47.7699   59.4872   64.9209 H   0  0  0  0  0  0  0  0  0  0  0  0
  -49.6056   59.3770   62.5323 N   0  0  0  0  0  0  0  0  0  0  0  0
  -49.5491   57.1289   62.4415 O   0  0  0  0  0  0  0  0  0  0  0  0
  -49.2851   60.6591   63.1767 C   0  0  0  0  0  0  0  0  0  0  0  0
  -50.2870   60.9673   64.3054 C   0  0  0  0  0  0  0  0  0  0  0  0
  -51.2533   59.8429   64.6401 C   0  0  0  0  0  0  0  0  0  0  0  0
  -50.5635   58.6269   65.2642 C   0  0  0  0  0  0  0  0  0  0  0  0
  -49.2985   58.0653   64.5939 C   0  0  0  0  0  0  0  0  0  0  0  0
  -49.4807   58.1629   63.0918 C   0  0  0  0  0  0  0  0  0  0  0  0
  -50.9310   58.0324   60.5425 Si  0  0  0  0  0  0  0  0  0  0  0  0
  -50.0610   59.4251   61.2492 O   0  0  0  0  0  0  0  0  0  0  0  0
  -51.2971   58.3329   59.2037 H   0  0  0  0  0  0  0  0  0  0  0  0
  -52.0995   57.7679   61.3047 H   0  0  0  0  0  0  0  0  0  0  0  0
  -50.0874   56.8902   60.5575 H   0  0  0  0  0  0  0  0  0  0  0  0
  -41.8159   57.5644   62.0687 C   0  0  0  0  0  0  0  0  0  0  0  0
  -41.5353   58.9079   62.7531 C   0  0  0  0  0  0  0  0  0  0  0  0
  -41.4596   57.4572   60.5763 C   0  0  0  0  0  0  0  0  0  0  0  0
  -41.0831   58.7589   59.8393 C   0  0  0  0  0  0  0  0  0  0  0  0
  -39.6692   58.6798   59.4594 N   0  0  0  0  0  0  0  0  0  0  0  0
  -38.6261   59.4440   59.8788 C   0  0  0  0  0  0  0  0  0  0  0  0
  -39.3848   57.6650   58.5347 O   0  0  0  0  0  0  0  0  0  0  0  0
  -37.4849   59.2484   59.4613 O   0  0  0  0  0  0  0  0  0  0  0  0
  -38.4367   57.6707   58.3299 H   0  0  0  0  0  0  0  0  0  0  0  0
  -38.8865   60.5617   60.8940 C   0  0  0  0  0  0  0  0  0  0  0  0
  -38.1605   60.3847   62.2345 C   0  0  0  0  0  0  0  0  0  0  0  0
  -36.8484   61.1927   62.2357 C   0  0  0  0  0  0  0  0  0  0  0  0
  -36.9937   62.6004   62.8442 C   0  0  0  0  0  0  0  0  0  0  0  0
  -35.8753   63.5855   62.4557 C   0  0  0  0  0  0  0  0  0  0  0  0
  -34.4675   63.0698   62.8209 C   0  0  0  0  0  0  0  0  0  0  0  0
  -33.3643   64.1535   62.8100 C   0  0  0  0  0  0  0  0  0  0  0  0
  -32.2432   63.8725   61.8027 C   0  0  0  0  0  0  0  0  0  0  0  0
  -30.9152   63.4117   62.4115 C   0  0  0  0  0  0  0  0  0  0  0  0
  -31.0604   62.0452   63.1058 C   0  0  0  0  0  0  0  0  0  0  0  0
  -30.7477   60.8479   62.1954 C   0  0  0  0  0  0  0  0  0  0  0  0
  -31.9036   59.8695   61.9620 C   0  0  0  0  0  0  0  0  0  0  0  0
  -32.9085   59.7803   63.1375 C   0  0  0  0  0  0  0  0  0  0  0  0
  -32.8705   58.3927   63.8092 C   0  0  0  0  0  0  0  0  0  0  0  0
  -32.9316   58.3548   65.3409 C   0  0  0  0  0  0  0  0  0  0  0  0
 46 47  1  0  0  0
 46 48  1  0  0  0
 46 45  1  0  0  0
 47 49  2  0  0  0
 47 51  1  0  0  0
 19 20  2  0  0  0
 37 38  1  0  0  0
 37 39  1  0  0  0
 37 40  1  0  0  0
 37 41  1  0  0  0
 48 50  1  0  0  0
 38 29  1  0  0  0
 45 44  1  0  0  0
 25 27  1  0  0  0
 25 35  1  0  0  0
 25 28  1  0  0  0
 21 20  1  0  0  0
 21 22  1  0  0  0
 44 42  1  0  0  0
  2  1  1  0  0  0
  2  4  1  0  0  0
  2  5  1  0  0  0
 26 27  2  0  0  0
 42 43  2  0  0  0
 29 31  1  0  0  0
 29 36  1  0  0  0
  3  4  2  0  0  0
 43  1  1  0  0  0
  6  9  2  0  0  0
  6 10  1  0  0  0
  1 20  1  0  0  0
 30 36  2  0  0  0
  7  8  1  0  0  0
  7  9  1  0  0  0
 22 24  1  0  0  0
 22 23  1  0  0  0
 11 12  1  0  0  0
 11 18  1  0  0  0
 24 27  1  0  0  0
  4 10  1  0  0  0
 51 52  1  0  0  0
 52 53  1  0  0  0
 53 54  1  0  0  0
 54 55  1  0  0  0
 55 56  1  0  0  0
 56 57  1  0  0  0
 57 58  1  0  0  0
 58 59  1  0  0  0
 59 60  1  0  0  0
 60 61  1  0  0  0
 61 62  1  0  0  0
 62 63  1  0  0  0
 63 64  1  0  0  0
 64 65  1  0  0  0
 31 32  1  0  0  0
 32 33  1  0  0  0
 33 34  1  0  0  0
 34 35  1  0  0  0
 35 36  1  0  0  0
  8 10  1  0  0  0
  9 17  1  0  0  0
 12 13  2  0  0  0
 12 17  1  0  0  0
 13 14  1  0  0  0
 14 15  2  0  0  0
 15 16  1  0  0  0
 16 17  2  0  0  0
M  END
> <minimizedAffinity>
-8.71217

> <CNNscore>
0.1090198159

> <CNNaffinity>
7.3188705444

> <CNN_VS>
0.7979019284

> <CNNaffinity_variance>
1.2488925457

$$$$
/media/chris/experiments/cd1a-new-docking/inputs/ligands/1xz0_ligand.pdb


 65 67  0  0  0  0  0  0  0  0999 V2000
  -37.6963   59.1809   65.5862 C   0  0  0  0  0  0  0  0  0  0  0  0
  -36.4975   60.0095   65.4434 N   0  0  0  0  0  0  0  0  0  0  0  0
  -36.7976   61.6210   67.0201 O   0  0  0  0  0  0  0  0  0  0  0  0
  -36.1378   61.1118   66.1237 C   0  0  0  0  0  0  0  0  0  0  0  0
  -35.8636   59.7172   64.7491 H   0  0  0  0  0  0  0  0  0  0  0  0
  -35.1878   63.1048   64.9811 N   0  0  0  0  0  0  0  0  0  0  0  0
  -33.7720   62.0836   63.5866 O   0  0  0  0  0  0  0  0  0  0  0  0
  -33.9120   61.1642   64.6689 C   0  0  0  0  0  0  0  0  0  0  0  0
  -34.6032   63.2274   63.8671 C   0  0  0  0  0  0  0  0  0  0  0  0
  -34.8789   61.8422   65.6789 C   0  0  0  0  0  0  0  0  0  0  0  0
  -36.4738   63.4861   61.6693 O   0  0  0  0  0  0  0  0  0  0  0  0
  -35.6393   64.5000   61.9288 C   0  0  0  0  0  0  0  0  0  0  0  0
  -35.6981   65.6626   61.1492 C   0  0  0  0  0  0  0  0  0  0  0  0
  -34.8267   66.7369   61.3954 C   0  0  0  0  0  0  0  0  0  0  0  0
  -33.8931   66.6648   62.4308 C   0  0  0  0  0  0  0  0  0  0  0  0
  -33.8348   65.5098   63.2155 C   0  0  0  0  0  0  0  0  0  0  0  0
  -34.7008   64.4280   62.9655 C   0  0  0  0  0  0  0  0  0  0  0  0
  -37.0938   63.5568   60.9702 H   0  0  0  0  0  0  0  0  0  0  0  0
  -36.8064   56.9597   65.6867 O   0  0  0  0  0  0  0  0  0  0  0  0
  -37.3468   57.8210   65.0123 C   0  0  0  0  0  0  0  0  0  0  0  0
  -37.5967   57.5410   63.5945 O   0  0  0  0  0  0  0  0  0  0  0  0
  -36.5803   57.7576   62.5975 C   0  0  0  0  0  0  0  0  0  0  0  0
  -35.1520   57.6197   63.1100 C   0  0  0  0  0  0  0  0  0  0  0  0
  -36.8085   59.1242   61.9693 C   0  0  0  0  0  0  0  0  0  0  0  0
  -39.2126   58.8006   61.6357 N   0  0  0  0  0  0  0  0  0  0  0  0
  -37.9067   59.6500   59.9960 O   0  0  0  0  0  0  0  0  0  0  0  0
  -38.0422   59.1806   61.1027 C   0  0  0  0  0  0  0  0  0  0  0  0
  -39.2013   58.4307   62.5480 H   0  0  0  0  0  0  0  0  0  0  0  0
  -42.0565   57.8346   62.5489 N   0  0  0  0  0  0  0  0  0  0  0  0
  -42.3853   59.9668   61.9077 O   0  0  0  0  0  0  0  0  0  0  0  0
  -41.1986   56.6590   62.7580 C   0  0  0  0  0  0  0  0  0  0  0  0
  -40.9904   55.8944   61.4370 C   0  0  0  0  0  0  0  0  0  0  0  0
  -41.5343   56.5831   60.1961 C   0  0  0  0  0  0  0  0  0  0  0  0
  -40.7791   57.8677   59.8451 C   0  0  0  0  0  0  0  0  0  0  0  0
  -40.5090   58.8973   60.9549 C   0  0  0  0  0  0  0  0  0  0  0  0
  -41.7232   58.9391   61.8620 C   0  0  0  0  0  0  0  0  0  0  0  0
  -43.7539   56.4873   64.2306 Si  0  0  0  0  0  0  0  0  0  0  0  0
  -43.2973   57.8041   63.1108 O   0  0  0  0  0  0  0  0  0  0  0  0
  -45.0884   56.6846   64.6740 H   0  0  0  0  0  0  0  0  0  0  0  0
  -42.8782   56.4915   65.3483 H   0  0  0  0  0  0  0  0  0  0  0  0
  -43.6578   55.2400   63.5587 H   0  0  0  0  0  0  0  0  0  0  0  0
  -40.2064   59.8104   66.0302 C   0  0  0  0  0  0  0  0  0  0  0  0
  -39.0290   59.7568   65.0490 C   0  0  0  0  0  0  0  0  0  0  0  0
  -41.6115   59.9579   65.4220 C   0  0  0  0  0  0  0  0  0  0  0  0
  -42.8140   59.8996   66.3862 C   0  0  0  0  0  0  0  0  0  0  0  0
  -43.4583   58.5907   66.2394 N   0  0  0  0  0  0  0  0  0  0  0  0
  -44.7784   58.2970   66.1023 C   0  0  0  0  0  0  0  0  0  0  0  0
  -42.5623   57.5124   66.2437 O   0  0  0  0  0  0  0  0  0  0  0  0
  -45.1634   57.1336   65.9874 O   0  0  0  0  0  0  0  0  0  0  0  0
  -43.0546   56.6826   66.1432 H   0  0  0  0  0  0  0  0  0  0  0  0
  -45.7954   59.4429   66.0856 C   0  0  0  0  0  0  0  0  0  0  0  0
  -47.2259   59.0181   65.7267 C   0  0  0  0  0  0  0  0  0  0  0  0
  -47.8236   59.9934   64.6943 C   0  0  0  0  0  0  0  0  0  0  0  0
  -48.9826   60.8426   65.2497 C   0  0  0  0  0  0  0  0  0  0  0  0
  -50.3083   60.7009   64.4785 C   0  0  0  0  0  0  0  0  0  0  0  0
  -50.7920   59.2388   64.3799 C   0  0  0  0  0  0  0  0  0  0  0  0
  -50.7714   58.6512   62.9495 C   0  0  0  0  0  0  0  0  0  0  0  0
  -50.5183   59.7018   61.8621 C   0  0  0  0  0  0  0  0  0  0  0  0
  -49.3679   59.3865   60.9009 C   0  0  0  0  0  0  0  0  0  0  0  0
  -49.3537   57.8969   60.5122 C   0  0  0  0  0  0  0  0  0  0  0  0
  -48.0555   57.4447   59.8264 C   0  0  0  0  0  0  0  0  0  0  0  0
  -48.0812   56.0411   59.2124 C   0  0  0  0  0  0  0  0  0  0  0  0
  -47.6445   55.9886   57.7271 C   0  0  0  0  0  0  0  0  0  0  0  0
  -46.9844   57.3104   57.2851 C   0  0  0  0  0  0  0  0  0  0  0  0
  -47.6613   58.0846   56.1478 C   0  0  0  0  0  0  0  0  0  0  0  0
 46 47  1  0  0  0
 46 48  1  0  0  0
 46 45  1  0  0  0
 47 49  2  0  0  0
 47 51  1  0  0  0
 19 20  2  0  0  0
 37 38  1  0  0  0
 37 39  1  0  0  0
 37 40  1  0  0  0
 37 41  1  0  0  0
 48 50  1  0  0  0
 38 29  1  0  0  0
 45 44  1  0  0  0
 25 27  1  0  0  0
 25 35  1  0  0  0
 25 28  1  0  0  0
 21 20  1  0  0  0
 21 22  1  0  0  0
 44 42  1  0  0  0
  2  1  1  0  0  0
  2  4  1  0  0  0
  2  5  1  0  0  0
 26 27  2  0  0  0
 42 43  2  0  0  0
 29 31  1  0  0  0
 29 36  1  0  0  0
  3  4  2  0  0  0
 43  1  1  0  0  0
  6  9  2  0  0  0
  6 10  1  0  0  0
  1 20  1  0  0  0
 30 36  2  0  0  0
  7  8  1  0  0  0
  7  9  1  0  0  0
 22 24  1  0  0  0
 22 23  1  0  0  0
 11 12  1  0  0  0
 11 18  1  0  0  0
 24 27  1  0  0  0
  4 10  1  0  0  0
 51 52  1  0  0  0
 52 53  1  0  0  0
 53 54  1  0  0  0
 54 55  1  0  0  0
 55 56  1  0  0  0
 56 57  1  0  0  0
 57 58  1  0  0  0
 58 59  1  0  0  0
 59 60  1  0  0  0
 60 61  1  0  0  0
 61 62  1  0  0  0
 62 63  1  0  0  0
 63 64  1  0  0  0
 64 65  1  0  0  0
 31 32  1  0  0  0
 32 33  1  0  0  0
 33 34  1  0  0  0
 34 35  1  0  0  0
 35 36  1  0  0  0
  8 10  1  0  0  0
  9 17  1  0  0  0
 12 13  2  0  0  0
 12 17  1  0  0  0
 13 14  1  0  0  0
 14 15  2  0  0  0
 15 16  1  0  0  0
 16 17  2  0  0  0
M  END
> <minimizedAffinity>
-9.65970

> <CNNscore>
0.1054362133

> <CNNaffinity>
7.4564371109

> <CNN_VS>
0.7861784697

> <CNNaffinity_variance>
1.2220785618

$$$$
/media/chris/experiments/cd1a-new-docking/inputs/ligands/1xz0_ligand.pdb


 65 67  0  0  0  0  0  0  0  0999 V2000
  -40.9389   59.1071   64.6215 C   0  0  0  0  0  0  0  0  0  0  0  0
  -39.8716   58.6529   63.7279 N   0  0  0  0  0  0  0  0  0  0  0  0
  -40.9956   58.0869   61.8333 O   0  0  0  0  0  0  0  0  0  0  0  0
  -39.9534   58.1976   62.4656 C   0  0  0  0  0  0  0  0  0  0  0  0
  -38.9631   58.6857   64.1059 H   0  0  0  0  0  0  0  0  0  0  0  0
  -37.5418   57.6662   62.7517 N   0  0  0  0  0  0  0  0  0  0  0  0
  -36.7204   58.7355   60.9700 O   0  0  0  0  0  0  0  0  0  0  0  0
  -38.0690   58.4446   60.6052 C   0  0  0  0  0  0  0  0  0  0  0  0
  -36.5045   58.2327   62.3037 C   0  0  0  0  0  0  0  0  0  0  0  0
  -38.6796   57.6806   61.8127 C   0  0  0  0  0  0  0  0  0  0  0  0
  -36.2099   58.2547   65.1863 O   0  0  0  0  0  0  0  0  0  0  0  0
  -35.1106   58.3160   64.4250 C   0  0  0  0  0  0  0  0  0  0  0  0
  -33.8494   58.3725   65.0326 C   0  0  0  0  0  0  0  0  0  0  0  0
  -32.6809   58.4469   64.2559 C   0  0  0  0  0  0  0  0  0  0  0  0
  -32.7599   58.4555   62.8621 C   0  0  0  0  0  0  0  0  0  0  0  0
  -34.0154   58.3929   62.2511 C   0  0  0  0  0  0  0  0  0  0  0  0
  -35.1885   58.3272   63.0270 C   0  0  0  0  0  0  0  0  0  0  0  0
  -36.1333   58.2485   66.1202 H   0  0  0  0  0  0  0  0  0  0  0  0
  -40.9734   60.8781   66.2334 O   0  0  0  0  0  0  0  0  0  0  0  0
  -40.3027   60.0972   65.5786 C   0  0  0  0  0  0  0  0  0  0  0  0
  -38.8419   60.1768   65.6816 O   0  0  0  0  0  0  0  0  0  0  0  0
  -38.1061   61.2582   65.0790 C   0  0  0  0  0  0  0  0  0  0  0  0
  -37.8932   61.1185   63.5768 C   0  0  0  0  0  0  0  0  0  0  0  0
  -36.7799   61.4019   65.8103 C   0  0  0  0  0  0  0  0  0  0  0  0
  -34.9592   62.7827   64.9304 N   0  0  0  0  0  0  0  0  0  0  0  0
  -36.7426   63.7153   65.9624 O   0  0  0  0  0  0  0  0  0  0  0  0
  -36.1244   62.7433   65.5931 C   0  0  0  0  0  0  0  0  0  0  0  0
  -34.5461   61.9249   64.6799 H   0  0  0  0  0  0  0  0  0  0  0  0
  -33.5112   63.5476   62.2522 N   0  0  0  0  0  0  0  0  0  0  0  0
  -34.8505   65.3076   62.6693 O   0  0  0  0  0  0  0  0  0  0  0  0
  -32.9613   62.2259   62.5877 C   0  0  0  0  0  0  0  0  0  0  0  0
  -31.8337   62.3532   63.6294 C   0  0  0  0  0  0  0  0  0  0  0  0
  -31.6493   63.7415   64.2195 C   0  0  0  0  0  0  0  0  0  0  0  0
  -32.8268   64.1815   65.0936 C   0  0  0  0  0  0  0  0  0  0  0  0
  -34.2565   64.0142   64.5526 C   0  0  0  0  0  0  0  0  0  0  0  0
  -34.2368   64.3278   63.0692 C   0  0  0  0  0  0  0  0  0  0  0  0
  -31.9575   63.3223   60.0029 Si  0  0  0  0  0  0  0  0  0  0  0  0
  -33.2708   64.0181   60.9964 O   0  0  0  0  0  0  0  0  0  0  0  0
  -31.9150   63.9817   58.7459 H   0  0  0  0  0  0  0  0  0  0  0  0
  -32.1982   61.9373   59.8030 H   0  0  0  0  0  0  0  0  0  0  0  0
  -30.7163   63.4955   60.6706 H   0  0  0  0  0  0  0  0  0  0  0  0
  -43.3103   58.1162   65.1590 C   0  0  0  0  0  0  0  0  0  0  0  0
  -41.7887   58.0219   65.3261 C   0  0  0  0  0  0  0  0  0  0  0  0
  -44.1699   57.3433   66.1737 C   0  0  0  0  0  0  0  0  0  0  0  0
  -45.6874   57.2665   65.9083 C   0  0  0  0  0  0  0  0  0  0  0  0
  -46.3041   58.5009   66.4042 N   0  0  0  0  0  0  0  0  0  0  0  0
  -47.3380   59.2114   65.8808 C   0  0  0  0  0  0  0  0  0  0  0  0
  -45.7259   58.9912   67.5836 O   0  0  0  0  0  0  0  0  0  0  0  0
  -47.7438   60.2390   66.4233 O   0  0  0  0  0  0  0  0  0  0  0  0
  -46.1807   59.8046   67.8526 H   0  0  0  0  0  0  0  0  0  0  0  0
  -48.0063   58.7115   64.5958 C   0  0  0  0  0  0  0  0  0  0  0  0
  -49.1243   57.6840   64.8191 C   0  0  0  0  0  0  0  0  0  0  0  0
  -50.3034   58.3392   65.5639 C   0  0  0  0  0  0  0  0  0  0  0  0
  -50.8925   59.5590   64.8304 C   0  0  0  0  0  0  0  0  0  0  0  0
  -51.3634   59.2761   63.3915 C   0  0  0  0  0  0  0  0  0  0  0  0
  -51.0740   60.4437   62.4248 C   0  0  0  0  0  0  0  0  0  0  0  0
  -49.6061   60.5315   61.9460 C   0  0  0  0  0  0  0  0  0  0  0  0
  -49.4451   60.3363   60.4340 C   0  0  0  0  0  0  0  0  0  0  0  0
  -49.8183   58.9464   59.9089 C   0  0  0  0  0  0  0  0  0  0  0  0
  -49.1380   57.8353   60.7293 C   0  0  0  0  0  0  0  0  0  0  0  0
  -49.3438   56.4243   60.1576 C   0  0  0  0  0  0  0  0  0  0  0  0
  -48.1258   55.8016   59.4675 C   0  0  0  0  0  0  0  0  0  0  0  0
  -47.2009   56.8256   58.7635 C   0  0  0  0  0  0  0  0  0  0  0  0
  -47.6914   57.1418   57.3360 C   0  0  0  0  0  0  0  0  0  0  0  0
  -47.1664   58.4266   56.6843 C   0  0  0  0  0  0  0  0  0  0  0  0
 46 47  1  0  0  0
 46 48  1  0  0  0
 46 45  1  0  0  0
 47 49  2  0  0  0
 47 51  1  0  0  0
 19 20  2  0  0  0
 37 38  1  0  0  0
 37 39  1  0  0  0
 37 40  1  0  0  0
 37 41  1  0  0  0
 48 50  1  0  0  0
 38 29  1  0  0  0
 45 44  1  0  0  0
 25 27  1  0  0  0
 25 35  1  0  0  0
 25 28  1  0  0  0
 21 20  1  0  0  0
 21 22  1  0  0  0
 44 42  1  0  0  0
  2  1  1  0  0  0
  2  4  1  0  0  0
  2  5  1  0  0  0
 26 27  2  0  0  0
 42 43  2  0  0  0
 29 31  1  0  0  0
 29 36  1  0  0  0
  3  4  2  0  0  0
 43  1  1  0  0  0
  6  9  2  0  0  0
  6 10  1  0  0  0
  1 20  1  0  0  0
 30 36  2  0  0  0
  7  8  1  0  0  0
  7  9  1  0  0  0
 22 24  1  0  0  0
 22 23  1  0  0  0
 11 12  1  0  0  0
 11 18  1  0  0  0
 24 27  1  0  0  0
  4 10  1  0  0  0
 51 52  1  0  0  0
 52 53  1  0  0  0
 53 54  1  0  0  0
 54 55  1  0  0  0
 55 56  1  0  0  0
 56 57  1  0  0  0
 57 58  1  0  0  0
 58 59  1  0  0  0
 59 60  1  0  0  0
 60 61  1  0  0  0
 61 62  1  0  0  0
 62 63  1  0  0  0
 63 64  1  0  0  0
 64 65  1  0  0  0
 31 32  1  0  0  0
 32 33  1  0  0  0
 33 34  1  0  0  0
 34 35  1  0  0  0
 35 36  1  0  0  0
  8 10  1  0  0  0
  9 17  1  0  0  0
 12 13  2  0  0  0
 12 17  1  0  0  0
 13 14  1  0  0  0
 14 15  2  0  0  0
 15 16  1  0  0  0
 16 17  2  0  0  0
M  END
> <minimizedAffinity>
-9.95915

> <CNNscore>
0.1005976647

> <CNNaffinity>
6.8877401352

> <CNN_VS>
0.6928905845

> <CNNaffinity_variance>
0.6174616218

$$$$
