/media/chris/experiments/cd1a-new-docking/inputs/ligands/1xz0_ligand.pdb


 65 67  0  0  0  0  0  0  0  0999 V2000
  -42.0333   59.6585   62.1915 C   0  0  0  0  0  0  0  0  0  0  0  0
  -40.7545   59.2018   61.6435 N   0  0  0  0  0  0  0  0  0  0  0  0
  -41.3719   58.0977   59.7534 O   0  0  0  0  0  0  0  0  0  0  0  0
  -40.5102   58.4929   60.5276 C   0  0  0  0  0  0  0  0  0  0  0  0
  -39.9589   59.4496   62.1677 H   0  0  0  0  0  0  0  0  0  0  0  0
  -38.3890   57.6329   61.4976 N   0  0  0  0  0  0  0  0  0  0  0  0
  -36.9577   59.0881   60.5886 O   0  0  0  0  0  0  0  0  0  0  0  0
  -38.0575   59.0734   59.6793 C   0  0  0  0  0  0  0  0  0  0  0  0
  -37.2665   58.1874   61.6709 C   0  0  0  0  0  0  0  0  0  0  0  0
  -39.0767   58.0560   60.2627 C   0  0  0  0  0  0  0  0  0  0  0  0
  -34.4506   58.8707   61.7000 O   0  0  0  0  0  0  0  0  0  0  0  0
  -34.9829   58.2827   62.7782 C   0  0  0  0  0  0  0  0  0  0  0  0
  -34.1778   58.0266   63.8959 C   0  0  0  0  0  0  0  0  0  0  0  0
  -34.7105   57.4021   65.0363 C   0  0  0  0  0  0  0  0  0  0  0  0
  -36.0569   57.0354   65.0757 C   0  0  0  0  0  0  0  0  0  0  0  0
  -36.8656   57.2945   63.9657 C   0  0  0  0  0  0  0  0  0  0  0  0
  -36.3327   57.9123   62.8181 C   0  0  0  0  0  0  0  0  0  0  0  0
  -33.5447   59.1097   61.6960 H   0  0  0  0  0  0  0  0  0  0  0  0
  -42.0577   61.8801   63.0856 O   0  0  0  0  0  0  0  0  0  0  0  0
  -41.7016   60.7211   63.2219 C   0  0  0  0  0  0  0  0  0  0  0  0
  -40.8754   60.3780   64.3841 O   0  0  0  0  0  0  0  0  0  0  0  0
  -39.6979   59.5598   64.2509 C   0  0  0  0  0  0  0  0  0  0  0  0
  -39.7769   58.2165   64.9656 C   0  0  0  0  0  0  0  0  0  0  0  0
  -38.4982   60.3651   64.7271 C   0  0  0  0  0  0  0  0  0  0  0  0
  -36.5076   61.4441   63.7948 N   0  0  0  0  0  0  0  0  0  0  0  0
  -38.4007   61.2261   62.5765 O   0  0  0  0  0  0  0  0  0  0  0  0
  -37.7872   61.0880   63.6099 C   0  0  0  0  0  0  0  0  0  0  0  0
  -36.0338   61.8579   63.0374 H   0  0  0  0  0  0  0  0  0  0  0  0
  -35.5453   63.5577   65.9070 N   0  0  0  0  0  0  0  0  0  0  0  0
  -36.5752   61.9830   67.1421 O   0  0  0  0  0  0  0  0  0  0  0  0
  -35.0873   64.1064   64.6221 C   0  0  0  0  0  0  0  0  0  0  0  0
  -33.7683   63.4417   64.1848 C   0  0  0  0  0  0  0  0  0  0  0  0
  -33.3202   62.2663   65.0376 C   0  0  0  0  0  0  0  0  0  0  0  0
  -34.2457   61.0525   64.9175 C   0  0  0  0  0  0  0  0  0  0  0  0
  -35.7639   61.2607   65.0462 C   0  0  0  0  0  0  0  0  0  0  0  0
  -36.0048   62.3127   66.1112 C   0  0  0  0  0  0  0  0  0  0  0  0
  -36.6075   64.1288   68.3707 Si  0  0  0  0  0  0  0  0  0  0  0  0
  -35.5092   64.3904   66.9846 O   0  0  0  0  0  0  0  0  0  0  0  0
  -36.3726   65.1247   69.3553 H   0  0  0  0  0  0  0  0  0  0  0  0
  -36.3676   62.8453   68.9289 H   0  0  0  0  0  0  0  0  0  0  0  0
  -37.9546   64.2085   67.9288 H   0  0  0  0  0  0  0  0  0  0  0  0
  -43.3201   58.5818   64.2110 C   0  0  0  0  0  0  0  0  0  0  0  0
  -43.0138   58.5780   62.7083 C   0  0  0  0  0  0  0  0  0  0  0  0
  -43.9192   57.2939   64.8013 C   0  0  0  0  0  0  0  0  0  0  0  0
  -44.2920   57.3035   66.2981 C   0  0  0  0  0  0  0  0  0  0  0  0
  -45.3343   58.3135   66.5060 N   0  0  0  0  0  0  0  0  0  0  0  0
  -46.6846   58.1793   66.4260 C   0  0  0  0  0  0  0  0  0  0  0  0
  -44.8382   59.5837   66.8318 O   0  0  0  0  0  0  0  0  0  0  0  0
  -47.2021   57.0952   66.1579 O   0  0  0  0  0  0  0  0  0  0  0  0
  -45.5785   60.1983   66.9546 H   0  0  0  0  0  0  0  0  0  0  0  0
  -47.5679   59.4074   66.6699 C   0  0  0  0  0  0  0  0  0  0  0  0
  -48.1071   60.0662   65.3929 C   0  0  0  0  0  0  0  0  0  0  0  0
  -49.6176   60.3356   65.5344 C   0  0  0  0  0  0  0  0  0  0  0  0
  -50.4864   59.0762   65.3544 C   0  0  0  0  0  0  0  0  0  0  0  0
  -50.0967   58.1945   64.1534 C   0  0  0  0  0  0  0  0  0  0  0  0
  -51.0617   58.3468   62.9589 C   0  0  0  0  0  0  0  0  0  0  0  0
  -50.8104   59.5989   62.0866 C   0  0  0  0  0  0  0  0  0  0  0  0
  -49.4086   59.6396   61.4674 C   0  0  0  0  0  0  0  0  0  0  0  0
  -49.3643   59.5489   59.9387 C   0  0  0  0  0  0  0  0  0  0  0  0
  -50.0308   58.2561   59.4337 C   0  0  0  0  0  0  0  0  0  0  0  0
  -49.2394   56.9800   59.7583 C   0  0  0  0  0  0  0  0  0  0  0  0
  -47.7498   57.0116   59.4011 C   0  0  0  0  0  0  0  0  0  0  0  0
  -47.3767   56.1717   58.1540 C   0  0  0  0  0  0  0  0  0  0  0  0
  -47.7192   56.9167   56.8478 C   0  0  0  0  0  0  0  0  0  0  0  0
  -47.2049   58.3544   56.7066 C   0  0  0  0  0  0  0  0  0  0  0  0
 46 47  1  0  0  0
 46 48  1  0  0  0
 46 45  1  0  0  0
 47 49  2  0  0  0
 47 51  1  0  0  0
 19 20  2  0  0  0
 37 38  1  0  0  0
 37 39  1  0  0  0
 37 40  1  0  0  0
 37 41  1  0  0  0
 48 50  1  0  0  0
 38 29  1  0  0  0
 45 44  1  0  0  0
 25 27  1  0  0  0
 25 35  1  0  0  0
 25 28  1  0  0  0
 21 20  1  0  0  0
 21 22  1  0  0  0
 44 42  1  0  0  0
  2  1  1  0  0  0
  2  4  1  0  0  0
  2  5  1  0  0  0
 26 27  2  0  0  0
 42 43  2  0  0  0
 29 31  1  0  0  0
 29 36  1  0  0  0
  3  4  2  0  0  0
 43  1  1  0  0  0
  6  9  2  0  0  0
  6 10  1  0  0  0
  1 20  1  0  0  0
 30 36  2  0  0  0
  7  8  1  0  0  0
  7  9  1  0  0  0
 22 24  1  0  0  0
 22 23  1  0  0  0
 11 12  1  0  0  0
 11 18  1  0  0  0
 24 27  1  0  0  0
  4 10  1  0  0  0
 51 52  1  0  0  0
 52 53  1  0  0  0
 53 54  1  0  0  0
 54 55  1  0  0  0
 55 56  1  0  0  0
 56 57  1  0  0  0
 57 58  1  0  0  0
 58 59  1  0  0  0
 59 60  1  0  0  0
 60 61  1  0  0  0
 61 62  1  0  0  0
 62 63  1  0  0  0
 63 64  1  0  0  0
 64 65  1  0  0  0
 31 32  1  0  0  0
 32 33  1  0  0  0
 33 34  1  0  0  0
 34 35  1  0  0  0
 35 36  1  0  0  0
  8 10  1  0  0  0
  9 17  1  0  0  0
 12 13  2  0  0  0
 12 17  1  0  0  0
 13 14  1  0  0  0
 14 15  2  0  0  0
 15 16  1  0  0  0
 16 17  2  0  0  0
M  END
> <minimizedAffinity>
-10.09286

> <CNNscore>
0.2759827077

> <CNNaffinity>
7.6553792953

> <CNN_VS>
2.1127521992

> <CNNaffinity_variance>
0.9285846949

$$$$
/media/chris/experiments/cd1a-new-docking/inputs/ligands/1xz0_ligand.pdb


 65 67  0  0  0  0  0  0  0  0999 V2000
  -42.5880   59.1785   64.7380 C   0  0  0  0  0  0  0  0  0  0  0  0
  -43.9172   59.0111   65.3290 N   0  0  0  0  0  0  0  0  0  0  0  0
  -44.1950   56.7538   65.3345 O   0  0  0  0  0  0  0  0  0  0  0  0
  -44.6027   57.8818   65.5784 C   0  0  0  0  0  0  0  0  0  0  0  0
  -44.3749   59.8458   65.5800 H   0  0  0  0  0  0  0  0  0  0  0  0
  -46.9928   58.2629   65.0105 N   0  0  0  0  0  0  0  0  0  0  0  0
  -47.4661   59.8688   66.4902 O   0  0  0  0  0  0  0  0  0  0  0  0
  -46.3812   59.1595   67.0874 C   0  0  0  0  0  0  0  0  0  0  0  0
  -47.7517   59.2519   65.2190 C   0  0  0  0  0  0  0  0  0  0  0  0
  -46.0269   58.0150   66.0979 C   0  0  0  0  0  0  0  0  0  0  0  0
  -50.4383   59.9142   66.0795 O   0  0  0  0  0  0  0  0  0  0  0  0
  -50.1301   60.0276   64.7818 C   0  0  0  0  0  0  0  0  0  0  0  0
  -51.1004   60.4763   63.8762 C   0  0  0  0  0  0  0  0  0  0  0  0
  -50.8046   60.5950   62.5077 C   0  0  0  0  0  0  0  0  0  0  0  0
  -49.5321   60.2757   62.0307 C   0  0  0  0  0  0  0  0  0  0  0  0
  -48.5588   59.8338   62.9312 C   0  0  0  0  0  0  0  0  0  0  0  0
  -48.8548   59.7055   64.3019 C   0  0  0  0  0  0  0  0  0  0  0  0
  -51.2985   60.1355   66.3778 H   0  0  0  0  0  0  0  0  0  0  0  0
  -42.0741   59.8863   66.9674 O   0  0  0  0  0  0  0  0  0  0  0  0
  -41.7294   59.8421   65.7979 C   0  0  0  0  0  0  0  0  0  0  0  0
  -40.4823   60.5110   65.4132 O   0  0  0  0  0  0  0  0  0  0  0  0
  -39.4075   59.7881   64.7838 C   0  0  0  0  0  0  0  0  0  0  0  0
  -39.4329   58.2833   65.0216 C   0  0  0  0  0  0  0  0  0  0  0  0
  -38.0893   60.3939   65.2419 C   0  0  0  0  0  0  0  0  0  0  0  0
  -36.2621   61.8339   64.4778 N   0  0  0  0  0  0  0  0  0  0  0  0
  -38.0640   61.4352   63.1703 O   0  0  0  0  0  0  0  0  0  0  0  0
  -37.4662   61.3058   64.2140 C   0  0  0  0  0  0  0  0  0  0  0  0
  -35.8360   62.3756   63.7748 H   0  0  0  0  0  0  0  0  0  0  0  0
  -35.0015   63.9742   66.3975 N   0  0  0  0  0  0  0  0  0  0  0  0
  -36.2178   62.6645   67.7653 O   0  0  0  0  0  0  0  0  0  0  0  0
  -34.4894   64.3433   65.0696 C   0  0  0  0  0  0  0  0  0  0  0  0
  -33.2762   63.4725   64.6919 C   0  0  0  0  0  0  0  0  0  0  0  0
  -32.9791   62.3259   65.6441 C   0  0  0  0  0  0  0  0  0  0  0  0
  -34.0597   61.2413   65.6305 C   0  0  0  0  0  0  0  0  0  0  0  0
  -35.5349   61.6614   65.7405 C   0  0  0  0  0  0  0  0  0  0  0  0
  -35.6206   62.8244   66.7096 C   0  0  0  0  0  0  0  0  0  0  0  0
  -33.3264   64.9358   68.3451 Si  0  0  0  0  0  0  0  0  0  0  0  0
  -34.8419   64.8846   67.3983 O   0  0  0  0  0  0  0  0  0  0  0  0
  -33.4116   65.9651   69.3196 H   0  0  0  0  0  0  0  0  0  0  0  0
  -32.2340   65.1961   67.4760 H   0  0  0  0  0  0  0  0  0  0  0  0
  -33.1297   63.6869   68.9917 H   0  0  0  0  0  0  0  0  0  0  0  0
  -41.7862   59.0946   62.2392 C   0  0  0  0  0  0  0  0  0  0  0  0
  -42.5051   59.8654   63.3532 C   0  0  0  0  0  0  0  0  0  0  0  0
  -41.3167   59.9093   61.0220 C   0  0  0  0  0  0  0  0  0  0  0  0
  -40.3543   59.2202   60.0327 C   0  0  0  0  0  0  0  0  0  0  0  0
  -39.0021   59.2688   60.5973 N   0  0  0  0  0  0  0  0  0  0  0  0
  -38.3272   58.3109   61.2864 C   0  0  0  0  0  0  0  0  0  0  0  0
  -38.3382   60.4842   60.3792 O   0  0  0  0  0  0  0  0  0  0  0  0
  -38.8330   57.2112   61.5096 O   0  0  0  0  0  0  0  0  0  0  0  0
  -37.4544   60.4459   60.7773 H   0  0  0  0  0  0  0  0  0  0  0  0
  -36.9149   58.6189   61.7947 C   0  0  0  0  0  0  0  0  0  0  0  0
  -36.4938   57.8115   63.0301 C   0  0  0  0  0  0  0  0  0  0  0  0
  -35.1327   58.3125   63.5503 C   0  0  0  0  0  0  0  0  0  0  0  0
  -33.9278   57.6140   62.8920 C   0  0  0  0  0  0  0  0  0  0  0  0
  -32.5618   58.2435   63.2233 C   0  0  0  0  0  0  0  0  0  0  0  0
  -32.2588   59.4987   62.3783 C   0  0  0  0  0  0  0  0  0  0  0  0
  -30.9287   60.2044   62.7317 C   0  0  0  0  0  0  0  0  0  0  0  0
  -30.9797   61.7262   62.5537 C   0  0  0  0  0  0  0  0  0  0  0  0
  -31.3280   62.2099   61.1425 C   0  0  0  0  0  0  0  0  0  0  0  0
  -32.2683   63.4284   61.1830 C   0  0  0  0  0  0  0  0  0  0  0  0
  -31.6968   64.6789   60.4977 C   0  0  0  0  0  0  0  0  0  0  0  0
  -32.4939   65.9717   60.7000 C   0  0  0  0  0  0  0  0  0  0  0  0
  -33.4470   65.9468   61.9210 C   0  0  0  0  0  0  0  0  0  0  0  0
  -34.9223   66.0689   61.4887 C   0  0  0  0  0  0  0  0  0  0  0  0
  -35.6999   64.7643   61.2771 C   0  0  0  0  0  0  0  0  0  0  0  0
 46 47  1  0  0  0
 46 48  1  0  0  0
 46 45  1  0  0  0
 47 49  2  0  0  0
 47 51  1  0  0  0
 19 20  2  0  0  0
 37 38  1  0  0  0
 37 39  1  0  0  0
 37 40  1  0  0  0
 37 41  1  0  0  0
 48 50  1  0  0  0
 38 29  1  0  0  0
 45 44  1  0  0  0
 25 27  1  0  0  0
 25 35  1  0  0  0
 25 28  1  0  0  0
 21 20  1  0  0  0
 21 22  1  0  0  0
 44 42  1  0  0  0
  2  1  1  0  0  0
  2  4  1  0  0  0
  2  5  1  0  0  0
 26 27  2  0  0  0
 42 43  2  0  0  0
 29 31  1  0  0  0
 29 36  1  0  0  0
  3  4  2  0  0  0
 43  1  1  0  0  0
  6  9  2  0  0  0
  6 10  1  0  0  0
  1 20  1  0  0  0
 30 36  2  0  0  0
  7  8  1  0  0  0
  7  9  1  0  0  0
 22 24  1  0  0  0
 22 23  1  0  0  0
 11 12  1  0  0  0
 11 18  1  0  0  0
 24 27  1  0  0  0
  4 10  1  0  0  0
 51 52  1  0  0  0
 52 53  1  0  0  0
 53 54  1  0  0  0
 54 55  1  0  0  0
 55 56  1  0  0  0
 56 57  1  0  0  0
 57 58  1  0  0  0
 58 59  1  0  0  0
 59 60  1  0  0  0
 60 61  1  0  0  0
 61 62  1  0  0  0
 62 63  1  0  0  0
 63 64  1  0  0  0
 64 65  1  0  0  0
 31 32  1  0  0  0
 32 33  1  0  0  0
 33 34  1  0  0  0
 34 35  1  0  0  0
 35 36  1  0  0  0
  8 10  1  0  0  0
  9 17  1  0  0  0
 12 13  2  0  0  0
 12 17  1  0  0  0
 13 14  1  0  0  0
 14 15  2  0  0  0
 15 16  1  0  0  0
 16 17  2  0  0  0
M  END
> <minimizedAffinity>
-9.34657

> <CNNscore>
0.1997430921

> <CNNaffinity>
7.4584617615

> <CNN_VS>
1.4897762537

> <CNNaffinity_variance>
1.1484858990

$$$$
/media/chris/experiments/cd1a-new-docking/inputs/ligands/1xz0_ligand.pdb


 65 67  0  0  0  0  0  0  0  0999 V2000
  -42.4597   59.6703   65.4128 C   0  0  0  0  0  0  0  0  0  0  0  0
  -41.8945   58.6065   64.5803 N   0  0  0  0  0  0  0  0  0  0  0  0
  -42.4466   56.7166   65.7188 O   0  0  0  0  0  0  0  0  0  0  0  0
  -41.9176   57.2754   64.7669 C   0  0  0  0  0  0  0  0  0  0  0  0
  -41.4308   58.9099   63.7665 H   0  0  0  0  0  0  0  0  0  0  0  0
  -40.1812   57.1939   62.9897 N   0  0  0  0  0  0  0  0  0  0  0  0
  -41.2973   56.0280   61.4447 O   0  0  0  0  0  0  0  0  0  0  0  0
  -41.8995   55.6318   62.6763 C   0  0  0  0  0  0  0  0  0  0  0  0
  -40.2713   56.9951   61.7448 C   0  0  0  0  0  0  0  0  0  0  0  0
  -41.1401   56.4070   63.7884 C   0  0  0  0  0  0  0  0  0  0  0  0
  -40.9078   57.1319   58.9211 O   0  0  0  0  0  0  0  0  0  0  0  0
  -39.7640   57.6778   59.3518 C   0  0  0  0  0  0  0  0  0  0  0  0
  -38.9128   58.3134   58.4382 C   0  0  0  0  0  0  0  0  0  0  0  0
  -37.7022   58.8859   58.8637 C   0  0  0  0  0  0  0  0  0  0  0  0
  -37.3337   58.8379   60.2093 C   0  0  0  0  0  0  0  0  0  0  0  0
  -38.1825   58.2106   61.1255 C   0  0  0  0  0  0  0  0  0  0  0  0
  -39.3922   57.6283   60.7008 C   0  0  0  0  0  0  0  0  0  0  0  0
  -41.1359   57.1772   58.0135 H   0  0  0  0  0  0  0  0  0  0  0  0
  -41.3303   61.4987   66.4695 O   0  0  0  0  0  0  0  0  0  0  0  0
  -41.2887   60.3325   66.1135 C   0  0  0  0  0  0  0  0  0  0  0  0
  -40.0424   59.5862   66.3159 O   0  0  0  0  0  0  0  0  0  0  0  0
  -39.0658   59.4597   65.2652 C   0  0  0  0  0  0  0  0  0  0  0  0
  -38.2029   58.2068   65.3511 C   0  0  0  0  0  0  0  0  0  0  0  0
  -38.2087   60.7166   65.2533 C   0  0  0  0  0  0  0  0  0  0  0  0
  -36.2522   60.8763   63.7896 N   0  0  0  0  0  0  0  0  0  0  0  0
  -38.3405   61.2294   62.9959 O   0  0  0  0  0  0  0  0  0  0  0  0
  -37.5826   60.9954   63.9092 C   0  0  0  0  0  0  0  0  0  0  0  0
  -35.8606   60.9979   62.8945 H   0  0  0  0  0  0  0  0  0  0  0  0
  -33.4780   62.1473   64.5269 N   0  0  0  0  0  0  0  0  0  0  0  0
  -34.6337   62.2043   66.4573 O   0  0  0  0  0  0  0  0  0  0  0  0
  -33.3498   61.8192   63.0994 C   0  0  0  0  0  0  0  0  0  0  0  0
  -32.9999   60.3309   62.9115 C   0  0  0  0  0  0  0  0  0  0  0  0
  -33.0416   59.4899   64.1767 C   0  0  0  0  0  0  0  0  0  0  0  0
  -34.4552   59.3290   64.7421 C   0  0  0  0  0  0  0  0  0  0  0  0
  -35.3390   60.5777   64.8986 C   0  0  0  0  0  0  0  0  0  0  0  0
  -34.4548   61.7254   65.3458 C   0  0  0  0  0  0  0  0  0  0  0  0
  -32.0845   62.8226   66.7909 Si  0  0  0  0  0  0  0  0  0  0  0  0
  -32.5256   62.9600   65.0640 O   0  0  0  0  0  0  0  0  0  0  0  0
  -31.0761   63.7737   67.0989 H   0  0  0  0  0  0  0  0  0  0  0  0
  -31.5973   61.5146   67.0523 H   0  0  0  0  0  0  0  0  0  0  0  0
  -33.2297   63.0703   67.5932 H   0  0  0  0  0  0  0  0  0  0  0  0
  -45.0058   59.1164   65.7364 C   0  0  0  0  0  0  0  0  0  0  0  0
  -43.6183   59.2896   66.3663 C   0  0  0  0  0  0  0  0  0  0  0  0
  -46.2129   59.1733   66.6880 C   0  0  0  0  0  0  0  0  0  0  0  0
  -47.0682   57.8974   66.8297 C   0  0  0  0  0  0  0  0  0  0  0  0
  -48.3106   58.0906   66.0757 N   0  0  0  0  0  0  0  0  0  0  0  0
  -49.1877   59.1280   66.1223 C   0  0  0  0  0  0  0  0  0  0  0  0
  -48.6080   57.0437   65.1918 O   0  0  0  0  0  0  0  0  0  0  0  0
  -48.9945   60.0928   66.8618 O   0  0  0  0  0  0  0  0  0  0  0  0
  -49.4384   57.2371   64.7292 H   0  0  0  0  0  0  0  0  0  0  0  0
  -50.4387   59.0820   65.2387 C   0  0  0  0  0  0  0  0  0  0  0  0
  -51.1678   60.4253   65.0988 C   0  0  0  0  0  0  0  0  0  0  0  0
  -50.6262   61.1961   63.8795 C   0  0  0  0  0  0  0  0  0  0  0  0
  -49.3962   60.5340   63.2299 C   0  0  0  0  0  0  0  0  0  0  0  0
  -49.5933   60.1173   61.7604 C   0  0  0  0  0  0  0  0  0  0  0  0
  -50.9158   59.3580   61.5241 C   0  0  0  0  0  0  0  0  0  0  0  0
  -50.8795   57.8653   61.9272 C   0  0  0  0  0  0  0  0  0  0  0  0
  -50.7903   56.9122   60.7298 C   0  0  0  0  0  0  0  0  0  0  0  0
  -49.5033   56.0856   60.6444 C   0  0  0  0  0  0  0  0  0  0  0  0
  -48.4159   56.8216   59.8404 C   0  0  0  0  0  0  0  0  0  0  0  0
  -47.3454   55.8936   59.2463 C   0  0  0  0  0  0  0  0  0  0  0  0
  -47.0632   56.0743   57.7513 C   0  0  0  0  0  0  0  0  0  0  0  0
  -48.3003   56.4888   56.9160 C   0  0  0  0  0  0  0  0  0  0  0  0
  -48.0236   57.7613   56.0898 C   0  0  0  0  0  0  0  0  0  0  0  0
  -47.0960   58.8119   56.7121 C   0  0  0  0  0  0  0  0  0  0  0  0
 46 47  1  0  0  0
 46 48  1  0  0  0
 46 45  1  0  0  0
 47 49  2  0  0  0
 47 51  1  0  0  0
 19 20  2  0  0  0
 37 38  1  0  0  0
 37 39  1  0  0  0
 37 40  1  0  0  0
 37 41  1  0  0  0
 48 50  1  0  0  0
 38 29  1  0  0  0
 45 44  1  0  0  0
 25 27  1  0  0  0
 25 35  1  0  0  0
 25 28  1  0  0  0
 21 20  1  0  0  0
 21 22  1  0  0  0
 44 42  1  0  0  0
  2  1  1  0  0  0
  2  4  1  0  0  0
  2  5  1  0  0  0
 26 27  2  0  0  0
 42 43  2  0  0  0
 29 31  1  0  0  0
 29 36  1  0  0  0
  3  4  2  0  0  0
 43  1  1  0  0  0
  6  9  2  0  0  0
  6 10  1  0  0  0
  1 20  1  0  0  0
 30 36  2  0  0  0
  7  8  1  0  0  0
  7  9  1  0  0  0
 22 24  1  0  0  0
 22 23  1  0  0  0
 11 12  1  0  0  0
 11 18  1  0  0  0
 24 27  1  0  0  0
  4 10  1  0  0  0
 51 52  1  0  0  0
 52 53  1  0  0  0
 53 54  1  0  0  0
 54 55  1  0  0  0
 55 56  1  0  0  0
 56 57  1  0  0  0
 57 58  1  0  0  0
 58 59  1  0  0  0
 59 60  1  0  0  0
 60 61  1  0  0  0
 61 62  1  0  0  0
 62 63  1  0  0  0
 63 64  1  0  0  0
 64 65  1  0  0  0
 31 32  1  0  0  0
 32 33  1  0  0  0
 33 34  1  0  0  0
 34 35  1  0  0  0
 35 36  1  0  0  0
  8 10  1  0  0  0
  9 17  1  0  0  0
 12 13  2  0  0  0
 12 17  1  0  0  0
 13 14  1  0  0  0
 14 15  2  0  0  0
 15 16  1  0  0  0
 16 17  2  0  0  0
M  END
> <minimizedAffinity>
-9.69496

> <CNNscore>
0.1898754388

> <CNNaffinity>
7.4955620766

> <CNN_VS>
1.4232231379

> <CNNaffinity_variance>
0.4504708648

$$$$
/media/chris/experiments/cd1a-new-docking/inputs/ligands/1xz0_ligand.pdb


 65 67  0  0  0  0  0  0  0  0999 V2000
  -40.5947   58.4073   64.9673 C   0  0  0  0  0  0  0  0  0  0  0  0
  -39.3658   59.0589   64.5097 N   0  0  0  0  0  0  0  0  0  0  0  0
  -38.9878   60.6250   66.1150 O   0  0  0  0  0  0  0  0  0  0  0  0
  -38.6752   60.0660   65.0720 C   0  0  0  0  0  0  0  0  0  0  0  0
  -38.9913   58.7090   63.6691 H   0  0  0  0  0  0  0  0  0  0  0  0
  -36.5428   61.3383   65.1910 N   0  0  0  0  0  0  0  0  0  0  0  0
  -36.8994   62.8001   63.5392 O   0  0  0  0  0  0  0  0  0  0  0  0
  -37.7143   61.6816   63.1907 C   0  0  0  0  0  0  0  0  0  0  0  0
  -36.2388   62.4956   64.7838 C   0  0  0  0  0  0  0  0  0  0  0  0
  -37.4844   60.6253   64.3069 C   0  0  0  0  0  0  0  0  0  0  0  0
  -36.0864   62.9095   67.6478 O   0  0  0  0  0  0  0  0  0  0  0  0
  -35.2341   63.5695   66.8543 C   0  0  0  0  0  0  0  0  0  0  0  0
  -34.2827   64.4275   67.4216 C   0  0  0  0  0  0  0  0  0  0  0  0
  -33.3830   65.1387   66.6097 C   0  0  0  0  0  0  0  0  0  0  0  0
  -33.4181   64.9925   65.2219 C   0  0  0  0  0  0  0  0  0  0  0  0
  -34.3611   64.1329   64.6516 C   0  0  0  0  0  0  0  0  0  0  0  0
  -35.2698   63.4255   65.4620 C   0  0  0  0  0  0  0  0  0  0  0  0
  -36.0439   63.0216   68.5770 H   0  0  0  0  0  0  0  0  0  0  0  0
  -41.7986   56.5154   64.1265 O   0  0  0  0  0  0  0  0  0  0  0  0
  -40.7712   57.1730   64.1034 C   0  0  0  0  0  0  0  0  0  0  0  0
  -39.6636   56.7058   63.2632 O   0  0  0  0  0  0  0  0  0  0  0  0
  -39.1875   57.4850   62.1496 C   0  0  0  0  0  0  0  0  0  0  0  0
  -39.8781   57.1833   60.8254 C   0  0  0  0  0  0  0  0  0  0  0  0
  -37.6823   57.2941   62.0395 C   0  0  0  0  0  0  0  0  0  0  0  0
  -35.6967   58.7266   62.0009 N   0  0  0  0  0  0  0  0  0  0  0  0
  -37.5411   59.2487   60.8003 O   0  0  0  0  0  0  0  0  0  0  0  0
  -36.9579   58.5374   61.5859 C   0  0  0  0  0  0  0  0  0  0  0  0
  -35.2114   59.5074   61.6485 H   0  0  0  0  0  0  0  0  0  0  0  0
  -33.9756   59.4425   64.5268 N   0  0  0  0  0  0  0  0  0  0  0  0
  -35.4006   57.8657   65.2674 O   0  0  0  0  0  0  0  0  0  0  0  0
  -33.4319   60.3083   63.4700 C   0  0  0  0  0  0  0  0  0  0  0  0
  -32.4334   59.5329   62.5900 C   0  0  0  0  0  0  0  0  0  0  0  0
  -32.3546   58.0393   62.8599 C   0  0  0  0  0  0  0  0  0  0  0  0
  -33.6350   57.2932   62.4753 C   0  0  0  0  0  0  0  0  0  0  0  0
  -34.9891   57.8521   62.9430 C   0  0  0  0  0  0  0  0  0  0  0  0
  -34.8098   58.4066   64.3427 C   0  0  0  0  0  0  0  0  0  0  0  0
  -32.8185   58.4766   66.8185 Si  0  0  0  0  0  0  0  0  0  0  0  0
  -33.6073   59.7227   65.8081 O   0  0  0  0  0  0  0  0  0  0  0  0
  -32.5376   59.0159   68.1017 H   0  0  0  0  0  0  0  0  0  0  0  0
  -31.6070   58.0650   66.2025 H   0  0  0  0  0  0  0  0  0  0  0  0
  -33.6842   57.3592   66.9538 H   0  0  0  0  0  0  0  0  0  0  0  0
  -42.8989   58.8815   66.1333 C   0  0  0  0  0  0  0  0  0  0  0  0
  -41.8689   59.2803   65.0694 C   0  0  0  0  0  0  0  0  0  0  0  0
  -44.3224   59.4398   65.9660 C   0  0  0  0  0  0  0  0  0  0  0  0
  -45.1377   58.9569   64.7488 C   0  0  0  0  0  0  0  0  0  0  0  0
  -46.5534   59.2425   65.0010 N   0  0  0  0  0  0  0  0  0  0  0  0
  -47.4646   58.5091   65.6936 C   0  0  0  0  0  0  0  0  0  0  0  0
  -46.9997   60.4463   64.4377 O   0  0  0  0  0  0  0  0  0  0  0  0
  -47.1516   57.4465   66.2302 O   0  0  0  0  0  0  0  0  0  0  0  0
  -47.9396   60.5706   64.6430 H   0  0  0  0  0  0  0  0  0  0  0  0
  -48.9052   59.0210   65.7965 C   0  0  0  0  0  0  0  0  0  0  0  0
  -49.9653   58.0472   65.2642 C   0  0  0  0  0  0  0  0  0  0  0  0
  -49.9660   58.0573   63.7234 C   0  0  0  0  0  0  0  0  0  0  0  0
  -51.1778   58.7875   63.1137 C   0  0  0  0  0  0  0  0  0  0  0  0
  -50.8972   60.2350   62.6690 C   0  0  0  0  0  0  0  0  0  0  0  0
  -49.5581   60.3828   61.9164 C   0  0  0  0  0  0  0  0  0  0  0  0
  -49.6942   60.4897   60.3795 C   0  0  0  0  0  0  0  0  0  0  0  0
  -49.0339   59.3290   59.6265 C   0  0  0  0  0  0  0  0  0  0  0  0
  -49.8527   58.0356   59.5677 C   0  0  0  0  0  0  0  0  0  0  0  0
  -49.2225   56.9324   60.4375 C   0  0  0  0  0  0  0  0  0  0  0  0
  -48.4643   55.8640   59.6351 C   0  0  0  0  0  0  0  0  0  0  0  0
  -47.4365   56.3919   58.6290 C   0  0  0  0  0  0  0  0  0  0  0  0
  -47.7381   56.0183   57.1561 C   0  0  0  0  0  0  0  0  0  0  0  0
  -47.9233   57.2745   56.2810 C   0  0  0  0  0  0  0  0  0  0  0  0
  -47.0991   58.5134   56.6516 C   0  0  0  0  0  0  0  0  0  0  0  0
 46 47  1  0  0  0
 46 48  1  0  0  0
 46 45  1  0  0  0
 47 49  2  0  0  0
 47 51  1  0  0  0
 19 20  2  0  0  0
 37 38  1  0  0  0
 37 39  1  0  0  0
 37 40  1  0  0  0
 37 41  1  0  0  0
 48 50  1  0  0  0
 38 29  1  0  0  0
 45 44  1  0  0  0
 25 27  1  0  0  0
 25 35  1  0  0  0
 25 28  1  0  0  0
 21 20  1  0  0  0
 21 22  1  0  0  0
 44 42  1  0  0  0
  2  1  1  0  0  0
  2  4  1  0  0  0
  2  5  1  0  0  0
 26 27  2  0  0  0
 42 43  2  0  0  0
 29 31  1  0  0  0
 29 36  1  0  0  0
  3  4  2  0  0  0
 43  1  1  0  0  0
  6  9  2  0  0  0
  6 10  1  0  0  0
  1 20  1  0  0  0
 30 36  2  0  0  0
  7  8  1  0  0  0
  7  9  1  0  0  0
 22 24  1  0  0  0
 22 23  1  0  0  0
 11 12  1  0  0  0
 11 18  1  0  0  0
 24 27  1  0  0  0
  4 10  1  0  0  0
 51 52  1  0  0  0
 52 53  1  0  0  0
 53 54  1  0  0  0
 54 55  1  0  0  0
 55 56  1  0  0  0
 56 57  1  0  0  0
 57 58  1  0  0  0
 58 59  1  0  0  0
 59 60  1  0  0  0
 60 61  1  0  0  0
 61 62  1  0  0  0
 62 63  1  0  0  0
 63 64  1  0  0  0
 64 65  1  0  0  0
 31 32  1  0  0  0
 32 33  1  0  0  0
 33 34  1  0  0  0
 34 35  1  0  0  0
 35 36  1  0  0  0
  8 10  1  0  0  0
  9 17  1  0  0  0
 12 13  2  0  0  0
 12 17  1  0  0  0
 13 14  1  0  0  0
 14 15  2  0  0  0
 15 16  1  0  0  0
 16 17  2  0  0  0
M  END
> <minimizedAffinity>
-10.04493

> <CNNscore>
0.1838501096

> <CNNaffinity>
7.2369780540

> <CNN_VS>
1.3305191994

> <CNNaffinity_variance>
0.7437754869

$$$$
/media/chris/experiments/cd1a-new-docking/inputs/ligands/1xz0_ligand.pdb


 65 67  0  0  0  0  0  0  0  0999 V2000
  -38.0253   57.3330   62.0760 C   0  0  0  0  0  0  0  0  0  0  0  0
  -36.8140   57.5989   62.8544 N   0  0  0  0  0  0  0  0  0  0  0  0
  -37.6323   58.4200   64.8112 O   0  0  0  0  0  0  0  0  0  0  0  0
  -36.6921   58.0953   64.0978 C   0  0  0  0  0  0  0  0  0  0  0  0
  -35.9666   57.3831   62.4021 H   0  0  0  0  0  0  0  0  0  0  0  0
  -35.2291   59.6233   65.4036 N   0  0  0  0  0  0  0  0  0  0  0  0
  -33.5557   59.8608   63.9422 O   0  0  0  0  0  0  0  0  0  0  0  0
  -34.1263   58.5958   63.6094 C   0  0  0  0  0  0  0  0  0  0  0  0
  -34.3112   60.4121   65.0392 C   0  0  0  0  0  0  0  0  0  0  0  0
  -35.2893   58.3770   64.6163 C   0  0  0  0  0  0  0  0  0  0  0  0
  -36.1384   61.8943   66.7307 O   0  0  0  0  0  0  0  0  0  0  0  0
  -34.9147   62.3908   66.5124 C   0  0  0  0  0  0  0  0  0  0  0  0
  -34.5398   63.5990   67.1146 C   0  0  0  0  0  0  0  0  0  0  0  0
  -33.2645   64.1458   66.8937 C   0  0  0  0  0  0  0  0  0  0  0  0
  -32.3459   63.4855   66.0759 C   0  0  0  0  0  0  0  0  0  0  0  0
  -32.7129   62.2767   65.4779 C   0  0  0  0  0  0  0  0  0  0  0  0
  -33.9932   61.7306   65.6904 C   0  0  0  0  0  0  0  0  0  0  0  0
  -36.7384   62.3537   67.2846 H   0  0  0  0  0  0  0  0  0  0  0  0
  -38.5138   58.1607   59.8824 O   0  0  0  0  0  0  0  0  0  0  0  0
  -38.0841   58.3996   60.9990 C   0  0  0  0  0  0  0  0  0  0  0  0
  -37.5529   59.7396   61.2693 O   0  0  0  0  0  0  0  0  0  0  0  0
  -38.2467   60.6607   62.1318 C   0  0  0  0  0  0  0  0  0  0  0  0
  -39.7505   60.7355   61.8983 C   0  0  0  0  0  0  0  0  0  0  0  0
  -37.6004   62.0305   61.9894 C   0  0  0  0  0  0  0  0  0  0  0  0
  -36.2943   63.6847   63.2358 N   0  0  0  0  0  0  0  0  0  0  0  0
  -37.1363   61.8489   64.2538 O   0  0  0  0  0  0  0  0  0  0  0  0
  -36.9498   62.5151   63.2615 C   0  0  0  0  0  0  0  0  0  0  0  0
  -35.9282   64.0228   64.0850 H   0  0  0  0  0  0  0  0  0  0  0  0
  -33.7173   64.0845   61.4881 N   0  0  0  0  0  0  0  0  0  0  0  0
  -35.3216   63.5916   59.9886 O   0  0  0  0  0  0  0  0  0  0  0  0
  -33.2532   64.3195   62.8634 C   0  0  0  0  0  0  0  0  0  0  0  0
  -33.5829   65.7557   63.3120 C   0  0  0  0  0  0  0  0  0  0  0  0
  -34.4540   66.5509   62.3536 C   0  0  0  0  0  0  0  0  0  0  0  0
  -35.8804   66.0049   62.2479 C   0  0  0  0  0  0  0  0  0  0  0  0
  -36.0838   64.4960   62.0315 C   0  0  0  0  0  0  0  0  0  0  0  0
  -34.9982   64.0059   61.0933 C   0  0  0  0  0  0  0  0  0  0  0  0
  -31.4846   62.6866   60.7233 Si  0  0  0  0  0  0  0  0  0  0  0  0
  -32.7617   63.9226   60.5308 O   0  0  0  0  0  0  0  0  0  0  0  0
  -30.6200   62.7200   59.5975 H   0  0  0  0  0  0  0  0  0  0  0  0
  -32.0809   61.4018   60.8244 H   0  0  0  0  0  0  0  0  0  0  0  0
  -30.7387   62.9562   61.9012 H   0  0  0  0  0  0  0  0  0  0  0  0
  -40.3150   56.0799   62.3612 C   0  0  0  0  0  0  0  0  0  0  0  0
  -39.3517   57.1657   62.8563 C   0  0  0  0  0  0  0  0  0  0  0  0
  -41.7780   56.1855   62.8240 C   0  0  0  0  0  0  0  0  0  0  0  0
  -42.0358   56.6872   64.2599 C   0  0  0  0  0  0  0  0  0  0  0  0
  -43.2132   57.5604   64.2374 N   0  0  0  0  0  0  0  0  0  0  0  0
  -44.0773   57.8585   65.2435 C   0  0  0  0  0  0  0  0  0  0  0  0
  -43.4551   58.1569   62.9919 O   0  0  0  0  0  0  0  0  0  0  0  0
  -43.9291   57.3873   66.3709 O   0  0  0  0  0  0  0  0  0  0  0  0
  -44.2443   58.7178   63.0497 H   0  0  0  0  0  0  0  0  0  0  0  0
  -45.2564   58.7939   64.9560 C   0  0  0  0  0  0  0  0  0  0  0  0
  -46.5077   58.5174   65.8006 C   0  0  0  0  0  0  0  0  0  0  0  0
  -47.7601   58.5095   64.9031 C   0  0  0  0  0  0  0  0  0  0  0  0
  -49.0665   58.2366   65.6725 C   0  0  0  0  0  0  0  0  0  0  0  0
  -50.3515   58.5848   64.8982 C   0  0  0  0  0  0  0  0  0  0  0  0
  -50.7738   60.0592   65.0684 C   0  0  0  0  0  0  0  0  0  0  0  0
  -50.7110   60.8985   63.7709 C   0  0  0  0  0  0  0  0  0  0  0  0
  -51.1326   60.1196   62.5196 C   0  0  0  0  0  0  0  0  0  0  0  0
  -50.0549   59.9810   61.4397 C   0  0  0  0  0  0  0  0  0  0  0  0
  -50.1999   58.6560   60.6690 C   0  0  0  0  0  0  0  0  0  0  0  0
  -49.7419   58.7341   59.2047 C   0  0  0  0  0  0  0  0  0  0  0  0
  -48.5221   57.8807   58.8424 C   0  0  0  0  0  0  0  0  0  0  0  0
  -47.6683   58.4513   57.6825 C   0  0  0  0  0  0  0  0  0  0  0  0
  -47.6726   57.5095   56.4613 C   0  0  0  0  0  0  0  0  0  0  0  0
  -47.2711   56.0493   56.7022 C   0  0  0  0  0  0  0  0  0  0  0  0
 46 47  1  0  0  0
 46 48  1  0  0  0
 46 45  1  0  0  0
 47 49  2  0  0  0
 47 51  1  0  0  0
 19 20  2  0  0  0
 37 38  1  0  0  0
 37 39  1  0  0  0
 37 40  1  0  0  0
 37 41  1  0  0  0
 48 50  1  0  0  0
 38 29  1  0  0  0
 45 44  1  0  0  0
 25 27  1  0  0  0
 25 35  1  0  0  0
 25 28  1  0  0  0
 21 20  1  0  0  0
 21 22  1  0  0  0
 44 42  1  0  0  0
  2  1  1  0  0  0
  2  4  1  0  0  0
  2  5  1  0  0  0
 26 27  2  0  0  0
 42 43  2  0  0  0
 29 31  1  0  0  0
 29 36  1  0  0  0
  3  4  2  0  0  0
 43  1  1  0  0  0
  6  9  2  0  0  0
  6 10  1  0  0  0
  1 20  1  0  0  0
 30 36  2  0  0  0
  7  8  1  0  0  0
  7  9  1  0  0  0
 22 24  1  0  0  0
 22 23  1  0  0  0
 11 12  1  0  0  0
 11 18  1  0  0  0
 24 27  1  0  0  0
  4 10  1  0  0  0
 51 52  1  0  0  0
 52 53  1  0  0  0
 53 54  1  0  0  0
 54 55  1  0  0  0
 55 56  1  0  0  0
 56 57  1  0  0  0
 57 58  1  0  0  0
 58 59  1  0  0  0
 59 60  1  0  0  0
 60 61  1  0  0  0
 61 62  1  0  0  0
 62 63  1  0  0  0
 63 64  1  0  0  0
 64 65  1  0  0  0
 31 32  1  0  0  0
 32 33  1  0  0  0
 33 34  1  0  0  0
 34 35  1  0  0  0
 35 36  1  0  0  0
  8 10  1  0  0  0
  9 17  1  0  0  0
 12 13  2  0  0  0
 12 17  1  0  0  0
 13 14  1  0  0  0
 14 15  2  0  0  0
 15 16  1  0  0  0
 16 17  2  0  0  0
M  END
> <minimizedAffinity>
-8.53778

> <CNNscore>
0.1782493889

> <CNNaffinity>
6.9873352051

> <CNN_VS>
1.2454882860

> <CNNaffinity_variance>
0.2793805897

$$$$
/media/chris/experiments/cd1a-new-docking/inputs/ligands/1xz0_ligand.pdb


 65 67  0  0  0  0  0  0  0  0999 V2000
  -41.9152   58.2614   62.9785 C   0  0  0  0  0  0  0  0  0  0  0  0
  -40.9633   58.5748   64.0461 N   0  0  0  0  0  0  0  0  0  0  0  0
  -40.7219   60.8296   63.8721 O   0  0  0  0  0  0  0  0  0  0  0  0
  -40.4525   59.7638   64.4103 C   0  0  0  0  0  0  0  0  0  0  0  0
  -40.6525   57.8035   64.5732 H   0  0  0  0  0  0  0  0  0  0  0  0
  -38.6200   61.0390   65.5040 N   0  0  0  0  0  0  0  0  0  0  0  0
  -37.0227   59.4769   65.4744 O   0  0  0  0  0  0  0  0  0  0  0  0
  -38.2371   58.7276   65.4548 C   0  0  0  0  0  0  0  0  0  0  0  0
  -37.3666   60.8768   65.4879 C   0  0  0  0  0  0  0  0  0  0  0  0
  -39.3831   59.7763   65.4930 C   0  0  0  0  0  0  0  0  0  0  0  0
  -36.9881   62.8565   63.4060 O   0  0  0  0  0  0  0  0  0  0  0  0
  -36.2264   62.9220   64.5048 C   0  0  0  0  0  0  0  0  0  0  0  0
  -35.2807   63.9479   64.6317 C   0  0  0  0  0  0  0  0  0  0  0  0
  -34.4626   64.0330   65.7710 C   0  0  0  0  0  0  0  0  0  0  0  0
  -34.5878   63.0988   66.8007 C   0  0  0  0  0  0  0  0  0  0  0  0
  -35.5342   62.0773   66.6815 C   0  0  0  0  0  0  0  0  0  0  0  0
  -36.3494   61.9842   65.5372 C   0  0  0  0  0  0  0  0  0  0  0  0
  -36.8880   63.4953   62.7278 H   0  0  0  0  0  0  0  0  0  0  0  0
  -41.7174   59.5414   60.9641 O   0  0  0  0  0  0  0  0  0  0  0  0
  -41.2492   58.6702   61.6784 C   0  0  0  0  0  0  0  0  0  0  0  0
  -40.0481   57.9642   61.2203 O   0  0  0  0  0  0  0  0  0  0  0  0
  -38.9519   58.6697   60.6082 C   0  0  0  0  0  0  0  0  0  0  0  0
  -38.6646   58.2648   59.1677 C   0  0  0  0  0  0  0  0  0  0  0  0
  -37.7202   58.4942   61.4837 C   0  0  0  0  0  0  0  0  0  0  0  0
  -35.9593   59.8189   62.5516 N   0  0  0  0  0  0  0  0  0  0  0  0
  -37.9168   60.7622   61.9238 O   0  0  0  0  0  0  0  0  0  0  0  0
  -37.2008   59.7947   62.0452 C   0  0  0  0  0  0  0  0  0  0  0  0
  -35.6065   60.6858   62.8569 H   0  0  0  0  0  0  0  0  0  0  0  0
  -33.6880   59.2029   64.6294 N   0  0  0  0  0  0  0  0  0  0  0  0
  -34.9655   57.3501   64.6532 O   0  0  0  0  0  0  0  0  0  0  0  0
  -33.3657   60.5518   64.1408 C   0  0  0  0  0  0  0  0  0  0  0  0
  -32.6202   60.4802   62.7948 C   0  0  0  0  0  0  0  0  0  0  0  0
  -32.5368   59.0963   62.1721 C   0  0  0  0  0  0  0  0  0  0  0  0
  -33.8971   58.5624   61.7156 C   0  0  0  0  0  0  0  0  0  0  0  0
  -35.0897   58.6444   62.6830 C   0  0  0  0  0  0  0  0  0  0  0  0
  -34.5793   58.3608   64.0823 C   0  0  0  0  0  0  0  0  0  0  0  0
  -33.3761   57.1621   66.4353 Si  0  0  0  0  0  0  0  0  0  0  0  0
  -33.0303   58.7733   65.7424 O   0  0  0  0  0  0  0  0  0  0  0  0
  -32.5650   56.9563   67.5826 H   0  0  0  0  0  0  0  0  0  0  0  0
  -33.0926   56.1607   65.4693 H   0  0  0  0  0  0  0  0  0  0  0  0
  -34.7454   57.0895   66.8045 H   0  0  0  0  0  0  0  0  0  0  0  0
  -43.9184   58.8874   64.5563 C   0  0  0  0  0  0  0  0  0  0  0  0
  -43.3592   58.7978   63.1310 C   0  0  0  0  0  0  0  0  0  0  0  0
  -45.4464   58.9917   64.6979 C   0  0  0  0  0  0  0  0  0  0  0  0
  -46.0741   58.4980   66.0177 C   0  0  0  0  0  0  0  0  0  0  0  0
  -47.4528   58.9923   66.0844 N   0  0  0  0  0  0  0  0  0  0  0  0
  -48.5978   58.3950   65.6603 C   0  0  0  0  0  0  0  0  0  0  0  0
  -47.5748   60.2588   66.6731 O   0  0  0  0  0  0  0  0  0  0  0  0
  -48.5800   57.2776   65.1444 O   0  0  0  0  0  0  0  0  0  0  0  0
  -48.5085   60.5217   66.6841 H   0  0  0  0  0  0  0  0  0  0  0  0
  -49.9276   59.1378   65.8270 C   0  0  0  0  0  0  0  0  0  0  0  0
  -50.8773   59.0180   64.6273 C   0  0  0  0  0  0  0  0  0  0  0  0
  -51.1762   60.4144   64.0485 C   0  0  0  0  0  0  0  0  0  0  0  0
  -50.7026   60.5913   62.5933 C   0  0  0  0  0  0  0  0  0  0  0  0
  -49.1911   60.3855   62.3813 C   0  0  0  0  0  0  0  0  0  0  0  0
  -48.8738   59.2478   61.3881 C   0  0  0  0  0  0  0  0  0  0  0  0
  -49.5653   59.3862   60.0117 C   0  0  0  0  0  0  0  0  0  0  0  0
  -50.3261   58.1265   59.5819 C   0  0  0  0  0  0  0  0  0  0  0  0
  -50.1741   56.9194   60.5127 C   0  0  0  0  0  0  0  0  0  0  0  0
  -49.3142   55.8175   59.8669 C   0  0  0  0  0  0  0  0  0  0  0  0
  -47.8040   56.0939   59.9218 C   0  0  0  0  0  0  0  0  0  0  0  0
  -47.1472   56.4689   58.5894 C   0  0  0  0  0  0  0  0  0  0  0  0
  -47.9932   56.1142   57.3410 C   0  0  0  0  0  0  0  0  0  0  0  0
  -48.1908   57.3394   56.4256 C   0  0  0  0  0  0  0  0  0  0  0  0
  -47.1613   58.4704   56.5379 C   0  0  0  0  0  0  0  0  0  0  0  0
 46 47  1  0  0  0
 46 48  1  0  0  0
 46 45  1  0  0  0
 47 49  2  0  0  0
 47 51  1  0  0  0
 19 20  2  0  0  0
 37 38  1  0  0  0
 37 39  1  0  0  0
 37 40  1  0  0  0
 37 41  1  0  0  0
 48 50  1  0  0  0
 38 29  1  0  0  0
 45 44  1  0  0  0
 25 27  1  0  0  0
 25 35  1  0  0  0
 25 28  1  0  0  0
 21 20  1  0  0  0
 21 22  1  0  0  0
 44 42  1  0  0  0
  2  1  1  0  0  0
  2  4  1  0  0  0
  2  5  1  0  0  0
 26 27  2  0  0  0
 42 43  2  0  0  0
 29 31  1  0  0  0
 29 36  1  0  0  0
  3  4  2  0  0  0
 43  1  1  0  0  0
  6  9  2  0  0  0
  6 10  1  0  0  0
  1 20  1  0  0  0
 30 36  2  0  0  0
  7  8  1  0  0  0
  7  9  1  0  0  0
 22 24  1  0  0  0
 22 23  1  0  0  0
 11 12  1  0  0  0
 11 18  1  0  0  0
 24 27  1  0  0  0
  4 10  1  0  0  0
 51 52  1  0  0  0
 52 53  1  0  0  0
 53 54  1  0  0  0
 54 55  1  0  0  0
 55 56  1  0  0  0
 56 57  1  0  0  0
 57 58  1  0  0  0
 58 59  1  0  0  0
 59 60  1  0  0  0
 60 61  1  0  0  0
 61 62  1  0  0  0
 62 63  1  0  0  0
 63 64  1  0  0  0
 64 65  1  0  0  0
 31 32  1  0  0  0
 32 33  1  0  0  0
 33 34  1  0  0  0
 34 35  1  0  0  0
 35 36  1  0  0  0
  8 10  1  0  0  0
  9 17  1  0  0  0
 12 13  2  0  0  0
 12 17  1  0  0  0
 13 14  1  0  0  0
 14 15  2  0  0  0
 15 16  1  0  0  0
 16 17  2  0  0  0
M  END
> <minimizedAffinity>
-9.81154

> <CNNscore>
0.1720471233

> <CNNaffinity>
7.4176139832

> <CNN_VS>
1.2761791945

> <CNNaffinity_variance>
0.6915577054

$$$$
/media/chris/experiments/cd1a-new-docking/inputs/ligands/1xz0_ligand.pdb


 65 67  0  0  0  0  0  0  0  0999 V2000
  -40.8164   59.2682   65.0350 C   0  0  0  0  0  0  0  0  0  0  0  0
  -39.4346   59.3948   65.5028 N   0  0  0  0  0  0  0  0  0  0  0  0
  -38.5500   60.9312   64.0780 O   0  0  0  0  0  0  0  0  0  0  0  0
  -38.4424   60.1687   65.0295 C   0  0  0  0  0  0  0  0  0  0  0  0
  -39.1981   58.8321   66.2752 H   0  0  0  0  0  0  0  0  0  0  0  0
  -36.5061   61.2955   66.1070 N   0  0  0  0  0  0  0  0  0  0  0  0
  -34.8539   60.4424   64.8681 O   0  0  0  0  0  0  0  0  0  0  0  0
  -35.8899   59.4649   64.7802 C   0  0  0  0  0  0  0  0  0  0  0  0
  -35.3364   61.5261   65.6872 C   0  0  0  0  0  0  0  0  0  0  0  0
  -37.0603   60.0083   65.6459 C   0  0  0  0  0  0  0  0  0  0  0  0
  -36.4048   63.9659   66.8287 O   0  0  0  0  0  0  0  0  0  0  0  0
  -35.0884   63.8828   66.6004 C   0  0  0  0  0  0  0  0  0  0  0  0
  -34.2587   64.9625   66.9307 C   0  0  0  0  0  0  0  0  0  0  0  0
  -32.8752   64.9036   66.6923 C   0  0  0  0  0  0  0  0  0  0  0  0
  -32.3043   63.7606   66.1300 C   0  0  0  0  0  0  0  0  0  0  0  0
  -33.1269   62.6785   65.8047 C   0  0  0  0  0  0  0  0  0  0  0  0
  -34.5149   62.7378   66.0343 C   0  0  0  0  0  0  0  0  0  0  0  0
  -36.7663   64.7423   67.2085 H   0  0  0  0  0  0  0  0  0  0  0  0
  -41.6618   61.1532   66.2464 O   0  0  0  0  0  0  0  0  0  0  0  0
  -41.4378   60.6464   65.1595 C   0  0  0  0  0  0  0  0  0  0  0  0
  -41.8475   61.3737   63.9536 O   0  0  0  0  0  0  0  0  0  0  0  0
  -42.9930   60.9628   63.1837 C   0  0  0  0  0  0  0  0  0  0  0  0
  -44.0919   60.2884   63.9954 C   0  0  0  0  0  0  0  0  0  0  0  0
  -42.5139   60.0630   62.0544 C   0  0  0  0  0  0  0  0  0  0  0  0
  -41.2317   60.1495   59.9701 N   0  0  0  0  0  0  0  0  0  0  0  0
  -42.2001   62.0051   60.8272 O   0  0  0  0  0  0  0  0  0  0  0  0
  -41.9282   60.8282   60.8935 C   0  0  0  0  0  0  0  0  0  0  0  0
  -40.9083   60.6465   59.1842 H   0  0  0  0  0  0  0  0  0  0  0  0
  -38.9024   58.6664   61.4634 N   0  0  0  0  0  0  0  0  0  0  0  0
  -40.7517   57.5482   62.0920 O   0  0  0  0  0  0  0  0  0  0  0  0
  -38.2210   59.7307   60.7119 C   0  0  0  0  0  0  0  0  0  0  0  0
  -38.0041   59.3098   59.2461 C   0  0  0  0  0  0  0  0  0  0  0  0
  -38.6780   58.0102   58.8378 C   0  0  0  0  0  0  0  0  0  0  0  0
  -40.2061   58.1047   58.8310 C   0  0  0  0  0  0  0  0  0  0  0  0
  -40.9174   58.7183   60.0485 C   0  0  0  0  0  0  0  0  0  0  0  0
  -40.1768   58.2780   61.2961 C   0  0  0  0  0  0  0  0  0  0  0  0
  -39.0000   57.1883   63.7720 Si  0  0  0  0  0  0  0  0  0  0  0  0
  -38.1784   58.0234   62.4217 O   0  0  0  0  0  0  0  0  0  0  0  0
  -38.0294   56.6023   64.6269 H   0  0  0  0  0  0  0  0  0  0  0  0
  -39.8491   56.1743   63.2547 H   0  0  0  0  0  0  0  0  0  0  0  0
  -39.7743   58.1248   64.5067 H   0  0  0  0  0  0  0  0  0  0  0  0
  -42.6400   57.4070   64.7121 C   0  0  0  0  0  0  0  0  0  0  0  0
  -41.6780   58.1411   65.6542 C   0  0  0  0  0  0  0  0  0  0  0  0
  -43.7847   56.6153   65.3668 C   0  0  0  0  0  0  0  0  0  0  0  0
  -44.3971   57.1887   66.6613 C   0  0  0  0  0  0  0  0  0  0  0  0
  -45.8085   57.4935   66.4065 N   0  0  0  0  0  0  0  0  0  0  0  0
  -46.4535   58.6877   66.4818 C   0  0  0  0  0  0  0  0  0  0  0  0
  -46.5729   56.3785   66.0351 O   0  0  0  0  0  0  0  0  0  0  0  0
  -45.8532   59.7177   66.7880 O   0  0  0  0  0  0  0  0  0  0  0  0
  -47.4910   56.6520   65.8830 H   0  0  0  0  0  0  0  0  0  0  0  0
  -47.9556   58.7395   66.1837 C   0  0  0  0  0  0  0  0  0  0  0  0
  -48.6242   60.0797   66.5189 C   0  0  0  0  0  0  0  0  0  0  0  0
  -49.3927   60.6083   65.2924 C   0  0  0  0  0  0  0  0  0  0  0  0
  -50.8288   60.0615   65.1839 C   0  0  0  0  0  0  0  0  0  0  0  0
  -51.1774   59.4414   63.8180 C   0  0  0  0  0  0  0  0  0  0  0  0
  -50.3668   58.1638   63.5145 C   0  0  0  0  0  0  0  0  0  0  0  0
  -49.2867   58.3339   62.4207 C   0  0  0  0  0  0  0  0  0  0  0  0
  -49.2609   59.7362   61.8019 C   0  0  0  0  0  0  0  0  0  0  0  0
  -49.5625   59.7961   60.3011 C   0  0  0  0  0  0  0  0  0  0  0  0
  -50.3389   58.5510   59.8346 C   0  0  0  0  0  0  0  0  0  0  0  0
  -49.5393   57.6339   58.8966 C   0  0  0  0  0  0  0  0  0  0  0  0
  -48.0378   57.9239   58.8030 C   0  0  0  0  0  0  0  0  0  0  0  0
  -47.5753   58.4433   57.4188 C   0  0  0  0  0  0  0  0  0  0  0  0
  -47.8410   57.4065   56.3086 C   0  0  0  0  0  0  0  0  0  0  0  0
  -47.3312   55.9800   56.5465 C   0  0  0  0  0  0  0  0  0  0  0  0
 46 47  1  0  0  0
 46 48  1  0  0  0
 46 45  1  0  0  0
 47 49  2  0  0  0
 47 51  1  0  0  0
 19 20  2  0  0  0
 37 38  1  0  0  0
 37 39  1  0  0  0
 37 40  1  0  0  0
 37 41  1  0  0  0
 48 50  1  0  0  0
 38 29  1  0  0  0
 45 44  1  0  0  0
 25 27  1  0  0  0
 25 35  1  0  0  0
 25 28  1  0  0  0
 21 20  1  0  0  0
 21 22  1  0  0  0
 44 42  1  0  0  0
  2  1  1  0  0  0
  2  4  1  0  0  0
  2  5  1  0  0  0
 26 27  2  0  0  0
 42 43  2  0  0  0
 29 31  1  0  0  0
 29 36  1  0  0  0
  3  4  2  0  0  0
 43  1  1  0  0  0
  6  9  2  0  0  0
  6 10  1  0  0  0
  1 20  1  0  0  0
 30 36  2  0  0  0
  7  8  1  0  0  0
  7  9  1  0  0  0
 22 24  1  0  0  0
 22 23  1  0  0  0
 11 12  1  0  0  0
 11 18  1  0  0  0
 24 27  1  0  0  0
  4 10  1  0  0  0
 51 52  1  0  0  0
 52 53  1  0  0  0
 53 54  1  0  0  0
 54 55  1  0  0  0
 55 56  1  0  0  0
 56 57  1  0  0  0
 57 58  1  0  0  0
 58 59  1  0  0  0
 59 60  1  0  0  0
 60 61  1  0  0  0
 61 62  1  0  0  0
 62 63  1  0  0  0
 63 64  1  0  0  0
 64 65  1  0  0  0
 31 32  1  0  0  0
 32 33  1  0  0  0
 33 34  1  0  0  0
 34 35  1  0  0  0
 35 36  1  0  0  0
  8 10  1  0  0  0
  9 17  1  0  0  0
 12 13  2  0  0  0
 12 17  1  0  0  0
 13 14  1  0  0  0
 14 15  2  0  0  0
 15 16  1  0  0  0
 16 17  2  0  0  0
M  END
> <minimizedAffinity>
-9.98717

> <CNNscore>
0.1683206409

> <CNNaffinity>
7.5502395630

> <CNN_VS>
1.2708611488

> <CNNaffinity_variance>
1.6219561100

$$$$
/media/chris/experiments/cd1a-new-docking/inputs/ligands/1xz0_ligand.pdb


 65 67  0  0  0  0  0  0  0  0999 V2000
  -42.8301   58.6676   64.7212 C   0  0  0  0  0  0  0  0  0  0  0  0
  -41.5302   58.8999   65.3538 N   0  0  0  0  0  0  0  0  0  0  0  0
  -40.6016   60.5086   64.0414 O   0  0  0  0  0  0  0  0  0  0  0  0
  -40.5515   59.7519   65.0021 C   0  0  0  0  0  0  0  0  0  0  0  0
  -41.3463   58.3533   66.1518 H   0  0  0  0  0  0  0  0  0  0  0  0
  -38.4975   60.9655   65.7010 N   0  0  0  0  0  0  0  0  0  0  0  0
  -36.9666   59.4314   65.1577 O   0  0  0  0  0  0  0  0  0  0  0  0
  -38.1522   58.6696   65.3829 C   0  0  0  0  0  0  0  0  0  0  0  0
  -37.2883   60.8216   65.3624 C   0  0  0  0  0  0  0  0  0  0  0  0
  -39.2468   59.6972   65.7836 C   0  0  0  0  0  0  0  0  0  0  0  0
  -36.2189   62.3209   67.5997 O   0  0  0  0  0  0  0  0  0  0  0  0
  -35.7920   62.6121   66.3648 C   0  0  0  0  0  0  0  0  0  0  0  0
  -34.8325   63.6167   66.1826 C   0  0  0  0  0  0  0  0  0  0  0  0
  -34.3752   63.9475   64.8959 C   0  0  0  0  0  0  0  0  0  0  0  0
  -34.8650   63.2707   63.7775 C   0  0  0  0  0  0  0  0  0  0  0  0
  -35.8176   62.2634   63.9547 C   0  0  0  0  0  0  0  0  0  0  0  0
  -36.2843   61.9356   65.2421 C   0  0  0  0  0  0  0  0  0  0  0  0
  -35.8752   62.7870   68.3362 H   0  0  0  0  0  0  0  0  0  0  0  0
  -43.8735   57.0459   66.1413 O   0  0  0  0  0  0  0  0  0  0  0  0
  -43.7689   58.2196   65.8252 C   0  0  0  0  0  0  0  0  0  0  0  0
  -44.6292   59.2009   66.4944 O   0  0  0  0  0  0  0  0  0  0  0  0
  -46.0628   59.1506   66.3671 C   0  0  0  0  0  0  0  0  0  0  0  0
  -46.7515   58.2029   67.3413 C   0  0  0  0  0  0  0  0  0  0  0  0
  -46.4042   58.8004   64.9266 C   0  0  0  0  0  0  0  0  0  0  0  0
  -47.7816   60.4123   63.7016 N   0  0  0  0  0  0  0  0  0  0  0  0
  -45.5283   60.5994   63.7552 O   0  0  0  0  0  0  0  0  0  0  0  0
  -46.5470   60.0120   64.0389 C   0  0  0  0  0  0  0  0  0  0  0  0
  -47.8665   61.2400   63.1754 H   0  0  0  0  0  0  0  0  0  0  0  0
  -49.5799   58.4844   61.9973 N   0  0  0  0  0  0  0  0  0  0  0  0
  -49.2394   57.3580   63.9159 O   0  0  0  0  0  0  0  0  0  0  0  0
  -49.3981   59.6584   61.1309 C   0  0  0  0  0  0  0  0  0  0  0  0
  -50.3798   60.7799   61.5196 C   0  0  0  0  0  0  0  0  0  0  0  0
  -51.1777   60.5325   62.7892 C   0  0  0  0  0  0  0  0  0  0  0  0
  -50.3103   60.5323   64.0508 C   0  0  0  0  0  0  0  0  0  0  0  0
  -49.0150   59.7034   64.0612 C   0  0  0  0  0  0  0  0  0  0  0  0
  -49.2753   58.4163   63.3032 C   0  0  0  0  0  0  0  0  0  0  0  0
  -49.3660   55.7618   61.7412 Si  0  0  0  0  0  0  0  0  0  0  0  0
  -50.0947   57.3625   61.4208 O   0  0  0  0  0  0  0  0  0  0  0  0
  -50.0816   54.7645   61.0271 H   0  0  0  0  0  0  0  0  0  0  0  0
  -49.4273   55.4837   63.1324 H   0  0  0  0  0  0  0  0  0  0  0  0
  -48.0103   55.7657   61.3185 H   0  0  0  0  0  0  0  0  0  0  0  0
  -41.5727   56.9944   63.1359 C   0  0  0  0  0  0  0  0  0  0  0  0
  -42.8617   57.7544   63.4716 C   0  0  0  0  0  0  0  0  0  0  0  0
  -41.4414   56.4475   61.7042 C   0  0  0  0  0  0  0  0  0  0  0  0
  -41.7893   57.4018   60.5433 C   0  0  0  0  0  0  0  0  0  0  0  0
  -40.8068   58.4900   60.5322 N   0  0  0  0  0  0  0  0  0  0  0  0
  -39.6069   58.5535   59.8967 C   0  0  0  0  0  0  0  0  0  0  0  0
  -41.1862   59.6063   61.2908 O   0  0  0  0  0  0  0  0  0  0  0  0
  -39.2049   57.6217   59.2001 O   0  0  0  0  0  0  0  0  0  0  0  0
  -40.4935   60.2833   61.2386 H   0  0  0  0  0  0  0  0  0  0  0  0
  -38.7452   59.8097   60.0625 C   0  0  0  0  0  0  0  0  0  0  0  0
  -38.1490   59.9909   61.4651 C   0  0  0  0  0  0  0  0  0  0  0  0
  -37.3690   58.7269   61.8751 C   0  0  0  0  0  0  0  0  0  0  0  0
  -35.8723   58.9845   62.1334 C   0  0  0  0  0  0  0  0  0  0  0  0
  -35.1293   57.8203   62.8150 C   0  0  0  0  0  0  0  0  0  0  0  0
  -33.9427   58.2912   63.6819 C   0  0  0  0  0  0  0  0  0  0  0  0
  -32.5517   57.8902   63.1377 C   0  0  0  0  0  0  0  0  0  0  0  0
  -31.5721   59.0657   63.0420 C   0  0  0  0  0  0  0  0  0  0  0  0
  -31.7863   60.0019   61.8485 C   0  0  0  0  0  0  0  0  0  0  0  0
  -32.4931   61.3017   62.2747 C   0  0  0  0  0  0  0  0  0  0  0  0
  -31.5628   62.5223   62.3439 C   0  0  0  0  0  0  0  0  0  0  0  0
  -31.5930   63.4520   61.1265 C   0  0  0  0  0  0  0  0  0  0  0  0
  -32.9642   64.1280   60.8761 C   0  0  0  0  0  0  0  0  0  0  0  0
  -32.9195   65.6346   61.2022 C   0  0  0  0  0  0  0  0  0  0  0  0
  -34.2006   66.2690   61.7568 C   0  0  0  0  0  0  0  0  0  0  0  0
 46 47  1  0  0  0
 46 48  1  0  0  0
 46 45  1  0  0  0
 47 49  2  0  0  0
 47 51  1  0  0  0
 19 20  2  0  0  0
 37 38  1  0  0  0
 37 39  1  0  0  0
 37 40  1  0  0  0
 37 41  1  0  0  0
 48 50  1  0  0  0
 38 29  1  0  0  0
 45 44  1  0  0  0
 25 27  1  0  0  0
 25 35  1  0  0  0
 25 28  1  0  0  0
 21 20  1  0  0  0
 21 22  1  0  0  0
 44 42  1  0  0  0
  2  1  1  0  0  0
  2  4  1  0  0  0
  2  5  1  0  0  0
 26 27  2  0  0  0
 42 43  2  0  0  0
 29 31  1  0  0  0
 29 36  1  0  0  0
  3  4  2  0  0  0
 43  1  1  0  0  0
  6  9  2  0  0  0
  6 10  1  0  0  0
  1 20  1  0  0  0
 30 36  2  0  0  0
  7  8  1  0  0  0
  7  9  1  0  0  0
 22 24  1  0  0  0
 22 23  1  0  0  0
 11 12  1  0  0  0
 11 18  1  0  0  0
 24 27  1  0  0  0
  4 10  1  0  0  0
 51 52  1  0  0  0
 52 53  1  0  0  0
 53 54  1  0  0  0
 54 55  1  0  0  0
 55 56  1  0  0  0
 56 57  1  0  0  0
 57 58  1  0  0  0
 58 59  1  0  0  0
 59 60  1  0  0  0
 60 61  1  0  0  0
 61 62  1  0  0  0
 62 63  1  0  0  0
 63 64  1  0  0  0
 64 65  1  0  0  0
 31 32  1  0  0  0
 32 33  1  0  0  0
 33 34  1  0  0  0
 34 35  1  0  0  0
 35 36  1  0  0  0
  8 10  1  0  0  0
  9 17  1  0  0  0
 12 13  2  0  0  0
 12 17  1  0  0  0
 13 14  1  0  0  0
 14 15  2  0  0  0
 15 16  1  0  0  0
 16 17  2  0  0  0
M  END
> <minimizedAffinity>
-8.81268

> <CNNscore>
0.1624099910

> <CNNaffinity>
7.6096715927

> <CNN_VS>
1.2358866930

> <CNNaffinity_variance>
0.9018164873

$$$$
/media/chris/experiments/cd1a-new-docking/inputs/ligands/1xz0_ligand.pdb


 65 67  0  0  0  0  0  0  0  0999 V2000
  -42.1985   59.6560   64.5032 C   0  0  0  0  0  0  0  0  0  0  0  0
  -40.9304   59.6523   65.2353 N   0  0  0  0  0  0  0  0  0  0  0  0
  -39.5161   60.7285   63.8160 O   0  0  0  0  0  0  0  0  0  0  0  0
  -39.7370   60.1558   64.8749 C   0  0  0  0  0  0  0  0  0  0  0  0
  -40.9551   59.2185   66.1187 H   0  0  0  0  0  0  0  0  0  0  0  0
  -37.7063   61.1012   65.9530 N   0  0  0  0  0  0  0  0  0  0  0  0
  -36.2358   59.5057   65.4197 O   0  0  0  0  0  0  0  0  0  0  0  0
  -37.4936   58.8316   65.4099 C   0  0  0  0  0  0  0  0  0  0  0  0
  -36.4775   60.8887   65.7470 C   0  0  0  0  0  0  0  0  0  0  0  0
  -38.5516   59.9024   65.7951 C   0  0  0  0  0  0  0  0  0  0  0  0
  -36.9273   63.7181   66.1817 O   0  0  0  0  0  0  0  0  0  0  0  0
  -35.6685   63.2691   66.1064 C   0  0  0  0  0  0  0  0  0  0  0  0
  -34.6029   64.1666   66.2545 C   0  0  0  0  0  0  0  0  0  0  0  0
  -33.2728   63.7217   66.1703 C   0  0  0  0  0  0  0  0  0  0  0  0
  -32.9930   62.3724   65.9468 C   0  0  0  0  0  0  0  0  0  0  0  0
  -34.0526   61.4721   65.8048 C   0  0  0  0  0  0  0  0  0  0  0  0
  -35.3867   61.9163   65.8800 C   0  0  0  0  0  0  0  0  0  0  0  0
  -37.0918   64.6279   66.3339 H   0  0  0  0  0  0  0  0  0  0  0  0
  -42.7254   57.9424   66.0910 O   0  0  0  0  0  0  0  0  0  0  0  0
  -43.1383   58.7465   65.2716 C   0  0  0  0  0  0  0  0  0  0  0  0
  -44.5766   58.7743   64.9859 O   0  0  0  0  0  0  0  0  0  0  0  0
  -45.5515   58.7493   66.0455 C   0  0  0  0  0  0  0  0  0  0  0  0
  -46.0917   57.3634   66.3755 C   0  0  0  0  0  0  0  0  0  0  0  0
  -46.6780   59.7055   65.6833 C   0  0  0  0  0  0  0  0  0  0  0  0
  -47.7018   60.2712   63.5320 N   0  0  0  0  0  0  0  0  0  0  0  0
  -45.5065   60.6525   63.9206 O   0  0  0  0  0  0  0  0  0  0  0  0
  -46.5832   60.2262   64.2704 C   0  0  0  0  0  0  0  0  0  0  0  0
  -47.6418   60.6715   62.6346 H   0  0  0  0  0  0  0  0  0  0  0  0
  -49.6345   58.2107   62.1631 N   0  0  0  0  0  0  0  0  0  0  0  0
  -49.4601   57.4701   64.2812 O   0  0  0  0  0  0  0  0  0  0  0  0
  -49.3135   59.1631   61.0899 C   0  0  0  0  0  0  0  0  0  0  0  0
  -50.1896   60.4252   61.2011 C   0  0  0  0  0  0  0  0  0  0  0  0
  -51.0428   60.5141   62.4557 C   0  0  0  0  0  0  0  0  0  0  0  0
  -50.2148   60.6902   63.7314 C   0  0  0  0  0  0  0  0  0  0  0  0
  -49.0087   59.7658   63.9673 C   0  0  0  0  0  0  0  0  0  0  0  0
  -49.3742   58.3811   63.4692 C   0  0  0  0  0  0  0  0  0  0  0  0
  -49.2672   55.6183   61.3455 Si  0  0  0  0  0  0  0  0  0  0  0  0
  -50.2417   57.0471   61.7979 O   0  0  0  0  0  0  0  0  0  0  0  0
  -50.1317   54.5432   61.0088 H   0  0  0  0  0  0  0  0  0  0  0  0
  -48.4455   55.2400   62.4402 H   0  0  0  0  0  0  0  0  0  0  0  0
  -48.4505   55.9367   60.2284 H   0  0  0  0  0  0  0  0  0  0  0  0
  -41.9217   57.8939   62.5765 C   0  0  0  0  0  0  0  0  0  0  0  0
  -42.1464   59.3547   62.9857 C   0  0  0  0  0  0  0  0  0  0  0  0
  -41.4392   57.6416   61.1380 C   0  0  0  0  0  0  0  0  0  0  0  0
  -40.2225   58.4507   60.6434 C   0  0  0  0  0  0  0  0  0  0  0  0
  -39.0269   57.9468   61.3262 N   0  0  0  0  0  0  0  0  0  0  0  0
  -37.8520   58.5829   61.5765 C   0  0  0  0  0  0  0  0  0  0  0  0
  -39.1423   56.6226   61.7720 O   0  0  0  0  0  0  0  0  0  0  0  0
  -37.6734   59.7505   61.2303 O   0  0  0  0  0  0  0  0  0  0  0  0
  -38.3197   56.3565   62.2118 H   0  0  0  0  0  0  0  0  0  0  0  0
  -36.7350   57.8213   62.2979 C   0  0  0  0  0  0  0  0  0  0  0  0
  -35.4057   58.5824   62.3933 C   0  0  0  0  0  0  0  0  0  0  0  0
  -34.3944   57.7767   63.2312 C   0  0  0  0  0  0  0  0  0  0  0  0
  -32.9432   57.8994   62.7288 C   0  0  0  0  0  0  0  0  0  0  0  0
  -32.0697   58.8858   63.5261 C   0  0  0  0  0  0  0  0  0  0  0  0
  -31.1192   59.7062   62.6289 C   0  0  0  0  0  0  0  0  0  0  0  0
  -31.2698   61.2392   62.7675 C   0  0  0  0  0  0  0  0  0  0  0  0
  -32.6430   61.7594   62.3271 C   0  0  0  0  0  0  0  0  0  0  0  0
  -32.6416   63.1489   61.6820 C   0  0  0  0  0  0  0  0  0  0  0  0
  -32.4343   64.2552   62.7326 C   0  0  0  0  0  0  0  0  0  0  0  0
  -33.4184   65.4278   62.6045 C   0  0  0  0  0  0  0  0  0  0  0  0
  -34.2690   65.4466   61.3303 C   0  0  0  0  0  0  0  0  0  0  0  0
  -35.7970   65.4600   61.5856 C   0  0  0  0  0  0  0  0  0  0  0  0
  -36.1777   64.5658   62.7830 C   0  0  0  0  0  0  0  0  0  0  0  0
  -36.3323   63.0641   62.5138 C   0  0  0  0  0  0  0  0  0  0  0  0
 46 47  1  0  0  0
 46 48  1  0  0  0
 46 45  1  0  0  0
 47 49  2  0  0  0
 47 51  1  0  0  0
 19 20  2  0  0  0
 37 38  1  0  0  0
 37 39  1  0  0  0
 37 40  1  0  0  0
 37 41  1  0  0  0
 48 50  1  0  0  0
 38 29  1  0  0  0
 45 44  1  0  0  0
 25 27  1  0  0  0
 25 35  1  0  0  0
 25 28  1  0  0  0
 21 20  1  0  0  0
 21 22  1  0  0  0
 44 42  1  0  0  0
  2  1  1  0  0  0
  2  4  1  0  0  0
  2  5  1  0  0  0
 26 27  2  0  0  0
 42 43  2  0  0  0
 29 31  1  0  0  0
 29 36  1  0  0  0
  3  4  2  0  0  0
 43  1  1  0  0  0
  6  9  2  0  0  0
  6 10  1  0  0  0
  1 20  1  0  0  0
 30 36  2  0  0  0
  7  8  1  0  0  0
  7  9  1  0  0  0
 22 24  1  0  0  0
 22 23  1  0  0  0
 11 12  1  0  0  0
 11 18  1  0  0  0
 24 27  1  0  0  0
  4 10  1  0  0  0
 51 52  1  0  0  0
 52 53  1  0  0  0
 53 54  1  0  0  0
 54 55  1  0  0  0
 55 56  1  0  0  0
 56 57  1  0  0  0
 57 58  1  0  0  0
 58 59  1  0  0  0
 59 60  1  0  0  0
 60 61  1  0  0  0
 61 62  1  0  0  0
 62 63  1  0  0  0
 63 64  1  0  0  0
 64 65  1  0  0  0
 31 32  1  0  0  0
 32 33  1  0  0  0
 33 34  1  0  0  0
 34 35  1  0  0  0
 35 36  1  0  0  0
  8 10  1  0  0  0
  9 17  1  0  0  0
 12 13  2  0  0  0
 12 17  1  0  0  0
 13 14  1  0  0  0
 14 15  2  0  0  0
 15 16  1  0  0  0
 16 17  2  0  0  0
M  END
> <minimizedAffinity>
-9.08585

> <CNNscore>
0.1588440090

> <CNNaffinity>
7.3056206703

> <CNN_VS>
1.1604540348

> <CNNaffinity_variance>
1.4249887466

$$$$
