/media/chris/experiments/cd1a-new-docking/inputs/ligands/1xz0_ligand.pdb


 65 67  0  0  0  0  0  0  0  0999 V2000
  -42.0155   59.0793   65.0449 C   0  0  0  0  0  0  0  0  0  0  0  0
  -41.9613   57.6692   65.4356 N   0  0  0  0  0  0  0  0  0  0  0  0
  -42.1278   55.4233   65.1171 O   0  0  0  0  0  0  0  0  0  0  0  0
  -42.1859   56.5704   64.6942 C   0  0  0  0  0  0  0  0  0  0  0  0
  -41.7266   57.5015   66.3769 H   0  0  0  0  0  0  0  0  0  0  0  0
  -41.1664   57.0179   62.4714 N   0  0  0  0  0  0  0  0  0  0  0  0
  -42.5140   58.6594   61.7776 O   0  0  0  0  0  0  0  0  0  0  0  0
  -43.3145   57.9254   62.7034 C   0  0  0  0  0  0  0  0  0  0  0  0
  -41.2169   58.0333   61.7203 C   0  0  0  0  0  0  0  0  0  0  0  0
  -42.4210   56.7559   63.2021 C   0  0  0  0  0  0  0  0  0  0  0  0
  -39.6037   60.3887   62.2166 O   0  0  0  0  0  0  0  0  0  0  0  0
  -39.3456   59.6467   61.1329 C   0  0  0  0  0  0  0  0  0  0  0  0
  -38.2986   60.0119   60.2765 C   0  0  0  0  0  0  0  0  0  0  0  0
  -38.0137   59.2550   59.1275 C   0  0  0  0  0  0  0  0  0  0  0  0
  -38.7663   58.1183   58.8271 C   0  0  0  0  0  0  0  0  0  0  0  0
  -39.8078   57.7462   59.6817 C   0  0  0  0  0  0  0  0  0  0  0  0
  -40.1012   58.5077   60.8292 C   0  0  0  0  0  0  0  0  0  0  0  0
  -39.0845   61.1469   62.3997 H   0  0  0  0  0  0  0  0  0  0  0  0
  -40.8586   60.9226   66.0448 O   0  0  0  0  0  0  0  0  0  0  0  0
  -40.8261   59.7515   65.7041 C   0  0  0  0  0  0  0  0  0  0  0  0
  -39.5746   59.0082   65.8831 O   0  0  0  0  0  0  0  0  0  0  0  0
  -38.5720   58.9693   64.8500 C   0  0  0  0  0  0  0  0  0  0  0  0
  -38.2713   57.5756   64.3126 C   0  0  0  0  0  0  0  0  0  0  0  0
  -37.3118   59.6370   65.3796 C   0  0  0  0  0  0  0  0  0  0  0  0
  -36.4268   61.8760   65.8267 N   0  0  0  0  0  0  0  0  0  0  0  0
  -37.9315   61.5195   64.1762 O   0  0  0  0  0  0  0  0  0  0  0  0
  -37.2641   61.1193   65.1023 C   0  0  0  0  0  0  0  0  0  0  0  0
  -35.9341   61.4403   66.5593 H   0  0  0  0  0  0  0  0  0  0  0  0
  -34.0988   63.3367   64.3097 N   0  0  0  0  0  0  0  0  0  0  0  0
  -35.9672   64.2552   63.4545 O   0  0  0  0  0  0  0  0  0  0  0  0
  -33.4049   62.4084   65.2144 C   0  0  0  0  0  0  0  0  0  0  0  0
  -33.3074   63.0006   66.6330 C   0  0  0  0  0  0  0  0  0  0  0  0
  -34.0815   64.2899   66.8525 C   0  0  0  0  0  0  0  0  0  0  0  0
  -35.5986   64.0963   66.7832 C   0  0  0  0  0  0  0  0  0  0  0  0
  -36.1934   63.3075   65.6046 C   0  0  0  0  0  0  0  0  0  0  0  0
  -35.4020   63.6563   64.3594 C   0  0  0  0  0  0  0  0  0  0  0  0
  -34.1470   64.8026   61.9918 Si  0  0  0  0  0  0  0  0  0  0  0  0
  -33.3545   63.9172   63.3273 O   0  0  0  0  0  0  0  0  0  0  0  0
  -33.1584   65.3085   61.1069 H   0  0  0  0  0  0  0  0  0  0  0  0
  -34.9039   65.8807   62.5220 H   0  0  0  0  0  0  0  0  0  0  0  0
  -35.0084   63.9219   61.2855 H   0  0  0  0  0  0  0  0  0  0  0  0
  -44.4487   59.0801   66.0315 C   0  0  0  0  0  0  0  0  0  0  0  0
  -43.3519   59.8289   65.2646 C   0  0  0  0  0  0  0  0  0  0  0  0
  -45.8853   59.6095   65.8834 C   0  0  0  0  0  0  0  0  0  0  0  0
  -46.9471   59.0698   66.8636 C   0  0  0  0  0  0  0  0  0  0  0  0
  -47.8962   58.2478   66.1065 N   0  0  0  0  0  0  0  0  0  0  0  0
  -49.0889   58.6023   65.5590 C   0  0  0  0  0  0  0  0  0  0  0  0
  -47.4891   56.9167   65.9401 O   0  0  0  0  0  0  0  0  0  0  0  0
  -49.7759   57.7860   64.9455 O   0  0  0  0  0  0  0  0  0  0  0  0
  -48.1606   56.4340   65.4333 H   0  0  0  0  0  0  0  0  0  0  0  0
  -49.5735   60.0482   65.7092 C   0  0  0  0  0  0  0  0  0  0  0  0
  -49.5218   60.8735   64.4162 C   0  0  0  0  0  0  0  0  0  0  0  0
  -50.9232   60.9473   63.7800 C   0  0  0  0  0  0  0  0  0  0  0  0
  -51.0156   60.2439   62.4125 C   0  0  0  0  0  0  0  0  0  0  0  0
  -49.6664   59.7639   61.8458 C   0  0  0  0  0  0  0  0  0  0  0  0
  -49.6719   59.6387   60.3078 C   0  0  0  0  0  0  0  0  0  0  0  0
  -50.3955   58.3827   59.7687 C   0  0  0  0  0  0  0  0  0  0  0  0
  -50.2160   57.1467   60.6576 C   0  0  0  0  0  0  0  0  0  0  0  0
  -49.1460   56.1541   60.1919 C   0  0  0  0  0  0  0  0  0  0  0  0
  -47.8883   56.8824   59.6838 C   0  0  0  0  0  0  0  0  0  0  0  0
  -47.1315   56.1235   58.5832 C   0  0  0  0  0  0  0  0  0  0  0  0
  -47.9381   55.8024   57.3207 C   0  0  0  0  0  0  0  0  0  0  0  0
  -48.7509   56.9979   56.7640 C   0  0  0  0  0  0  0  0  0  0  0  0
  -47.8639   57.9450   55.9307 C   0  0  0  0  0  0  0  0  0  0  0  0
  -46.5497   58.4134   56.5669 C   0  0  0  0  0  0  0  0  0  0  0  0
 46 47  1  0  0  0
 46 48  1  0  0  0
 46 45  1  0  0  0
 47 49  2  0  0  0
 47 51  1  0  0  0
 19 20  2  0  0  0
 37 38  1  0  0  0
 37 39  1  0  0  0
 37 40  1  0  0  0
 37 41  1  0  0  0
 48 50  1  0  0  0
 38 29  1  0  0  0
 45 44  1  0  0  0
 25 27  1  0  0  0
 25 35  1  0  0  0
 25 28  1  0  0  0
 21 20  1  0  0  0
 21 22  1  0  0  0
 44 42  1  0  0  0
  2  1  1  0  0  0
  2  4  1  0  0  0
  2  5  1  0  0  0
 26 27  2  0  0  0
 42 43  2  0  0  0
 29 31  1  0  0  0
 29 36  1  0  0  0
  3  4  2  0  0  0
 43  1  1  0  0  0
  6  9  2  0  0  0
  6 10  1  0  0  0
  1 20  1  0  0  0
 30 36  2  0  0  0
  7  8  1  0  0  0
  7  9  1  0  0  0
 22 24  1  0  0  0
 22 23  1  0  0  0
 11 12  1  0  0  0
 11 18  1  0  0  0
 24 27  1  0  0  0
  4 10  1  0  0  0
 51 52  1  0  0  0
 52 53  1  0  0  0
 53 54  1  0  0  0
 54 55  1  0  0  0
 55 56  1  0  0  0
 56 57  1  0  0  0
 57 58  1  0  0  0
 58 59  1  0  0  0
 59 60  1  0  0  0
 60 61  1  0  0  0
 61 62  1  0  0  0
 62 63  1  0  0  0
 63 64  1  0  0  0
 64 65  1  0  0  0
 31 32  1  0  0  0
 32 33  1  0  0  0
 33 34  1  0  0  0
 34 35  1  0  0  0
 35 36  1  0  0  0
  8 10  1  0  0  0
  9 17  1  0  0  0
 12 13  2  0  0  0
 12 17  1  0  0  0
 13 14  1  0  0  0
 14 15  2  0  0  0
 15 16  1  0  0  0
 16 17  2  0  0  0
M  END
> <minimizedAffinity>
-10.50174

> <CNNscore>
0.1523028463

> <CNNaffinity>
7.2365579605

> <CNN_VS>
1.1021484137

> <CNNaffinity_variance>
1.1164319515

$$$$
/media/chris/experiments/cd1a-new-docking/inputs/ligands/1xz0_ligand.pdb


 65 67  0  0  0  0  0  0  0  0999 V2000
  -36.7699   57.9224   64.4062 C   0  0  0  0  0  0  0  0  0  0  0  0
  -36.7980   59.0030   65.3940 N   0  0  0  0  0  0  0  0  0  0  0  0
  -37.7642   60.6200   66.6687 O   0  0  0  0  0  0  0  0  0  0  0  0
  -37.8429   59.7202   65.8427 C   0  0  0  0  0  0  0  0  0  0  0  0
  -35.9261   59.2383   65.7860 H   0  0  0  0  0  0  0  0  0  0  0  0
  -39.4810   59.6973   63.9729 N   0  0  0  0  0  0  0  0  0  0  0  0
  -41.2658   60.5097   65.0437 O   0  0  0  0  0  0  0  0  0  0  0  0
  -40.4846   59.9147   66.0793 C   0  0  0  0  0  0  0  0  0  0  0  0
  -40.5578   60.3364   63.8001 C   0  0  0  0  0  0  0  0  0  0  0  0
  -39.2343   59.3167   65.3767 C   0  0  0  0  0  0  0  0  0  0  0  0
  -39.3174   59.7600   61.2455 O   0  0  0  0  0  0  0  0  0  0  0  0
  -40.4437   60.4830   61.2672 C   0  0  0  0  0  0  0  0  0  0  0  0
  -41.0042   60.9287   60.0630 C   0  0  0  0  0  0  0  0  0  0  0  0
  -42.1805   61.6971   60.0597 C   0  0  0  0  0  0  0  0  0  0  0  0
  -42.8154   62.0201   61.2602 C   0  0  0  0  0  0  0  0  0  0  0  0
  -42.2638   61.5724   62.4638 C   0  0  0  0  0  0  0  0  0  0  0  0
  -41.0802   60.8096   62.4709 C   0  0  0  0  0  0  0  0  0  0  0  0
  -38.9091   59.5535   60.4278 H   0  0  0  0  0  0  0  0  0  0  0  0
  -36.4139   59.2160   62.4224 O   0  0  0  0  0  0  0  0  0  0  0  0
  -35.9510   58.4339   63.2364 C   0  0  0  0  0  0  0  0  0  0  0  0
  -34.5884   57.9341   63.0255 O   0  0  0  0  0  0  0  0  0  0  0  0
  -33.4452   58.8017   63.1445 C   0  0  0  0  0  0  0  0  0  0  0  0
  -32.1001   58.0940   63.0377 C   0  0  0  0  0  0  0  0  0  0  0  0
  -33.5595   59.5685   64.4535 C   0  0  0  0  0  0  0  0  0  0  0  0
  -33.4468   61.6994   63.2524 N   0  0  0  0  0  0  0  0  0  0  0  0
  -34.8544   61.4128   64.9994 O   0  0  0  0  0  0  0  0  0  0  0  0
  -33.9839   61.0040   64.2654 C   0  0  0  0  0  0  0  0  0  0  0  0
  -32.7423   61.2632   62.7208 H   0  0  0  0  0  0  0  0  0  0  0  0
  -31.7455   64.0148   61.9875 N   0  0  0  0  0  0  0  0  0  0  0  0
  -33.5860   63.9223   60.6952 O   0  0  0  0  0  0  0  0  0  0  0  0
  -30.9297   63.5534   63.1204 C   0  0  0  0  0  0  0  0  0  0  0  0
  -31.4240   64.1789   64.4384 C   0  0  0  0  0  0  0  0  0  0  0  0
  -32.7197   64.9666   64.3369 C   0  0  0  0  0  0  0  0  0  0  0  0
  -33.9328   64.0861   64.0260 C   0  0  0  0  0  0  0  0  0  0  0  0
  -33.8349   63.0647   62.8804 C   0  0  0  0  0  0  0  0  0  0  0  0
  -33.0289   63.6921   61.7599 C   0  0  0  0  0  0  0  0  0  0  0  0
  -32.0103   65.3556   59.6093 Si  0  0  0  0  0  0  0  0  0  0  0  0
  -31.1421   64.8355   61.0829 O   0  0  0  0  0  0  0  0  0  0  0  0
  -31.1691   66.2000   58.8374 H   0  0  0  0  0  0  0  0  0  0  0  0
  -33.1840   66.0652   59.9770 H   0  0  0  0  0  0  0  0  0  0  0  0
  -32.3675   64.2148   58.8429 H   0  0  0  0  0  0  0  0  0  0  0  0
  -38.2598   56.8434   62.5328 C   0  0  0  0  0  0  0  0  0  0  0  0
  -38.1255   57.3017   63.9901 C   0  0  0  0  0  0  0  0  0  0  0  0
  -39.6872   56.6402   61.9970 C   0  0  0  0  0  0  0  0  0  0  0  0
  -40.8057   56.3897   63.0293 C   0  0  0  0  0  0  0  0  0  0  0  0
  -41.9851   57.1617   62.6257 N   0  0  0  0  0  0  0  0  0  0  0  0
  -42.9817   57.6690   63.3986 C   0  0  0  0  0  0  0  0  0  0  0  0
  -42.0683   57.3931   61.2455 O   0  0  0  0  0  0  0  0  0  0  0  0
  -43.9128   58.3026   62.9023 O   0  0  0  0  0  0  0  0  0  0  0  0
  -42.8681   57.9062   61.0512 H   0  0  0  0  0  0  0  0  0  0  0  0
  -42.9312   57.4473   64.9139 C   0  0  0  0  0  0  0  0  0  0  0  0
  -44.2910   57.1444   65.5577 C   0  0  0  0  0  0  0  0  0  0  0  0
  -44.9167   58.4412   66.1064 C   0  0  0  0  0  0  0  0  0  0  0  0
  -46.4254   58.5650   65.8205 C   0  0  0  0  0  0  0  0  0  0  0  0
  -47.2387   57.2882   66.1038 C   0  0  0  0  0  0  0  0  0  0  0  0
  -48.5718   57.2414   65.3281 C   0  0  0  0  0  0  0  0  0  0  0  0
  -49.3048   58.5996   65.2292 C   0  0  0  0  0  0  0  0  0  0  0  0
  -49.9842   58.8288   63.8742 C   0  0  0  0  0  0  0  0  0  0  0  0
  -49.6646   57.7883   62.7962 C   0  0  0  0  0  0  0  0  0  0  0  0
  -50.4972   58.0256   61.5230 C   0  0  0  0  0  0  0  0  0  0  0  0
  -49.7892   58.8893   60.4682 C   0  0  0  0  0  0  0  0  0  0  0  0
  -49.3603   58.1609   59.1903 C   0  0  0  0  0  0  0  0  0  0  0  0
  -48.1455   57.2172   59.3733 C   0  0  0  0  0  0  0  0  0  0  0  0
  -47.3657   57.0379   58.0549 C   0  0  0  0  0  0  0  0  0  0  0  0
  -47.2884   58.2489   57.1174 C   0  0  0  0  0  0  0  0  0  0  0  0
 46 47  1  0  0  0
 46 48  1  0  0  0
 46 45  1  0  0  0
 47 49  2  0  0  0
 47 51  1  0  0  0
 19 20  2  0  0  0
 37 38  1  0  0  0
 37 39  1  0  0  0
 37 40  1  0  0  0
 37 41  1  0  0  0
 48 50  1  0  0  0
 38 29  1  0  0  0
 45 44  1  0  0  0
 25 27  1  0  0  0
 25 35  1  0  0  0
 25 28  1  0  0  0
 21 20  1  0  0  0
 21 22  1  0  0  0
 44 42  1  0  0  0
  2  1  1  0  0  0
  2  4  1  0  0  0
  2  5  1  0  0  0
 26 27  2  0  0  0
 42 43  2  0  0  0
 29 31  1  0  0  0
 29 36  1  0  0  0
  3  4  2  0  0  0
 43  1  1  0  0  0
  6  9  2  0  0  0
  6 10  1  0  0  0
  1 20  1  0  0  0
 30 36  2  0  0  0
  7  8  1  0  0  0
  7  9  1  0  0  0
 22 24  1  0  0  0
 22 23  1  0  0  0
 11 12  1  0  0  0
 11 18  1  0  0  0
 24 27  1  0  0  0
  4 10  1  0  0  0
 51 52  1  0  0  0
 52 53  1  0  0  0
 53 54  1  0  0  0
 54 55  1  0  0  0
 55 56  1  0  0  0
 56 57  1  0  0  0
 57 58  1  0  0  0
 58 59  1  0  0  0
 59 60  1  0  0  0
 60 61  1  0  0  0
 61 62  1  0  0  0
 62 63  1  0  0  0
 63 64  1  0  0  0
 64 65  1  0  0  0
 31 32  1  0  0  0
 32 33  1  0  0  0
 33 34  1  0  0  0
 34 35  1  0  0  0
 35 36  1  0  0  0
  8 10  1  0  0  0
  9 17  1  0  0  0
 12 13  2  0  0  0
 12 17  1  0  0  0
 13 14  1  0  0  0
 14 15  2  0  0  0
 15 16  1  0  0  0
 16 17  2  0  0  0
M  END
> <minimizedAffinity>
-9.15674

> <CNNscore>
0.1357251257

> <CNNaffinity>
7.1679863930

> <CNN_VS>
0.9728758335

> <CNNaffinity_variance>
0.8191391826

$$$$
/media/chris/experiments/cd1a-new-docking/inputs/ligands/1xz0_ligand.pdb


 65 67  0  0  0  0  0  0  0  0999 V2000
  -38.7152   59.3132   65.3254 C   0  0  0  0  0  0  0  0  0  0  0  0
  -38.4339   60.3710   64.3528 N   0  0  0  0  0  0  0  0  0  0  0  0
  -37.2698   62.1099   63.4617 O   0  0  0  0  0  0  0  0  0  0  0  0
  -37.4140   61.2461   64.3169 C   0  0  0  0  0  0  0  0  0  0  0  0
  -39.0856   60.4531   63.6194 H   0  0  0  0  0  0  0  0  0  0  0  0
  -35.6263   62.3637   65.6342 N   0  0  0  0  0  0  0  0  0  0  0  0
  -33.9308   60.9761   65.1959 O   0  0  0  0  0  0  0  0  0  0  0  0
  -35.0921   60.1633   65.0305 C   0  0  0  0  0  0  0  0  0  0  0  0
  -34.3666   62.3042   65.5484 C   0  0  0  0  0  0  0  0  0  0  0  0
  -36.3030   61.0852   65.3444 C   0  0  0  0  0  0  0  0  0  0  0  0
  -34.9494   64.5175   67.3256 O   0  0  0  0  0  0  0  0  0  0  0  0
  -33.7584   64.4761   66.7160 C   0  0  0  0  0  0  0  0  0  0  0  0
  -32.8195   65.4868   66.9604 C   0  0  0  0  0  0  0  0  0  0  0  0
  -31.5661   65.4710   66.3255 C   0  0  0  0  0  0  0  0  0  0  0  0
  -31.2335   64.4388   65.4466 C   0  0  0  0  0  0  0  0  0  0  0  0
  -32.1643   63.4247   65.2043 C   0  0  0  0  0  0  0  0  0  0  0  0
  -33.4245   63.4424   65.8323 C   0  0  0  0  0  0  0  0  0  0  0  0
  -35.1506   65.2191   67.9131 H   0  0  0  0  0  0  0  0  0  0  0  0
  -37.1274   57.5464   65.6303 O   0  0  0  0  0  0  0  0  0  0  0  0
  -37.9157   58.1023   64.8833 C   0  0  0  0  0  0  0  0  0  0  0  0
  -38.0314   57.6152   63.5048 O   0  0  0  0  0  0  0  0  0  0  0  0
  -36.8806   57.5212   62.6442 C   0  0  0  0  0  0  0  0  0  0  0  0
  -35.5704   57.2379   63.3688 C   0  0  0  0  0  0  0  0  0  0  0  0
  -36.7892   58.7995   61.8246 C   0  0  0  0  0  0  0  0  0  0  0  0
  -39.1628   58.4854   61.3111 N   0  0  0  0  0  0  0  0  0  0  0  0
  -37.8386   59.7611   59.9942 O   0  0  0  0  0  0  0  0  0  0  0  0
  -37.9924   59.0267   60.9431 C   0  0  0  0  0  0  0  0  0  0  0  0
  -39.1675   57.9007   62.1032 H   0  0  0  0  0  0  0  0  0  0  0  0
  -42.1110   58.1601   62.3393 N   0  0  0  0  0  0  0  0  0  0  0  0
  -42.0858   60.2027   61.3944 O   0  0  0  0  0  0  0  0  0  0  0  0
  -41.4610   56.8976   62.7209 C   0  0  0  0  0  0  0  0  0  0  0  0
  -41.4113   55.9272   61.5257 C   0  0  0  0  0  0  0  0  0  0  0  0
  -41.8544   56.5132   60.1954 C   0  0  0  0  0  0  0  0  0  0  0  0
  -40.8993   57.5862   59.6660 C   0  0  0  0  0  0  0  0  0  0  0  0
  -40.4369   58.7031   60.6166 C   0  0  0  0  0  0  0  0  0  0  0  0
  -41.6086   59.0812   61.5015 C   0  0  0  0  0  0  0  0  0  0  0  0
  -43.9313   60.1018   63.0025 Si  0  0  0  0  0  0  0  0  0  0  0  0
  -43.3278   58.4227   62.8930 O   0  0  0  0  0  0  0  0  0  0  0  0
  -45.2126   60.1053   63.6147 H   0  0  0  0  0  0  0  0  0  0  0  0
  -44.0282   60.6560   61.6988 H   0  0  0  0  0  0  0  0  0  0  0  0
  -43.0326   60.8780   63.7812 H   0  0  0  0  0  0  0  0  0  0  0  0
  -41.0551   60.1496   66.1736 C   0  0  0  0  0  0  0  0  0  0  0  0
  -40.2006   58.9992   65.6274 C   0  0  0  0  0  0  0  0  0  0  0  0
  -42.3692   59.7667   66.8752 C   0  0  0  0  0  0  0  0  0  0  0  0
  -43.6528   59.7469   66.0199 C   0  0  0  0  0  0  0  0  0  0  0  0
  -44.2465   58.4094   66.1126 N   0  0  0  0  0  0  0  0  0  0  0  0
  -45.5446   58.0365   65.9587 C   0  0  0  0  0  0  0  0  0  0  0  0
  -43.3219   57.3956   66.4002 O   0  0  0  0  0  0  0  0  0  0  0  0
  -45.8864   56.8592   66.0681 O   0  0  0  0  0  0  0  0  0  0  0  0
  -43.7812   56.5426   66.4466 H   0  0  0  0  0  0  0  0  0  0  0  0
  -46.5912   59.1085   65.6372 C   0  0  0  0  0  0  0  0  0  0  0  0
  -47.5231   59.4577   66.8056 C   0  0  0  0  0  0  0  0  0  0  0  0
  -48.6297   60.4186   66.3301 C   0  0  0  0  0  0  0  0  0  0  0  0
  -48.6307   60.6500   64.8071 C   0  0  0  0  0  0  0  0  0  0  0  0
  -50.0282   60.8390   64.1881 C   0  0  0  0  0  0  0  0  0  0  0  0
  -51.0053   59.7021   64.5538 C   0  0  0  0  0  0  0  0  0  0  0  0
  -50.7865   58.3895   63.7657 C   0  0  0  0  0  0  0  0  0  0  0  0
  -51.0002   58.5420   62.2554 C   0  0  0  0  0  0  0  0  0  0  0  0
  -49.8386   58.0655   61.3775 C   0  0  0  0  0  0  0  0  0  0  0  0
  -50.1994   56.7731   60.6226 C   0  0  0  0  0  0  0  0  0  0  0  0
  -48.9827   56.0121   60.0745 C   0  0  0  0  0  0  0  0  0  0  0  0
  -47.8903   56.8754   59.4351 C   0  0  0  0  0  0  0  0  0  0  0  0
  -47.1897   56.2178   58.2199 C   0  0  0  0  0  0  0  0  0  0  0  0
  -47.6082   56.8882   56.8956 C   0  0  0  0  0  0  0  0  0  0  0  0
  -47.2562   58.3703   56.7198 C   0  0  0  0  0  0  0  0  0  0  0  0
 46 47  1  0  0  0
 46 48  1  0  0  0
 46 45  1  0  0  0
 47 49  2  0  0  0
 47 51  1  0  0  0
 19 20  2  0  0  0
 37 38  1  0  0  0
 37 39  1  0  0  0
 37 40  1  0  0  0
 37 41  1  0  0  0
 48 50  1  0  0  0
 38 29  1  0  0  0
 45 44  1  0  0  0
 25 27  1  0  0  0
 25 35  1  0  0  0
 25 28  1  0  0  0
 21 20  1  0  0  0
 21 22  1  0  0  0
 44 42  1  0  0  0
  2  1  1  0  0  0
  2  4  1  0  0  0
  2  5  1  0  0  0
 26 27  2  0  0  0
 42 43  2  0  0  0
 29 31  1  0  0  0
 29 36  1  0  0  0
  3  4  2  0  0  0
 43  1  1  0  0  0
  6  9  2  0  0  0
  6 10  1  0  0  0
  1 20  1  0  0  0
 30 36  2  0  0  0
  7  8  1  0  0  0
  7  9  1  0  0  0
 22 24  1  0  0  0
 22 23  1  0  0  0
 11 12  1  0  0  0
 11 18  1  0  0  0
 24 27  1  0  0  0
  4 10  1  0  0  0
 51 52  1  0  0  0
 52 53  1  0  0  0
 53 54  1  0  0  0
 54 55  1  0  0  0
 55 56  1  0  0  0
 56 57  1  0  0  0
 57 58  1  0  0  0
 58 59  1  0  0  0
 59 60  1  0  0  0
 60 61  1  0  0  0
 61 62  1  0  0  0
 62 63  1  0  0  0
 63 64  1  0  0  0
 64 65  1  0  0  0
 31 32  1  0  0  0
 32 33  1  0  0  0
 33 34  1  0  0  0
 34 35  1  0  0  0
 35 36  1  0  0  0
  8 10  1  0  0  0
  9 17  1  0  0  0
 12 13  2  0  0  0
 12 17  1  0  0  0
 13 14  1  0  0  0
 14 15  2  0  0  0
 15 16  1  0  0  0
 16 17  2  0  0  0
M  END
> <minimizedAffinity>
-10.42058

> <CNNscore>
0.1172499955

> <CNNaffinity>
7.2881064415

> <CNN_VS>
0.8545304537

> <CNNaffinity_variance>
1.4432933331

$$$$
/media/chris/experiments/cd1a-new-docking/inputs/ligands/1xz0_ligand.pdb


 65 67  0  0  0  0  0  0  0  0999 V2000
  -36.2892   61.1240   64.8374 C   0  0  0  0  0  0  0  0  0  0  0  0
  -35.1685   60.4246   65.4689 N   0  0  0  0  0  0  0  0  0  0  0  0
  -33.4782   58.9078   65.5931 O   0  0  0  0  0  0  0  0  0  0  0  0
  -34.3917   59.4429   64.9788 C   0  0  0  0  0  0  0  0  0  0  0  0
  -34.9527   60.7152   66.3845 H   0  0  0  0  0  0  0  0  0  0  0  0
  -35.9577   59.3153   63.0522 N   0  0  0  0  0  0  0  0  0  0  0  0
  -35.6269   57.1877   62.4556 O   0  0  0  0  0  0  0  0  0  0  0  0
  -34.4105   57.5561   63.1046 C   0  0  0  0  0  0  0  0  0  0  0  0
  -36.5099   58.3265   62.4908 C   0  0  0  0  0  0  0  0  0  0  0  0
  -34.5867   59.0420   63.5237 C   0  0  0  0  0  0  0  0  0  0  0  0
  -37.7523   60.6408   61.2672 O   0  0  0  0  0  0  0  0  0  0  0  0
  -38.4236   59.4830   61.2866 C   0  0  0  0  0  0  0  0  0  0  0  0
  -39.6962   59.4102   60.7050 C   0  0  0  0  0  0  0  0  0  0  0  0
  -40.4250   58.2090   60.7207 C   0  0  0  0  0  0  0  0  0  0  0  0
  -39.8854   57.0641   61.3096 C   0  0  0  0  0  0  0  0  0  0  0  0
  -38.6136   57.1299   61.8854 C   0  0  0  0  0  0  0  0  0  0  0  0
  -37.8844   58.3345   61.8789 C   0  0  0  0  0  0  0  0  0  0  0  0
  -38.1333   61.3965   60.8650 H   0  0  0  0  0  0  0  0  0  0  0  0
  -36.4944   63.3477   63.9720 O   0  0  0  0  0  0  0  0  0  0  0  0
  -35.8339   62.5550   64.6231 C   0  0  0  0  0  0  0  0  0  0  0  0
  -34.5370   62.9945   65.1483 O   0  0  0  0  0  0  0  0  0  0  0  0
  -34.3823   63.3959   66.5226 C   0  0  0  0  0  0  0  0  0  0  0  0
  -35.6009   64.0882   67.1204 C   0  0  0  0  0  0  0  0  0  0  0  0
  -33.1448   64.2744   66.6290 C   0  0  0  0  0  0  0  0  0  0  0  0
  -32.4012   64.5531   64.3126 N   0  0  0  0  0  0  0  0  0  0  0  0
  -33.2988   66.2766   65.4698 O   0  0  0  0  0  0  0  0  0  0  0  0
  -32.9176   65.1302   65.4074 C   0  0  0  0  0  0  0  0  0  0  0  0
  -32.1238   63.6109   64.3797 H   0  0  0  0  0  0  0  0  0  0  0  0
  -33.6810   63.9412   61.5121 N   0  0  0  0  0  0  0  0  0  0  0  0
  -34.0107   66.1502   61.7910 O   0  0  0  0  0  0  0  0  0  0  0  0
  -33.1728   62.6371   61.9623 C   0  0  0  0  0  0  0  0  0  0  0  0
  -31.6640   62.5126   61.6784 C   0  0  0  0  0  0  0  0  0  0  0  0
  -30.9901   63.7816   61.1832 C   0  0  0  0  0  0  0  0  0  0  0  0
  -30.9389   64.8849   62.2433 C   0  0  0  0  0  0  0  0  0  0  0  0
  -32.2204   65.2269   63.0217 C   0  0  0  0  0  0  0  0  0  0  0  0
  -33.3913   65.1308   62.0634 C   0  0  0  0  0  0  0  0  0  0  0  0
  -36.2086   63.3545   60.6226 Si  0  0  0  0  0  0  0  0  0  0  0  0
  -34.5292   63.9414   60.4460 O   0  0  0  0  0  0  0  0  0  0  0  0
  -36.8798   63.4581   59.3756 H   0  0  0  0  0  0  0  0  0  0  0  0
  -36.8856   64.1416   61.5914 H   0  0  0  0  0  0  0  0  0  0  0  0
  -36.1943   61.9977   61.0413 H   0  0  0  0  0  0  0  0  0  0  0  0
  -38.5151   59.7728   65.1746 C   0  0  0  0  0  0  0  0  0  0  0  0
  -37.6751   61.0093   65.5172 C   0  0  0  0  0  0  0  0  0  0  0  0
  -40.0212   59.8503   65.4770 C   0  0  0  0  0  0  0  0  0  0  0  0
  -40.9956   59.5866   64.3107 C   0  0  0  0  0  0  0  0  0  0  0  0
  -41.6716   58.3088   64.5562 N   0  0  0  0  0  0  0  0  0  0  0  0
  -42.9930   58.0651   64.7616 C   0  0  0  0  0  0  0  0  0  0  0  0
  -40.8091   57.2038   64.5753 O   0  0  0  0  0  0  0  0  0  0  0  0
  -43.4074   56.9224   64.9550 O   0  0  0  0  0  0  0  0  0  0  0  0
  -41.3209   56.3968   64.7417 H   0  0  0  0  0  0  0  0  0  0  0  0
  -43.9757   59.2406   64.7435 C   0  0  0  0  0  0  0  0  0  0  0  0
  -45.4226   58.8544   64.4075 C   0  0  0  0  0  0  0  0  0  0  0  0
  -46.2601   60.1207   64.1445 C   0  0  0  0  0  0  0  0  0  0  0  0
  -47.7486   59.8287   63.8751 C   0  0  0  0  0  0  0  0  0  0  0  0
  -48.6646   59.9815   65.1037 C   0  0  0  0  0  0  0  0  0  0  0  0
  -49.9311   59.1038   65.0209 C   0  0  0  0  0  0  0  0  0  0  0  0
  -50.0198   58.2232   63.7526 C   0  0  0  0  0  0  0  0  0  0  0  0
  -51.1545   58.6301   62.8056 C   0  0  0  0  0  0  0  0  0  0  0  0
  -51.1776   57.9007   61.4586 C   0  0  0  0  0  0  0  0  0  0  0  0
  -49.7574   57.7282   60.8896 C   0  0  0  0  0  0  0  0  0  0  0  0
  -49.3974   56.2752   60.5443 C   0  0  0  0  0  0  0  0  0  0  0  0
  -48.2985   56.0937   59.4921 C   0  0  0  0  0  0  0  0  0  0  0  0
  -47.8477   57.4093   58.8098 C   0  0  0  0  0  0  0  0  0  0  0  0
  -47.2027   57.1405   57.4350 C   0  0  0  0  0  0  0  0  0  0  0  0
  -47.7325   57.9477   56.2437 C   0  0  0  0  0  0  0  0  0  0  0  0
 46 47  1  0  0  0
 46 48  1  0  0  0
 46 45  1  0  0  0
 47 49  2  0  0  0
 47 51  1  0  0  0
 19 20  2  0  0  0
 37 38  1  0  0  0
 37 39  1  0  0  0
 37 40  1  0  0  0
 37 41  1  0  0  0
 48 50  1  0  0  0
 38 29  1  0  0  0
 45 44  1  0  0  0
 25 27  1  0  0  0
 25 35  1  0  0  0
 25 28  1  0  0  0
 21 20  1  0  0  0
 21 22  1  0  0  0
 44 42  1  0  0  0
  2  1  1  0  0  0
  2  4  1  0  0  0
  2  5  1  0  0  0
 26 27  2  0  0  0
 42 43  2  0  0  0
 29 31  1  0  0  0
 29 36  1  0  0  0
  3  4  2  0  0  0
 43  1  1  0  0  0
  6  9  2  0  0  0
  6 10  1  0  0  0
  1 20  1  0  0  0
 30 36  2  0  0  0
  7  8  1  0  0  0
  7  9  1  0  0  0
 22 24  1  0  0  0
 22 23  1  0  0  0
 11 12  1  0  0  0
 11 18  1  0  0  0
 24 27  1  0  0  0
  4 10  1  0  0  0
 51 52  1  0  0  0
 52 53  1  0  0  0
 53 54  1  0  0  0
 54 55  1  0  0  0
 55 56  1  0  0  0
 56 57  1  0  0  0
 57 58  1  0  0  0
 58 59  1  0  0  0
 59 60  1  0  0  0
 60 61  1  0  0  0
 61 62  1  0  0  0
 62 63  1  0  0  0
 63 64  1  0  0  0
 64 65  1  0  0  0
 31 32  1  0  0  0
 32 33  1  0  0  0
 33 34  1  0  0  0
 34 35  1  0  0  0
 35 36  1  0  0  0
  8 10  1  0  0  0
  9 17  1  0  0  0
 12 13  2  0  0  0
 12 17  1  0  0  0
 13 14  1  0  0  0
 14 15  2  0  0  0
 15 16  1  0  0  0
 16 17  2  0  0  0
M  END
> <minimizedAffinity>
-9.35270

> <CNNscore>
0.1108582616

> <CNNaffinity>
7.0305900574

> <CNN_VS>
0.7793989778

> <CNNaffinity_variance>
0.3753318489

$$$$
/media/chris/experiments/cd1a-new-docking/inputs/ligands/1xz0_ligand.pdb


 65 67  0  0  0  0  0  0  0  0999 V2000
  -40.6687   57.9193   60.2151 C   0  0  0  0  0  0  0  0  0  0  0  0
  -39.4853   58.2416   59.4153 N   0  0  0  0  0  0  0  0  0  0  0  0
  -37.3290   58.8766   59.0689 O   0  0  0  0  0  0  0  0  0  0  0  0
  -38.2588   58.6143   59.8204 C   0  0  0  0  0  0  0  0  0  0  0  0
  -39.6051   58.1758   58.4403 H   0  0  0  0  0  0  0  0  0  0  0  0
  -36.5808   58.9994   61.6138 N   0  0  0  0  0  0  0  0  0  0  0  0
  -36.8294   57.0966   62.7584 O   0  0  0  0  0  0  0  0  0  0  0  0
  -38.0894   57.2770   62.1129 C   0  0  0  0  0  0  0  0  0  0  0  0
  -35.9752   58.1930   62.3759 C   0  0  0  0  0  0  0  0  0  0  0  0
  -37.9706   58.6049   61.3147 C   0  0  0  0  0  0  0  0  0  0  0  0
  -35.0983   57.5591   65.0641 O   0  0  0  0  0  0  0  0  0  0  0  0
  -34.2021   58.0264   64.1866 C   0  0  0  0  0  0  0  0  0  0  0  0
  -32.8659   58.1828   64.5777 C   0  0  0  0  0  0  0  0  0  0  0  0
  -31.9080   58.6803   63.6782 C   0  0  0  0  0  0  0  0  0  0  0  0
  -32.2735   59.0178   62.3739 C   0  0  0  0  0  0  0  0  0  0  0  0
  -33.6040   58.8577   61.9768 C   0  0  0  0  0  0  0  0  0  0  0  0
  -34.5679   58.3676   62.8787 C   0  0  0  0  0  0  0  0  0  0  0  0
  -34.8304   57.3373   65.9341 H   0  0  0  0  0  0  0  0  0  0  0  0
  -41.2480   60.2419   60.2888 O   0  0  0  0  0  0  0  0  0  0  0  0
  -41.0791   59.2046   60.9084 C   0  0  0  0  0  0  0  0  0  0  0  0
  -41.2152   59.2349   62.3683 O   0  0  0  0  0  0  0  0  0  0  0  0
  -40.9803   60.4419   63.1179 C   0  0  0  0  0  0  0  0  0  0  0  0
  -42.0348   61.5240   62.9212 C   0  0  0  0  0  0  0  0  0  0  0  0
  -39.5921   60.9588   62.7713 C   0  0  0  0  0  0  0  0  0  0  0  0
  -37.3776   61.2850   63.7642 N   0  0  0  0  0  0  0  0  0  0  0  0
  -38.9214   59.9614   64.7542 O   0  0  0  0  0  0  0  0  0  0  0  0
  -38.5675   60.6713   63.8408 C   0  0  0  0  0  0  0  0  0  0  0  0
  -37.1992   61.8399   62.9708 H   0  0  0  0  0  0  0  0  0  0  0  0
  -36.1705   63.4876   65.6475 N   0  0  0  0  0  0  0  0  0  0  0  0
  -36.6535   61.7858   67.0391 O   0  0  0  0  0  0  0  0  0  0  0  0
  -36.1249   64.0996   64.3114 C   0  0  0  0  0  0  0  0  0  0  0  0
  -34.8910   63.6105   63.5297 C   0  0  0  0  0  0  0  0  0  0  0  0
  -34.1019   62.4949   64.1948 C   0  0  0  0  0  0  0  0  0  0  0  0
  -34.8739   61.1747   64.2641 C   0  0  0  0  0  0  0  0  0  0  0  0
  -36.3227   61.1879   64.7795 C   0  0  0  0  0  0  0  0  0  0  0  0
  -36.4090   62.1928   65.9115 C   0  0  0  0  0  0  0  0  0  0  0  0
  -36.8021   64.0178   68.2635 Si  0  0  0  0  0  0  0  0  0  0  0  0
  -35.9612   64.3100   66.7133 O   0  0  0  0  0  0  0  0  0  0  0  0
  -36.4153   65.0072   69.2057 H   0  0  0  0  0  0  0  0  0  0  0  0
  -36.4530   62.7327   68.7565 H   0  0  0  0  0  0  0  0  0  0  0  0
  -38.2060   64.0813   68.0599 H   0  0  0  0  0  0  0  0  0  0  0  0
  -41.8329   56.3560   61.9744 C   0  0  0  0  0  0  0  0  0  0  0  0
  -40.5753   56.7031   61.1682 C   0  0  0  0  0  0  0  0  0  0  0  0
  -41.6407   55.4618   63.2109 C   0  0  0  0  0  0  0  0  0  0  0  0
  -42.4465   55.8163   64.4776 C   0  0  0  0  0  0  0  0  0  0  0  0
  -42.0132   57.1372   64.9435 N   0  0  0  0  0  0  0  0  0  0  0  0
  -42.7302   58.0950   65.5889 C   0  0  0  0  0  0  0  0  0  0  0  0
  -40.6678   57.4229   64.6717 O   0  0  0  0  0  0  0  0  0  0  0  0
  -42.2149   59.1633   65.9175 O   0  0  0  0  0  0  0  0  0  0  0  0
  -40.4512   58.3075   65.0056 H   0  0  0  0  0  0  0  0  0  0  0  0
  -44.2033   57.8262   65.9136 C   0  0  0  0  0  0  0  0  0  0  0  0
  -45.0591   59.0897   66.0765 C   0  0  0  0  0  0  0  0  0  0  0  0
  -45.5383   59.5849   64.6984 C   0  0  0  0  0  0  0  0  0  0  0  0
  -47.0649   59.7712   64.6085 C   0  0  0  0  0  0  0  0  0  0  0  0
  -47.7673   59.9723   65.9642 C   0  0  0  0  0  0  0  0  0  0  0  0
  -49.2371   59.5023   65.9542 C   0  0  0  0  0  0  0  0  0  0  0  0
  -49.4801   58.1711   65.2056 C   0  0  0  0  0  0  0  0  0  0  0  0
  -50.4444   58.3044   64.0214 C   0  0  0  0  0  0  0  0  0  0  0  0
  -51.0443   59.6994   63.8182 C   0  0  0  0  0  0  0  0  0  0  0  0
  -50.3872   60.4250   62.6300 C   0  0  0  0  0  0  0  0  0  0  0  0
  -49.4451   59.5377   61.8025 C   0  0  0  0  0  0  0  0  0  0  0  0
  -49.5367   59.7056   60.2823 C   0  0  0  0  0  0  0  0  0  0  0  0
  -49.9898   58.4308   59.5276 C   0  0  0  0  0  0  0  0  0  0  0  0
  -50.4496   57.3295   60.5043 C   0  0  0  0  0  0  0  0  0  0  0  0
  -49.6243   56.0377   60.5411 C   0  0  0  0  0  0  0  0  0  0  0  0
 46 47  1  0  0  0
 46 48  1  0  0  0
 46 45  1  0  0  0
 47 49  2  0  0  0
 47 51  1  0  0  0
 19 20  2  0  0  0
 37 38  1  0  0  0
 37 39  1  0  0  0
 37 40  1  0  0  0
 37 41  1  0  0  0
 48 50  1  0  0  0
 38 29  1  0  0  0
 45 44  1  0  0  0
 25 27  1  0  0  0
 25 35  1  0  0  0
 25 28  1  0  0  0
 21 20  1  0  0  0
 21 22  1  0  0  0
 44 42  1  0  0  0
  2  1  1  0  0  0
  2  4  1  0  0  0
  2  5  1  0  0  0
 26 27  2  0  0  0
 42 43  2  0  0  0
 29 31  1  0  0  0
 29 36  1  0  0  0
  3  4  2  0  0  0
 43  1  1  0  0  0
  6  9  2  0  0  0
  6 10  1  0  0  0
  1 20  1  0  0  0
 30 36  2  0  0  0
  7  8  1  0  0  0
  7  9  1  0  0  0
 22 24  1  0  0  0
 22 23  1  0  0  0
 11 12  1  0  0  0
 11 18  1  0  0  0
 24 27  1  0  0  0
  4 10  1  0  0  0
 51 52  1  0  0  0
 52 53  1  0  0  0
 53 54  1  0  0  0
 54 55  1  0  0  0
 55 56  1  0  0  0
 56 57  1  0  0  0
 57 58  1  0  0  0
 58 59  1  0  0  0
 59 60  1  0  0  0
 60 61  1  0  0  0
 61 62  1  0  0  0
 62 63  1  0  0  0
 63 64  1  0  0  0
 64 65  1  0  0  0
 31 32  1  0  0  0
 32 33  1  0  0  0
 33 34  1  0  0  0
 34 35  1  0  0  0
 35 36  1  0  0  0
  8 10  1  0  0  0
  9 17  1  0  0  0
 12 13  2  0  0  0
 12 17  1  0  0  0
 13 14  1  0  0  0
 14 15  2  0  0  0
 15 16  1  0  0  0
 16 17  2  0  0  0
M  END
> <minimizedAffinity>
-9.64311

> <CNNscore>
0.1043786183

> <CNNaffinity>
7.4374570847

> <CNN_VS>
0.7763115168

> <CNNaffinity_variance>
1.0490024090

$$$$
/media/chris/experiments/cd1a-new-docking/inputs/ligands/1xz0_ligand.pdb


 65 67  0  0  0  0  0  0  0  0999 V2000
  -36.2668   57.5610   62.5905 C   0  0  0  0  0  0  0  0  0  0  0  0
  -36.7507   57.3028   63.9482 N   0  0  0  0  0  0  0  0  0  0  0  0
  -37.5105   57.8612   66.0180 O   0  0  0  0  0  0  0  0  0  0  0  0
  -37.1283   58.1756   64.8984 C   0  0  0  0  0  0  0  0  0  0  0  0
  -36.8079   56.3532   64.2016 H   0  0  0  0  0  0  0  0  0  0  0  0
  -35.9847   60.3822   64.9554 N   0  0  0  0  0  0  0  0  0  0  0  0
  -37.6547   61.6364   65.7494 O   0  0  0  0  0  0  0  0  0  0  0  0
  -38.3172   60.5450   65.1118 C   0  0  0  0  0  0  0  0  0  0  0  0
  -36.2342   61.4338   65.6109 C   0  0  0  0  0  0  0  0  0  0  0  0
  -37.1908   59.6497   64.5251 C   0  0  0  0  0  0  0  0  0  0  0  0
  -36.7865   64.1556   66.4377 O   0  0  0  0  0  0  0  0  0  0  0  0
  -35.5339   63.6937   66.5342 C   0  0  0  0  0  0  0  0  0  0  0  0
  -34.5268   64.5235   67.0442 C   0  0  0  0  0  0  0  0  0  0  0  0
  -33.2025   64.0654   67.1468 C   0  0  0  0  0  0  0  0  0  0  0  0
  -32.8720   62.7686   66.7497 C   0  0  0  0  0  0  0  0  0  0  0  0
  -33.8743   61.9346   66.2462 C   0  0  0  0  0  0  0  0  0  0  0  0
  -35.2006   62.3939   66.1341 C   0  0  0  0  0  0  0  0  0  0  0  0
  -36.9860   65.0292   66.7118 H   0  0  0  0  0  0  0  0  0  0  0  0
  -34.0624   56.7316   63.0246 O   0  0  0  0  0  0  0  0  0  0  0  0
  -34.7575   57.6766   62.6895 C   0  0  0  0  0  0  0  0  0  0  0  0
  -34.1070   58.9680   62.4447 O   0  0  0  0  0  0  0  0  0  0  0  0
  -32.6899   59.1410   62.6341 C   0  0  0  0  0  0  0  0  0  0  0  0
  -32.2523   59.2260   64.0911 C   0  0  0  0  0  0  0  0  0  0  0  0
  -32.2490   60.3716   61.8560 C   0  0  0  0  0  0  0  0  0  0  0  0
  -33.6808   62.2568   62.4824 N   0  0  0  0  0  0  0  0  0  0  0  0
  -31.5974   62.0351   63.3341 O   0  0  0  0  0  0  0  0  0  0  0  0
  -32.4850   61.6617   62.6019 C   0  0  0  0  0  0  0  0  0  0  0  0
  -34.3270   61.8628   61.8528 H   0  0  0  0  0  0  0  0  0  0  0  0
  -35.2304   64.8074   61.5088 N   0  0  0  0  0  0  0  0  0  0  0  0
  -36.3391   64.1702   63.3610 O   0  0  0  0  0  0  0  0  0  0  0  0
  -34.1530   64.6484   60.5209 C   0  0  0  0  0  0  0  0  0  0  0  0
  -32.8335   65.2379   61.0539 C   0  0  0  0  0  0  0  0  0  0  0  0
  -32.8602   65.6781   62.5082 C   0  0  0  0  0  0  0  0  0  0  0  0
  -33.0057   64.5083   63.4851 C   0  0  0  0  0  0  0  0  0  0  0  0
  -34.0941   63.4537   63.2238 C   0  0  0  0  0  0  0  0  0  0  0  0
  -35.3190   64.1668   62.6855 C   0  0  0  0  0  0  0  0  0  0  0  0
  -37.4550   66.1267   62.4223 Si  0  0  0  0  0  0  0  0  0  0  0  0
  -36.2332   65.6756   61.1978 O   0  0  0  0  0  0  0  0  0  0  0  0
  -38.3832   67.0373   61.8517 H   0  0  0  0  0  0  0  0  0  0  0  0
  -36.8113   66.7390   63.5300 H   0  0  0  0  0  0  0  0  0  0  0  0
  -38.1409   64.9622   62.8579 H   0  0  0  0  0  0  0  0  0  0  0  0
  -38.1133   58.3600   60.9035 C   0  0  0  0  0  0  0  0  0  0  0  0
  -36.9276   58.7208   61.8068 C   0  0  0  0  0  0  0  0  0  0  0  0
  -38.4915   59.3774   59.8138 C   0  0  0  0  0  0  0  0  0  0  0  0
  -39.9455   59.8923   59.7948 C   0  0  0  0  0  0  0  0  0  0  0  0
  -40.8296   58.7873   60.1784 N   0  0  0  0  0  0  0  0  0  0  0  0
  -41.5496   58.6237   61.3197 C   0  0  0  0  0  0  0  0  0  0  0  0
  -40.9256   57.7747   59.2135 O   0  0  0  0  0  0  0  0  0  0  0  0
  -42.2529   57.6284   61.4920 O   0  0  0  0  0  0  0  0  0  0  0  0
  -41.5232   57.0802   59.5318 H   0  0  0  0  0  0  0  0  0  0  0  0
  -41.4817   59.7069   62.4012 C   0  0  0  0  0  0  0  0  0  0  0  0
  -42.8380   60.3240   62.7689 C   0  0  0  0  0  0  0  0  0  0  0  0
  -43.3308   59.7547   64.1132 C   0  0  0  0  0  0  0  0  0  0  0  0
  -44.6780   59.0145   64.0108 C   0  0  0  0  0  0  0  0  0  0  0  0
  -45.8475   59.7084   64.7338 C   0  0  0  0  0  0  0  0  0  0  0  0
  -46.2824   58.9702   66.0172 C   0  0  0  0  0  0  0  0  0  0  0  0
  -47.7753   58.5681   66.0516 C   0  0  0  0  0  0  0  0  0  0  0  0
  -48.7306   59.7537   65.8733 C   0  0  0  0  0  0  0  0  0  0  0  0
  -50.2219   59.4040   65.9015 C   0  0  0  0  0  0  0  0  0  0  0  0
  -50.8710   59.6026   64.5196 C   0  0  0  0  0  0  0  0  0  0  0  0
  -50.4184   58.5799   63.4665 C   0  0  0  0  0  0  0  0  0  0  0  0
  -49.1993   58.9813   62.6296 C   0  0  0  0  0  0  0  0  0  0  0  0
  -49.3661   60.3170   61.8628 C   0  0  0  0  0  0  0  0  0  0  0  0
  -49.7328   60.0777   60.3842 C   0  0  0  0  0  0  0  0  0  0  0  0
  -49.0989   58.8643   59.6935 C   0  0  0  0  0  0  0  0  0  0  0  0
 46 47  1  0  0  0
 46 48  1  0  0  0
 46 45  1  0  0  0
 47 49  2  0  0  0
 47 51  1  0  0  0
 19 20  2  0  0  0
 37 38  1  0  0  0
 37 39  1  0  0  0
 37 40  1  0  0  0
 37 41  1  0  0  0
 48 50  1  0  0  0
 38 29  1  0  0  0
 45 44  1  0  0  0
 25 27  1  0  0  0
 25 35  1  0  0  0
 25 28  1  0  0  0
 21 20  1  0  0  0
 21 22  1  0  0  0
 44 42  1  0  0  0
  2  1  1  0  0  0
  2  4  1  0  0  0
  2  5  1  0  0  0
 26 27  2  0  0  0
 42 43  2  0  0  0
 29 31  1  0  0  0
 29 36  1  0  0  0
  3  4  2  0  0  0
 43  1  1  0  0  0
  6  9  2  0  0  0
  6 10  1  0  0  0
  1 20  1  0  0  0
 30 36  2  0  0  0
  7  8  1  0  0  0
  7  9  1  0  0  0
 22 24  1  0  0  0
 22 23  1  0  0  0
 11 12  1  0  0  0
 11 18  1  0  0  0
 24 27  1  0  0  0
  4 10  1  0  0  0
 51 52  1  0  0  0
 52 53  1  0  0  0
 53 54  1  0  0  0
 54 55  1  0  0  0
 55 56  1  0  0  0
 56 57  1  0  0  0
 57 58  1  0  0  0
 58 59  1  0  0  0
 59 60  1  0  0  0
 60 61  1  0  0  0
 61 62  1  0  0  0
 62 63  1  0  0  0
 63 64  1  0  0  0
 64 65  1  0  0  0
 31 32  1  0  0  0
 32 33  1  0  0  0
 33 34  1  0  0  0
 34 35  1  0  0  0
 35 36  1  0  0  0
  8 10  1  0  0  0
  9 17  1  0  0  0
 12 13  2  0  0  0
 12 17  1  0  0  0
 13 14  1  0  0  0
 14 15  2  0  0  0
 15 16  1  0  0  0
 16 17  2  0  0  0
M  END
> <minimizedAffinity>
-9.22175

> <CNNscore>
0.1025003418

> <CNNaffinity>
6.8984236717

> <CNN_VS>
0.7070907950

> <CNNaffinity_variance>
1.1753152609

$$$$
/media/chris/experiments/cd1a-new-docking/inputs/ligands/1xz0_ligand.pdb


 65 67  0  0  0  0  0  0  0  0999 V2000
  -42.7550   59.4239   64.1837 C   0  0  0  0  0  0  0  0  0  0  0  0
  -42.6583   58.9944   65.5802 N   0  0  0  0  0  0  0  0  0  0  0  0
  -42.2417   57.5361   67.2751 O   0  0  0  0  0  0  0  0  0  0  0  0
  -42.2791   57.8062   66.0818 C   0  0  0  0  0  0  0  0  0  0  0  0
  -42.9068   59.6738   66.2481 H   0  0  0  0  0  0  0  0  0  0  0  0
  -40.8968   57.3511   64.0663 N   0  0  0  0  0  0  0  0  0  0  0  0
  -42.3541   56.1276   62.8952 O   0  0  0  0  0  0  0  0  0  0  0  0
  -42.7564   55.9372   64.2511 C   0  0  0  0  0  0  0  0  0  0  0  0
  -41.2212   57.0189   62.8907 C   0  0  0  0  0  0  0  0  0  0  0  0
  -41.7554   56.7589   65.1097 C   0  0  0  0  0  0  0  0  0  0  0  0
  -38.3566   57.4146   62.7054 O   0  0  0  0  0  0  0  0  0  0  0  0
  -39.1051   57.5969   61.6108 C   0  0  0  0  0  0  0  0  0  0  0  0
  -38.4913   57.9564   60.4038 C   0  0  0  0  0  0  0  0  0  0  0  0
  -39.2559   58.1627   59.2431 C   0  0  0  0  0  0  0  0  0  0  0  0
  -40.6422   58.0023   59.2739 C   0  0  0  0  0  0  0  0  0  0  0  0
  -41.2586   57.6375   60.4741 C   0  0  0  0  0  0  0  0  0  0  0  0
  -40.4960   57.4384   61.6409 C   0  0  0  0  0  0  0  0  0  0  0  0
  -37.4273   57.5261   62.6613 H   0  0  0  0  0  0  0  0  0  0  0  0
  -41.9655   61.4453   63.1707 O   0  0  0  0  0  0  0  0  0  0  0  0
  -41.8023   60.5941   64.0293 C   0  0  0  0  0  0  0  0  0  0  0  0
  -40.6123   60.6836   64.8820 O   0  0  0  0  0  0  0  0  0  0  0  0
  -39.3990   59.9820   64.5511 C   0  0  0  0  0  0  0  0  0  0  0  0
  -38.5407   59.6020   65.7513 C   0  0  0  0  0  0  0  0  0  0  0  0
  -38.6126   60.8258   63.5591 C   0  0  0  0  0  0  0  0  0  0  0  0
  -36.1692   60.6662   63.5829 N   0  0  0  0  0  0  0  0  0  0  0  0
  -37.2568   62.1750   64.8698 O   0  0  0  0  0  0  0  0  0  0  0  0
  -37.2648   61.2559   64.0832 C   0  0  0  0  0  0  0  0  0  0  0  0
  -36.2981   59.9249   62.9480 H   0  0  0  0  0  0  0  0  0  0  0  0
  -33.4430   59.3951   62.6844 N   0  0  0  0  0  0  0  0  0  0  0  0
  -33.1788   61.5933   62.2799 O   0  0  0  0  0  0  0  0  0  0  0  0
  -34.2316   58.2469   63.1554 C   0  0  0  0  0  0  0  0  0  0  0  0
  -34.1670   58.1342   64.6903 C   0  0  0  0  0  0  0  0  0  0  0  0
  -33.4856   59.2938   65.3979 C   0  0  0  0  0  0  0  0  0  0  0  0
  -34.2702   60.6041   65.2918 C   0  0  0  0  0  0  0  0  0  0  0  0
  -34.7918   61.0479   63.9149 C   0  0  0  0  0  0  0  0  0  0  0  0
  -33.7451   60.6889   62.8785 C   0  0  0  0  0  0  0  0  0  0  0  0
  -31.7502   60.2302   60.6943 Si  0  0  0  0  0  0  0  0  0  0  0  0
  -32.3095   59.1213   61.9801 O   0  0  0  0  0  0  0  0  0  0  0  0
  -30.5561   59.7224   60.1176 H   0  0  0  0  0  0  0  0  0  0  0  0
  -31.4990   61.5121   61.2510 H   0  0  0  0  0  0  0  0  0  0  0  0
  -32.7512   60.3370   59.6929 H   0  0  0  0  0  0  0  0  0  0  0  0
  -45.2852   59.9584   64.6382 C   0  0  0  0  0  0  0  0  0  0  0  0
  -44.1700   59.6974   63.6184 C   0  0  0  0  0  0  0  0  0  0  0  0
  -46.7321   59.7983   64.1418 C   0  0  0  0  0  0  0  0  0  0  0  0
  -47.8657   60.1153   65.1389 C   0  0  0  0  0  0  0  0  0  0  0  0
  -48.6573   58.8972   65.3374 N   0  0  0  0  0  0  0  0  0  0  0  0
  -49.9819   58.7732   65.6168 C   0  0  0  0  0  0  0  0  0  0  0  0
  -47.9180   57.7124   65.2152 O   0  0  0  0  0  0  0  0  0  0  0  0
  -50.5028   57.6667   65.7550 O   0  0  0  0  0  0  0  0  0  0  0  0
  -48.5016   56.9508   65.3579 H   0  0  0  0  0  0  0  0  0  0  0  0
  -50.8329   60.0401   65.7536 C   0  0  0  0  0  0  0  0  0  0  0  0
  -51.1001   60.7722   64.4315 C   0  0  0  0  0  0  0  0  0  0  0  0
  -51.1753   59.7597   63.2724 C   0  0  0  0  0  0  0  0  0  0  0  0
  -50.7605   60.3508   61.9116 C   0  0  0  0  0  0  0  0  0  0  0  0
  -49.4058   59.8470   61.3797 C   0  0  0  0  0  0  0  0  0  0  0  0
  -49.4634   59.4223   59.8973 C   0  0  0  0  0  0  0  0  0  0  0  0
  -50.3613   58.1950   59.6158 C   0  0  0  0  0  0  0  0  0  0  0  0
  -50.0422   56.9887   60.5064 C   0  0  0  0  0  0  0  0  0  0  0  0
  -49.0756   55.9651   59.9022 C   0  0  0  0  0  0  0  0  0  0  0  0
  -47.7163   56.6062   59.5682 C   0  0  0  0  0  0  0  0  0  0  0  0
  -46.9993   55.9587   58.3738 C   0  0  0  0  0  0  0  0  0  0  0  0
  -47.8606   55.7226   57.1288 C   0  0  0  0  0  0  0  0  0  0  0  0
  -48.6752   56.9595   56.6748 C   0  0  0  0  0  0  0  0  0  0  0  0
  -47.8034   57.9469   55.8727 C   0  0  0  0  0  0  0  0  0  0  0  0
  -46.9936   58.9745   56.6724 C   0  0  0  0  0  0  0  0  0  0  0  0
 46 47  1  0  0  0
 46 48  1  0  0  0
 46 45  1  0  0  0
 47 49  2  0  0  0
 47 51  1  0  0  0
 19 20  2  0  0  0
 37 38  1  0  0  0
 37 39  1  0  0  0
 37 40  1  0  0  0
 37 41  1  0  0  0
 48 50  1  0  0  0
 38 29  1  0  0  0
 45 44  1  0  0  0
 25 27  1  0  0  0
 25 35  1  0  0  0
 25 28  1  0  0  0
 21 20  1  0  0  0
 21 22  1  0  0  0
 44 42  1  0  0  0
  2  1  1  0  0  0
  2  4  1  0  0  0
  2  5  1  0  0  0
 26 27  2  0  0  0
 42 43  2  0  0  0
 29 31  1  0  0  0
 29 36  1  0  0  0
  3  4  2  0  0  0
 43  1  1  0  0  0
  6  9  2  0  0  0
  6 10  1  0  0  0
  1 20  1  0  0  0
 30 36  2  0  0  0
  7  8  1  0  0  0
  7  9  1  0  0  0
 22 24  1  0  0  0
 22 23  1  0  0  0
 11 12  1  0  0  0
 11 18  1  0  0  0
 24 27  1  0  0  0
  4 10  1  0  0  0
 51 52  1  0  0  0
 52 53  1  0  0  0
 53 54  1  0  0  0
 54 55  1  0  0  0
 55 56  1  0  0  0
 56 57  1  0  0  0
 57 58  1  0  0  0
 58 59  1  0  0  0
 59 60  1  0  0  0
 60 61  1  0  0  0
 61 62  1  0  0  0
 62 63  1  0  0  0
 63 64  1  0  0  0
 64 65  1  0  0  0
 31 32  1  0  0  0
 32 33  1  0  0  0
 33 34  1  0  0  0
 34 35  1  0  0  0
 35 36  1  0  0  0
  8 10  1  0  0  0
  9 17  1  0  0  0
 12 13  2  0  0  0
 12 17  1  0  0  0
 13 14  1  0  0  0
 14 15  2  0  0  0
 15 16  1  0  0  0
 16 17  2  0  0  0
M  END
> <minimizedAffinity>
-10.12405

> <CNNscore>
0.0949345678

> <CNNaffinity>
7.5268836021

> <CNN_VS>
0.7145614624

> <CNNaffinity_variance>
0.9628523588

$$$$
/media/chris/experiments/cd1a-new-docking/inputs/ligands/1xz0_ligand.pdb


 65 67  0  0  0  0  0  0  0  0999 V2000
  -40.2765   59.6153   64.5744 C   0  0  0  0  0  0  0  0  0  0  0  0
  -39.3275   59.0913   65.5588 N   0  0  0  0  0  0  0  0  0  0  0  0
  -37.2777   58.7530   66.4845 O   0  0  0  0  0  0  0  0  0  0  0  0
  -37.9934   59.2445   65.6216 C   0  0  0  0  0  0  0  0  0  0  0  0
  -39.7237   58.5485   66.2784 H   0  0  0  0  0  0  0  0  0  0  0  0
  -36.0841   60.7609   65.1364 N   0  0  0  0  0  0  0  0  0  0  0  0
  -37.2143   62.5488   64.4166 O   0  0  0  0  0  0  0  0  0  0  0  0
  -38.0919   61.4560   64.1478 C   0  0  0  0  0  0  0  0  0  0  0  0
  -36.0242   62.0193   65.0340 C   0  0  0  0  0  0  0  0  0  0  0  0
  -37.3376   60.1812   64.6174 C   0  0  0  0  0  0  0  0  0  0  0  0
  -36.1478   64.1949   66.9441 O   0  0  0  0  0  0  0  0  0  0  0  0
  -34.9699   63.8944   66.3840 C   0  0  0  0  0  0  0  0  0  0  0  0
  -33.8269   64.6214   66.7420 C   0  0  0  0  0  0  0  0  0  0  0  0
  -32.5807   64.3316   66.1613 C   0  0  0  0  0  0  0  0  0  0  0  0
  -32.4613   63.3049   65.2231 C   0  0  0  0  0  0  0  0  0  0  0  0
  -33.5973   62.5725   64.8673 C   0  0  0  0  0  0  0  0  0  0  0  0
  -34.8492   62.8663   65.4411 C   0  0  0  0  0  0  0  0  0  0  0  0
  -36.2044   64.8872   67.5730 H   0  0  0  0  0  0  0  0  0  0  0  0
  -41.3025   60.9869   66.2482 O   0  0  0  0  0  0  0  0  0  0  0  0
  -41.4520   60.1613   65.3624 C   0  0  0  0  0  0  0  0  0  0  0  0
  -42.8016   59.6448   65.1117 O   0  0  0  0  0  0  0  0  0  0  0  0
  -43.4327   58.7244   66.0219 C   0  0  0  0  0  0  0  0  0  0  0  0
  -42.5136   57.6329   66.5562 C   0  0  0  0  0  0  0  0  0  0  0  0
  -44.6505   58.1277   65.3326 C   0  0  0  0  0  0  0  0  0  0  0  0
  -47.0297   58.6218   65.0294 N   0  0  0  0  0  0  0  0  0  0  0  0
  -45.9633   59.1354   66.9566 O   0  0  0  0  0  0  0  0  0  0  0  0
  -45.9542   58.7049   65.8261 C   0  0  0  0  0  0  0  0  0  0  0  0
  -46.9020   58.2532   64.1255 H   0  0  0  0  0  0  0  0  0  0  0  0
  -49.7471   58.3388   63.4832 N   0  0  0  0  0  0  0  0  0  0  0  0
  -50.2049   57.5458   65.5393 O   0  0  0  0  0  0  0  0  0  0  0  0
  -48.8337   58.9242   62.4908 C   0  0  0  0  0  0  0  0  0  0  0  0
  -48.7158   60.4471   62.6902 C   0  0  0  0  0  0  0  0  0  0  0  0
  -49.3900   60.9921   63.9384 C   0  0  0  0  0  0  0  0  0  0  0  0
  -48.7137   60.5331   65.2329 C   0  0  0  0  0  0  0  0  0  0  0  0
  -48.3832   59.0416   65.4097 C   0  0  0  0  0  0  0  0  0  0  0  0
  -49.5139   58.2352   64.8015 C   0  0  0  0  0  0  0  0  0  0  0  0
  -50.9857   56.8499   61.5409 Si  0  0  0  0  0  0  0  0  0  0  0  0
  -50.9319   57.8493   63.0221 O   0  0  0  0  0  0  0  0  0  0  0  0
  -52.3275   56.4678   61.2762 H   0  0  0  0  0  0  0  0  0  0  0  0
  -50.1902   55.6881   61.7246 H   0  0  0  0  0  0  0  0  0  0  0  0
  -50.4822   57.5999   60.4453 H   0  0  0  0  0  0  0  0  0  0  0  0
  -41.7493   59.2072   62.4394 C   0  0  0  0  0  0  0  0  0  0  0  0
  -40.6895   58.6782   63.4136 C   0  0  0  0  0  0  0  0  0  0  0  0
  -42.4753   58.1664   61.5703 C   0  0  0  0  0  0  0  0  0  0  0  0
  -41.6209   57.0519   60.9321 C   0  0  0  0  0  0  0  0  0  0  0  0
  -40.7175   57.6675   59.9551 N   0  0  0  0  0  0  0  0  0  0  0  0
  -39.3742   57.8605   60.0341 C   0  0  0  0  0  0  0  0  0  0  0  0
  -41.3570   58.1076   58.7877 O   0  0  0  0  0  0  0  0  0  0  0  0
  -38.7529   58.3983   59.1178 O   0  0  0  0  0  0  0  0  0  0  0  0
  -40.7030   58.5019   58.1896 H   0  0  0  0  0  0  0  0  0  0  0  0
  -38.6299   57.3905   61.2883 C   0  0  0  0  0  0  0  0  0  0  0  0
  -37.4312   58.2648   61.6812 C   0  0  0  0  0  0  0  0  0  0  0  0
  -36.5727   57.5414   62.7365 C   0  0  0  0  0  0  0  0  0  0  0  0
  -35.1189   58.0475   62.7987 C   0  0  0  0  0  0  0  0  0  0  0  0
  -34.4522   57.9144   64.1806 C   0  0  0  0  0  0  0  0  0  0  0  0
  -32.9641   58.3228   64.1708 C   0  0  0  0  0  0  0  0  0  0  0  0
  -32.4417   58.8114   62.7997 C   0  0  0  0  0  0  0  0  0  0  0  0
  -31.6815   60.1404   62.8749 C   0  0  0  0  0  0  0  0  0  0  0  0
  -31.6594   60.9574   61.5791 C   0  0  0  0  0  0  0  0  0  0  0  0
  -31.2140   62.4082   61.8381 C   0  0  0  0  0  0  0  0  0  0  0  0
  -32.1863   63.4648   61.2920 C   0  0  0  0  0  0  0  0  0  0  0  0
  -32.1408   64.8316   61.9830 C   0  0  0  0  0  0  0  0  0  0  0  0
  -33.5338   65.4342   62.2931 C   0  0  0  0  0  0  0  0  0  0  0  0
  -34.6006   64.9321   61.2991 C   0  0  0  0  0  0  0  0  0  0  0  0
  -35.8706   64.3093   61.8912 C   0  0  0  0  0  0  0  0  0  0  0  0
 46 47  1  0  0  0
 46 48  1  0  0  0
 46 45  1  0  0  0
 47 49  2  0  0  0
 47 51  1  0  0  0
 19 20  2  0  0  0
 37 38  1  0  0  0
 37 39  1  0  0  0
 37 40  1  0  0  0
 37 41  1  0  0  0
 48 50  1  0  0  0
 38 29  1  0  0  0
 45 44  1  0  0  0
 25 27  1  0  0  0
 25 35  1  0  0  0
 25 28  1  0  0  0
 21 20  1  0  0  0
 21 22  1  0  0  0
 44 42  1  0  0  0
  2  1  1  0  0  0
  2  4  1  0  0  0
  2  5  1  0  0  0
 26 27  2  0  0  0
 42 43  2  0  0  0
 29 31  1  0  0  0
 29 36  1  0  0  0
  3  4  2  0  0  0
 43  1  1  0  0  0
  6  9  2  0  0  0
  6 10  1  0  0  0
  1 20  1  0  0  0
 30 36  2  0  0  0
  7  8  1  0  0  0
  7  9  1  0  0  0
 22 24  1  0  0  0
 22 23  1  0  0  0
 11 12  1  0  0  0
 11 18  1  0  0  0
 24 27  1  0  0  0
  4 10  1  0  0  0
 51 52  1  0  0  0
 52 53  1  0  0  0
 53 54  1  0  0  0
 54 55  1  0  0  0
 55 56  1  0  0  0
 56 57  1  0  0  0
 57 58  1  0  0  0
 58 59  1  0  0  0
 59 60  1  0  0  0
 60 61  1  0  0  0
 61 62  1  0  0  0
 62 63  1  0  0  0
 63 64  1  0  0  0
 64 65  1  0  0  0
 31 32  1  0  0  0
 32 33  1  0  0  0
 33 34  1  0  0  0
 34 35  1  0  0  0
 35 36  1  0  0  0
  8 10  1  0  0  0
  9 17  1  0  0  0
 12 13  2  0  0  0
 12 17  1  0  0  0
 13 14  1  0  0  0
 14 15  2  0  0  0
 15 16  1  0  0  0
 16 17  2  0  0  0
M  END
> <minimizedAffinity>
-8.38404

> <CNNscore>
0.0939826965

> <CNNaffinity>
7.2063279152

> <CNN_VS>
0.6772701144

> <CNNaffinity_variance>
1.3638941050

$$$$
/media/chris/experiments/cd1a-new-docking/inputs/ligands/1xz0_ligand.pdb


 65 67  0  0  0  0  0  0  0  0999 V2000
  -42.8886   57.6493   65.1742 C   0  0  0  0  0  0  0  0  0  0  0  0
  -43.9520   57.1092   66.0237 N   0  0  0  0  0  0  0  0  0  0  0  0
  -45.9238   57.1561   67.1564 O   0  0  0  0  0  0  0  0  0  0  0  0
  -45.0949   57.6888   66.4301 C   0  0  0  0  0  0  0  0  0  0  0  0
  -43.8095   56.1889   66.3432 H   0  0  0  0  0  0  0  0  0  0  0  0
  -46.8914   59.2376   65.6858 N   0  0  0  0  0  0  0  0  0  0  0  0
  -46.0576   59.8335   63.7004 O   0  0  0  0  0  0  0  0  0  0  0  0
  -44.9070   59.4657   64.4604 C   0  0  0  0  0  0  0  0  0  0  0  0
  -47.2181   59.6432   64.5341 C   0  0  0  0  0  0  0  0  0  0  0  0
  -45.4377   59.0588   65.8630 C   0  0  0  0  0  0  0  0  0  0  0  0
  -49.4738   59.9705   66.3233 O   0  0  0  0  0  0  0  0  0  0  0  0
  -49.6684   60.1149   65.0069 C   0  0  0  0  0  0  0  0  0  0  0  0
  -50.9449   60.4349   64.5263 C   0  0  0  0  0  0  0  0  0  0  0  0
  -51.1770   60.5825   63.1484 C   0  0  0  0  0  0  0  0  0  0  0  0
  -50.1328   60.4215   62.2360 C   0  0  0  0  0  0  0  0  0  0  0  0
  -48.8561   60.1086   62.7109 C   0  0  0  0  0  0  0  0  0  0  0  0
  -48.6224   59.9515   64.0905 C   0  0  0  0  0  0  0  0  0  0  0  0
  -50.1890   60.0848   66.9179 H   0  0  0  0  0  0  0  0  0  0  0  0
  -42.1801   55.4059   64.7261 O   0  0  0  0  0  0  0  0  0  0  0  0
  -42.4376   56.5113   64.2785 C   0  0  0  0  0  0  0  0  0  0  0  0
  -42.2361   56.7468   62.8450 O   0  0  0  0  0  0  0  0  0  0  0  0
  -41.3186   55.9465   62.0758 C   0  0  0  0  0  0  0  0  0  0  0  0
  -39.8472   56.2375   62.3439 C   0  0  0  0  0  0  0  0  0  0  0  0
  -41.6523   56.1182   60.6015 C   0  0  0  0  0  0  0  0  0  0  0  0
  -41.3938   58.5487   60.4522 N   0  0  0  0  0  0  0  0  0  0  0  0
  -40.1542   57.1582   59.1696 O   0  0  0  0  0  0  0  0  0  0  0  0
  -41.0235   57.3457   59.9897 C   0  0  0  0  0  0  0  0  0  0  0  0
  -42.1160   58.5794   61.1206 H   0  0  0  0  0  0  0  0  0  0  0  0
  -39.8452   60.7088   62.1227 N   0  0  0  0  0  0  0  0  0  0  0  0
  -38.5168   60.3405   60.3435 O   0  0  0  0  0  0  0  0  0  0  0  0
  -41.0653   60.4629   62.9053 C   0  0  0  0  0  0  0  0  0  0  0  0
  -42.2502   61.2641   62.3335 C   0  0  0  0  0  0  0  0  0  0  0  0
  -41.9794   61.9719   61.0163 C   0  0  0  0  0  0  0  0  0  0  0  0
  -41.7659   61.0041   59.8494 C   0  0  0  0  0  0  0  0  0  0  0  0
  -40.7987   59.8225   60.0322 C   0  0  0  0  0  0  0  0  0  0  0  0
  -39.6241   60.3016   60.8624 C   0  0  0  0  0  0  0  0  0  0  0  0
  -37.2553   61.5939   61.9412 Si  0  0  0  0  0  0  0  0  0  0  0  0
  -38.8459   61.4038   62.7347 O   0  0  0  0  0  0  0  0  0  0  0  0
  -36.3961   62.3530   62.7790 H   0  0  0  0  0  0  0  0  0  0  0  0
  -37.4221   62.2657   60.7014 H   0  0  0  0  0  0  0  0  0  0  0  0
  -36.6842   60.3140   61.7130 H   0  0  0  0  0  0  0  0  0  0  0  0
  -40.4574   58.6321   65.0428 C   0  0  0  0  0  0  0  0  0  0  0  0
  -41.7219   58.3868   65.8750 C   0  0  0  0  0  0  0  0  0  0  0  0
  -39.1676   58.9533   65.8168 C   0  0  0  0  0  0  0  0  0  0  0  0
  -37.8266   58.5884   65.1475 C   0  0  0  0  0  0  0  0  0  0  0  0
  -37.0170   59.8066   65.0457 N   0  0  0  0  0  0  0  0  0  0  0  0
  -35.6845   59.9315   64.8079 C   0  0  0  0  0  0  0  0  0  0  0  0
  -37.7468   60.9906   65.2217 O   0  0  0  0  0  0  0  0  0  0  0  0
  -35.1486   61.0380   64.7509 O   0  0  0  0  0  0  0  0  0  0  0  0
  -37.1516   61.7523   65.1419 H   0  0  0  0  0  0  0  0  0  0  0  0
  -34.8458   58.6657   64.6026 C   0  0  0  0  0  0  0  0  0  0  0  0
  -33.3363   58.8650   64.7958 C   0  0  0  0  0  0  0  0  0  0  0  0
  -32.5864   58.5153   63.4960 C   0  0  0  0  0  0  0  0  0  0  0  0
  -32.7878   59.5498   62.3723 C   0  0  0  0  0  0  0  0  0  0  0  0
  -31.4834   60.0967   61.7629 C   0  0  0  0  0  0  0  0  0  0  0  0
  -31.2741   61.5997   62.0433 C   0  0  0  0  0  0  0  0  0  0  0  0
  -31.8779   62.0936   63.3786 C   0  0  0  0  0  0  0  0  0  0  0  0
  -31.2203   63.3727   63.9093 C   0  0  0  0  0  0  0  0  0  0  0  0
  -31.9059   64.6804   63.5006 C   0  0  0  0  0  0  0  0  0  0  0  0
  -32.1973   65.5675   64.7248 C   0  0  0  0  0  0  0  0  0  0  0  0
  -32.0502   64.8400   66.0698 C   0  0  0  0  0  0  0  0  0  0  0  0
  -33.1918   63.8874   66.4397 C   0  0  0  0  0  0  0  0  0  0  0  0
  -34.5535   64.2454   65.7940 C   0  0  0  0  0  0  0  0  0  0  0  0
  -35.7163   64.0661   66.7911 C   0  0  0  0  0  0  0  0  0  0  0  0
  -35.8696   62.6885   67.4467 C   0  0  0  0  0  0  0  0  0  0  0  0
 46 47  1  0  0  0
 46 48  1  0  0  0
 46 45  1  0  0  0
 47 49  2  0  0  0
 47 51  1  0  0  0
 19 20  2  0  0  0
 37 38  1  0  0  0
 37 39  1  0  0  0
 37 40  1  0  0  0
 37 41  1  0  0  0
 48 50  1  0  0  0
 38 29  1  0  0  0
 45 44  1  0  0  0
 25 27  1  0  0  0
 25 35  1  0  0  0
 25 28  1  0  0  0
 21 20  1  0  0  0
 21 22  1  0  0  0
 44 42  1  0  0  0
  2  1  1  0  0  0
  2  4  1  0  0  0
  2  5  1  0  0  0
 26 27  2  0  0  0
 42 43  2  0  0  0
 29 31  1  0  0  0
 29 36  1  0  0  0
  3  4  2  0  0  0
 43  1  1  0  0  0
  6  9  2  0  0  0
  6 10  1  0  0  0
  1 20  1  0  0  0
 30 36  2  0  0  0
  7  8  1  0  0  0
  7  9  1  0  0  0
 22 24  1  0  0  0
 22 23  1  0  0  0
 11 12  1  0  0  0
 11 18  1  0  0  0
 24 27  1  0  0  0
  4 10  1  0  0  0
 51 52  1  0  0  0
 52 53  1  0  0  0
 53 54  1  0  0  0
 54 55  1  0  0  0
 55 56  1  0  0  0
 56 57  1  0  0  0
 57 58  1  0  0  0
 58 59  1  0  0  0
 59 60  1  0  0  0
 60 61  1  0  0  0
 61 62  1  0  0  0
 62 63  1  0  0  0
 63 64  1  0  0  0
 64 65  1  0  0  0
 31 32  1  0  0  0
 32 33  1  0  0  0
 33 34  1  0  0  0
 34 35  1  0  0  0
 35 36  1  0  0  0
  8 10  1  0  0  0
  9 17  1  0  0  0
 12 13  2  0  0  0
 12 17  1  0  0  0
 13 14  1  0  0  0
 14 15  2  0  0  0
 15 16  1  0  0  0
 16 17  2  0  0  0
M  END
> <minimizedAffinity>
-9.02476

> <CNNscore>
0.0891253948

> <CNNaffinity>
7.5162229538

> <CNN_VS>
0.6698863506

> <CNNaffinity_variance>
1.1613575220

$$$$
