/media/chris/experiments/cd1a-new-docking/inputs/ligands/1xz0_ligand.pdb


 65 67  0  0  0  0  0  0  0  0999 V2000
  -42.2340   59.3026   64.9524 C   0  0  0  0  0  0  0  0  0  0  0  0
  -40.9099   59.3958   65.5705 N   0  0  0  0  0  0  0  0  0  0  0  0
  -39.6753   60.4544   63.9806 O   0  0  0  0  0  0  0  0  0  0  0  0
  -39.7776   59.9314   65.0825 C   0  0  0  0  0  0  0  0  0  0  0  0
  -40.8387   59.0106   66.4738 H   0  0  0  0  0  0  0  0  0  0  0  0
  -37.7157   61.0267   65.9363 N   0  0  0  0  0  0  0  0  0  0  0  0
  -36.2139   59.4786   65.3530 O   0  0  0  0  0  0  0  0  0  0  0  0
  -37.4312   58.7452   65.4830 C   0  0  0  0  0  0  0  0  0  0  0  0
  -36.4991   60.8632   65.6351 C   0  0  0  0  0  0  0  0  0  0  0  0
  -38.5077   59.7824   65.9078 C   0  0  0  0  0  0  0  0  0  0  0  0
  -36.0111   62.6955   67.8264 O   0  0  0  0  0  0  0  0  0  0  0  0
  -35.2569   62.7918   66.7248 C   0  0  0  0  0  0  0  0  0  0  0  0
  -34.2443   63.7580   66.6608 C   0  0  0  0  0  0  0  0  0  0  0  0
  -33.4453   63.8856   65.5122 C   0  0  0  0  0  0  0  0  0  0  0  0
  -33.6431   63.0417   64.4180 C   0  0  0  0  0  0  0  0  0  0  0  0
  -34.6477   62.0719   64.4793 C   0  0  0  0  0  0  0  0  0  0  0  0
  -35.4559   61.9475   65.6256 C   0  0  0  0  0  0  0  0  0  0  0  0
  -35.8597   63.2714   68.5498 H   0  0  0  0  0  0  0  0  0  0  0  0
  -43.1804   59.9790   67.0457 O   0  0  0  0  0  0  0  0  0  0  0  0
  -43.2327   59.2209   66.0912 C   0  0  0  0  0  0  0  0  0  0  0  0
  -44.2525   58.1669   66.0934 O   0  0  0  0  0  0  0  0  0  0  0  0
  -45.6565   58.4829   66.1434 C   0  0  0  0  0  0  0  0  0  0  0  0
  -46.4840   57.5503   67.0192 C   0  0  0  0  0  0  0  0  0  0  0  0
  -46.1912   58.5169   64.7196 C   0  0  0  0  0  0  0  0  0  0  0  0
  -47.9281   60.2231   64.4573 N   0  0  0  0  0  0  0  0  0  0  0  0
  -45.7798   60.6414   63.8866 O   0  0  0  0  0  0  0  0  0  0  0  0
  -46.6401   59.8909   64.2867 C   0  0  0  0  0  0  0  0  0  0  0  0
  -48.1972   61.1426   64.2311 H   0  0  0  0  0  0  0  0  0  0  0  0
  -50.4586   59.0496   63.0172 N   0  0  0  0  0  0  0  0  0  0  0  0
  -49.4664   57.2474   63.9297 O   0  0  0  0  0  0  0  0  0  0  0  0
  -50.5359   60.4934   62.7499 C   0  0  0  0  0  0  0  0  0  0  0  0
  -51.1467   61.2383   63.9518 C   0  0  0  0  0  0  0  0  0  0  0  0
  -51.3638   60.3936   65.1965 C   0  0  0  0  0  0  0  0  0  0  0  0
  -50.0547   59.9356   65.8449 C   0  0  0  0  0  0  0  0  0  0  0  0
  -48.9645   59.3125   64.9572 C   0  0  0  0  0  0  0  0  0  0  0  0
  -49.6463   58.4573   63.9072 C   0  0  0  0  0  0  0  0  0  0  0  0
  -50.6983   56.6541   61.7028 Si  0  0  0  0  0  0  0  0  0  0  0  0
  -51.2779   58.2400   62.2897 O   0  0  0  0  0  0  0  0  0  0  0  0
  -51.7350   56.0104   60.9765 H   0  0  0  0  0  0  0  0  0  0  0  0
  -50.3247   55.8473   62.8100 H   0  0  0  0  0  0  0  0  0  0  0  0
  -49.5747   56.8447   60.8556 H   0  0  0  0  0  0  0  0  0  0  0  0
  -41.6128   56.9328   64.0074 C   0  0  0  0  0  0  0  0  0  0  0  0
  -42.4397   58.2170   63.8681 C   0  0  0  0  0  0  0  0  0  0  0  0
  -41.4721   56.0574   62.7507 C   0  0  0  0  0  0  0  0  0  0  0  0
  -41.4113   56.7750   61.3867 C   0  0  0  0  0  0  0  0  0  0  0  0
  -40.0344   57.2285   61.1666 N   0  0  0  0  0  0  0  0  0  0  0  0
  -39.5930   58.3596   60.5557 C   0  0  0  0  0  0  0  0  0  0  0  0
  -39.0606   56.3531   61.6676 O   0  0  0  0  0  0  0  0  0  0  0  0
  -40.3822   59.1869   60.0998 O   0  0  0  0  0  0  0  0  0  0  0  0
  -38.1783   56.7139   61.4881 H   0  0  0  0  0  0  0  0  0  0  0  0
  -38.0840   58.5958   60.4327 C   0  0  0  0  0  0  0  0  0  0  0  0
  -37.4330   59.2095   61.6797 C   0  0  0  0  0  0  0  0  0  0  0  0
  -36.4181   58.2217   62.2866 C   0  0  0  0  0  0  0  0  0  0  0  0
  -35.0159   58.8269   62.4883 C   0  0  0  0  0  0  0  0  0  0  0  0
  -34.0486   57.9473   63.3024 C   0  0  0  0  0  0  0  0  0  0  0  0
  -32.6194   57.9298   62.7210 C   0  0  0  0  0  0  0  0  0  0  0  0
  -31.7774   59.1845   63.0501 C   0  0  0  0  0  0  0  0  0  0  0  0
  -31.8130   60.2493   61.9477 C   0  0  0  0  0  0  0  0  0  0  0  0
  -31.3005   61.6338   62.3566 C   0  0  0  0  0  0  0  0  0  0  0  0
  -31.3244   62.6140   61.1696 C   0  0  0  0  0  0  0  0  0  0  0  0
  -31.3153   64.0934   61.5835 C   0  0  0  0  0  0  0  0  0  0  0  0
  -32.5175   64.9220   61.1190 C   0  0  0  0  0  0  0  0  0  0  0  0
  -33.8456   64.1282   61.0426 C   0  0  0  0  0  0  0  0  0  0  0  0
  -35.0687   65.0627   61.1367 C   0  0  0  0  0  0  0  0  0  0  0  0
  -36.0115   64.8633   62.3295 C   0  0  0  0  0  0  0  0  0  0  0  0
 46 47  1  0  0  0
 46 48  1  0  0  0
 46 45  1  0  0  0
 47 49  2  0  0  0
 47 51  1  0  0  0
 19 20  2  0  0  0
 37 38  1  0  0  0
 37 39  1  0  0  0
 37 40  1  0  0  0
 37 41  1  0  0  0
 48 50  1  0  0  0
 38 29  1  0  0  0
 45 44  1  0  0  0
 25 27  1  0  0  0
 25 35  1  0  0  0
 25 28  1  0  0  0
 21 20  1  0  0  0
 21 22  1  0  0  0
 44 42  1  0  0  0
  2  1  1  0  0  0
  2  4  1  0  0  0
  2  5  1  0  0  0
 26 27  2  0  0  0
 42 43  2  0  0  0
 29 31  1  0  0  0
 29 36  1  0  0  0
  3  4  2  0  0  0
 43  1  1  0  0  0
  6  9  2  0  0  0
  6 10  1  0  0  0
  1 20  1  0  0  0
 30 36  2  0  0  0
  7  8  1  0  0  0
  7  9  1  0  0  0
 22 24  1  0  0  0
 22 23  1  0  0  0
 11 12  1  0  0  0
 11 18  1  0  0  0
 24 27  1  0  0  0
  4 10  1  0  0  0
 51 52  1  0  0  0
 52 53  1  0  0  0
 53 54  1  0  0  0
 54 55  1  0  0  0
 55 56  1  0  0  0
 56 57  1  0  0  0
 57 58  1  0  0  0
 58 59  1  0  0  0
 59 60  1  0  0  0
 60 61  1  0  0  0
 61 62  1  0  0  0
 62 63  1  0  0  0
 63 64  1  0  0  0
 64 65  1  0  0  0
 31 32  1  0  0  0
 32 33  1  0  0  0
 33 34  1  0  0  0
 34 35  1  0  0  0
 35 36  1  0  0  0
  8 10  1  0  0  0
  9 17  1  0  0  0
 12 13  2  0  0  0
 12 17  1  0  0  0
 13 14  1  0  0  0
 14 15  2  0  0  0
 15 16  1  0  0  0
 16 17  2  0  0  0
M  END
> <minimizedAffinity>
-9.00206

> <CNNscore>
0.2320616692

> <CNNaffinity>
7.5498938560

> <CNN_VS>
1.7520409822

> <CNNaffinity_variance>
1.1150958538

$$$$
/media/chris/experiments/cd1a-new-docking/inputs/ligands/1xz0_ligand.pdb


 65 67  0  0  0  0  0  0  0  0999 V2000
  -42.1343   59.3538   63.5175 C   0  0  0  0  0  0  0  0  0  0  0  0
  -41.0365   59.4467   64.4820 N   0  0  0  0  0  0  0  0  0  0  0  0
  -39.5247   60.7670   63.4124 O   0  0  0  0  0  0  0  0  0  0  0  0
  -39.8685   60.1050   64.3828 C   0  0  0  0  0  0  0  0  0  0  0  0
  -41.1734   58.9562   65.3247 H   0  0  0  0  0  0  0  0  0  0  0  0
  -37.8949   61.0465   65.5654 N   0  0  0  0  0  0  0  0  0  0  0  0
  -36.5791   59.2409   65.5705 O   0  0  0  0  0  0  0  0  0  0  0  0
  -37.8992   58.7043   65.4930 C   0  0  0  0  0  0  0  0  0  0  0  0
  -36.6862   60.6783   65.5938 C   0  0  0  0  0  0  0  0  0  0  0  0
  -38.8559   59.9288   65.5051 C   0  0  0  0  0  0  0  0  0  0  0  0
  -36.2816   62.5979   67.7265 O   0  0  0  0  0  0  0  0  0  0  0  0
  -35.3551   62.4961   66.7658 C   0  0  0  0  0  0  0  0  0  0  0  0
  -34.2101   63.3016   66.8196 C   0  0  0  0  0  0  0  0  0  0  0  0
  -33.2275   63.2205   65.8185 C   0  0  0  0  0  0  0  0  0  0  0  0
  -33.3740   62.3254   64.7573 C   0  0  0  0  0  0  0  0  0  0  0  0
  -34.5115   61.5150   64.7025 C   0  0  0  0  0  0  0  0  0  0  0  0
  -35.5020   61.6005   65.6995 C   0  0  0  0  0  0  0  0  0  0  0  0
  -36.1619   63.2045   68.4305 H   0  0  0  0  0  0  0  0  0  0  0  0
  -42.2349   56.9615   63.4758 O   0  0  0  0  0  0  0  0  0  0  0  0
  -42.7961   58.0092   63.7513 C   0  0  0  0  0  0  0  0  0  0  0  0
  -44.1712   57.9509   64.2581 O   0  0  0  0  0  0  0  0  0  0  0  0
  -44.4593   58.0973   65.6614 C   0  0  0  0  0  0  0  0  0  0  0  0
  -43.4713   57.3974   66.5863 C   0  0  0  0  0  0  0  0  0  0  0  0
  -45.8807   57.6165   65.9117 C   0  0  0  0  0  0  0  0  0  0  0  0
  -47.9660   58.8886   66.0839 N   0  0  0  0  0  0  0  0  0  0  0  0
  -46.3106   59.1422   67.6040 O   0  0  0  0  0  0  0  0  0  0  0  0
  -46.7465   58.6504   66.5884 C   0  0  0  0  0  0  0  0  0  0  0  0
  -48.5471   59.5177   66.5694 H   0  0  0  0  0  0  0  0  0  0  0  0
  -48.9283   60.2204   63.4090 N   0  0  0  0  0  0  0  0  0  0  0  0
  -47.5181   58.6012   62.7348 O   0  0  0  0  0  0  0  0  0  0  0  0
  -49.6345   60.9748   64.4551 C   0  0  0  0  0  0  0  0  0  0  0  0
  -50.8890   60.2133   64.9233 C   0  0  0  0  0  0  0  0  0  0  0  0
  -51.0378   58.8057   64.3700 C   0  0  0  0  0  0  0  0  0  0  0  0
  -49.9695   57.8414   64.8922 C   0  0  0  0  0  0  0  0  0  0  0  0
  -48.4952   58.2776   64.8592 C   0  0  0  0  0  0  0  0  0  0  0  0
  -48.2672   59.0650   63.5836 C   0  0  0  0  0  0  0  0  0  0  0  0
  -50.4034   60.6385   61.1346 Si  0  0  0  0  0  0  0  0  0  0  0  0
  -48.9378   60.7464   62.1523 O   0  0  0  0  0  0  0  0  0  0  0  0
  -50.1557   61.2574   59.8808 H   0  0  0  0  0  0  0  0  0  0  0  0
  -51.4801   61.2987   61.7838 H   0  0  0  0  0  0  0  0  0  0  0  0
  -50.7388   59.2738   60.9308 H   0  0  0  0  0  0  0  0  0  0  0  0
  -41.9051   58.4456   61.0645 C   0  0  0  0  0  0  0  0  0  0  0  0
  -41.8026   59.6318   62.0312 C   0  0  0  0  0  0  0  0  0  0  0  0
  -41.1792   58.5839   59.7156 C   0  0  0  0  0  0  0  0  0  0  0  0
  -39.9400   57.6961   59.4801 C   0  0  0  0  0  0  0  0  0  0  0  0
  -38.7949   58.3167   60.1536 N   0  0  0  0  0  0  0  0  0  0  0  0
  -38.2780   58.0516   61.3825 C   0  0  0  0  0  0  0  0  0  0  0  0
  -38.1664   59.3180   59.4001 O   0  0  0  0  0  0  0  0  0  0  0  0
  -38.7625   57.1788   62.1026 O   0  0  0  0  0  0  0  0  0  0  0  0
  -37.4220   59.6826   59.9039 H   0  0  0  0  0  0  0  0  0  0  0  0
  -37.0747   58.8641   61.8721 C   0  0  0  0  0  0  0  0  0  0  0  0
  -36.0068   58.0399   62.6041 C   0  0  0  0  0  0  0  0  0  0  0  0
  -34.6603   58.7889   62.5913 C   0  0  0  0  0  0  0  0  0  0  0  0
  -33.6166   58.1944   63.5559 C   0  0  0  0  0  0  0  0  0  0  0  0
  -32.1820   58.1453   62.9978 C   0  0  0  0  0  0  0  0  0  0  0  0
  -31.4386   59.4907   63.1341 C   0  0  0  0  0  0  0  0  0  0  0  0
  -31.3244   60.2968   61.8192 C   0  0  0  0  0  0  0  0  0  0  0  0
  -31.1001   61.7970   62.0412 C   0  0  0  0  0  0  0  0  0  0  0  0
  -32.0783   62.7215   61.3096 C   0  0  0  0  0  0  0  0  0  0  0  0
  -31.3540   63.9366   60.7018 C   0  0  0  0  0  0  0  0  0  0  0  0
  -32.1953   65.2219   60.6916 C   0  0  0  0  0  0  0  0  0  0  0  0
  -32.9571   65.5291   61.9850 C   0  0  0  0  0  0  0  0  0  0  0  0
  -34.4946   65.6094   61.8139 C   0  0  0  0  0  0  0  0  0  0  0  0
  -35.2271   64.7874   62.8936 C   0  0  0  0  0  0  0  0  0  0  0  0
  -36.1780   63.6861   62.4096 C   0  0  0  0  0  0  0  0  0  0  0  0
 46 47  1  0  0  0
 46 48  1  0  0  0
 46 45  1  0  0  0
 47 49  2  0  0  0
 47 51  1  0  0  0
 19 20  2  0  0  0
 37 38  1  0  0  0
 37 39  1  0  0  0
 37 40  1  0  0  0
 37 41  1  0  0  0
 48 50  1  0  0  0
 38 29  1  0  0  0
 45 44  1  0  0  0
 25 27  1  0  0  0
 25 35  1  0  0  0
 25 28  1  0  0  0
 21 20  1  0  0  0
 21 22  1  0  0  0
 44 42  1  0  0  0
  2  1  1  0  0  0
  2  4  1  0  0  0
  2  5  1  0  0  0
 26 27  2  0  0  0
 42 43  2  0  0  0
 29 31  1  0  0  0
 29 36  1  0  0  0
  3  4  2  0  0  0
 43  1  1  0  0  0
  6  9  2  0  0  0
  6 10  1  0  0  0
  1 20  1  0  0  0
 30 36  2  0  0  0
  7  8  1  0  0  0
  7  9  1  0  0  0
 22 24  1  0  0  0
 22 23  1  0  0  0
 11 12  1  0  0  0
 11 18  1  0  0  0
 24 27  1  0  0  0
  4 10  1  0  0  0
 51 52  1  0  0  0
 52 53  1  0  0  0
 53 54  1  0  0  0
 54 55  1  0  0  0
 55 56  1  0  0  0
 56 57  1  0  0  0
 57 58  1  0  0  0
 58 59  1  0  0  0
 59 60  1  0  0  0
 60 61  1  0  0  0
 61 62  1  0  0  0
 62 63  1  0  0  0
 63 64  1  0  0  0
 64 65  1  0  0  0
 31 32  1  0  0  0
 32 33  1  0  0  0
 33 34  1  0  0  0
 34 35  1  0  0  0
 35 36  1  0  0  0
  8 10  1  0  0  0
  9 17  1  0  0  0
 12 13  2  0  0  0
 12 17  1  0  0  0
 13 14  1  0  0  0
 14 15  2  0  0  0
 15 16  1  0  0  0
 16 17  2  0  0  0
M  END
> <minimizedAffinity>
-8.92788

> <CNNscore>
0.2229638994

> <CNNaffinity>
7.4381532669

> <CNN_VS>
1.6584396362

> <CNNaffinity_variance>
1.4838550091

$$$$
/media/chris/experiments/cd1a-new-docking/inputs/ligands/1xz0_ligand.pdb


 65 67  0  0  0  0  0  0  0  0999 V2000
  -40.1412   58.6143   64.0775 C   0  0  0  0  0  0  0  0  0  0  0  0
  -39.3764   59.7407   64.6164 N   0  0  0  0  0  0  0  0  0  0  0  0
  -37.7302   58.7193   65.8080 O   0  0  0  0  0  0  0  0  0  0  0  0
  -38.2846   59.7317   65.4007 C   0  0  0  0  0  0  0  0  0  0  0  0
  -39.7099   60.6333   64.3688 H   0  0  0  0  0  0  0  0  0  0  0  0
  -37.4308   61.9893   64.8055 N   0  0  0  0  0  0  0  0  0  0  0  0
  -35.5934   62.0295   66.0761 O   0  0  0  0  0  0  0  0  0  0  0  0
  -36.4579   61.1157   66.7501 C   0  0  0  0  0  0  0  0  0  0  0  0
  -36.2751   62.4935   64.8937 C   0  0  0  0  0  0  0  0  0  0  0  0
  -37.7635   61.0683   65.9088 C   0  0  0  0  0  0  0  0  0  0  0  0
  -33.9329   64.1132   65.4299 O   0  0  0  0  0  0  0  0  0  0  0  0
  -34.5454   64.2366   64.2461 C   0  0  0  0  0  0  0  0  0  0  0  0
  -34.0359   65.1272   63.2921 C   0  0  0  0  0  0  0  0  0  0  0  0
  -34.6659   65.2820   62.0458 C   0  0  0  0  0  0  0  0  0  0  0  0
  -35.8072   64.5404   61.7354 C   0  0  0  0  0  0  0  0  0  0  0  0
  -36.3157   63.6458   62.6813 C   0  0  0  0  0  0  0  0  0  0  0  0
  -35.6915   63.4951   63.9345 C   0  0  0  0  0  0  0  0  0  0  0  0
  -33.1671   64.6198   65.6163 H   0  0  0  0  0  0  0  0  0  0  0  0
  -41.2877   59.8856   62.4028 O   0  0  0  0  0  0  0  0  0  0  0  0
  -40.5022   58.9859   62.6519 C   0  0  0  0  0  0  0  0  0  0  0  0
  -39.9539   58.2103   61.5343 O   0  0  0  0  0  0  0  0  0  0  0  0
  -38.9739   58.7726   60.6416 C   0  0  0  0  0  0  0  0  0  0  0  0
  -38.9709   58.1672   59.2433 C   0  0  0  0  0  0  0  0  0  0  0  0
  -37.6053   58.6523   61.2948 C   0  0  0  0  0  0  0  0  0  0  0  0
  -35.9821   59.9230   62.6164 N   0  0  0  0  0  0  0  0  0  0  0  0
  -37.8239   60.9142   61.7556 O   0  0  0  0  0  0  0  0  0  0  0  0
  -37.1454   59.9316   61.9492 C   0  0  0  0  0  0  0  0  0  0  0  0
  -35.6599   60.7771   62.9851 H   0  0  0  0  0  0  0  0  0  0  0  0
  -33.6762   59.4092   64.6836 N   0  0  0  0  0  0  0  0  0  0  0  0
  -35.0240   57.6217   64.9154 O   0  0  0  0  0  0  0  0  0  0  0  0
  -33.3158   60.6919   64.0616 C   0  0  0  0  0  0  0  0  0  0  0  0
  -32.6140   60.4638   62.7096 C   0  0  0  0  0  0  0  0  0  0  0  0
  -32.6034   59.0255   62.2185 C   0  0  0  0  0  0  0  0  0  0  0  0
  -33.9965   58.5088   61.8498 C   0  0  0  0  0  0  0  0  0  0  0  0
  -35.1558   58.7304   62.8356 C   0  0  0  0  0  0  0  0  0  0  0  0
  -34.6156   58.5577   64.2417 C   0  0  0  0  0  0  0  0  0  0  0  0
  -33.0775   57.3821   66.4318 Si  0  0  0  0  0  0  0  0  0  0  0  0
  -33.0031   59.0582   65.8148 O   0  0  0  0  0  0  0  0  0  0  0  0
  -32.2967   57.2774   67.6132 H   0  0  0  0  0  0  0  0  0  0  0  0
  -32.5694   56.4927   65.4483 H   0  0  0  0  0  0  0  0  0  0  0  0
  -34.4255   57.0446   66.7239 H   0  0  0  0  0  0  0  0  0  0  0  0
  -41.8689   56.7027   64.5826 C   0  0  0  0  0  0  0  0  0  0  0  0
  -41.3435   58.1060   64.9095 C   0  0  0  0  0  0  0  0  0  0  0  0
  -43.2874   56.3611   65.0691 C   0  0  0  0  0  0  0  0  0  0  0  0
  -43.9164   57.2843   66.1328 C   0  0  0  0  0  0  0  0  0  0  0  0
  -45.2216   57.7333   65.6381 N   0  0  0  0  0  0  0  0  0  0  0  0
  -45.5118   58.7670   64.8046 C   0  0  0  0  0  0  0  0  0  0  0  0
  -46.3004   56.9702   66.1068 O   0  0  0  0  0  0  0  0  0  0  0  0
  -44.6220   59.4782   64.3381 O   0  0  0  0  0  0  0  0  0  0  0  0
  -47.1276   57.3214   65.7418 H   0  0  0  0  0  0  0  0  0  0  0  0
  -46.9763   59.0463   64.4510 C   0  0  0  0  0  0  0  0  0  0  0  0
  -47.6088   60.2059   65.2326 C   0  0  0  0  0  0  0  0  0  0  0  0
  -48.8308   59.7043   66.0258 C   0  0  0  0  0  0  0  0  0  0  0  0
  -49.5131   58.4766   65.3931 C   0  0  0  0  0  0  0  0  0  0  0  0
  -50.9177   58.7466   64.8220 C   0  0  0  0  0  0  0  0  0  0  0  0
  -51.3165   60.2358   64.8883 C   0  0  0  0  0  0  0  0  0  0  0  0
  -51.3633   60.9492   63.5170 C   0  0  0  0  0  0  0  0  0  0  0  0
  -51.0513   60.0223   62.3364 C   0  0  0  0  0  0  0  0  0  0  0  0
  -49.6767   60.2232   61.6905 C   0  0  0  0  0  0  0  0  0  0  0  0
  -48.9831   58.8761   61.4168 C   0  0  0  0  0  0  0  0  0  0  0  0
  -49.9399   57.6744   61.4047 C   0  0  0  0  0  0  0  0  0  0  0  0
  -49.8413   56.7573   60.1812 C   0  0  0  0  0  0  0  0  0  0  0  0
  -48.3964   56.3298   59.8217 C   0  0  0  0  0  0  0  0  0  0  0  0
  -48.0625   56.6481   58.3502 C   0  0  0  0  0  0  0  0  0  0  0  0
  -47.8514   58.1220   57.9836 C   0  0  0  0  0  0  0  0  0  0  0  0
 46 47  1  0  0  0
 46 48  1  0  0  0
 46 45  1  0  0  0
 47 49  2  0  0  0
 47 51  1  0  0  0
 19 20  2  0  0  0
 37 38  1  0  0  0
 37 39  1  0  0  0
 37 40  1  0  0  0
 37 41  1  0  0  0
 48 50  1  0  0  0
 38 29  1  0  0  0
 45 44  1  0  0  0
 25 27  1  0  0  0
 25 35  1  0  0  0
 25 28  1  0  0  0
 21 20  1  0  0  0
 21 22  1  0  0  0
 44 42  1  0  0  0
  2  1  1  0  0  0
  2  4  1  0  0  0
  2  5  1  0  0  0
 26 27  2  0  0  0
 42 43  2  0  0  0
 29 31  1  0  0  0
 29 36  1  0  0  0
  3  4  2  0  0  0
 43  1  1  0  0  0
  6  9  2  0  0  0
  6 10  1  0  0  0
  1 20  1  0  0  0
 30 36  2  0  0  0
  7  8  1  0  0  0
  7  9  1  0  0  0
 22 24  1  0  0  0
 22 23  1  0  0  0
 11 12  1  0  0  0
 11 18  1  0  0  0
 24 27  1  0  0  0
  4 10  1  0  0  0
 51 52  1  0  0  0
 52 53  1  0  0  0
 53 54  1  0  0  0
 54 55  1  0  0  0
 55 56  1  0  0  0
 56 57  1  0  0  0
 57 58  1  0  0  0
 58 59  1  0  0  0
 59 60  1  0  0  0
 60 61  1  0  0  0
 61 62  1  0  0  0
 62 63  1  0  0  0
 63 64  1  0  0  0
 64 65  1  0  0  0
 31 32  1  0  0  0
 32 33  1  0  0  0
 33 34  1  0  0  0
 34 35  1  0  0  0
 35 36  1  0  0  0
  8 10  1  0  0  0
  9 17  1  0  0  0
 12 13  2  0  0  0
 12 17  1  0  0  0
 13 14  1  0  0  0
 14 15  2  0  0  0
 15 16  1  0  0  0
 16 17  2  0  0  0
M  END
> <minimizedAffinity>
-9.11937

> <CNNscore>
0.1890393943

> <CNNaffinity>
7.3803648949

> <CNN_VS>
1.3951797485

> <CNNaffinity_variance>
0.7039007545

$$$$
/media/chris/experiments/cd1a-new-docking/inputs/ligands/1xz0_ligand.pdb


 65 67  0  0  0  0  0  0  0  0999 V2000
  -41.1904   60.0745   65.8798 C   0  0  0  0  0  0  0  0  0  0  0  0
  -41.5662   60.2366   64.4739 N   0  0  0  0  0  0  0  0  0  0  0  0
  -43.8367   60.3392   64.5589 O   0  0  0  0  0  0  0  0  0  0  0  0
  -42.7887   60.3524   63.9267 C   0  0  0  0  0  0  0  0  0  0  0  0
  -40.8154   60.2649   63.8377 H   0  0  0  0  0  0  0  0  0  0  0  0
  -41.8635   59.5483   61.7640 N   0  0  0  0  0  0  0  0  0  0  0  0
  -41.6462   61.5070   60.7112 O   0  0  0  0  0  0  0  0  0  0  0  0
  -42.6862   61.7400   61.6603 C   0  0  0  0  0  0  0  0  0  0  0  0
  -41.2019   60.1445   60.8672 C   0  0  0  0  0  0  0  0  0  0  0  0
  -42.8869   60.3930   62.4086 C   0  0  0  0  0  0  0  0  0  0  0  0
  -38.3906   60.8359   60.9930 O   0  0  0  0  0  0  0  0  0  0  0  0
  -38.7828   59.8819   60.1399 C   0  0  0  0  0  0  0  0  0  0  0  0
  -37.8314   59.2311   59.3435 C   0  0  0  0  0  0  0  0  0  0  0  0
  -38.2187   58.2331   58.4334 C   0  0  0  0  0  0  0  0  0  0  0  0
  -39.5609   57.8674   58.3166 C   0  0  0  0  0  0  0  0  0  0  0  0
  -40.5130   58.5092   59.1135 C   0  0  0  0  0  0  0  0  0  0  0  0
  -40.1290   59.5159   60.0200 C   0  0  0  0  0  0  0  0  0  0  0  0
  -37.4841   61.0642   61.0562 H   0  0  0  0  0  0  0  0  0  0  0  0
  -38.8696   60.4080   66.3680 O   0  0  0  0  0  0  0  0  0  0  0  0
  -39.7250   59.6825   65.8880 C   0  0  0  0  0  0  0  0  0  0  0  0
  -39.3001   58.4337   65.2469 O   0  0  0  0  0  0  0  0  0  0  0  0
  -38.1832   58.4002   64.3385 C   0  0  0  0  0  0  0  0  0  0  0  0
  -38.4031   57.5445   63.0970 C   0  0  0  0  0  0  0  0  0  0  0  0
  -36.9526   57.9446   65.1082 C   0  0  0  0  0  0  0  0  0  0  0  0
  -35.1879   59.4287   64.2841 N   0  0  0  0  0  0  0  0  0  0  0  0
  -35.0946   57.1951   63.9410 O   0  0  0  0  0  0  0  0  0  0  0  0
  -35.6640   58.1773   64.3588 C   0  0  0  0  0  0  0  0  0  0  0  0
  -34.3150   59.5609   63.8485 H   0  0  0  0  0  0  0  0  0  0  0  0
  -35.4179   62.3241   63.0932 N   0  0  0  0  0  0  0  0  0  0  0  0
  -37.5409   61.7717   63.5961 O   0  0  0  0  0  0  0  0  0  0  0  0
  -33.9782   62.0309   63.0373 C   0  0  0  0  0  0  0  0  0  0  0  0
  -33.3176   62.2805   64.4062 C   0  0  0  0  0  0  0  0  0  0  0  0
  -34.2779   62.5854   65.5441 C   0  0  0  0  0  0  0  0  0  0  0  0
  -35.1566   61.3900   65.9221 C   0  0  0  0  0  0  0  0  0  0  0  0
  -35.8764   60.6148   64.8058 C   0  0  0  0  0  0  0  0  0  0  0  0
  -36.3393   61.6143   63.7639 C   0  0  0  0  0  0  0  0  0  0  0  0
  -36.4349   63.2284   60.7116 Si  0  0  0  0  0  0  0  0  0  0  0  0
  -35.8572   63.4076   62.3938 O   0  0  0  0  0  0  0  0  0  0  0  0
  -36.8340   64.4957   60.2106 H   0  0  0  0  0  0  0  0  0  0  0  0
  -37.5411   62.3384   60.6833 H   0  0  0  0  0  0  0  0  0  0  0  0
  -35.3885   62.7085   59.9046 H   0  0  0  0  0  0  0  0  0  0  0  0
  -42.6710   57.9154   66.0807 C   0  0  0  0  0  0  0  0  0  0  0  0
  -42.0818   59.1605   66.7551 C   0  0  0  0  0  0  0  0  0  0  0  0
  -43.8740   57.2535   66.7738 C   0  0  0  0  0  0  0  0  0  0  0  0
  -45.1501   57.0401   65.9340 C   0  0  0  0  0  0  0  0  0  0  0  0
  -46.2003   57.9162   66.4626 N   0  0  0  0  0  0  0  0  0  0  0  0
  -46.9223   58.8715   65.8193 C   0  0  0  0  0  0  0  0  0  0  0  0
  -46.4760   57.7167   67.8226 O   0  0  0  0  0  0  0  0  0  0  0  0
  -46.7515   59.1007   64.6220 O   0  0  0  0  0  0  0  0  0  0  0  0
  -47.1764   58.3262   68.1034 H   0  0  0  0  0  0  0  0  0  0  0  0
  -47.9602   59.6750   66.6098 C   0  0  0  0  0  0  0  0  0  0  0  0
  -48.9957   60.4032   65.7421 C   0  0  0  0  0  0  0  0  0  0  0  0
  -50.2901   59.5721   65.6545 C   0  0  0  0  0  0  0  0  0  0  0  0
  -51.2094   59.9864   64.4898 C   0  0  0  0  0  0  0  0  0  0  0  0
  -51.2782   58.9705   63.3343 C   0  0  0  0  0  0  0  0  0  0  0  0
  -49.9853   58.1413   63.1863 C   0  0  0  0  0  0  0  0  0  0  0  0
  -48.9572   58.7278   62.1909 C   0  0  0  0  0  0  0  0  0  0  0  0
  -49.5974   59.3109   60.9258 C   0  0  0  0  0  0  0  0  0  0  0  0
  -49.1536   58.6655   59.6093 C   0  0  0  0  0  0  0  0  0  0  0  0
  -49.5244   57.1718   59.5637 C   0  0  0  0  0  0  0  0  0  0  0  0
  -48.3174   56.2272   59.6678 C   0  0  0  0  0  0  0  0  0  0  0  0
  -47.2608   56.3736   58.5680 C   0  0  0  0  0  0  0  0  0  0  0  0
  -47.7689   56.0235   57.1471 C   0  0  0  0  0  0  0  0  0  0  0  0
  -47.8974   57.2831   56.2666 C   0  0  0  0  0  0  0  0  0  0  0  0
  -47.0600   58.5041   56.6655 C   0  0  0  0  0  0  0  0  0  0  0  0
 46 47  1  0  0  0
 46 48  1  0  0  0
 46 45  1  0  0  0
 47 49  2  0  0  0
 47 51  1  0  0  0
 19 20  2  0  0  0
 37 38  1  0  0  0
 37 39  1  0  0  0
 37 40  1  0  0  0
 37 41  1  0  0  0
 48 50  1  0  0  0
 38 29  1  0  0  0
 45 44  1  0  0  0
 25 27  1  0  0  0
 25 35  1  0  0  0
 25 28  1  0  0  0
 21 20  1  0  0  0
 21 22  1  0  0  0
 44 42  1  0  0  0
  2  1  1  0  0  0
  2  4  1  0  0  0
  2  5  1  0  0  0
 26 27  2  0  0  0
 42 43  2  0  0  0
 29 31  1  0  0  0
 29 36  1  0  0  0
  3  4  2  0  0  0
 43  1  1  0  0  0
  6  9  2  0  0  0
  6 10  1  0  0  0
  1 20  1  0  0  0
 30 36  2  0  0  0
  7  8  1  0  0  0
  7  9  1  0  0  0
 22 24  1  0  0  0
 22 23  1  0  0  0
 11 12  1  0  0  0
 11 18  1  0  0  0
 24 27  1  0  0  0
  4 10  1  0  0  0
 51 52  1  0  0  0
 52 53  1  0  0  0
 53 54  1  0  0  0
 54 55  1  0  0  0
 55 56  1  0  0  0
 56 57  1  0  0  0
 57 58  1  0  0  0
 58 59  1  0  0  0
 59 60  1  0  0  0
 60 61  1  0  0  0
 61 62  1  0  0  0
 62 63  1  0  0  0
 63 64  1  0  0  0
 64 65  1  0  0  0
 31 32  1  0  0  0
 32 33  1  0  0  0
 33 34  1  0  0  0
 34 35  1  0  0  0
 35 36  1  0  0  0
  8 10  1  0  0  0
  9 17  1  0  0  0
 12 13  2  0  0  0
 12 17  1  0  0  0
 13 14  1  0  0  0
 14 15  2  0  0  0
 15 16  1  0  0  0
 16 17  2  0  0  0
M  END
> <minimizedAffinity>
-9.62963

> <CNNscore>
0.1759001613

> <CNNaffinity>
7.5597963333

> <CNN_VS>
1.3297693729

> <CNNaffinity_variance>
1.2320683002

$$$$
/media/chris/experiments/cd1a-new-docking/inputs/ligands/1xz0_ligand.pdb


 65 67  0  0  0  0  0  0  0  0999 V2000
  -40.3459   58.8169   63.2581 C   0  0  0  0  0  0  0  0  0  0  0  0
  -39.1610   58.4658   64.0434 N   0  0  0  0  0  0  0  0  0  0  0  0
  -39.4495   59.6500   65.9637 O   0  0  0  0  0  0  0  0  0  0  0  0
  -38.8015   58.8750   65.2725 C   0  0  0  0  0  0  0  0  0  0  0  0
  -38.5377   57.8399   63.6086 H   0  0  0  0  0  0  0  0  0  0  0  0
  -36.3320   59.0106   65.0217 N   0  0  0  0  0  0  0  0  0  0  0  0
  -35.8414   56.8315   65.0736 O   0  0  0  0  0  0  0  0  0  0  0  0
  -37.0700   56.9248   65.7935 C   0  0  0  0  0  0  0  0  0  0  0  0
  -35.4855   58.1568   64.6319 C   0  0  0  0  0  0  0  0  0  0  0  0
  -37.4442   58.4330   65.8000 C   0  0  0  0  0  0  0  0  0  0  0  0
  -35.3996   58.7024   61.7873 O   0  0  0  0  0  0  0  0  0  0  0  0
  -34.2587   58.7412   62.4864 C   0  0  0  0  0  0  0  0  0  0  0  0
  -33.0587   59.0584   61.8367 C   0  0  0  0  0  0  0  0  0  0  0  0
  -31.8465   59.0963   62.5461 C   0  0  0  0  0  0  0  0  0  0  0  0
  -31.8220   58.8273   63.9157 C   0  0  0  0  0  0  0  0  0  0  0  0
  -33.0175   58.5167   64.5697 C   0  0  0  0  0  0  0  0  0  0  0  0
  -34.2325   58.4692   63.8597 C   0  0  0  0  0  0  0  0  0  0  0  0
  -35.3930   58.8881   60.8690 H   0  0  0  0  0  0  0  0  0  0  0  0
  -40.8478   60.7463   61.9310 O   0  0  0  0  0  0  0  0  0  0  0  0
  -40.1401   60.2447   62.7889 C   0  0  0  0  0  0  0  0  0  0  0  0
  -39.0246   61.0342   63.3213 O   0  0  0  0  0  0  0  0  0  0  0  0
  -37.9428   61.4678   62.4755 C   0  0  0  0  0  0  0  0  0  0  0  0
  -37.7821   60.6632   61.1916 C   0  0  0  0  0  0  0  0  0  0  0  0
  -36.6605   61.4574   63.2940 C   0  0  0  0  0  0  0  0  0  0  0  0
  -35.8086   63.7277   63.6344 N   0  0  0  0  0  0  0  0  0  0  0  0
  -37.0568   62.6962   65.2135 O   0  0  0  0  0  0  0  0  0  0  0  0
  -36.4895   62.6914   64.1451 C   0  0  0  0  0  0  0  0  0  0  0  0
  -35.7572   64.5509   64.1720 H   0  0  0  0  0  0  0  0  0  0  0  0
  -32.8285   64.3780   62.8922 N   0  0  0  0  0  0  0  0  0  0  0  0
  -33.2257   62.4091   61.8769 O   0  0  0  0  0  0  0  0  0  0  0  0
  -33.2448   65.5190   63.7210 C   0  0  0  0  0  0  0  0  0  0  0  0
  -34.0326   66.5430   62.8823 C   0  0  0  0  0  0  0  0  0  0  0  0
  -34.3724   66.0999   61.4687 C   0  0  0  0  0  0  0  0  0  0  0  0
  -35.3746   64.9432   61.4288 C   0  0  0  0  0  0  0  0  0  0  0  0
  -35.1347   63.7211   62.3310 C   0  0  0  0  0  0  0  0  0  0  0  0
  -33.6435   63.4495   62.3664 C   0  0  0  0  0  0  0  0  0  0  0  0
  -30.7769   62.6304   62.3820 Si  0  0  0  0  0  0  0  0  0  0  0  0
  -31.4955   64.2461   62.6440 O   0  0  0  0  0  0  0  0  0  0  0  0
  -29.3832   62.7648   62.1451 H   0  0  0  0  0  0  0  0  0  0  0  0
  -31.3907   62.0158   61.2586 H   0  0  0  0  0  0  0  0  0  0  0  0
  -30.9858   61.8268   63.5340 H   0  0  0  0  0  0  0  0  0  0  0  0
  -41.9156   57.2490   64.6623 C   0  0  0  0  0  0  0  0  0  0  0  0
  -41.7297   58.5706   63.9068 C   0  0  0  0  0  0  0  0  0  0  0  0
  -43.3619   56.7973   64.9266 C   0  0  0  0  0  0  0  0  0  0  0  0
  -44.0235   57.2615   66.2404 C   0  0  0  0  0  0  0  0  0  0  0  0
  -45.1573   58.1279   65.9033 N   0  0  0  0  0  0  0  0  0  0  0  0
  -46.4881   57.8563   65.9579 C   0  0  0  0  0  0  0  0  0  0  0  0
  -44.7852   59.4077   65.4683 O   0  0  0  0  0  0  0  0  0  0  0  0
  -46.8995   56.7613   66.3410 O   0  0  0  0  0  0  0  0  0  0  0  0
  -45.5807   59.9237   65.2639 H   0  0  0  0  0  0  0  0  0  0  0  0
  -47.4842   58.9379   65.5268 C   0  0  0  0  0  0  0  0  0  0  0  0
  -48.9558   58.5061   65.5850 C   0  0  0  0  0  0  0  0  0  0  0  0
  -49.4097   57.9881   64.2067 C   0  0  0  0  0  0  0  0  0  0  0  0
  -50.8568   58.3771   63.8495 C   0  0  0  0  0  0  0  0  0  0  0  0
  -51.2779   59.7821   64.3191 C   0  0  0  0  0  0  0  0  0  0  0  0
  -50.8768   60.8924   63.3253 C   0  0  0  0  0  0  0  0  0  0  0  0
  -50.9019   60.4635   61.8397 C   0  0  0  0  0  0  0  0  0  0  0  0
  -49.5133   60.4310   61.1908 C   0  0  0  0  0  0  0  0  0  0  0  0
  -49.3483   59.4271   60.0454 C   0  0  0  0  0  0  0  0  0  0  0  0
  -50.1799   58.1548   60.2902 C   0  0  0  0  0  0  0  0  0  0  0  0
  -49.4675   56.8569   59.8805 C   0  0  0  0  0  0  0  0  0  0  0  0
  -47.9395   56.9339   59.7977 C   0  0  0  0  0  0  0  0  0  0  0  0
  -47.3548   56.5121   58.4266 C   0  0  0  0  0  0  0  0  0  0  0  0
  -47.9817   57.3201   57.2723 C   0  0  0  0  0  0  0  0  0  0  0  0
  -47.1250   58.4279   56.6476 C   0  0  0  0  0  0  0  0  0  0  0  0
 46 47  1  0  0  0
 46 48  1  0  0  0
 46 45  1  0  0  0
 47 49  2  0  0  0
 47 51  1  0  0  0
 19 20  2  0  0  0
 37 38  1  0  0  0
 37 39  1  0  0  0
 37 40  1  0  0  0
 37 41  1  0  0  0
 48 50  1  0  0  0
 38 29  1  0  0  0
 45 44  1  0  0  0
 25 27  1  0  0  0
 25 35  1  0  0  0
 25 28  1  0  0  0
 21 20  1  0  0  0
 21 22  1  0  0  0
 44 42  1  0  0  0
  2  1  1  0  0  0
  2  4  1  0  0  0
  2  5  1  0  0  0
 26 27  2  0  0  0
 42 43  2  0  0  0
 29 31  1  0  0  0
 29 36  1  0  0  0
  3  4  2  0  0  0
 43  1  1  0  0  0
  6  9  2  0  0  0
  6 10  1  0  0  0
  1 20  1  0  0  0
 30 36  2  0  0  0
  7  8  1  0  0  0
  7  9  1  0  0  0
 22 24  1  0  0  0
 22 23  1  0  0  0
 11 12  1  0  0  0
 11 18  1  0  0  0
 24 27  1  0  0  0
  4 10  1  0  0  0
 51 52  1  0  0  0
 52 53  1  0  0  0
 53 54  1  0  0  0
 54 55  1  0  0  0
 55 56  1  0  0  0
 56 57  1  0  0  0
 57 58  1  0  0  0
 58 59  1  0  0  0
 59 60  1  0  0  0
 60 61  1  0  0  0
 61 62  1  0  0  0
 62 63  1  0  0  0
 63 64  1  0  0  0
 64 65  1  0  0  0
 31 32  1  0  0  0
 32 33  1  0  0  0
 33 34  1  0  0  0
 34 35  1  0  0  0
 35 36  1  0  0  0
  8 10  1  0  0  0
  9 17  1  0  0  0
 12 13  2  0  0  0
 12 17  1  0  0  0
 13 14  1  0  0  0
 14 15  2  0  0  0
 15 16  1  0  0  0
 16 17  2  0  0  0
M  END
> <minimizedAffinity>
-9.14202

> <CNNscore>
0.1661506593

> <CNNaffinity>
6.9936838150

> <CNN_VS>
1.1620051861

> <CNNaffinity_variance>
0.2975900471

$$$$
/media/chris/experiments/cd1a-new-docking/inputs/ligands/1xz0_ligand.pdb


 65 67  0  0  0  0  0  0  0  0999 V2000
  -38.0727   59.9271   63.9417 C   0  0  0  0  0  0  0  0  0  0  0  0
  -36.6204   59.9971   64.1155 N   0  0  0  0  0  0  0  0  0  0  0  0
  -36.1160   57.9778   65.0325 O   0  0  0  0  0  0  0  0  0  0  0  0
  -35.7773   59.0787   64.6185 C   0  0  0  0  0  0  0  0  0  0  0  0
  -36.2010   60.8380   63.8217 H   0  0  0  0  0  0  0  0  0  0  0  0
  -34.0033   60.7446   64.1108 N   0  0  0  0  0  0  0  0  0  0  0  0
  -32.4113   59.3647   63.3669 O   0  0  0  0  0  0  0  0  0  0  0  0
  -33.2010   58.5460   64.2287 C   0  0  0  0  0  0  0  0  0  0  0  0
  -32.9944   60.6830   63.3520 C   0  0  0  0  0  0  0  0  0  0  0  0
  -34.3169   59.4719   64.7877 C   0  0  0  0  0  0  0  0  0  0  0  0
  -31.1392   60.4203   61.1416 O   0  0  0  0  0  0  0  0  0  0  0  0
  -31.5430   61.6443   61.5029 C   0  0  0  0  0  0  0  0  0  0  0  0
  -31.0769   62.7630   60.8000 C   0  0  0  0  0  0  0  0  0  0  0  0
  -31.4784   64.0589   61.1656 C   0  0  0  0  0  0  0  0  0  0  0  0
  -32.3586   64.2502   62.2321 C   0  0  0  0  0  0  0  0  0  0  0  0
  -32.8314   63.1369   62.9324 C   0  0  0  0  0  0  0  0  0  0  0  0
  -32.4240   61.8376   62.5739 C   0  0  0  0  0  0  0  0  0  0  0  0
  -30.5491   60.3151   60.4214 H   0  0  0  0  0  0  0  0  0  0  0  0
  -37.7287   61.4407   62.1180 O   0  0  0  0  0  0  0  0  0  0  0  0
  -38.3674   60.5049   62.5705 C   0  0  0  0  0  0  0  0  0  0  0  0
  -39.4887   59.9811   61.7835 O   0  0  0  0  0  0  0  0  0  0  0  0
  -39.3643   59.7426   60.3688 C   0  0  0  0  0  0  0  0  0  0  0  0
  -40.5335   60.2538   59.5360 C   0  0  0  0  0  0  0  0  0  0  0  0
  -39.1452   58.2530   60.1511 C   0  0  0  0  0  0  0  0  0  0  0  0
  -39.1544   56.5519   61.9125 N   0  0  0  0  0  0  0  0  0  0  0  0
  -37.3863   57.9335   61.6278 O   0  0  0  0  0  0  0  0  0  0  0  0
  -38.5012   57.5691   61.3318 C   0  0  0  0  0  0  0  0  0  0  0  0
  -38.6981   56.0714   62.6405 H   0  0  0  0  0  0  0  0  0  0  0  0
  -41.9592   57.7852   62.5954 N   0  0  0  0  0  0  0  0  0  0  0  0
  -42.0306   57.4693   60.3682 O   0  0  0  0  0  0  0  0  0  0  0  0
  -41.2788   57.7093   63.8966 C   0  0  0  0  0  0  0  0  0  0  0  0
  -41.3826   56.2890   64.4838 C   0  0  0  0  0  0  0  0  0  0  0  0
  -41.9784   55.2445   63.5543 C   0  0  0  0  0  0  0  0  0  0  0  0
  -41.0849   54.9358   62.3500 C   0  0  0  0  0  0  0  0  0  0  0  0
  -40.5012   56.1048   61.5392 C   0  0  0  0  0  0  0  0  0  0  0  0
  -41.5539   57.1932   61.4605 C   0  0  0  0  0  0  0  0  0  0  0  0
  -44.6455   57.8757   63.1426 Si  0  0  0  0  0  0  0  0  0  0  0  0
  -43.0977   58.5310   62.5340 O   0  0  0  0  0  0  0  0  0  0  0  0
  -45.6710   58.8418   62.9653 H   0  0  0  0  0  0  0  0  0  0  0  0
  -44.5190   57.5676   64.5230 H   0  0  0  0  0  0  0  0  0  0  0  0
  -44.9762   56.6970   62.4230 H   0  0  0  0  0  0  0  0  0  0  0  0
  -39.8059   59.5318   65.8741 C   0  0  0  0  0  0  0  0  0  0  0  0
  -38.9546   60.5200   65.0672 C   0  0  0  0  0  0  0  0  0  0  0  0
  -40.9823   60.1187   66.6724 C   0  0  0  0  0  0  0  0  0  0  0  0
  -42.3300   60.2789   65.9395 C   0  0  0  0  0  0  0  0  0  0  0  0
  -43.1552   59.1026   66.2319 N   0  0  0  0  0  0  0  0  0  0  0  0
  -44.4178   58.8181   65.8168 C   0  0  0  0  0  0  0  0  0  0  0  0
  -42.5269   58.1580   67.0557 O   0  0  0  0  0  0  0  0  0  0  0  0
  -45.0352   59.5880   65.0812 O   0  0  0  0  0  0  0  0  0  0  0  0
  -43.1268   57.4109   67.2068 H   0  0  0  0  0  0  0  0  0  0  0  0
  -45.0766   57.5159   66.2838 C   0  0  0  0  0  0  0  0  0  0  0  0
  -46.4823   57.6909   66.8743 C   0  0  0  0  0  0  0  0  0  0  0  0
  -47.5395   57.1526   65.8911 C   0  0  0  0  0  0  0  0  0  0  0  0
  -48.3754   58.2590   65.2203 C   0  0  0  0  0  0  0  0  0  0  0  0
  -49.8951   58.1362   65.4385 C   0  0  0  0  0  0  0  0  0  0  0  0
  -50.5389   59.4494   65.9307 C   0  0  0  0  0  0  0  0  0  0  0  0
  -51.3640   60.2002   64.8597 C   0  0  0  0  0  0  0  0  0  0  0  0
  -50.5935   60.4453   63.5572 C   0  0  0  0  0  0  0  0  0  0  0  0
  -50.9663   59.5237   62.3916 C   0  0  0  0  0  0  0  0  0  0  0  0
  -49.7201   58.8509   61.7876 C   0  0  0  0  0  0  0  0  0  0  0  0
  -50.0076   58.0310   60.5207 C   0  0  0  0  0  0  0  0  0  0  0  0
  -49.4165   58.5856   59.2205 C   0  0  0  0  0  0  0  0  0  0  0  0
  -48.1933   57.7964   58.6905 C   0  0  0  0  0  0  0  0  0  0  0  0
  -47.6195   58.4365   57.4102 C   0  0  0  0  0  0  0  0  0  0  0  0
  -47.6040   57.5735   56.1428 C   0  0  0  0  0  0  0  0  0  0  0  0
 46 47  1  0  0  0
 46 48  1  0  0  0
 46 45  1  0  0  0
 47 49  2  0  0  0
 47 51  1  0  0  0
 19 20  2  0  0  0
 37 38  1  0  0  0
 37 39  1  0  0  0
 37 40  1  0  0  0
 37 41  1  0  0  0
 48 50  1  0  0  0
 38 29  1  0  0  0
 45 44  1  0  0  0
 25 27  1  0  0  0
 25 35  1  0  0  0
 25 28  1  0  0  0
 21 20  1  0  0  0
 21 22  1  0  0  0
 44 42  1  0  0  0
  2  1  1  0  0  0
  2  4  1  0  0  0
  2  5  1  0  0  0
 26 27  2  0  0  0
 42 43  2  0  0  0
 29 31  1  0  0  0
 29 36  1  0  0  0
  3  4  2  0  0  0
 43  1  1  0  0  0
  6  9  2  0  0  0
  6 10  1  0  0  0
  1 20  1  0  0  0
 30 36  2  0  0  0
  7  8  1  0  0  0
  7  9  1  0  0  0
 22 24  1  0  0  0
 22 23  1  0  0  0
 11 12  1  0  0  0
 11 18  1  0  0  0
 24 27  1  0  0  0
  4 10  1  0  0  0
 51 52  1  0  0  0
 52 53  1  0  0  0
 53 54  1  0  0  0
 54 55  1  0  0  0
 55 56  1  0  0  0
 56 57  1  0  0  0
 57 58  1  0  0  0
 58 59  1  0  0  0
 59 60  1  0  0  0
 60 61  1  0  0  0
 61 62  1  0  0  0
 62 63  1  0  0  0
 63 64  1  0  0  0
 64 65  1  0  0  0
 31 32  1  0  0  0
 32 33  1  0  0  0
 33 34  1  0  0  0
 34 35  1  0  0  0
 35 36  1  0  0  0
  8 10  1  0  0  0
  9 17  1  0  0  0
 12 13  2  0  0  0
 12 17  1  0  0  0
 13 14  1  0  0  0
 14 15  2  0  0  0
 15 16  1  0  0  0
 16 17  2  0  0  0
M  END
> <minimizedAffinity>
-9.05776

> <CNNscore>
0.1519480199

> <CNNaffinity>
7.6477570534

> <CNN_VS>
1.1620615721

> <CNNaffinity_variance>
0.8290280104

$$$$
/media/chris/experiments/cd1a-new-docking/inputs/ligands/1xz0_ligand.pdb


 65 67  0  0  0  0  0  0  0  0999 V2000
  -41.1048   58.5079   64.2084 C   0  0  0  0  0  0  0  0  0  0  0  0
  -39.7743   58.5621   64.8174 N   0  0  0  0  0  0  0  0  0  0  0  0
  -39.6333   60.7107   65.5502 O   0  0  0  0  0  0  0  0  0  0  0  0
  -39.1525   59.5931   65.4156 C   0  0  0  0  0  0  0  0  0  0  0  0
  -39.2612   57.7226   64.7840 H   0  0  0  0  0  0  0  0  0  0  0  0
  -37.0898   60.6519   66.3123 N   0  0  0  0  0  0  0  0  0  0  0  0
  -35.6033   59.8454   64.8523 O   0  0  0  0  0  0  0  0  0  0  0  0
  -36.6555   58.8814   64.8399 C   0  0  0  0  0  0  0  0  0  0  0  0
  -35.9734   60.8928   65.7710 C   0  0  0  0  0  0  0  0  0  0  0  0
  -37.7108   59.3926   65.8596 C   0  0  0  0  0  0  0  0  0  0  0  0
  -36.9551   63.5792   66.2359 O   0  0  0  0  0  0  0  0  0  0  0  0
  -35.6379   63.3522   66.3084 C   0  0  0  0  0  0  0  0  0  0  0  0
  -34.7696   64.4062   66.6213 C   0  0  0  0  0  0  0  0  0  0  0  0
  -33.3823   64.1958   66.6941 C   0  0  0  0  0  0  0  0  0  0  0  0
  -32.8483   62.9265   66.4647 C   0  0  0  0  0  0  0  0  0  0  0  0
  -33.7110   61.8703   66.1586 C   0  0  0  0  0  0  0  0  0  0  0  0
  -35.1009   62.0801   66.0762 C   0  0  0  0  0  0  0  0  0  0  0  0
  -37.2919   64.4389   66.3953 H   0  0  0  0  0  0  0  0  0  0  0  0
  -41.9422   56.3071   64.6449 O   0  0  0  0  0  0  0  0  0  0  0  0
  -41.8921   57.4754   64.9926 C   0  0  0  0  0  0  0  0  0  0  0  0
  -42.6734   57.8881   66.1632 O   0  0  0  0  0  0  0  0  0  0  0  0
  -43.3977   59.1327   66.1797 C   0  0  0  0  0  0  0  0  0  0  0  0
  -42.7495   60.2308   67.0137 C   0  0  0  0  0  0  0  0  0  0  0  0
  -44.8183   58.8545   66.6474 C   0  0  0  0  0  0  0  0  0  0  0  0
  -46.6285   58.1995   65.1339 N   0  0  0  0  0  0  0  0  0  0  0  0
  -45.0074   56.7364   65.7230 O   0  0  0  0  0  0  0  0  0  0  0  0
  -45.5296   57.8245   65.8050 C   0  0  0  0  0  0  0  0  0  0  0  0
  -47.0482   57.5382   64.5375 H   0  0  0  0  0  0  0  0  0  0  0  0
  -49.6500   59.0364   64.9783 N   0  0  0  0  0  0  0  0  0  0  0  0
  -48.8938   60.0674   66.8305 O   0  0  0  0  0  0  0  0  0  0  0  0
  -49.4592   58.1759   63.8014 C   0  0  0  0  0  0  0  0  0  0  0  0
  -48.8289   58.9702   62.6420 C   0  0  0  0  0  0  0  0  0  0  0  0
  -48.3738   60.3776   62.9916 C   0  0  0  0  0  0  0  0  0  0  0  0
  -47.1900   60.4000   63.9622 C   0  0  0  0  0  0  0  0  0  0  0  0
  -47.2492   59.5259   65.2260 C   0  0  0  0  0  0  0  0  0  0  0  0
  -48.6736   59.5474   65.7452 C   0  0  0  0  0  0  0  0  0  0  0  0
  -51.2714   60.5722   66.5709 Si  0  0  0  0  0  0  0  0  0  0  0  0
  -50.9330   59.3335   65.3272 O   0  0  0  0  0  0  0  0  0  0  0  0
  -52.6750   60.6927   66.7495 H   0  0  0  0  0  0  0  0  0  0  0  0
  -50.7386   61.8204   66.1531 H   0  0  0  0  0  0  0  0  0  0  0  0
  -50.6694   60.1876   67.7982 H   0  0  0  0  0  0  0  0  0  0  0  0
  -40.0245   57.5451   62.0175 C   0  0  0  0  0  0  0  0  0  0  0  0
  -41.1792   58.3110   62.6748 C   0  0  0  0  0  0  0  0  0  0  0  0
  -39.8545   57.7141   60.4982 C   0  0  0  0  0  0  0  0  0  0  0  0
  -39.8436   59.1516   59.9390 C   0  0  0  0  0  0  0  0  0  0  0  0
  -38.6472   59.8324   60.4439 N   0  0  0  0  0  0  0  0  0  0  0  0
  -38.5087   60.6144   61.5471 C   0  0  0  0  0  0  0  0  0  0  0  0
  -37.5034   59.6290   59.6591 O   0  0  0  0  0  0  0  0  0  0  0  0
  -39.4603   60.8327   62.2967 O   0  0  0  0  0  0  0  0  0  0  0  0
  -36.7543   60.1055   60.0497 H   0  0  0  0  0  0  0  0  0  0  0  0
  -37.1407   61.2348   61.8496 C   0  0  0  0  0  0  0  0  0  0  0  0
  -37.1406   62.2375   63.0116 C   0  0  0  0  0  0  0  0  0  0  0  0
  -36.3817   63.5159   62.6065 C   0  0  0  0  0  0  0  0  0  0  0  0
  -34.8520   63.3913   62.7393 C   0  0  0  0  0  0  0  0  0  0  0  0
  -34.1335   64.6969   63.1282 C   0  0  0  0  0  0  0  0  0  0  0  0
  -33.9825   65.6746   61.9440 C   0  0  0  0  0  0  0  0  0  0  0  0
  -33.0850   65.1576   60.7956 C   0  0  0  0  0  0  0  0  0  0  0  0
  -31.6908   64.7212   61.2604 C   0  0  0  0  0  0  0  0  0  0  0  0
  -31.2545   63.3255   60.8037 C   0  0  0  0  0  0  0  0  0  0  0  0
  -30.7405   62.4835   61.9858 C   0  0  0  0  0  0  0  0  0  0  0  0
  -31.8521   61.7786   62.7779 C   0  0  0  0  0  0  0  0  0  0  0  0
  -32.2659   60.3976   62.2592 C   0  0  0  0  0  0  0  0  0  0  0  0
  -31.5829   59.2136   62.9881 C   0  0  0  0  0  0  0  0  0  0  0  0
  -32.6098   58.3495   63.7478 C   0  0  0  0  0  0  0  0  0  0  0  0
  -33.5579   57.4872   62.9059 C   0  0  0  0  0  0  0  0  0  0  0  0
 46 47  1  0  0  0
 46 48  1  0  0  0
 46 45  1  0  0  0
 47 49  2  0  0  0
 47 51  1  0  0  0
 19 20  2  0  0  0
 37 38  1  0  0  0
 37 39  1  0  0  0
 37 40  1  0  0  0
 37 41  1  0  0  0
 48 50  1  0  0  0
 38 29  1  0  0  0
 45 44  1  0  0  0
 25 27  1  0  0  0
 25 35  1  0  0  0
 25 28  1  0  0  0
 21 20  1  0  0  0
 21 22  1  0  0  0
 44 42  1  0  0  0
  2  1  1  0  0  0
  2  4  1  0  0  0
  2  5  1  0  0  0
 26 27  2  0  0  0
 42 43  2  0  0  0
 29 31  1  0  0  0
 29 36  1  0  0  0
  3  4  2  0  0  0
 43  1  1  0  0  0
  6  9  2  0  0  0
  6 10  1  0  0  0
  1 20  1  0  0  0
 30 36  2  0  0  0
  7  8  1  0  0  0
  7  9  1  0  0  0
 22 24  1  0  0  0
 22 23  1  0  0  0
 11 12  1  0  0  0
 11 18  1  0  0  0
 24 27  1  0  0  0
  4 10  1  0  0  0
 51 52  1  0  0  0
 52 53  1  0  0  0
 53 54  1  0  0  0
 54 55  1  0  0  0
 55 56  1  0  0  0
 56 57  1  0  0  0
 57 58  1  0  0  0
 58 59  1  0  0  0
 59 60  1  0  0  0
 60 61  1  0  0  0
 61 62  1  0  0  0
 62 63  1  0  0  0
 63 64  1  0  0  0
 64 65  1  0  0  0
 31 32  1  0  0  0
 32 33  1  0  0  0
 33 34  1  0  0  0
 34 35  1  0  0  0
 35 36  1  0  0  0
  8 10  1  0  0  0
  9 17  1  0  0  0
 12 13  2  0  0  0
 12 17  1  0  0  0
 13 14  1  0  0  0
 14 15  2  0  0  0
 15 16  1  0  0  0
 16 17  2  0  0  0
M  END
> <minimizedAffinity>
-8.62935

> <CNNscore>
0.1514727920

> <CNNaffinity>
7.5556831360

> <CNN_VS>
1.1444804668

> <CNNaffinity_variance>
1.1921428442

$$$$
/media/chris/experiments/cd1a-new-docking/inputs/ligands/1xz0_ligand.pdb


 65 67  0  0  0  0  0  0  0  0999 V2000
  -40.8989   58.7982   62.8854 C   0  0  0  0  0  0  0  0  0  0  0  0
  -40.1748   59.6612   63.8207 N   0  0  0  0  0  0  0  0  0  0  0  0
  -38.6558   58.2473   64.7516 O   0  0  0  0  0  0  0  0  0  0  0  0
  -39.1595   59.3580   64.6482 C   0  0  0  0  0  0  0  0  0  0  0  0
  -40.4746   60.5986   63.8475 H   0  0  0  0  0  0  0  0  0  0  0  0
  -37.9306   61.5042   64.9008 N   0  0  0  0  0  0  0  0  0  0  0  0
  -36.5607   60.9436   66.5744 O   0  0  0  0  0  0  0  0  0  0  0  0
  -37.6791   60.0725   66.7388 C   0  0  0  0  0  0  0  0  0  0  0  0
  -36.8064   61.7655   65.4158 C   0  0  0  0  0  0  0  0  0  0  0  0
  -38.6730   60.4395   65.6020 C   0  0  0  0  0  0  0  0  0  0  0  0
  -34.4965   62.7026   66.8933 O   0  0  0  0  0  0  0  0  0  0  0  0
  -34.7498   63.2302   65.6895 C   0  0  0  0  0  0  0  0  0  0  0  0
  -33.8907   64.2051   65.1657 C   0  0  0  0  0  0  0  0  0  0  0  0
  -34.1400   64.7811   63.9087 C   0  0  0  0  0  0  0  0  0  0  0  0
  -35.2460   64.3816   63.1565 C   0  0  0  0  0  0  0  0  0  0  0  0
  -36.1026   63.4047   63.6718 C   0  0  0  0  0  0  0  0  0  0  0  0
  -35.8602   62.8320   64.9351 C   0  0  0  0  0  0  0  0  0  0  0  0
  -33.7473   62.9846   67.3802 H   0  0  0  0  0  0  0  0  0  0  0  0
  -41.2431   60.5093   61.2456 O   0  0  0  0  0  0  0  0  0  0  0  0
  -40.7443   59.4289   61.5146 C   0  0  0  0  0  0  0  0  0  0  0  0
  -40.0371   58.7043   60.4534 O   0  0  0  0  0  0  0  0  0  0  0  0
  -38.7270   59.1097   60.0142 C   0  0  0  0  0  0  0  0  0  0  0  0
  -38.2591   58.4470   58.7244 C   0  0  0  0  0  0  0  0  0  0  0  0
  -37.7431   58.8608   61.1474 C   0  0  0  0  0  0  0  0  0  0  0  0
  -36.1503   60.0619   62.5676 N   0  0  0  0  0  0  0  0  0  0  0  0
  -37.7983   61.1562   61.4709 O   0  0  0  0  0  0  0  0  0  0  0  0
  -37.2355   60.1317   61.7827 C   0  0  0  0  0  0  0  0  0  0  0  0
  -35.7896   60.9051   62.9255 H   0  0  0  0  0  0  0  0  0  0  0  0
  -33.8667   59.5456   64.6586 N   0  0  0  0  0  0  0  0  0  0  0  0
  -35.4067   57.9750   65.1349 O   0  0  0  0  0  0  0  0  0  0  0  0
  -33.3759   60.6867   63.8718 C   0  0  0  0  0  0  0  0  0  0  0  0
  -32.7409   60.2065   62.5532 C   0  0  0  0  0  0  0  0  0  0  0  0
  -32.9104   58.7264   62.2525 C   0  0  0  0  0  0  0  0  0  0  0  0
  -34.3634   58.3359   61.9691 C   0  0  0  0  0  0  0  0  0  0  0  0
  -35.4629   58.8174   62.9304 C   0  0  0  0  0  0  0  0  0  0  0  0
  -34.9099   58.7624   64.3411 C   0  0  0  0  0  0  0  0  0  0  0  0
  -33.0607   60.5016   67.1000 Si  0  0  0  0  0  0  0  0  0  0  0  0
  -33.2096   59.2643   65.8185 O   0  0  0  0  0  0  0  0  0  0  0  0
  -32.3376   59.9626   68.1968 H   0  0  0  0  0  0  0  0  0  0  0  0
  -34.3554   60.8927   67.5330 H   0  0  0  0  0  0  0  0  0  0  0  0
  -32.3712   61.6326   66.5883 H   0  0  0  0  0  0  0  0  0  0  0  0
  -42.6329   57.9742   64.6767 C   0  0  0  0  0  0  0  0  0  0  0  0
  -42.3611   58.4329   63.2387 C   0  0  0  0  0  0  0  0  0  0  0  0
  -43.9436   57.2089   64.9259 C   0  0  0  0  0  0  0  0  0  0  0  0
  -44.6064   57.3647   66.3100 C   0  0  0  0  0  0  0  0  0  0  0  0
  -46.0493   57.5351   66.1123 N   0  0  0  0  0  0  0  0  0  0  0  0
  -46.7354   58.6431   65.7262 C   0  0  0  0  0  0  0  0  0  0  0  0
  -46.7982   56.3768   66.3635 O   0  0  0  0  0  0  0  0  0  0  0  0
  -46.1526   59.6975   65.4737 O   0  0  0  0  0  0  0  0  0  0  0  0
  -47.7386   56.5611   66.2139 H   0  0  0  0  0  0  0  0  0  0  0  0
  -48.2616   58.5683   65.6123 C   0  0  0  0  0  0  0  0  0  0  0  0
  -48.9775   59.9168   65.7691 C   0  0  0  0  0  0  0  0  0  0  0  0
  -50.4856   59.6921   65.9907 C   0  0  0  0  0  0  0  0  0  0  0  0
  -51.3648   60.2611   64.8609 C   0  0  0  0  0  0  0  0  0  0  0  0
  -50.6964   60.2754   63.4734 C   0  0  0  0  0  0  0  0  0  0  0  0
  -51.3635   59.3055   62.4758 C   0  0  0  0  0  0  0  0  0  0  0  0
  -50.7672   57.8786   62.4718 C   0  0  0  0  0  0  0  0  0  0  0  0
  -50.8143   57.2018   61.0970 C   0  0  0  0  0  0  0  0  0  0  0  0
  -50.6177   58.1363   59.8991 C   0  0  0  0  0  0  0  0  0  0  0  0
  -49.1267   58.2929   59.5485 C   0  0  0  0  0  0  0  0  0  0  0  0
  -48.2459   57.1357   60.0433 C   0  0  0  0  0  0  0  0  0  0  0  0
  -47.2043   56.6183   59.0458 C   0  0  0  0  0  0  0  0  0  0  0  0
  -47.8016   56.1025   57.7128 C   0  0  0  0  0  0  0  0  0  0  0  0
  -47.1933   56.8354   56.4999 C   0  0  0  0  0  0  0  0  0  0  0  0
  -47.1407   58.3666   56.5617 C   0  0  0  0  0  0  0  0  0  0  0  0
 46 47  1  0  0  0
 46 48  1  0  0  0
 46 45  1  0  0  0
 47 49  2  0  0  0
 47 51  1  0  0  0
 19 20  2  0  0  0
 37 38  1  0  0  0
 37 39  1  0  0  0
 37 40  1  0  0  0
 37 41  1  0  0  0
 48 50  1  0  0  0
 38 29  1  0  0  0
 45 44  1  0  0  0
 25 27  1  0  0  0
 25 35  1  0  0  0
 25 28  1  0  0  0
 21 20  1  0  0  0
 21 22  1  0  0  0
 44 42  1  0  0  0
  2  1  1  0  0  0
  2  4  1  0  0  0
  2  5  1  0  0  0
 26 27  2  0  0  0
 42 43  2  0  0  0
 29 31  1  0  0  0
 29 36  1  0  0  0
  3  4  2  0  0  0
 43  1  1  0  0  0
  6  9  2  0  0  0
  6 10  1  0  0  0
  1 20  1  0  0  0
 30 36  2  0  0  0
  7  8  1  0  0  0
  7  9  1  0  0  0
 22 24  1  0  0  0
 22 23  1  0  0  0
 11 12  1  0  0  0
 11 18  1  0  0  0
 24 27  1  0  0  0
  4 10  1  0  0  0
 51 52  1  0  0  0
 52 53  1  0  0  0
 53 54  1  0  0  0
 54 55  1  0  0  0
 55 56  1  0  0  0
 56 57  1  0  0  0
 57 58  1  0  0  0
 58 59  1  0  0  0
 59 60  1  0  0  0
 60 61  1  0  0  0
 61 62  1  0  0  0
 62 63  1  0  0  0
 63 64  1  0  0  0
 64 65  1  0  0  0
 31 32  1  0  0  0
 32 33  1  0  0  0
 33 34  1  0  0  0
 34 35  1  0  0  0
 35 36  1  0  0  0
  8 10  1  0  0  0
  9 17  1  0  0  0
 12 13  2  0  0  0
 12 17  1  0  0  0
 13 14  1  0  0  0
 14 15  2  0  0  0
 15 16  1  0  0  0
 16 17  2  0  0  0
M  END
> <minimizedAffinity>
-9.52602

> <CNNscore>
0.1469491571

> <CNNaffinity>
7.3380727768

> <CNN_VS>
1.0783236027

> <CNNaffinity_variance>
0.3970227838

$$$$
/media/chris/experiments/cd1a-new-docking/inputs/ligands/1xz0_ligand.pdb


 65 67  0  0  0  0  0  0  0  0999 V2000
  -41.6862   58.7962   64.6976 C   0  0  0  0  0  0  0  0  0  0  0  0
  -40.3507   58.8137   65.2978 N   0  0  0  0  0  0  0  0  0  0  0  0
  -39.7412   60.9984   65.1286 O   0  0  0  0  0  0  0  0  0  0  0  0
  -39.5070   59.8462   65.4690 C   0  0  0  0  0  0  0  0  0  0  0  0
  -40.0235   57.9438   65.6229 H   0  0  0  0  0  0  0  0  0  0  0  0
  -37.3839   60.7785   66.3653 N   0  0  0  0  0  0  0  0  0  0  0  0
  -35.9285   59.6438   65.1059 O   0  0  0  0  0  0  0  0  0  0  0  0
  -37.0823   58.8046   65.1390 C   0  0  0  0  0  0  0  0  0  0  0  0
  -36.2216   60.8297   65.8713 C   0  0  0  0  0  0  0  0  0  0  0  0
  -38.1216   59.5475   66.0236 C   0  0  0  0  0  0  0  0  0  0  0  0
  -36.9309   63.6283   66.1194 O   0  0  0  0  0  0  0  0  0  0  0  0
  -35.6429   63.2778   66.2200 C   0  0  0  0  0  0  0  0  0  0  0  0
  -34.6739   64.2614   66.4575 C   0  0  0  0  0  0  0  0  0  0  0  0
  -33.3146   63.9205   66.5577 C   0  0  0  0  0  0  0  0  0  0  0  0
  -32.9097   62.5905   66.4314 C   0  0  0  0  0  0  0  0  0  0  0  0
  -33.8732   61.6047   66.2007 C   0  0  0  0  0  0  0  0  0  0  0  0
  -35.2353   61.9444   66.0910 C   0  0  0  0  0  0  0  0  0  0  0  0
  -37.1803   64.5270   66.2091 H   0  0  0  0  0  0  0  0  0  0  0  0
  -42.5246   59.5744   66.8016 O   0  0  0  0  0  0  0  0  0  0  0  0
  -42.6729   58.8263   65.8494 C   0  0  0  0  0  0  0  0  0  0  0  0
  -43.8029   57.8915   65.8668 O   0  0  0  0  0  0  0  0  0  0  0  0
  -44.9601   58.0994   65.0354 C   0  0  0  0  0  0  0  0  0  0  0  0
  -45.1408   59.5323   64.5497 C   0  0  0  0  0  0  0  0  0  0  0  0
  -46.1880   57.6179   65.7935 C   0  0  0  0  0  0  0  0  0  0  0  0
  -48.1970   59.0099   65.9441 N   0  0  0  0  0  0  0  0  0  0  0  0
  -46.4771   59.2757   67.3887 O   0  0  0  0  0  0  0  0  0  0  0  0
  -46.9741   58.7406   66.4243 C   0  0  0  0  0  0  0  0  0  0  0  0
  -48.7268   59.7010   66.4032 H   0  0  0  0  0  0  0  0  0  0  0  0
  -49.1306   60.1989   63.1929 N   0  0  0  0  0  0  0  0  0  0  0  0
  -47.8590   58.4326   62.6197 O   0  0  0  0  0  0  0  0  0  0  0  0
  -49.7529   61.0818   64.1905 C   0  0  0  0  0  0  0  0  0  0  0  0
  -51.0463   60.4536   64.7429 C   0  0  0  0  0  0  0  0  0  0  0  0
  -51.3106   59.0223   64.3055 C   0  0  0  0  0  0  0  0  0  0  0  0
  -50.3013   58.0248   64.8801 C   0  0  0  0  0  0  0  0  0  0  0  0
  -48.8007   58.3471   64.7825 C   0  0  0  0  0  0  0  0  0  0  0  0
  -48.5502   59.0146   63.4444 C   0  0  0  0  0  0  0  0  0  0  0  0
  -48.6502   59.5229   60.5783 Si  0  0  0  0  0  0  0  0  0  0  0  0
  -49.1351   60.6256   61.8991 O   0  0  0  0  0  0  0  0  0  0  0  0
  -48.7408   60.2040   59.3356 H   0  0  0  0  0  0  0  0  0  0  0  0
  -49.5121   58.3944   60.5635 H   0  0  0  0  0  0  0  0  0  0  0  0
  -47.3126   59.0940   60.7867 H   0  0  0  0  0  0  0  0  0  0  0  0
  -40.9034   56.6242   63.4471 C   0  0  0  0  0  0  0  0  0  0  0  0
  -41.9843   57.6923   63.6542 C   0  0  0  0  0  0  0  0  0  0  0  0
  -40.9786   55.8021   62.1493 C   0  0  0  0  0  0  0  0  0  0  0  0
  -41.1022   56.5778   60.8218 C   0  0  0  0  0  0  0  0  0  0  0  0
  -40.0944   57.6428   60.8159 N   0  0  0  0  0  0  0  0  0  0  0  0
  -40.2579   58.9748   60.5997 C   0  0  0  0  0  0  0  0  0  0  0  0
  -38.7914   57.1939   61.0728 O   0  0  0  0  0  0  0  0  0  0  0  0
  -41.3708   59.4526   60.3800 O   0  0  0  0  0  0  0  0  0  0  0  0
  -38.1803   57.9469   61.0536 H   0  0  0  0  0  0  0  0  0  0  0  0
  -39.0271   59.8872   60.6264 C   0  0  0  0  0  0  0  0  0  0  0  0
  -38.8204   60.6370   61.9494 C   0  0  0  0  0  0  0  0  0  0  0  0
  -37.3192   60.8947   62.1821 C   0  0  0  0  0  0  0  0  0  0  0  0
  -37.0280   62.2234   62.9052 C   0  0  0  0  0  0  0  0  0  0  0  0
  -36.3953   63.3114   62.0176 C   0  0  0  0  0  0  0  0  0  0  0  0
  -35.6785   64.4087   62.8321 C   0  0  0  0  0  0  0  0  0  0  0  0
  -34.8572   65.4057   61.9819 C   0  0  0  0  0  0  0  0  0  0  0  0
  -33.3486   65.1341   62.0116 C   0  0  0  0  0  0  0  0  0  0  0  0
  -32.8990   64.0366   62.9811 C   0  0  0  0  0  0  0  0  0  0  0  0
  -32.3680   62.8042   62.2262 C   0  0  0  0  0  0  0  0  0  0  0  0
  -32.9582   61.4727   62.7148 C   0  0  0  0  0  0  0  0  0  0  0  0
  -32.3633   60.2095   62.0840 C   0  0  0  0  0  0  0  0  0  0  0  0
  -31.6689   59.2612   63.0931 C   0  0  0  0  0  0  0  0  0  0  0  0
  -32.6937   58.3888   63.8459 C   0  0  0  0  0  0  0  0  0  0  0  0
  -33.7927   57.7215   63.0102 C   0  0  0  0  0  0  0  0  0  0  0  0
 46 47  1  0  0  0
 46 48  1  0  0  0
 46 45  1  0  0  0
 47 49  2  0  0  0
 47 51  1  0  0  0
 19 20  2  0  0  0
 37 38  1  0  0  0
 37 39  1  0  0  0
 37 40  1  0  0  0
 37 41  1  0  0  0
 48 50  1  0  0  0
 38 29  1  0  0  0
 45 44  1  0  0  0
 25 27  1  0  0  0
 25 35  1  0  0  0
 25 28  1  0  0  0
 21 20  1  0  0  0
 21 22  1  0  0  0
 44 42  1  0  0  0
  2  1  1  0  0  0
  2  4  1  0  0  0
  2  5  1  0  0  0
 26 27  2  0  0  0
 42 43  2  0  0  0
 29 31  1  0  0  0
 29 36  1  0  0  0
  3  4  2  0  0  0
 43  1  1  0  0  0
  6  9  2  0  0  0
  6 10  1  0  0  0
  1 20  1  0  0  0
 30 36  2  0  0  0
  7  8  1  0  0  0
  7  9  1  0  0  0
 22 24  1  0  0  0
 22 23  1  0  0  0
 11 12  1  0  0  0
 11 18  1  0  0  0
 24 27  1  0  0  0
  4 10  1  0  0  0
 51 52  1  0  0  0
 52 53  1  0  0  0
 53 54  1  0  0  0
 54 55  1  0  0  0
 55 56  1  0  0  0
 56 57  1  0  0  0
 57 58  1  0  0  0
 58 59  1  0  0  0
 59 60  1  0  0  0
 60 61  1  0  0  0
 61 62  1  0  0  0
 62 63  1  0  0  0
 63 64  1  0  0  0
 64 65  1  0  0  0
 31 32  1  0  0  0
 32 33  1  0  0  0
 33 34  1  0  0  0
 34 35  1  0  0  0
 35 36  1  0  0  0
  8 10  1  0  0  0
  9 17  1  0  0  0
 12 13  2  0  0  0
 12 17  1  0  0  0
 13 14  1  0  0  0
 14 15  2  0  0  0
 15 16  1  0  0  0
 16 17  2  0  0  0
M  END
> <minimizedAffinity>
-8.55433

> <CNNscore>
0.1352033168

> <CNNaffinity>
7.4416289330

> <CNN_VS>
1.0061329603

> <CNNaffinity_variance>
1.4296669960

$$$$
