/media/chris/experiments/cd1a-new-docking/inputs/ligands/1xz0_ligand.pdb


 65 67  0  0  0  0  0  0  0  0999 V2000
  -40.3610   58.2636   63.8675 C   0  0  0  0  0  0  0  0  0  0  0  0
  -39.9170   59.4623   64.5818 N   0  0  0  0  0  0  0  0  0  0  0  0
  -38.5310   60.6958   65.8972 O   0  0  0  0  0  0  0  0  0  0  0  0
  -38.8121   59.6515   65.3239 C   0  0  0  0  0  0  0  0  0  0  0  0
  -40.5136   60.2420   64.5079 H   0  0  0  0  0  0  0  0  0  0  0  0
  -36.4205   59.0164   65.0851 N   0  0  0  0  0  0  0  0  0  0  0  0
  -36.6425   57.2822   63.6939 O   0  0  0  0  0  0  0  0  0  0  0  0
  -37.8977   57.3435   64.3702 C   0  0  0  0  0  0  0  0  0  0  0  0
  -35.8188   58.3554   64.1914 C   0  0  0  0  0  0  0  0  0  0  0  0
  -37.7845   58.5299   65.3673 C   0  0  0  0  0  0  0  0  0  0  0  0
  -33.4943   58.2735   65.9197 O   0  0  0  0  0  0  0  0  0  0  0  0
  -33.3213   58.5313   64.6176 C   0  0  0  0  0  0  0  0  0  0  0  0
  -32.0288   58.7383   64.1181 C   0  0  0  0  0  0  0  0  0  0  0  0
  -31.8216   59.0198   62.7572 C   0  0  0  0  0  0  0  0  0  0  0  0
  -32.9040   59.0877   61.8782 C   0  0  0  0  0  0  0  0  0  0  0  0
  -34.1948   58.8756   62.3704 C   0  0  0  0  0  0  0  0  0  0  0  0
  -34.4063   58.6019   63.7353 C   0  0  0  0  0  0  0  0  0  0  0  0
  -32.7531   58.2310   66.4913 H   0  0  0  0  0  0  0  0  0  0  0  0
  -41.5869   59.2494   62.0616 O   0  0  0  0  0  0  0  0  0  0  0  0
  -40.5708   58.6794   62.4239 C   0  0  0  0  0  0  0  0  0  0  0  0
  -39.5662   58.3358   61.4122 O   0  0  0  0  0  0  0  0  0  0  0  0
  -38.8129   59.3547   60.7278 C   0  0  0  0  0  0  0  0  0  0  0  0
  -38.4470   59.0117   59.2890 C   0  0  0  0  0  0  0  0  0  0  0  0
  -37.5718   59.6670   61.5503 C   0  0  0  0  0  0  0  0  0  0  0  0
  -36.5606   61.5779   62.7001 N   0  0  0  0  0  0  0  0  0  0  0  0
  -38.8059   61.3751   62.5177 O   0  0  0  0  0  0  0  0  0  0  0  0
  -37.6881   60.9493   62.3368 C   0  0  0  0  0  0  0  0  0  0  0  0
  -35.7047   61.1341   62.5007 H   0  0  0  0  0  0  0  0  0  0  0  0
  -34.3406   63.7970   62.6617 N   0  0  0  0  0  0  0  0  0  0  0  0
  -36.2398   64.9187   62.2144 O   0  0  0  0  0  0  0  0  0  0  0  0
  -33.6027   62.5622   62.9661 C   0  0  0  0  0  0  0  0  0  0  0  0
  -33.7101   62.2182   64.4637 C   0  0  0  0  0  0  0  0  0  0  0  0
  -34.6735   63.0823   65.2604 C   0  0  0  0  0  0  0  0  0  0  0  0
  -36.1369   62.8680   64.8650 C   0  0  0  0  0  0  0  0  0  0  0  0
  -36.5127   62.8806   63.3738 C   0  0  0  0  0  0  0  0  0  0  0  0
  -35.6752   63.9420   62.6876 C   0  0  0  0  0  0  0  0  0  0  0  0
  -32.2142   64.7282   61.2007 Si  0  0  0  0  0  0  0  0  0  0  0  0
  -33.6044   64.8890   62.3130 O   0  0  0  0  0  0  0  0  0  0  0  0
  -31.6196   66.0020   60.9991 H   0  0  0  0  0  0  0  0  0  0  0  0
  -32.6614   64.2123   59.9556 H   0  0  0  0  0  0  0  0  0  0  0  0
  -31.2573   63.8429   61.7637 H   0  0  0  0  0  0  0  0  0  0  0  0
  -42.5068   58.2557   65.3806 C   0  0  0  0  0  0  0  0  0  0  0  0
  -41.5528   57.4777   64.4660 C   0  0  0  0  0  0  0  0  0  0  0  0
  -43.4102   57.4263   66.3089 C   0  0  0  0  0  0  0  0  0  0  0  0
  -44.7972   57.0168   65.7722 C   0  0  0  0  0  0  0  0  0  0  0  0
  -45.8180   57.7395   66.5373 N   0  0  0  0  0  0  0  0  0  0  0  0
  -46.4968   58.8693   66.2049 C   0  0  0  0  0  0  0  0  0  0  0  0
  -46.1139   57.1602   67.7792 O   0  0  0  0  0  0  0  0  0  0  0  0
  -47.3331   59.3569   66.9650 O   0  0  0  0  0  0  0  0  0  0  0  0
  -46.7931   57.6873   68.2284 H   0  0  0  0  0  0  0  0  0  0  0  0
  -46.2122   59.5355   64.8547 C   0  0  0  0  0  0  0  0  0  0  0  0
  -47.3239   59.3584   63.8116 C   0  0  0  0  0  0  0  0  0  0  0  0
  -48.0183   60.7077   63.5448 C   0  0  0  0  0  0  0  0  0  0  0  0
  -49.0425   61.0970   64.6276 C   0  0  0  0  0  0  0  0  0  0  0  0
  -50.1942   60.0915   64.8124 C   0  0  0  0  0  0  0  0  0  0  0  0
  -51.5151   60.5673   64.1720 C   0  0  0  0  0  0  0  0  0  0  0  0
  -52.0479   59.6524   63.0448 C   0  0  0  0  0  0  0  0  0  0  0  0
  -50.9529   59.1550   62.0942 C   0  0  0  0  0  0  0  0  0  0  0  0
  -50.6654   57.6515   62.1549 C   0  0  0  0  0  0  0  0  0  0  0  0
  -50.6504   57.0257   60.7482 C   0  0  0  0  0  0  0  0  0  0  0  0
  -49.3768   56.2253   60.4364 C   0  0  0  0  0  0  0  0  0  0  0  0
  -48.2190   57.0258   59.8310 C   0  0  0  0  0  0  0  0  0  0  0  0
  -48.6599   58.1293   58.8374 C   0  0  0  0  0  0  0  0  0  0  0  0
  -48.3724   57.7231   57.3777 C   0  0  0  0  0  0  0  0  0  0  0  0
  -47.0365   58.1748   56.7757 C   0  0  0  0  0  0  0  0  0  0  0  0
 46 47  1  0  0  0
 46 48  1  0  0  0
 46 45  1  0  0  0
 47 49  2  0  0  0
 47 51  1  0  0  0
 19 20  2  0  0  0
 37 38  1  0  0  0
 37 39  1  0  0  0
 37 40  1  0  0  0
 37 41  1  0  0  0
 48 50  1  0  0  0
 38 29  1  0  0  0
 45 44  1  0  0  0
 25 27  1  0  0  0
 25 35  1  0  0  0
 25 28  1  0  0  0
 21 20  1  0  0  0
 21 22  1  0  0  0
 44 42  1  0  0  0
  2  1  1  0  0  0
  2  4  1  0  0  0
  2  5  1  0  0  0
 26 27  2  0  0  0
 42 43  2  0  0  0
 29 31  1  0  0  0
 29 36  1  0  0  0
  3  4  2  0  0  0
 43  1  1  0  0  0
  6  9  2  0  0  0
  6 10  1  0  0  0
  1 20  1  0  0  0
 30 36  2  0  0  0
  7  8  1  0  0  0
  7  9  1  0  0  0
 22 24  1  0  0  0
 22 23  1  0  0  0
 11 12  1  0  0  0
 11 18  1  0  0  0
 24 27  1  0  0  0
  4 10  1  0  0  0
 51 52  1  0  0  0
 52 53  1  0  0  0
 53 54  1  0  0  0
 54 55  1  0  0  0
 55 56  1  0  0  0
 56 57  1  0  0  0
 57 58  1  0  0  0
 58 59  1  0  0  0
 59 60  1  0  0  0
 60 61  1  0  0  0
 61 62  1  0  0  0
 62 63  1  0  0  0
 63 64  1  0  0  0
 64 65  1  0  0  0
 31 32  1  0  0  0
 32 33  1  0  0  0
 33 34  1  0  0  0
 34 35  1  0  0  0
 35 36  1  0  0  0
  8 10  1  0  0  0
  9 17  1  0  0  0
 12 13  2  0  0  0
 12 17  1  0  0  0
 13 14  1  0  0  0
 14 15  2  0  0  0
 15 16  1  0  0  0
 16 17  2  0  0  0
M  END
> <minimizedAffinity>
-9.86057

> <CNNscore>
0.2860509157

> <CNNaffinity>
7.5107069016

> <CNN_VS>
2.1484446526

> <CNNaffinity_variance>
0.6852847338

$$$$
/media/chris/experiments/cd1a-new-docking/inputs/ligands/1xz0_ligand.pdb


 65 67  0  0  0  0  0  0  0  0999 V2000
  -35.8088   61.4072   64.7801 C   0  0  0  0  0  0  0  0  0  0  0  0
  -34.7968   60.5773   65.4367 N   0  0  0  0  0  0  0  0  0  0  0  0
  -33.3350   58.8437   65.6126 O   0  0  0  0  0  0  0  0  0  0  0  0
  -34.1648   59.4825   64.9790 C   0  0  0  0  0  0  0  0  0  0  0  0
  -34.5425   60.8620   66.3443 H   0  0  0  0  0  0  0  0  0  0  0  0
  -35.8387   59.1731   63.1672 N   0  0  0  0  0  0  0  0  0  0  0  0
  -35.2914   57.1071   62.5161 O   0  0  0  0  0  0  0  0  0  0  0  0
  -34.0861   57.6199   63.0823 C   0  0  0  0  0  0  0  0  0  0  0  0
  -36.3036   58.1269   62.6316 C   0  0  0  0  0  0  0  0  0  0  0  0
  -34.4139   59.0697   63.5355 C   0  0  0  0  0  0  0  0  0  0  0  0
  -37.5328   59.8369   60.6411 O   0  0  0  0  0  0  0  0  0  0  0  0
  -38.2414   58.8179   61.1423 C   0  0  0  0  0  0  0  0  0  0  0  0
  -39.5464   58.5908   60.6860 C   0  0  0  0  0  0  0  0  0  0  0  0
  -40.3140   57.5337   61.2032 C   0  0  0  0  0  0  0  0  0  0  0  0
  -39.7817   56.6853   62.1755 C   0  0  0  0  0  0  0  0  0  0  0  0
  -38.4780   56.9036   62.6294 C   0  0  0  0  0  0  0  0  0  0  0  0
  -37.7094   57.9675   62.1194 C   0  0  0  0  0  0  0  0  0  0  0  0
  -37.9097   60.3929   59.9878 H   0  0  0  0  0  0  0  0  0  0  0  0
  -35.7911   63.6940   64.0689 O   0  0  0  0  0  0  0  0  0  0  0  0
  -35.1977   62.7874   64.6296 C   0  0  0  0  0  0  0  0  0  0  0  0
  -33.8330   63.0370   65.1050 O   0  0  0  0  0  0  0  0  0  0  0  0
  -33.5852   63.6307   66.3934 C   0  0  0  0  0  0  0  0  0  0  0  0
  -34.7975   64.3066   67.0221 C   0  0  0  0  0  0  0  0  0  0  0  0
  -32.4235   64.6036   66.2575 C   0  0  0  0  0  0  0  0  0  0  0  0
  -31.8797   64.8174   63.8796 N   0  0  0  0  0  0  0  0  0  0  0  0
  -33.0492   66.4222   64.9624 O   0  0  0  0  0  0  0  0  0  0  0  0
  -32.4438   65.3749   64.9610 C   0  0  0  0  0  0  0  0  0  0  0  0
  -31.4111   63.9598   63.9987 H   0  0  0  0  0  0  0  0  0  0  0  0
  -33.5455   63.9772   61.3550 N   0  0  0  0  0  0  0  0  0  0  0  0
  -33.8899   66.1951   61.5215 O   0  0  0  0  0  0  0  0  0  0  0  0
  -32.9405   62.7188   61.8157 C   0  0  0  0  0  0  0  0  0  0  0  0
  -31.4881   62.5977   61.3173 C   0  0  0  0  0  0  0  0  0  0  0  0
  -30.9304   63.8368   60.6366 C   0  0  0  0  0  0  0  0  0  0  0  0
  -30.7517   65.0171   61.5952 C   0  0  0  0  0  0  0  0  0  0  0  0
  -31.9116   65.3955   62.5313 C   0  0  0  0  0  0  0  0  0  0  0  0
  -33.2094   65.2092   61.7698 C   0  0  0  0  0  0  0  0  0  0  0  0
  -36.1891   63.3880   60.9214 Si  0  0  0  0  0  0  0  0  0  0  0  0
  -34.5428   63.8837   60.4316 O   0  0  0  0  0  0  0  0  0  0  0  0
  -37.0363   63.3688   59.7820 H   0  0  0  0  0  0  0  0  0  0  0  0
  -36.6975   64.3105   61.8737 H   0  0  0  0  0  0  0  0  0  0  0  0
  -36.1411   62.0910   61.4975 H   0  0  0  0  0  0  0  0  0  0  0  0
  -37.9066   60.0620   65.6070 C   0  0  0  0  0  0  0  0  0  0  0  0
  -37.2286   61.4214   65.3968 C   0  0  0  0  0  0  0  0  0  0  0  0
  -39.4329   60.0687   65.7966 C   0  0  0  0  0  0  0  0  0  0  0  0
  -40.2596   59.0804   64.9485 C   0  0  0  0  0  0  0  0  0  0  0  0
  -41.0010   59.8466   63.9420 N   0  0  0  0  0  0  0  0  0  0  0  0
  -42.2928   59.7090   63.5418 C   0  0  0  0  0  0  0  0  0  0  0  0
  -40.2464   60.8541   63.3248 O   0  0  0  0  0  0  0  0  0  0  0  0
  -42.7726   60.4400   62.6756 O   0  0  0  0  0  0  0  0  0  0  0  0
  -40.7966   61.3177   62.6743 H   0  0  0  0  0  0  0  0  0  0  0  0
  -43.1594   58.6255   64.1921 C   0  0  0  0  0  0  0  0  0  0  0  0
  -44.6696   58.8876   64.1140 C   0  0  0  0  0  0  0  0  0  0  0  0
  -45.2803   58.8854   65.5286 C   0  0  0  0  0  0  0  0  0  0  0  0
  -46.6105   59.6564   65.6255 C   0  0  0  0  0  0  0  0  0  0  0  0
  -47.8472   58.8619   65.1661 C   0  0  0  0  0  0  0  0  0  0  0  0
  -49.1700   59.4455   65.7055 C   0  0  0  0  0  0  0  0  0  0  0  0
  -49.8609   60.4528   64.7570 C   0  0  0  0  0  0  0  0  0  0  0  0
  -51.3917   60.3988   64.8203 C   0  0  0  0  0  0  0  0  0  0  0  0
  -52.1032   60.3695   63.4639 C   0  0  0  0  0  0  0  0  0  0  0  0
  -51.2110   59.7449   62.3756 C   0  0  0  0  0  0  0  0  0  0  0  0
  -51.3695   58.2231   62.2383 C   0  0  0  0  0  0  0  0  0  0  0  0
  -50.1896   57.4863   61.5959 C   0  0  0  0  0  0  0  0  0  0  0  0
  -49.0104   58.4053   61.1907 C   0  0  0  0  0  0  0  0  0  0  0  0
  -49.0345   58.7236   59.6819 C   0  0  0  0  0  0  0  0  0  0  0  0
  -49.7398   57.7166   58.7655 C   0  0  0  0  0  0  0  0  0  0  0  0
 46 47  1  0  0  0
 46 48  1  0  0  0
 46 45  1  0  0  0
 47 49  2  0  0  0
 47 51  1  0  0  0
 19 20  2  0  0  0
 37 38  1  0  0  0
 37 39  1  0  0  0
 37 40  1  0  0  0
 37 41  1  0  0  0
 48 50  1  0  0  0
 38 29  1  0  0  0
 45 44  1  0  0  0
 25 27  1  0  0  0
 25 35  1  0  0  0
 25 28  1  0  0  0
 21 20  1  0  0  0
 21 22  1  0  0  0
 44 42  1  0  0  0
  2  1  1  0  0  0
  2  4  1  0  0  0
  2  5  1  0  0  0
 26 27  2  0  0  0
 42 43  2  0  0  0
 29 31  1  0  0  0
 29 36  1  0  0  0
  3  4  2  0  0  0
 43  1  1  0  0  0
  6  9  2  0  0  0
  6 10  1  0  0  0
  1 20  1  0  0  0
 30 36  2  0  0  0
  7  8  1  0  0  0
  7  9  1  0  0  0
 22 24  1  0  0  0
 22 23  1  0  0  0
 11 12  1  0  0  0
 11 18  1  0  0  0
 24 27  1  0  0  0
  4 10  1  0  0  0
 51 52  1  0  0  0
 52 53  1  0  0  0
 53 54  1  0  0  0
 54 55  1  0  0  0
 55 56  1  0  0  0
 56 57  1  0  0  0
 57 58  1  0  0  0
 58 59  1  0  0  0
 59 60  1  0  0  0
 60 61  1  0  0  0
 61 62  1  0  0  0
 62 63  1  0  0  0
 63 64  1  0  0  0
 64 65  1  0  0  0
 31 32  1  0  0  0
 32 33  1  0  0  0
 33 34  1  0  0  0
 34 35  1  0  0  0
 35 36  1  0  0  0
  8 10  1  0  0  0
  9 17  1  0  0  0
 12 13  2  0  0  0
 12 17  1  0  0  0
 13 14  1  0  0  0
 14 15  2  0  0  0
 15 16  1  0  0  0
 16 17  2  0  0  0
M  END
> <minimizedAffinity>
-9.33750

> <CNNscore>
0.1445280910

> <CNNaffinity>
6.9052124023

> <CNN_VS>
0.9979971647

> <CNNaffinity_variance>
0.5725297928

$$$$
/media/chris/experiments/cd1a-new-docking/inputs/ligands/1xz0_ligand.pdb


 65 67  0  0  0  0  0  0  0  0999 V2000
  -40.5882   59.5658   65.4717 C   0  0  0  0  0  0  0  0  0  0  0  0
  -39.4764   59.9936   66.3232 N   0  0  0  0  0  0  0  0  0  0  0  0
  -37.3063   60.4631   66.8165 O   0  0  0  0  0  0  0  0  0  0  0  0
  -38.1699   60.1051   66.0264 C   0  0  0  0  0  0  0  0  0  0  0  0
  -39.7208   60.2341   67.2461 H   0  0  0  0  0  0  0  0  0  0  0  0
  -36.3636   59.3754   64.4820 N   0  0  0  0  0  0  0  0  0  0  0  0
  -36.3873   61.0959   63.0568 O   0  0  0  0  0  0  0  0  0  0  0  0
  -37.7095   61.0756   63.5935 C   0  0  0  0  0  0  0  0  0  0  0  0
  -35.6420   60.0285   63.6756 C   0  0  0  0  0  0  0  0  0  0  0  0
  -37.7473   59.8775   64.5822 C   0  0  0  0  0  0  0  0  0  0  0  0
  -33.7518   61.9263   62.5697 O   0  0  0  0  0  0  0  0  0  0  0  0
  -33.3383   60.6795   62.8273 C   0  0  0  0  0  0  0  0  0  0  0  0
  -32.0067   60.3251   62.5743 C   0  0  0  0  0  0  0  0  0  0  0  0
  -31.5506   59.0204   62.8273 C   0  0  0  0  0  0  0  0  0  0  0  0
  -32.4185   58.0578   63.3455 C   0  0  0  0  0  0  0  0  0  0  0  0
  -33.7464   58.4081   63.6056 C   0  0  0  0  0  0  0  0  0  0  0  0
  -34.2086   59.7124   63.3450 C   0  0  0  0  0  0  0  0  0  0  0  0
  -33.1514   62.5568   62.2235 H   0  0  0  0  0  0  0  0  0  0  0  0
  -41.8281   61.6062   65.6590 O   0  0  0  0  0  0  0  0  0  0  0  0
  -41.2259   60.8323   64.9330 C   0  0  0  0  0  0  0  0  0  0  0  0
  -41.1846   61.1152   63.4945 O   0  0  0  0  0  0  0  0  0  0  0  0
  -42.3899   61.1830   62.7094 C   0  0  0  0  0  0  0  0  0  0  0  0
  -43.1715   59.8770   62.6363 C   0  0  0  0  0  0  0  0  0  0  0  0
  -42.0290   61.6851   61.3194 C   0  0  0  0  0  0  0  0  0  0  0  0
  -40.3853   59.8792   61.1373 N   0  0  0  0  0  0  0  0  0  0  0  0
  -41.5480   60.5908   59.3325 O   0  0  0  0  0  0  0  0  0  0  0  0
  -41.2600   60.6747   60.5045 C   0  0  0  0  0  0  0  0  0  0  0  0
  -40.2299   60.0413   62.0959 H   0  0  0  0  0  0  0  0  0  0  0  0
  -40.8574   56.7779   61.2548 N   0  0  0  0  0  0  0  0  0  0  0  0
  -40.6544   57.2152   59.0564 O   0  0  0  0  0  0  0  0  0  0  0  0
  -40.8798   57.1938   62.6649 C   0  0  0  0  0  0  0  0  0  0  0  0
  -39.4476   57.3381   63.2133 C   0  0  0  0  0  0  0  0  0  0  0  0
  -38.3411   57.2117   62.1792 C   0  0  0  0  0  0  0  0  0  0  0  0
  -38.3254   58.3673   61.1752 C   0  0  0  0  0  0  0  0  0  0  0  0
  -39.6437   58.7841   60.5019 C   0  0  0  0  0  0  0  0  0  0  0  0
  -40.4446   57.5278   60.2204 C   0  0  0  0  0  0  0  0  0  0  0  0
  -41.9804   55.1420   59.3611 Si  0  0  0  0  0  0  0  0  0  0  0  0
  -41.3047   55.5226   60.9718 O   0  0  0  0  0  0  0  0  0  0  0  0
  -42.3714   53.7774   59.3222 H   0  0  0  0  0  0  0  0  0  0  0  0
  -40.9957   55.3806   58.3662 H   0  0  0  0  0  0  0  0  0  0  0  0
  -43.1109   55.9654   59.1153 H   0  0  0  0  0  0  0  0  0  0  0  0
  -42.9626   58.4495   65.3714 C   0  0  0  0  0  0  0  0  0  0  0  0
  -41.6055   58.5677   66.0759 C   0  0  0  0  0  0  0  0  0  0  0  0
  -44.1114   57.8199   66.1774 C   0  0  0  0  0  0  0  0  0  0  0  0
  -45.3655   58.6840   66.4228 C   0  0  0  0  0  0  0  0  0  0  0  0
  -46.5490   57.8729   66.1209 N   0  0  0  0  0  0  0  0  0  0  0  0
  -47.6545   58.2058   65.4035 C   0  0  0  0  0  0  0  0  0  0  0  0
  -46.5045   56.5795   66.6599 O   0  0  0  0  0  0  0  0  0  0  0  0
  -48.5722   57.4025   65.2380 O   0  0  0  0  0  0  0  0  0  0  0  0
  -47.3146   56.1020   66.4222 H   0  0  0  0  0  0  0  0  0  0  0  0
  -47.7462   59.6065   64.7892 C   0  0  0  0  0  0  0  0  0  0  0  0
  -48.7430   60.5424   65.4865 C   0  0  0  0  0  0  0  0  0  0  0  0
  -49.8584   60.9520   64.5056 C   0  0  0  0  0  0  0  0  0  0  0  0
  -51.2027   60.2495   64.7749 C   0  0  0  0  0  0  0  0  0  0  0  0
  -52.1036   60.0920   63.5358 C   0  0  0  0  0  0  0  0  0  0  0  0
  -51.3521   59.5181   62.3163 C   0  0  0  0  0  0  0  0  0  0  0  0
  -50.9498   58.0309   62.4521 C   0  0  0  0  0  0  0  0  0  0  0  0
  -51.0327   57.2539   61.1332 C   0  0  0  0  0  0  0  0  0  0  0  0
  -50.2662   57.8714   59.9593 C   0  0  0  0  0  0  0  0  0  0  0  0
  -48.7570   57.5842   60.0614 C   0  0  0  0  0  0  0  0  0  0  0  0
  -48.3490   56.2016   59.5305 C   0  0  0  0  0  0  0  0  0  0  0  0
  -47.2182   56.1927   58.4966 C   0  0  0  0  0  0  0  0  0  0  0  0
  -47.6903   55.9605   57.0397 C   0  0  0  0  0  0  0  0  0  0  0  0
  -47.9724   57.2938   56.3177 C   0  0  0  0  0  0  0  0  0  0  0  0
  -47.2080   58.5298   56.8068 C   0  0  0  0  0  0  0  0  0  0  0  0
 46 47  1  0  0  0
 46 48  1  0  0  0
 46 45  1  0  0  0
 47 49  2  0  0  0
 47 51  1  0  0  0
 19 20  2  0  0  0
 37 38  1  0  0  0
 37 39  1  0  0  0
 37 40  1  0  0  0
 37 41  1  0  0  0
 48 50  1  0  0  0
 38 29  1  0  0  0
 45 44  1  0  0  0
 25 27  1  0  0  0
 25 35  1  0  0  0
 25 28  1  0  0  0
 21 20  1  0  0  0
 21 22  1  0  0  0
 44 42  1  0  0  0
  2  1  1  0  0  0
  2  4  1  0  0  0
  2  5  1  0  0  0
 26 27  2  0  0  0
 42 43  2  0  0  0
 29 31  1  0  0  0
 29 36  1  0  0  0
  3  4  2  0  0  0
 43  1  1  0  0  0
  6  9  2  0  0  0
  6 10  1  0  0  0
  1 20  1  0  0  0
 30 36  2  0  0  0
  7  8  1  0  0  0
  7  9  1  0  0  0
 22 24  1  0  0  0
 22 23  1  0  0  0
 11 12  1  0  0  0
 11 18  1  0  0  0
 24 27  1  0  0  0
  4 10  1  0  0  0
 51 52  1  0  0  0
 52 53  1  0  0  0
 53 54  1  0  0  0
 54 55  1  0  0  0
 55 56  1  0  0  0
 56 57  1  0  0  0
 57 58  1  0  0  0
 58 59  1  0  0  0
 59 60  1  0  0  0
 60 61  1  0  0  0
 61 62  1  0  0  0
 62 63  1  0  0  0
 63 64  1  0  0  0
 64 65  1  0  0  0
 31 32  1  0  0  0
 32 33  1  0  0  0
 33 34  1  0  0  0
 34 35  1  0  0  0
 35 36  1  0  0  0
  8 10  1  0  0  0
  9 17  1  0  0  0
 12 13  2  0  0  0
 12 17  1  0  0  0
 13 14  1  0  0  0
 14 15  2  0  0  0
 15 16  1  0  0  0
 16 17  2  0  0  0
M  END
> <minimizedAffinity>
-10.21266

> <CNNscore>
0.1415297389

> <CNNaffinity>
7.5726485252

> <CNN_VS>
1.0717549324

> <CNNaffinity_variance>
2.0403242111

$$$$
/media/chris/experiments/cd1a-new-docking/inputs/ligands/1xz0_ligand.pdb


 65 67  0  0  0  0  0  0  0  0999 V2000
  -40.4932   57.5168   63.2559 C   0  0  0  0  0  0  0  0  0  0  0  0
  -40.8931   58.8851   62.9211 N   0  0  0  0  0  0  0  0  0  0  0  0
  -41.0810   61.1277   63.2500 O   0  0  0  0  0  0  0  0  0  0  0  0
  -40.6951   60.0230   63.6090 C   0  0  0  0  0  0  0  0  0  0  0  0
  -41.3767   58.9862   62.0695 H   0  0  0  0  0  0  0  0  0  0  0  0
  -38.9706   61.1383   65.0099 N   0  0  0  0  0  0  0  0  0  0  0  0
  -37.5532   59.4307   65.2688 O   0  0  0  0  0  0  0  0  0  0  0  0
  -38.8118   58.8004   65.0341 C   0  0  0  0  0  0  0  0  0  0  0  0
  -37.7560   60.8569   65.2180 C   0  0  0  0  0  0  0  0  0  0  0  0
  -39.8388   59.9542   64.8652 C   0  0  0  0  0  0  0  0  0  0  0  0
  -36.9655   62.8891   63.3096 O   0  0  0  0  0  0  0  0  0  0  0  0
  -36.3366   62.8330   64.4898 C   0  0  0  0  0  0  0  0  0  0  0  0
  -35.3284   63.7608   64.7823 C   0  0  0  0  0  0  0  0  0  0  0  0
  -34.6468   63.7170   66.0102 C   0  0  0  0  0  0  0  0  0  0  0  0
  -34.9725   62.7510   66.9638 C   0  0  0  0  0  0  0  0  0  0  0  0
  -35.9820   61.8271   66.6793 C   0  0  0  0  0  0  0  0  0  0  0  0
  -36.6608   61.8630   65.4462 C   0  0  0  0  0  0  0  0  0  0  0  0
  -36.7316   63.5472   62.6849 H   0  0  0  0  0  0  0  0  0  0  0  0
  -39.6073   55.7352   61.9230 O   0  0  0  0  0  0  0  0  0  0  0  0
  -39.9610   56.9017   61.9756 C   0  0  0  0  0  0  0  0  0  0  0  0
  -39.7979   57.7339   60.7790 O   0  0  0  0  0  0  0  0  0  0  0  0
  -38.6538   58.5926   60.6138 C   0  0  0  0  0  0  0  0  0  0  0  0
  -38.2179   58.7944   59.1677 C   0  0  0  0  0  0  0  0  0  0  0  0
  -37.5149   58.0416   61.4585 C   0  0  0  0  0  0  0  0  0  0  0  0
  -35.6539   58.7527   62.8823 N   0  0  0  0  0  0  0  0  0  0  0  0
  -37.0911   60.2572   61.9954 O   0  0  0  0  0  0  0  0  0  0  0  0
  -36.7345   59.1154   62.1758 C   0  0  0  0  0  0  0  0  0  0  0  0
  -35.4610   57.7906   62.9619 H   0  0  0  0  0  0  0  0  0  0  0  0
  -32.7270   59.5996   62.1271 N   0  0  0  0  0  0  0  0  0  0  0  0
  -33.7935   61.5549   62.4508 O   0  0  0  0  0  0  0  0  0  0  0  0
  -32.6918   58.1302   62.0899 C   0  0  0  0  0  0  0  0  0  0  0  0
  -32.5209   57.5531   63.5078 C   0  0  0  0  0  0  0  0  0  0  0  0
  -32.6093   58.5674   64.6361 C   0  0  0  0  0  0  0  0  0  0  0  0
  -34.0092   59.1666   64.7940 C   0  0  0  0  0  0  0  0  0  0  0  0
  -34.7386   59.6889   63.5449 C   0  0  0  0  0  0  0  0  0  0  0  0
  -33.7132   60.3496   62.6445 C   0  0  0  0  0  0  0  0  0  0  0  0
  -31.6541   62.0448   61.4995 Si  0  0  0  0  0  0  0  0  0  0  0  0
  -31.6683   60.2589   61.5787 O   0  0  0  0  0  0  0  0  0  0  0  0
  -30.4492   62.4819   60.8881 H   0  0  0  0  0  0  0  0  0  0  0  0
  -31.7386   62.5776   62.8130 H   0  0  0  0  0  0  0  0  0  0  0  0
  -32.7630   62.4935   60.7344 H   0  0  0  0  0  0  0  0  0  0  0  0
  -42.9442   57.2025   64.1434 C   0  0  0  0  0  0  0  0  0  0  0  0
  -41.5304   56.6295   63.9859 C   0  0  0  0  0  0  0  0  0  0  0  0
  -43.8405   56.5565   65.2135 C   0  0  0  0  0  0  0  0  0  0  0  0
  -44.5256   57.4945   66.2286 C   0  0  0  0  0  0  0  0  0  0  0  0
  -44.6767   58.8136   65.6065 N   0  0  0  0  0  0  0  0  0  0  0  0
  -45.7245   59.3107   64.8975 C   0  0  0  0  0  0  0  0  0  0  0  0
  -43.5710   59.6567   65.7855 O   0  0  0  0  0  0  0  0  0  0  0  0
  -45.6975   60.4514   64.4360 O   0  0  0  0  0  0  0  0  0  0  0  0
  -43.7389   60.5072   65.3505 H   0  0  0  0  0  0  0  0  0  0  0  0
  -46.9585   58.4287   64.6807 C   0  0  0  0  0  0  0  0  0  0  0  0
  -47.8453   58.2598   65.9219 C   0  0  0  0  0  0  0  0  0  0  0  0
  -48.1248   59.6329   66.5626 C   0  0  0  0  0  0  0  0  0  0  0  0
  -49.1952   60.4528   65.8175 C   0  0  0  0  0  0  0  0  0  0  0  0
  -50.6037   59.8301   65.8296 C   0  0  0  0  0  0  0  0  0  0  0  0
  -51.0441   59.3145   64.4435 C   0  0  0  0  0  0  0  0  0  0  0  0
  -51.6165   60.4032   63.5060 C   0  0  0  0  0  0  0  0  0  0  0  0
  -50.8318   60.5558   62.1979 C   0  0  0  0  0  0  0  0  0  0  0  0
  -49.3609   60.1323   62.2626 C   0  0  0  0  0  0  0  0  0  0  0  0
  -49.1036   58.8678   61.4228 C   0  0  0  0  0  0  0  0  0  0  0  0
  -49.2805   59.0776   59.9113 C   0  0  0  0  0  0  0  0  0  0  0  0
  -49.8990   57.9042   59.1443 C   0  0  0  0  0  0  0  0  0  0  0  0
  -49.1315   57.5102   57.8577 C   0  0  0  0  0  0  0  0  0  0  0  0
  -47.6837   58.0409   57.8785 C   0  0  0  0  0  0  0  0  0  0  0  0
  -47.0544   58.4106   56.5299 C   0  0  0  0  0  0  0  0  0  0  0  0
 46 47  1  0  0  0
 46 48  1  0  0  0
 46 45  1  0  0  0
 47 49  2  0  0  0
 47 51  1  0  0  0
 19 20  2  0  0  0
 37 38  1  0  0  0
 37 39  1  0  0  0
 37 40  1  0  0  0
 37 41  1  0  0  0
 48 50  1  0  0  0
 38 29  1  0  0  0
 45 44  1  0  0  0
 25 27  1  0  0  0
 25 35  1  0  0  0
 25 28  1  0  0  0
 21 20  1  0  0  0
 21 22  1  0  0  0
 44 42  1  0  0  0
  2  1  1  0  0  0
  2  4  1  0  0  0
  2  5  1  0  0  0
 26 27  2  0  0  0
 42 43  2  0  0  0
 29 31  1  0  0  0
 29 36  1  0  0  0
  3  4  2  0  0  0
 43  1  1  0  0  0
  6  9  2  0  0  0
  6 10  1  0  0  0
  1 20  1  0  0  0
 30 36  2  0  0  0
  7  8  1  0  0  0
  7  9  1  0  0  0
 22 24  1  0  0  0
 22 23  1  0  0  0
 11 12  1  0  0  0
 11 18  1  0  0  0
 24 27  1  0  0  0
  4 10  1  0  0  0
 51 52  1  0  0  0
 52 53  1  0  0  0
 53 54  1  0  0  0
 54 55  1  0  0  0
 55 56  1  0  0  0
 56 57  1  0  0  0
 57 58  1  0  0  0
 58 59  1  0  0  0
 59 60  1  0  0  0
 60 61  1  0  0  0
 61 62  1  0  0  0
 62 63  1  0  0  0
 63 64  1  0  0  0
 64 65  1  0  0  0
 31 32  1  0  0  0
 32 33  1  0  0  0
 33 34  1  0  0  0
 34 35  1  0  0  0
 35 36  1  0  0  0
  8 10  1  0  0  0
  9 17  1  0  0  0
 12 13  2  0  0  0
 12 17  1  0  0  0
 13 14  1  0  0  0
 14 15  2  0  0  0
 15 16  1  0  0  0
 16 17  2  0  0  0
M  END
> <minimizedAffinity>
-9.44061

> <CNNscore>
0.1376835406

> <CNNaffinity>
7.3209624290

> <CNN_VS>
1.0079760551

> <CNNaffinity_variance>
0.6940137744

$$$$
/media/chris/experiments/cd1a-new-docking/inputs/ligands/1xz0_ligand.pdb


 65 67  0  0  0  0  0  0  0  0999 V2000
  -42.1793   59.0373   65.1606 C   0  0  0  0  0  0  0  0  0  0  0  0
  -42.7656   60.0534   64.2842 N   0  0  0  0  0  0  0  0  0  0  0  0
  -43.1985   61.0783   62.3005 O   0  0  0  0  0  0  0  0  0  0  0  0
  -42.6784   60.1795   62.9486 C   0  0  0  0  0  0  0  0  0  0  0  0
  -43.3008   60.7436   64.7386 H   0  0  0  0  0  0  0  0  0  0  0  0
  -40.6905   58.6956   62.7870 N   0  0  0  0  0  0  0  0  0  0  0  0
  -40.1573   59.0349   60.6440 O   0  0  0  0  0  0  0  0  0  0  0  0
  -41.5559   59.3132   60.6987 C   0  0  0  0  0  0  0  0  0  0  0  0
  -39.7237   58.6829   61.9729 C   0  0  0  0  0  0  0  0  0  0  0  0
  -41.9787   59.0718   62.1744 C   0  0  0  0  0  0  0  0  0  0  0  0
  -37.3780   59.5869   60.5316 O   0  0  0  0  0  0  0  0  0  0  0  0
  -37.2153   58.7798   61.5870 C   0  0  0  0  0  0  0  0  0  0  0  0
  -35.9238   58.4049   61.9799 C   0  0  0  0  0  0  0  0  0  0  0  0
  -35.7271   57.5512   63.0784 C   0  0  0  0  0  0  0  0  0  0  0  0
  -36.8194   57.0705   63.8027 C   0  0  0  0  0  0  0  0  0  0  0  0
  -38.1095   57.4467   63.4186 C   0  0  0  0  0  0  0  0  0  0  0  0
  -38.3102   58.2951   62.3129 C   0  0  0  0  0  0  0  0  0  0  0  0
  -36.6303   59.8990   60.0609 H   0  0  0  0  0  0  0  0  0  0  0  0
  -43.3610   57.2085   66.1577 O   0  0  0  0  0  0  0  0  0  0  0  0
  -43.3341   58.4033   65.9124 C   0  0  0  0  0  0  0  0  0  0  0  0
  -44.4874   59.2210   66.3027 O   0  0  0  0  0  0  0  0  0  0  0  0
  -45.8358   58.7456   66.1298 C   0  0  0  0  0  0  0  0  0  0  0  0
  -46.1058   57.3745   66.7372 C   0  0  0  0  0  0  0  0  0  0  0  0
  -46.1631   58.7620   64.6443 C   0  0  0  0  0  0  0  0  0  0  0  0
  -47.9488   59.3358   63.0701 N   0  0  0  0  0  0  0  0  0  0  0  0
  -48.2982   59.3802   65.3043 O   0  0  0  0  0  0  0  0  0  0  0  0
  -47.5698   59.2224   64.3515 C   0  0  0  0  0  0  0  0  0  0  0  0
  -47.2671   59.1844   62.3762 H   0  0  0  0  0  0  0  0  0  0  0  0
  -50.0732   57.5888   61.5569 N   0  0  0  0  0  0  0  0  0  0  0  0
  -51.2133   58.4463   63.2977 O   0  0  0  0  0  0  0  0  0  0  0  0
  -48.8482   57.4268   60.7601 C   0  0  0  0  0  0  0  0  0  0  0  0
  -48.6549   58.6225   59.8084 C   0  0  0  0  0  0  0  0  0  0  0  0
  -49.6260   59.7744   60.0083 C   0  0  0  0  0  0  0  0  0  0  0  0
  -49.4267   60.5008   61.3411 C   0  0  0  0  0  0  0  0  0  0  0  0
  -49.3081   59.6695   62.6295 C   0  0  0  0  0  0  0  0  0  0  0  0
  -50.2675   58.5002   62.5236 C   0  0  0  0  0  0  0  0  0  0  0  0
  -50.7930   55.1716   60.4787 Si  0  0  0  0  0  0  0  0  0  0  0  0
  -51.0993   56.7310   61.2974 O   0  0  0  0  0  0  0  0  0  0  0  0
  -52.0172   54.4682   60.3271 H   0  0  0  0  0  0  0  0  0  0  0  0
  -49.8950   54.3959   61.2587 H   0  0  0  0  0  0  0  0  0  0  0  0
  -50.2236   55.4119   59.2003 H   0  0  0  0  0  0  0  0  0  0  0  0
  -39.7577   60.0276   65.3826 C   0  0  0  0  0  0  0  0  0  0  0  0
  -41.0091   59.4741   66.0750 C   0  0  0  0  0  0  0  0  0  0  0  0
  -38.4603   60.0524   66.2084 C   0  0  0  0  0  0  0  0  0  0  0  0
  -37.1306   60.1982   65.4402 C   0  0  0  0  0  0  0  0  0  0  0  0
  -37.1330   61.4967   64.7592 N   0  0  0  0  0  0  0  0  0  0  0  0
  -36.5082   62.6506   65.1142 C   0  0  0  0  0  0  0  0  0  0  0  0
  -37.8932   61.5197   63.5815 O   0  0  0  0  0  0  0  0  0  0  0  0
  -36.6093   63.6670   64.4275 O   0  0  0  0  0  0  0  0  0  0  0  0
  -37.8502   62.4044   63.1860 H   0  0  0  0  0  0  0  0  0  0  0  0
  -35.6605   62.6728   66.3904 C   0  0  0  0  0  0  0  0  0  0  0  0
  -34.9875   64.0208   66.6831 C   0  0  0  0  0  0  0  0  0  0  0  0
  -33.4752   63.8207   66.8993 C   0  0  0  0  0  0  0  0  0  0  0  0
  -32.7939   63.0187   65.7742 C   0  0  0  0  0  0  0  0  0  0  0  0
  -32.2637   63.8733   64.6079 C   0  0  0  0  0  0  0  0  0  0  0  0
  -33.2390   63.9300   63.4134 C   0  0  0  0  0  0  0  0  0  0  0  0
  -32.6158   63.5273   62.0565 C   0  0  0  0  0  0  0  0  0  0  0  0
  -31.1417   63.1193   62.1595 C   0  0  0  0  0  0  0  0  0  0  0  0
  -30.5864   62.3577   60.9518 C   0  0  0  0  0  0  0  0  0  0  0  0
  -30.6831   60.8347   61.1559 C   0  0  0  0  0  0  0  0  0  0  0  0
  -30.7029   60.4042   62.6304 C   0  0  0  0  0  0  0  0  0  0  0  0
  -31.8280   59.4429   63.0280 C   0  0  0  0  0  0  0  0  0  0  0  0
  -33.1451   60.1433   63.4454 C   0  0  0  0  0  0  0  0  0  0  0  0
  -33.5328   59.7987   64.8977 C   0  0  0  0  0  0  0  0  0  0  0  0
  -33.1189   58.4193   65.4240 C   0  0  0  0  0  0  0  0  0  0  0  0
 46 47  1  0  0  0
 46 48  1  0  0  0
 46 45  1  0  0  0
 47 49  2  0  0  0
 47 51  1  0  0  0
 19 20  2  0  0  0
 37 38  1  0  0  0
 37 39  1  0  0  0
 37 40  1  0  0  0
 37 41  1  0  0  0
 48 50  1  0  0  0
 38 29  1  0  0  0
 45 44  1  0  0  0
 25 27  1  0  0  0
 25 35  1  0  0  0
 25 28  1  0  0  0
 21 20  1  0  0  0
 21 22  1  0  0  0
 44 42  1  0  0  0
  2  1  1  0  0  0
  2  4  1  0  0  0
  2  5  1  0  0  0
 26 27  2  0  0  0
 42 43  2  0  0  0
 29 31  1  0  0  0
 29 36  1  0  0  0
  3  4  2  0  0  0
 43  1  1  0  0  0
  6  9  2  0  0  0
  6 10  1  0  0  0
  1 20  1  0  0  0
 30 36  2  0  0  0
  7  8  1  0  0  0
  7  9  1  0  0  0
 22 24  1  0  0  0
 22 23  1  0  0  0
 11 12  1  0  0  0
 11 18  1  0  0  0
 24 27  1  0  0  0
  4 10  1  0  0  0
 51 52  1  0  0  0
 52 53  1  0  0  0
 53 54  1  0  0  0
 54 55  1  0  0  0
 55 56  1  0  0  0
 56 57  1  0  0  0
 57 58  1  0  0  0
 58 59  1  0  0  0
 59 60  1  0  0  0
 60 61  1  0  0  0
 61 62  1  0  0  0
 62 63  1  0  0  0
 63 64  1  0  0  0
 64 65  1  0  0  0
 31 32  1  0  0  0
 32 33  1  0  0  0
 33 34  1  0  0  0
 34 35  1  0  0  0
 35 36  1  0  0  0
  8 10  1  0  0  0
  9 17  1  0  0  0
 12 13  2  0  0  0
 12 17  1  0  0  0
 13 14  1  0  0  0
 14 15  2  0  0  0
 15 16  1  0  0  0
 16 17  2  0  0  0
M  END
> <minimizedAffinity>
-8.86195

> <CNNscore>
0.1337979138

> <CNNaffinity>
7.3840498924

> <CNN_VS>
0.9879704714

> <CNNaffinity_variance>
0.8584859967

$$$$
/media/chris/experiments/cd1a-new-docking/inputs/ligands/1xz0_ligand.pdb


 65 67  0  0  0  0  0  0  0  0999 V2000
  -43.5551   57.8796   65.4947 C   0  0  0  0  0  0  0  0  0  0  0  0
  -44.6526   57.3927   66.3328 N   0  0  0  0  0  0  0  0  0  0  0  0
  -46.6831   57.4945   67.3525 O   0  0  0  0  0  0  0  0  0  0  0  0
  -45.8262   57.9795   66.6255 C   0  0  0  0  0  0  0  0  0  0  0  0
  -44.5106   56.5080   66.7409 H   0  0  0  0  0  0  0  0  0  0  0  0
  -47.6185   59.4770   65.7738 N   0  0  0  0  0  0  0  0  0  0  0  0
  -46.8463   59.8286   63.7069 O   0  0  0  0  0  0  0  0  0  0  0  0
  -45.6761   59.5212   64.4636 C   0  0  0  0  0  0  0  0  0  0  0  0
  -47.9791   59.7594   64.5957 C   0  0  0  0  0  0  0  0  0  0  0  0
  -46.1630   59.2854   65.9203 C   0  0  0  0  0  0  0  0  0  0  0  0
  -50.2123   60.0874   66.4128 O   0  0  0  0  0  0  0  0  0  0  0  0
  -50.4269   60.2136   65.0977 C   0  0  0  0  0  0  0  0  0  0  0  0
  -51.7131   60.5156   64.6314 C   0  0  0  0  0  0  0  0  0  0  0  0
  -51.9661   60.6439   63.2553 C   0  0  0  0  0  0  0  0  0  0  0  0
  -50.9335   60.4815   62.3301 C   0  0  0  0  0  0  0  0  0  0  0  0
  -49.6472   60.1866   62.7905 C   0  0  0  0  0  0  0  0  0  0  0  0
  -49.3924   60.0488   64.1685 C   0  0  0  0  0  0  0  0  0  0  0  0
  -50.9200   60.2023   67.0161 H   0  0  0  0  0  0  0  0  0  0  0  0
  -43.4562   55.5611   64.9025 O   0  0  0  0  0  0  0  0  0  0  0  0
  -43.1098   56.7029   64.6474 C   0  0  0  0  0  0  0  0  0  0  0  0
  -42.1853   56.9172   63.5292 O   0  0  0  0  0  0  0  0  0  0  0  0
  -41.0656   56.0400   63.3041 C   0  0  0  0  0  0  0  0  0  0  0  0
  -39.7034   56.6784   63.5465 C   0  0  0  0  0  0  0  0  0  0  0  0
  -41.1679   55.4848   61.8915 C   0  0  0  0  0  0  0  0  0  0  0  0
  -40.1363   57.4763   60.9088 N   0  0  0  0  0  0  0  0  0  0  0  0
  -41.8930   56.4557   59.9146 O   0  0  0  0  0  0  0  0  0  0  0  0
  -41.1056   56.5530   60.8279 C   0  0  0  0  0  0  0  0  0  0  0  0
  -39.5528   57.4588   61.7015 H   0  0  0  0  0  0  0  0  0  0  0  0
  -38.7281   60.2689   61.1783 N   0  0  0  0  0  0  0  0  0  0  0  0
  -37.7239   59.3216   59.4007 O   0  0  0  0  0  0  0  0  0  0  0  0
  -39.7055   60.2570   62.2766 C   0  0  0  0  0  0  0  0  0  0  0  0
  -41.1076   60.6344   61.7626 C   0  0  0  0  0  0  0  0  0  0  0  0
  -41.2347   60.7540   60.2529 C   0  0  0  0  0  0  0  0  0  0  0  0
  -41.0729   59.4138   59.5306 C   0  0  0  0  0  0  0  0  0  0  0  0
  -39.8841   58.5105   59.8989 C   0  0  0  0  0  0  0  0  0  0  0  0
  -38.6823   59.3983   60.1572 C   0  0  0  0  0  0  0  0  0  0  0  0
  -36.4634   61.1993   62.4149 Si  0  0  0  0  0  0  0  0  0  0  0  0
  -37.7782   61.2451   61.2045 O   0  0  0  0  0  0  0  0  0  0  0  0
  -35.6118   62.3208   62.2314 H   0  0  0  0  0  0  0  0  0  0  0  0
  -35.7134   60.0043   62.2540 H   0  0  0  0  0  0  0  0  0  0  0  0
  -37.0204   61.2365   63.7205 H   0  0  0  0  0  0  0  0  0  0  0  0
  -41.7502   59.7860   65.4511 C   0  0  0  0  0  0  0  0  0  0  0  0
  -42.3886   58.6111   66.2021 C   0  0  0  0  0  0  0  0  0  0  0  0
  -40.3533   60.2312   65.9161 C   0  0  0  0  0  0  0  0  0  0  0  0
  -39.1884   59.2393   65.7198 C   0  0  0  0  0  0  0  0  0  0  0  0
  -37.9887   60.0035   65.3643 N   0  0  0  0  0  0  0  0  0  0  0  0
  -36.7631   59.5485   64.9918 C   0  0  0  0  0  0  0  0  0  0  0  0
  -38.1610   61.3934   65.4256 O   0  0  0  0  0  0  0  0  0  0  0  0
  -35.8494   60.3277   64.7216 O   0  0  0  0  0  0  0  0  0  0  0  0
  -37.3323   61.8333   65.1794 H   0  0  0  0  0  0  0  0  0  0  0  0
  -36.5281   58.0369   64.9042 C   0  0  0  0  0  0  0  0  0  0  0  0
  -35.0582   57.6311   64.7307 C   0  0  0  0  0  0  0  0  0  0  0  0
  -34.7689   57.3122   63.2513 C   0  0  0  0  0  0  0  0  0  0  0  0
  -33.9126   58.3820   62.5475 C   0  0  0  0  0  0  0  0  0  0  0  0
  -32.9425   59.1385   63.4739 C   0  0  0  0  0  0  0  0  0  0  0  0
  -31.5204   59.2563   62.8865 C   0  0  0  0  0  0  0  0  0  0  0  0
  -31.1730   60.6537   62.3222 C   0  0  0  0  0  0  0  0  0  0  0  0
  -32.2971   61.6805   62.5013 C   0  0  0  0  0  0  0  0  0  0  0  0
  -32.0834   62.6965   63.6279 C   0  0  0  0  0  0  0  0  0  0  0  0
  -32.5092   64.1115   63.1956 C   0  0  0  0  0  0  0  0  0  0  0  0
  -33.3996   64.8334   64.2183 C   0  0  0  0  0  0  0  0  0  0  0  0
  -32.6944   65.3207   65.4883 C   0  0  0  0  0  0  0  0  0  0  0  0
  -33.4196   64.9419   66.8037 C   0  0  0  0  0  0  0  0  0  0  0  0
  -34.1987   63.6189   66.6587 C   0  0  0  0  0  0  0  0  0  0  0  0
  -35.7240   63.6856   66.8017 C   0  0  0  0  0  0  0  0  0  0  0  0
 46 47  1  0  0  0
 46 48  1  0  0  0
 46 45  1  0  0  0
 47 49  2  0  0  0
 47 51  1  0  0  0
 19 20  2  0  0  0
 37 38  1  0  0  0
 37 39  1  0  0  0
 37 40  1  0  0  0
 37 41  1  0  0  0
 48 50  1  0  0  0
 38 29  1  0  0  0
 45 44  1  0  0  0
 25 27  1  0  0  0
 25 35  1  0  0  0
 25 28  1  0  0  0
 21 20  1  0  0  0
 21 22  1  0  0  0
 44 42  1  0  0  0
  2  1  1  0  0  0
  2  4  1  0  0  0
  2  5  1  0  0  0
 26 27  2  0  0  0
 42 43  2  0  0  0
 29 31  1  0  0  0
 29 36  1  0  0  0
  3  4  2  0  0  0
 43  1  1  0  0  0
  6  9  2  0  0  0
  6 10  1  0  0  0
  1 20  1  0  0  0
 30 36  2  0  0  0
  7  8  1  0  0  0
  7  9  1  0  0  0
 22 24  1  0  0  0
 22 23  1  0  0  0
 11 12  1  0  0  0
 11 18  1  0  0  0
 24 27  1  0  0  0
  4 10  1  0  0  0
 51 52  1  0  0  0
 52 53  1  0  0  0
 53 54  1  0  0  0
 54 55  1  0  0  0
 55 56  1  0  0  0
 56 57  1  0  0  0
 57 58  1  0  0  0
 58 59  1  0  0  0
 59 60  1  0  0  0
 60 61  1  0  0  0
 61 62  1  0  0  0
 62 63  1  0  0  0
 63 64  1  0  0  0
 64 65  1  0  0  0
 31 32  1  0  0  0
 32 33  1  0  0  0
 33 34  1  0  0  0
 34 35  1  0  0  0
 35 36  1  0  0  0
  8 10  1  0  0  0
  9 17  1  0  0  0
 12 13  2  0  0  0
 12 17  1  0  0  0
 13 14  1  0  0  0
 14 15  2  0  0  0
 15 16  1  0  0  0
 16 17  2  0  0  0
M  END
> <minimizedAffinity>
-9.62539

> <CNNscore>
0.1172352657

> <CNNaffinity>
7.4507889748

> <CNN_VS>
0.8734952211

> <CNNaffinity_variance>
1.8354351521

$$$$
/media/chris/experiments/cd1a-new-docking/inputs/ligands/1xz0_ligand.pdb


 65 67  0  0  0  0  0  0  0  0999 V2000
  -36.0481   57.6388   62.4751 C   0  0  0  0  0  0  0  0  0  0  0  0
  -36.4979   57.2819   63.8221 N   0  0  0  0  0  0  0  0  0  0  0  0
  -37.2813   57.6840   65.9192 O   0  0  0  0  0  0  0  0  0  0  0  0
  -36.9354   58.0780   64.8131 C   0  0  0  0  0  0  0  0  0  0  0  0
  -36.4768   56.3203   64.0324 H   0  0  0  0  0  0  0  0  0  0  0  0
  -35.9470   60.3568   64.9138 N   0  0  0  0  0  0  0  0  0  0  0  0
  -37.6596   61.4551   65.8374 O   0  0  0  0  0  0  0  0  0  0  0  0
  -38.2747   60.3455   65.1839 C   0  0  0  0  0  0  0  0  0  0  0  0
  -36.2369   61.3606   65.6252 C   0  0  0  0  0  0  0  0  0  0  0  0
  -37.1187   59.5576   64.5077 C   0  0  0  0  0  0  0  0  0  0  0  0
  -36.8948   64.0918   66.3355 O   0  0  0  0  0  0  0  0  0  0  0  0
  -35.6323   63.6728   66.4844 C   0  0  0  0  0  0  0  0  0  0  0  0
  -34.6660   64.5513   66.9919 C   0  0  0  0  0  0  0  0  0  0  0  0
  -33.3321   64.1385   67.1486 C   0  0  0  0  0  0  0  0  0  0  0  0
  -32.9513   62.8392   66.8089 C   0  0  0  0  0  0  0  0  0  0  0  0
  -33.9128   61.9570   66.3083 C   0  0  0  0  0  0  0  0  0  0  0  0
  -35.2485   62.3705   66.1418 C   0  0  0  0  0  0  0  0  0  0  0  0
  -37.1284   64.9680   66.5716 H   0  0  0  0  0  0  0  0  0  0  0  0
  -33.8025   56.9178   62.8910 O   0  0  0  0  0  0  0  0  0  0  0  0
  -34.5456   57.8279   62.5623 C   0  0  0  0  0  0  0  0  0  0  0  0
  -33.9608   59.1497   62.3135 O   0  0  0  0  0  0  0  0  0  0  0  0
  -32.5675   59.4121   62.5658 C   0  0  0  0  0  0  0  0  0  0  0  0
  -32.2068   59.5509   64.0397 C   0  0  0  0  0  0  0  0  0  0  0  0
  -32.1638   60.6523   61.7828 C   0  0  0  0  0  0  0  0  0  0  0  0
  -33.7122   62.4122   62.4910 N   0  0  0  0  0  0  0  0  0  0  0  0
  -31.5496   62.4190   63.1532 O   0  0  0  0  0  0  0  0  0  0  0  0
  -32.4579   61.9383   62.5150 C   0  0  0  0  0  0  0  0  0  0  0  0
  -34.3701   61.9373   61.9334 H   0  0  0  0  0  0  0  0  0  0  0  0
  -35.3113   64.9310   61.5149 N   0  0  0  0  0  0  0  0  0  0  0  0
  -36.4395   64.2417   63.3362 O   0  0  0  0  0  0  0  0  0  0  0  0
  -34.2101   64.8133   60.5478 C   0  0  0  0  0  0  0  0  0  0  0  0
  -32.9184   65.4323   61.1145 C   0  0  0  0  0  0  0  0  0  0  0  0
  -32.9868   65.8541   62.5730 C   0  0  0  0  0  0  0  0  0  0  0  0
  -33.1199   64.6691   63.5331 C   0  0  0  0  0  0  0  0  0  0  0  0
  -34.1732   63.5884   63.2374 C   0  0  0  0  0  0  0  0  0  0  0  0
  -35.4062   64.2741   62.6820 C   0  0  0  0  0  0  0  0  0  0  0  0
  -37.5576   66.2229   62.4140 Si  0  0  0  0  0  0  0  0  0  0  0  0
  -36.3310   65.7751   61.1931 O   0  0  0  0  0  0  0  0  0  0  0  0
  -38.5044   67.1067   61.8318 H   0  0  0  0  0  0  0  0  0  0  0  0
  -36.9224   66.8650   63.5098 H   0  0  0  0  0  0  0  0  0  0  0  0
  -38.2204   65.0529   62.8703 H   0  0  0  0  0  0  0  0  0  0  0  0
  -38.2333   58.5550   61.3440 C   0  0  0  0  0  0  0  0  0  0  0  0
  -36.7796   58.8034   61.7646 C   0  0  0  0  0  0  0  0  0  0  0  0
  -38.8201   59.4992   60.2810 C   0  0  0  0  0  0  0  0  0  0  0  0
  -40.2318   59.1801   59.7473 C   0  0  0  0  0  0  0  0  0  0  0  0
  -41.1740   60.1342   60.3404 N   0  0  0  0  0  0  0  0  0  0  0  0
  -41.8323   60.0617   61.5275 C   0  0  0  0  0  0  0  0  0  0  0  0
  -41.4075   61.2686   59.5504 O   0  0  0  0  0  0  0  0  0  0  0  0
  -42.5979   60.9558   61.8870 O   0  0  0  0  0  0  0  0  0  0  0  0
  -42.0367   61.8529   60.0015 H   0  0  0  0  0  0  0  0  0  0  0  0
  -41.6046   58.8436   62.4288 C   0  0  0  0  0  0  0  0  0  0  0  0
  -42.8403   57.9533   62.6184 C   0  0  0  0  0  0  0  0  0  0  0  0
  -43.5194   58.2713   63.9644 C   0  0  0  0  0  0  0  0  0  0  0  0
  -45.0239   58.5768   63.8373 C   0  0  0  0  0  0  0  0  0  0  0  0
  -45.4714   59.8877   64.5103 C   0  0  0  0  0  0  0  0  0  0  0  0
  -46.9840   60.1534   64.3606 C   0  0  0  0  0  0  0  0  0  0  0  0
  -47.6800   59.3042   63.2715 C   0  0  0  0  0  0  0  0  0  0  0  0
  -49.2013   59.4896   63.2331 C   0  0  0  0  0  0  0  0  0  0  0  0
  -50.0197   58.1946   63.2324 C   0  0  0  0  0  0  0  0  0  0  0  0
  -51.3903   58.3973   62.5610 C   0  0  0  0  0  0  0  0  0  0  0  0
  -51.5865   57.5675   61.2832 C   0  0  0  0  0  0  0  0  0  0  0  0
  -50.3033   57.1488   60.5578 C   0  0  0  0  0  0  0  0  0  0  0  0
  -50.0108   57.9540   59.2672 C   0  0  0  0  0  0  0  0  0  0  0  0
  -48.4985   58.0179   58.9716 C   0  0  0  0  0  0  0  0  0  0  0  0
  -47.6962   56.7228   59.1450 C   0  0  0  0  0  0  0  0  0  0  0  0
 46 47  1  0  0  0
 46 48  1  0  0  0
 46 45  1  0  0  0
 47 49  2  0  0  0
 47 51  1  0  0  0
 19 20  2  0  0  0
 37 38  1  0  0  0
 37 39  1  0  0  0
 37 40  1  0  0  0
 37 41  1  0  0  0
 48 50  1  0  0  0
 38 29  1  0  0  0
 45 44  1  0  0  0
 25 27  1  0  0  0
 25 35  1  0  0  0
 25 28  1  0  0  0
 21 20  1  0  0  0
 21 22  1  0  0  0
 44 42  1  0  0  0
  2  1  1  0  0  0
  2  4  1  0  0  0
  2  5  1  0  0  0
 26 27  2  0  0  0
 42 43  2  0  0  0
 29 31  1  0  0  0
 29 36  1  0  0  0
  3  4  2  0  0  0
 43  1  1  0  0  0
  6  9  2  0  0  0
  6 10  1  0  0  0
  1 20  1  0  0  0
 30 36  2  0  0  0
  7  8  1  0  0  0
  7  9  1  0  0  0
 22 24  1  0  0  0
 22 23  1  0  0  0
 11 12  1  0  0  0
 11 18  1  0  0  0
 24 27  1  0  0  0
  4 10  1  0  0  0
 51 52  1  0  0  0
 52 53  1  0  0  0
 53 54  1  0  0  0
 54 55  1  0  0  0
 55 56  1  0  0  0
 56 57  1  0  0  0
 57 58  1  0  0  0
 58 59  1  0  0  0
 59 60  1  0  0  0
 60 61  1  0  0  0
 61 62  1  0  0  0
 62 63  1  0  0  0
 63 64  1  0  0  0
 64 65  1  0  0  0
 31 32  1  0  0  0
 32 33  1  0  0  0
 33 34  1  0  0  0
 34 35  1  0  0  0
 35 36  1  0  0  0
  8 10  1  0  0  0
  9 17  1  0  0  0
 12 13  2  0  0  0
 12 17  1  0  0  0
 13 14  1  0  0  0
 14 15  2  0  0  0
 15 16  1  0  0  0
 16 17  2  0  0  0
M  END
> <minimizedAffinity>
-9.30167

> <CNNscore>
0.1112485081

> <CNNaffinity>
6.8406906128

> <CNN_VS>
0.7610166073

> <CNNaffinity_variance>
1.0130623579

$$$$
/media/chris/experiments/cd1a-new-docking/inputs/ligands/1xz0_ligand.pdb


 65 67  0  0  0  0  0  0  0  0999 V2000
  -38.8207   59.3921   65.2241 C   0  0  0  0  0  0  0  0  0  0  0  0
  -38.4843   60.4282   64.2457 N   0  0  0  0  0  0  0  0  0  0  0  0
  -37.2584   62.1334   63.3725 O   0  0  0  0  0  0  0  0  0  0  0  0
  -37.4501   61.2871   64.2358 C   0  0  0  0  0  0  0  0  0  0  0  0
  -39.1049   60.5072   63.4855 H   0  0  0  0  0  0  0  0  0  0  0  0
  -35.6772   62.3938   65.5819 N   0  0  0  0  0  0  0  0  0  0  0  0
  -34.0123   60.9400   65.2551 O   0  0  0  0  0  0  0  0  0  0  0  0
  -35.1923   60.1583   65.0731 C   0  0  0  0  0  0  0  0  0  0  0  0
  -34.4177   62.2924   65.5461 C   0  0  0  0  0  0  0  0  0  0  0  0
  -36.3836   61.1276   65.3096 C   0  0  0  0  0  0  0  0  0  0  0  0
  -34.9768   64.5583   67.2636 O   0  0  0  0  0  0  0  0  0  0  0  0
  -33.7745   64.4711   66.6817 C   0  0  0  0  0  0  0  0  0  0  0  0
  -32.8132   65.4605   66.9260 C   0  0  0  0  0  0  0  0  0  0  0  0
  -31.5472   65.3967   66.3197 C   0  0  0  0  0  0  0  0  0  0  0  0
  -31.2247   64.3373   65.4699 C   0  0  0  0  0  0  0  0  0  0  0  0
  -32.1780   63.3443   65.2281 C   0  0  0  0  0  0  0  0  0  0  0  0
  -33.4506   63.4101   65.8273 C   0  0  0  0  0  0  0  0  0  0  0  0
  -35.1711   65.2775   67.8319 H   0  0  0  0  0  0  0  0  0  0  0  0
  -37.2358   57.6484   65.6522 O   0  0  0  0  0  0  0  0  0  0  0  0
  -37.9970   58.1727   64.8559 C   0  0  0  0  0  0  0  0  0  0  0  0
  -38.0547   57.6381   63.4914 O   0  0  0  0  0  0  0  0  0  0  0  0
  -36.8650   57.4913   62.6933 C   0  0  0  0  0  0  0  0  0  0  0  0
  -35.6118   57.1385   63.4849 C   0  0  0  0  0  0  0  0  0  0  0  0
  -36.6658   58.7680   61.8904 C   0  0  0  0  0  0  0  0  0  0  0  0
  -38.8334   58.2622   60.8699 N   0  0  0  0  0  0  0  0  0  0  0  0
  -38.0006   60.3650   60.8684 O   0  0  0  0  0  0  0  0  0  0  0  0
  -37.8979   59.1878   61.1275 C   0  0  0  0  0  0  0  0  0  0  0  0
  -38.6393   57.3317   61.1263 H   0  0  0  0  0  0  0  0  0  0  0  0
  -41.7149   58.3910   62.1088 N   0  0  0  0  0  0  0  0  0  0  0  0
  -41.5483   60.2936   60.9181 O   0  0  0  0  0  0  0  0  0  0  0  0
  -41.1727   57.1170   62.6036 C   0  0  0  0  0  0  0  0  0  0  0  0
  -41.3128   56.0142   61.5373 C   0  0  0  0  0  0  0  0  0  0  0  0
  -41.7904   56.4868   60.1741 C   0  0  0  0  0  0  0  0  0  0  0  0
  -40.7711   57.3770   59.4583 C   0  0  0  0  0  0  0  0  0  0  0  0
  -40.1261   58.5385   60.2329 C   0  0  0  0  0  0  0  0  0  0  0  0
  -41.1833   59.1460   61.1341 C   0  0  0  0  0  0  0  0  0  0  0  0
  -44.2925   57.7992   62.8366 Si  0  0  0  0  0  0  0  0  0  0  0  0
  -42.8534   58.8509   62.6991 O   0  0  0  0  0  0  0  0  0  0  0  0
  -45.3372   58.5091   63.4856 H   0  0  0  0  0  0  0  0  0  0  0  0
  -43.9638   56.6439   63.5941 H   0  0  0  0  0  0  0  0  0  0  0  0
  -44.7195   57.4093   61.5397 H   0  0  0  0  0  0  0  0  0  0  0  0
  -41.1143   60.0786   66.3023 C   0  0  0  0  0  0  0  0  0  0  0  0
  -40.3210   59.0828   65.4474 C   0  0  0  0  0  0  0  0  0  0  0  0
  -42.4475   59.5837   66.8881 C   0  0  0  0  0  0  0  0  0  0  0  0
  -43.6863   59.6224   65.9697 C   0  0  0  0  0  0  0  0  0  0  0  0
  -44.4124   58.3579   66.1235 N   0  0  0  0  0  0  0  0  0  0  0  0
  -45.7478   58.1498   66.2689 C   0  0  0  0  0  0  0  0  0  0  0  0
  -43.5878   57.2241   66.1148 O   0  0  0  0  0  0  0  0  0  0  0  0
  -46.2063   57.0137   66.3871 O   0  0  0  0  0  0  0  0  0  0  0  0
  -44.1316   56.4278   66.2203 H   0  0  0  0  0  0  0  0  0  0  0  0
  -46.6901   59.3580   66.2780 C   0  0  0  0  0  0  0  0  0  0  0  0
  -47.3862   59.6314   64.9378 C   0  0  0  0  0  0  0  0  0  0  0  0
  -48.6320   60.5106   65.1589 C   0  0  0  0  0  0  0  0  0  0  0  0
  -49.7084   59.8427   66.0355 C   0  0  0  0  0  0  0  0  0  0  0  0
  -51.1411   59.9425   65.4796 C   0  0  0  0  0  0  0  0  0  0  0  0
  -51.2198   60.7444   64.1636 C   0  0  0  0  0  0  0  0  0  0  0  0
  -51.9423   60.0127   63.0084 C   0  0  0  0  0  0  0  0  0  0  0  0
  -51.2529   58.7103   62.5857 C   0  0  0  0  0  0  0  0  0  0  0  0
  -49.8118   58.8629   62.0889 C   0  0  0  0  0  0  0  0  0  0  0  0
  -49.7700   59.2626   60.6026 C   0  0  0  0  0  0  0  0  0  0  0  0
  -50.0481   58.1005   59.6372 C   0  0  0  0  0  0  0  0  0  0  0  0
  -49.1318   56.8811   59.7819 C   0  0  0  0  0  0  0  0  0  0  0  0
  -47.7647   57.0245   59.0676 C   0  0  0  0  0  0  0  0  0  0  0  0
  -47.9393   57.2316   57.5495 C   0  0  0  0  0  0  0  0  0  0  0  0
  -47.2963   58.4807   56.9350 C   0  0  0  0  0  0  0  0  0  0  0  0
 46 47  1  0  0  0
 46 48  1  0  0  0
 46 45  1  0  0  0
 47 49  2  0  0  0
 47 51  1  0  0  0
 19 20  2  0  0  0
 37 38  1  0  0  0
 37 39  1  0  0  0
 37 40  1  0  0  0
 37 41  1  0  0  0
 48 50  1  0  0  0
 38 29  1  0  0  0
 45 44  1  0  0  0
 25 27  1  0  0  0
 25 35  1  0  0  0
 25 28  1  0  0  0
 21 20  1  0  0  0
 21 22  1  0  0  0
 44 42  1  0  0  0
  2  1  1  0  0  0
  2  4  1  0  0  0
  2  5  1  0  0  0
 26 27  2  0  0  0
 42 43  2  0  0  0
 29 31  1  0  0  0
 29 36  1  0  0  0
  3  4  2  0  0  0
 43  1  1  0  0  0
  6  9  2  0  0  0
  6 10  1  0  0  0
  1 20  1  0  0  0
 30 36  2  0  0  0
  7  8  1  0  0  0
  7  9  1  0  0  0
 22 24  1  0  0  0
 22 23  1  0  0  0
 11 12  1  0  0  0
 11 18  1  0  0  0
 24 27  1  0  0  0
  4 10  1  0  0  0
 51 52  1  0  0  0
 52 53  1  0  0  0
 53 54  1  0  0  0
 54 55  1  0  0  0
 55 56  1  0  0  0
 56 57  1  0  0  0
 57 58  1  0  0  0
 58 59  1  0  0  0
 59 60  1  0  0  0
 60 61  1  0  0  0
 61 62  1  0  0  0
 62 63  1  0  0  0
 63 64  1  0  0  0
 64 65  1  0  0  0
 31 32  1  0  0  0
 32 33  1  0  0  0
 33 34  1  0  0  0
 34 35  1  0  0  0
 35 36  1  0  0  0
  8 10  1  0  0  0
  9 17  1  0  0  0
 12 13  2  0  0  0
 12 17  1  0  0  0
 13 14  1  0  0  0
 14 15  2  0  0  0
 15 16  1  0  0  0
 16 17  2  0  0  0
M  END
> <minimizedAffinity>
-10.63950

> <CNNscore>
0.0922811404

> <CNNaffinity>
7.2985215187

> <CNN_VS>
0.6735159159

> <CNNaffinity_variance>
1.2769868374

$$$$
/media/chris/experiments/cd1a-new-docking/inputs/ligands/1xz0_ligand.pdb


 65 67  0  0  0  0  0  0  0  0999 V2000
  -38.9606   60.0091   64.9139 C   0  0  0  0  0  0  0  0  0  0  0  0
  -38.3982   60.7893   63.8098 N   0  0  0  0  0  0  0  0  0  0  0  0
  -36.8678   62.1235   62.7847 O   0  0  0  0  0  0  0  0  0  0  0  0
  -37.2504   61.4873   63.7579 C   0  0  0  0  0  0  0  0  0  0  0  0
  -38.9384   60.8050   62.9869 H   0  0  0  0  0  0  0  0  0  0  0  0
  -35.4749   62.6032   65.0931 N   0  0  0  0  0  0  0  0  0  0  0  0
  -33.9815   60.9431   65.1709 O   0  0  0  0  0  0  0  0  0  0  0  0
  -35.2295   60.2749   64.9905 C   0  0  0  0  0  0  0  0  0  0  0  0
  -34.2394   62.3610   65.2048 C   0  0  0  0  0  0  0  0  0  0  0  0
  -36.3072   61.3936   64.9486 C   0  0  0  0  0  0  0  0  0  0  0  0
  -31.7391   62.4526   63.7429 O   0  0  0  0  0  0  0  0  0  0  0  0
  -31.9869   63.3984   64.6570 C   0  0  0  0  0  0  0  0  0  0  0  0
  -31.0471   64.4144   64.8750 C   0  0  0  0  0  0  0  0  0  0  0  0
  -31.2795   65.4132   65.8355 C   0  0  0  0  0  0  0  0  0  0  0  0
  -32.4589   65.4131   66.5822 C   0  0  0  0  0  0  0  0  0  0  0  0
  -33.4024   64.4053   66.3641 C   0  0  0  0  0  0  0  0  0  0  0  0
  -33.1685   63.3981   65.4083 C   0  0  0  0  0  0  0  0  0  0  0  0
  -30.9413   62.4732   63.2519 H   0  0  0  0  0  0  0  0  0  0  0  0
  -39.6473   57.7699   64.4136 O   0  0  0  0  0  0  0  0  0  0  0  0
  -38.7231   58.5507   64.5712 C   0  0  0  0  0  0  0  0  0  0  0  0
  -37.3528   58.0341   64.4897 O   0  0  0  0  0  0  0  0  0  0  0  0
  -36.8530   57.4226   63.2854 C   0  0  0  0  0  0  0  0  0  0  0  0
  -35.4441   56.8543   63.4024 C   0  0  0  0  0  0  0  0  0  0  0  0
  -36.9424   58.4404   62.1583 C   0  0  0  0  0  0  0  0  0  0  0  0
  -38.6465   59.3354   60.6446 N   0  0  0  0  0  0  0  0  0  0  0  0
  -38.5946   57.1390   61.1821 O   0  0  0  0  0  0  0  0  0  0  0  0
  -38.1682   58.2653   61.2963 C   0  0  0  0  0  0  0  0  0  0  0  0
  -38.2188   60.2052   60.8173 H   0  0  0  0  0  0  0  0  0  0  0  0
  -41.5347   60.5453   60.8651 N   0  0  0  0  0  0  0  0  0  0  0  0
  -40.8007   61.2500   58.8575 O   0  0  0  0  0  0  0  0  0  0  0  0
  -41.3619   59.8081   62.1254 C   0  0  0  0  0  0  0  0  0  0  0  0
  -41.6396   58.3069   61.9212 C   0  0  0  0  0  0  0  0  0  0  0  0
  -41.8434   57.8752   60.4784 C   0  0  0  0  0  0  0  0  0  0  0  0
  -40.5731   57.9959   59.6324 C   0  0  0  0  0  0  0  0  0  0  0  0
  -39.7623   59.3012   59.6923 C   0  0  0  0  0  0  0  0  0  0  0  0
  -40.7394   60.4568   59.7870 C   0  0  0  0  0  0  0  0  0  0  0  0
  -42.3517   63.0927   60.2588 Si  0  0  0  0  0  0  0  0  0  0  0  0
  -42.5913   61.4020   60.7881 O   0  0  0  0  0  0  0  0  0  0  0  0
  -43.5988   63.7716   60.2644 H   0  0  0  0  0  0  0  0  0  0  0  0
  -41.8117   63.1054   58.9455 H   0  0  0  0  0  0  0  0  0  0  0  0
  -41.4542   63.7438   61.1460 H   0  0  0  0  0  0  0  0  0  0  0  0
  -41.1162   59.2828   66.2255 C   0  0  0  0  0  0  0  0  0  0  0  0
  -40.4179   60.3178   65.3350 C   0  0  0  0  0  0  0  0  0  0  0  0
  -42.6516   59.3450   66.2903 C   0  0  0  0  0  0  0  0  0  0  0  0
  -43.4411   58.5843   65.2051 C   0  0  0  0  0  0  0  0  0  0  0  0
  -44.3001   59.5436   64.5040 N   0  0  0  0  0  0  0  0  0  0  0  0
  -45.6513   59.6817   64.5583 C   0  0  0  0  0  0  0  0  0  0  0  0
  -43.6020   60.4282   63.6700 O   0  0  0  0  0  0  0  0  0  0  0  0
  -46.2300   60.5472   63.9019 O   0  0  0  0  0  0  0  0  0  0  0  0
  -44.2291   61.0308   63.2405 H   0  0  0  0  0  0  0  0  0  0  0  0
  -46.4573   58.7417   65.4609 C   0  0  0  0  0  0  0  0  0  0  0  0
  -46.9656   59.3865   66.7576 C   0  0  0  0  0  0  0  0  0  0  0  0
  -48.3609   59.9996   66.5314 C   0  0  0  0  0  0  0  0  0  0  0  0
  -49.1575   59.3164   65.4037 C   0  0  0  0  0  0  0  0  0  0  0  0
  -50.6792   59.2634   65.6345 C   0  0  0  0  0  0  0  0  0  0  0  0
  -51.4310   60.4238   64.9494 C   0  0  0  0  0  0  0  0  0  0  0  0
  -51.8365   60.1485   63.4826 C   0  0  0  0  0  0  0  0  0  0  0  0
  -51.5537   58.7110   63.0312 C   0  0  0  0  0  0  0  0  0  0  0  0
  -50.8451   58.5757   61.6797 C   0  0  0  0  0  0  0  0  0  0  0  0
  -50.1060   59.8723   61.3014 C   0  0  0  0  0  0  0  0  0  0  0  0
  -49.1661   59.7240   60.0953 C   0  0  0  0  0  0  0  0  0  0  0  0
  -49.3669   58.4646   59.2459 C   0  0  0  0  0  0  0  0  0  0  0  0
  -48.1484   58.0902   58.3657 C   0  0  0  0  0  0  0  0  0  0  0  0
  -48.0990   56.5748   58.0842 C   0  0  0  0  0  0  0  0  0  0  0  0
  -47.3521   56.1211   56.8242 C   0  0  0  0  0  0  0  0  0  0  0  0
 46 47  1  0  0  0
 46 48  1  0  0  0
 46 45  1  0  0  0
 47 49  2  0  0  0
 47 51  1  0  0  0
 19 20  2  0  0  0
 37 38  1  0  0  0
 37 39  1  0  0  0
 37 40  1  0  0  0
 37 41  1  0  0  0
 48 50  1  0  0  0
 38 29  1  0  0  0
 45 44  1  0  0  0
 25 27  1  0  0  0
 25 35  1  0  0  0
 25 28  1  0  0  0
 21 20  1  0  0  0
 21 22  1  0  0  0
 44 42  1  0  0  0
  2  1  1  0  0  0
  2  4  1  0  0  0
  2  5  1  0  0  0
 26 27  2  0  0  0
 42 43  2  0  0  0
 29 31  1  0  0  0
 29 36  1  0  0  0
  3  4  2  0  0  0
 43  1  1  0  0  0
  6  9  2  0  0  0
  6 10  1  0  0  0
  1 20  1  0  0  0
 30 36  2  0  0  0
  7  8  1  0  0  0
  7  9  1  0  0  0
 22 24  1  0  0  0
 22 23  1  0  0  0
 11 12  1  0  0  0
 11 18  1  0  0  0
 24 27  1  0  0  0
  4 10  1  0  0  0
 51 52  1  0  0  0
 52 53  1  0  0  0
 53 54  1  0  0  0
 54 55  1  0  0  0
 55 56  1  0  0  0
 56 57  1  0  0  0
 57 58  1  0  0  0
 58 59  1  0  0  0
 59 60  1  0  0  0
 60 61  1  0  0  0
 61 62  1  0  0  0
 62 63  1  0  0  0
 63 64  1  0  0  0
 64 65  1  0  0  0
 31 32  1  0  0  0
 32 33  1  0  0  0
 33 34  1  0  0  0
 34 35  1  0  0  0
 35 36  1  0  0  0
  8 10  1  0  0  0
  9 17  1  0  0  0
 12 13  2  0  0  0
 12 17  1  0  0  0
 13 14  1  0  0  0
 14 15  2  0  0  0
 15 16  1  0  0  0
 16 17  2  0  0  0
M  END
> <minimizedAffinity>
-9.65603

> <CNNscore>
0.0909114480

> <CNNaffinity>
7.1105394363

> <CNN_VS>
0.6464294195

> <CNNaffinity_variance>
0.6729581952

$$$$
