/media/chris/experiments/cd1a-new-docking/inputs/ligands/1xz0_ligand.pdb


 65 67  0  0  0  0  0  0  0  0999 V2000
  -36.3854   60.4732   64.6546 C   0  0  0  0  0  0  0  0  0  0  0  0
  -35.0131   60.0752   64.9749 N   0  0  0  0  0  0  0  0  0  0  0  0
  -33.2600   58.6365   65.1472 O   0  0  0  0  0  0  0  0  0  0  0  0
  -34.4194   58.8769   64.8372 C   0  0  0  0  0  0  0  0  0  0  0  0
  -34.4432   60.7878   65.3445 H   0  0  0  0  0  0  0  0  0  0  0  0
  -35.9226   58.2590   62.9561 N   0  0  0  0  0  0  0  0  0  0  0  0
  -37.5077   57.1753   64.0985 O   0  0  0  0  0  0  0  0  0  0  0  0
  -36.3444   57.0434   64.9146 C   0  0  0  0  0  0  0  0  0  0  0  0
  -37.1472   57.9469   62.9354 C   0  0  0  0  0  0  0  0  0  0  0  0
  -35.2043   57.7699   64.1483 C   0  0  0  0  0  0  0  0  0  0  0  0
  -37.3236   60.5245   61.6233 O   0  0  0  0  0  0  0  0  0  0  0  0
  -38.1313   59.5373   61.2172 C   0  0  0  0  0  0  0  0  0  0  0  0
  -39.0266   59.7639   60.1637 C   0  0  0  0  0  0  0  0  0  0  0  0
  -39.8914   58.7470   59.7253 C   0  0  0  0  0  0  0  0  0  0  0  0
  -39.8637   57.4886   60.3289 C   0  0  0  0  0  0  0  0  0  0  0  0
  -38.9678   57.2556   61.3760 C   0  0  0  0  0  0  0  0  0  0  0  0
  -38.1061   58.2754   61.8234 C   0  0  0  0  0  0  0  0  0  0  0  0
  -37.3580   61.3610   61.2025 H   0  0  0  0  0  0  0  0  0  0  0  0
  -37.2192   62.4480   63.5867 O   0  0  0  0  0  0  0  0  0  0  0  0
  -36.3196   61.9264   64.2246 C   0  0  0  0  0  0  0  0  0  0  0  0
  -35.1215   62.7203   64.5169 O   0  0  0  0  0  0  0  0  0  0  0  0
  -34.9352   63.3520   65.7975 C   0  0  0  0  0  0  0  0  0  0  0  0
  -36.2255   63.7832   66.4837 C   0  0  0  0  0  0  0  0  0  0  0  0
  -33.9889   64.5296   65.6180 C   0  0  0  0  0  0  0  0  0  0  0  0
  -32.2522   64.7114   63.9015 N   0  0  0  0  0  0  0  0  0  0  0  0
  -31.9807   63.3737   65.7048 O   0  0  0  0  0  0  0  0  0  0  0  0
  -32.6509   64.1337   65.0441 C   0  0  0  0  0  0  0  0  0  0  0  0
  -31.3513   64.4942   63.5691 H   0  0  0  0  0  0  0  0  0  0  0  0
  -33.9927   64.2105   61.3373 N   0  0  0  0  0  0  0  0  0  0  0  0
  -35.3708   65.3290   62.7213 O   0  0  0  0  0  0  0  0  0  0  0  0
  -32.6971   63.5961   61.0122 C   0  0  0  0  0  0  0  0  0  0  0  0
  -31.6927   64.6621   60.5353 C   0  0  0  0  0  0  0  0  0  0  0  0
  -32.1612   66.1015   60.6706 C   0  0  0  0  0  0  0  0  0  0  0  0
  -32.3053   66.5498   62.1273 C   0  0  0  0  0  0  0  0  0  0  0  0
  -33.0641   65.6441   63.1114 C   0  0  0  0  0  0  0  0  0  0  0  0
  -34.2370   65.0283   62.3738 C   0  0  0  0  0  0  0  0  0  0  0  0
  -36.4345   62.9779   61.1314 Si  0  0  0  0  0  0  0  0  0  0  0  0
  -35.0412   63.9157   60.5189 O   0  0  0  0  0  0  0  0  0  0  0  0
  -37.3847   62.8072   60.0900 H   0  0  0  0  0  0  0  0  0  0  0  0
  -37.0366   63.6758   62.2116 H   0  0  0  0  0  0  0  0  0  0  0  0
  -35.9891   61.7061   61.5790 H   0  0  0  0  0  0  0  0  0  0  0  0
  -38.8888   59.8952   65.1960 C   0  0  0  0  0  0  0  0  0  0  0  0
  -37.4761   60.1891   65.7157 C   0  0  0  0  0  0  0  0  0  0  0  0
  -40.0435   60.0430   66.2012 C   0  0  0  0  0  0  0  0  0  0  0  0
  -41.4084   60.5081   65.6535 C   0  0  0  0  0  0  0  0  0  0  0  0
  -41.5294   60.0462   64.2673 N   0  0  0  0  0  0  0  0  0  0  0  0
  -42.0410   58.8785   63.7956 C   0  0  0  0  0  0  0  0  0  0  0  0
  -41.0419   60.9574   63.3198 O   0  0  0  0  0  0  0  0  0  0  0  0
  -42.0720   58.6380   62.5890 O   0  0  0  0  0  0  0  0  0  0  0  0
  -41.1531   60.5887   62.4296 H   0  0  0  0  0  0  0  0  0  0  0  0
  -42.5917   57.8536   64.7928 C   0  0  0  0  0  0  0  0  0  0  0  0
  -44.1016   57.6033   64.6785 C   0  0  0  0  0  0  0  0  0  0  0  0
  -44.8271   58.9103   64.3046 C   0  0  0  0  0  0  0  0  0  0  0  0
  -45.9822   59.2672   65.2594 C   0  0  0  0  0  0  0  0  0  0  0  0
  -47.3351   59.5130   64.5656 C   0  0  0  0  0  0  0  0  0  0  0  0
  -48.4850   58.6913   65.1849 C   0  0  0  0  0  0  0  0  0  0  0  0
  -49.4215   58.0195   64.1537 C   0  0  0  0  0  0  0  0  0  0  0  0
  -50.6976   58.8221   63.8748 C   0  0  0  0  0  0  0  0  0  0  0  0
  -50.9794   59.1128   62.3974 C   0  0  0  0  0  0  0  0  0  0  0  0
  -50.0224   60.1843   61.8439 C   0  0  0  0  0  0  0  0  0  0  0  0
  -49.6349   59.9728   60.3725 C   0  0  0  0  0  0  0  0  0  0  0  0
  -48.8730   58.6797   60.0641 C   0  0  0  0  0  0  0  0  0  0  0  0
  -49.0325   58.1796   58.6066 C   0  0  0  0  0  0  0  0  0  0  0  0
  -47.7303   57.5407   58.0828 C   0  0  0  0  0  0  0  0  0  0  0  0
  -47.1470   58.1064   56.7824 C   0  0  0  0  0  0  0  0  0  0  0  0
 46 47  1  0  0  0
 46 48  1  0  0  0
 46 45  1  0  0  0
 47 49  2  0  0  0
 47 51  1  0  0  0
 19 20  2  0  0  0
 37 38  1  0  0  0
 37 39  1  0  0  0
 37 40  1  0  0  0
 37 41  1  0  0  0
 48 50  1  0  0  0
 38 29  1  0  0  0
 45 44  1  0  0  0
 25 27  1  0  0  0
 25 35  1  0  0  0
 25 28  1  0  0  0
 21 20  1  0  0  0
 21 22  1  0  0  0
 44 42  1  0  0  0
  2  1  1  0  0  0
  2  4  1  0  0  0
  2  5  1  0  0  0
 26 27  2  0  0  0
 42 43  2  0  0  0
 29 31  1  0  0  0
 29 36  1  0  0  0
  3  4  2  0  0  0
 43  1  1  0  0  0
  6  9  2  0  0  0
  6 10  1  0  0  0
  1 20  1  0  0  0
 30 36  2  0  0  0
  7  8  1  0  0  0
  7  9  1  0  0  0
 22 24  1  0  0  0
 22 23  1  0  0  0
 11 12  1  0  0  0
 11 18  1  0  0  0
 24 27  1  0  0  0
  4 10  1  0  0  0
 51 52  1  0  0  0
 52 53  1  0  0  0
 53 54  1  0  0  0
 54 55  1  0  0  0
 55 56  1  0  0  0
 56 57  1  0  0  0
 57 58  1  0  0  0
 58 59  1  0  0  0
 59 60  1  0  0  0
 60 61  1  0  0  0
 61 62  1  0  0  0
 62 63  1  0  0  0
 63 64  1  0  0  0
 64 65  1  0  0  0
 31 32  1  0  0  0
 32 33  1  0  0  0
 33 34  1  0  0  0
 34 35  1  0  0  0
 35 36  1  0  0  0
  8 10  1  0  0  0
  9 17  1  0  0  0
 12 13  2  0  0  0
 12 17  1  0  0  0
 13 14  1  0  0  0
 14 15  2  0  0  0
 15 16  1  0  0  0
 16 17  2  0  0  0
M  END
> <minimizedAffinity>
-9.69179

> <CNNscore>
0.2035466284

> <CNNaffinity>
7.2507295609

> <CNN_VS>
1.4758615494

> <CNNaffinity_variance>
0.7608909607

$$$$
/media/chris/experiments/cd1a-new-docking/inputs/ligands/1xz0_ligand.pdb


 65 67  0  0  0  0  0  0  0  0999 V2000
  -37.7699   57.9904   63.1555 C   0  0  0  0  0  0  0  0  0  0  0  0
  -37.5102   58.0678   61.7165 N   0  0  0  0  0  0  0  0  0  0  0  0
  -37.4740   59.0555   59.6681 O   0  0  0  0  0  0  0  0  0  0  0  0
  -37.7134   59.0905   60.8679 C   0  0  0  0  0  0  0  0  0  0  0  0
  -37.1325   57.2535   61.3122 H   0  0  0  0  0  0  0  0  0  0  0  0
  -37.1888   60.9688   62.4096 N   0  0  0  0  0  0  0  0  0  0  0  0
  -39.1132   61.0582   63.5413 O   0  0  0  0  0  0  0  0  0  0  0  0
  -39.4784   60.4854   62.2863 C   0  0  0  0  0  0  0  0  0  0  0  0
  -37.6925   61.3014   63.5201 C   0  0  0  0  0  0  0  0  0  0  0  0
  -38.1684   60.4197   61.4529 C   0  0  0  0  0  0  0  0  0  0  0  0
  -36.8242   64.0648   63.5995 O   0  0  0  0  0  0  0  0  0  0  0  0
  -36.5595   63.2751   64.6474 C   0  0  0  0  0  0  0  0  0  0  0  0
  -35.8880   63.8009   65.7589 C   0  0  0  0  0  0  0  0  0  0  0  0
  -35.5900   62.9903   66.8672 C   0  0  0  0  0  0  0  0  0  0  0  0
  -35.9691   61.6469   66.8807 C   0  0  0  0  0  0  0  0  0  0  0  0
  -36.6449   61.1192   65.7770 C   0  0  0  0  0  0  0  0  0  0  0  0
  -36.9371   61.9269   64.6612 C   0  0  0  0  0  0  0  0  0  0  0  0
  -36.5619   64.9643   63.6127 H   0  0  0  0  0  0  0  0  0  0  0  0
  -36.4074   57.2548   64.9825 O   0  0  0  0  0  0  0  0  0  0  0  0
  -36.4680   57.5569   63.8021 C   0  0  0  0  0  0  0  0  0  0  0  0
  -35.2279   57.5598   63.0190 O   0  0  0  0  0  0  0  0  0  0  0  0
  -34.0249   58.1701   63.5232 C   0  0  0  0  0  0  0  0  0  0  0  0
  -33.8922   58.1473   65.0408 C   0  0  0  0  0  0  0  0  0  0  0  0
  -33.9473   59.5915   62.9866 C   0  0  0  0  0  0  0  0  0  0  0  0
  -32.2208   61.3277   62.9621 N   0  0  0  0  0  0  0  0  0  0  0  0
  -31.7474   59.1971   62.3690 O   0  0  0  0  0  0  0  0  0  0  0  0
  -32.5348   60.0475   62.7157 C   0  0  0  0  0  0  0  0  0  0  0  0
  -31.2821   61.5997   62.8428 H   0  0  0  0  0  0  0  0  0  0  0  0
  -32.7939   64.1869   61.7995 N   0  0  0  0  0  0  0  0  0  0  0  0
  -34.8333   63.2511   61.9744 O   0  0  0  0  0  0  0  0  0  0  0  0
  -31.3319   64.1524   61.9517 C   0  0  0  0  0  0  0  0  0  0  0  0
  -30.9281   64.4546   63.4071 C   0  0  0  0  0  0  0  0  0  0  0  0
  -32.0792   64.5376   64.3959 C   0  0  0  0  0  0  0  0  0  0  0  0
  -32.7743   63.1921   64.6198 C   0  0  0  0  0  0  0  0  0  0  0  0
  -33.1776   62.3519   63.3966 C   0  0  0  0  0  0  0  0  0  0  0  0
  -33.6592   63.2989   62.3148 C   0  0  0  0  0  0  0  0  0  0  0  0
  -34.7829   64.9504   60.0719 Si  0  0  0  0  0  0  0  0  0  0  0  0
  -33.3162   65.2060   61.0615 O   0  0  0  0  0  0  0  0  0  0  0  0
  -35.1201   66.1578   59.4048 H   0  0  0  0  0  0  0  0  0  0  0  0
  -35.8583   64.5577   60.9121 H   0  0  0  0  0  0  0  0  0  0  0  0
  -34.5356   63.9329   59.1129 H   0  0  0  0  0  0  0  0  0  0  0  0
  -39.7906   56.4375   62.5235 C   0  0  0  0  0  0  0  0  0  0  0  0
  -38.9958   57.1646   63.6152 C   0  0  0  0  0  0  0  0  0  0  0  0
  -41.2175   55.9905   62.8839 C   0  0  0  0  0  0  0  0  0  0  0  0
  -41.8853   56.6577   64.1038 C   0  0  0  0  0  0  0  0  0  0  0  0
  -42.9830   57.5022   63.6225 N   0  0  0  0  0  0  0  0  0  0  0  0
  -44.0893   57.9292   64.2871 C   0  0  0  0  0  0  0  0  0  0  0  0
  -42.8435   57.9105   62.2886 O   0  0  0  0  0  0  0  0  0  0  0  0
  -44.9274   58.6425   63.7364 O   0  0  0  0  0  0  0  0  0  0  0  0
  -43.6007   58.4628   62.0386 H   0  0  0  0  0  0  0  0  0  0  0  0
  -44.2826   57.5137   65.7493 C   0  0  0  0  0  0  0  0  0  0  0  0
  -45.7483   57.4178   66.1944 C   0  0  0  0  0  0  0  0  0  0  0  0
  -46.3192   58.8276   66.4408 C   0  0  0  0  0  0  0  0  0  0  0  0
  -47.8560   58.8922   66.3560 C   0  0  0  0  0  0  0  0  0  0  0  0
  -48.4687   58.0880   65.1942 C   0  0  0  0  0  0  0  0  0  0  0  0
  -49.9821   58.3368   65.0247 C   0  0  0  0  0  0  0  0  0  0  0  0
  -50.3374   59.5413   64.1221 C   0  0  0  0  0  0  0  0  0  0  0  0
  -51.1758   59.1589   62.8968 C   0  0  0  0  0  0  0  0  0  0  0  0
  -51.0206   57.7106   62.4223 C   0  0  0  0  0  0  0  0  0  0  0  0
  -49.7302   57.5236   61.6036 C   0  0  0  0  0  0  0  0  0  0  0  0
  -49.8019   56.3795   60.5809 C   0  0  0  0  0  0  0  0  0  0  0  0
  -48.6438   56.3076   59.5803 C   0  0  0  0  0  0  0  0  0  0  0  0
  -48.4773   57.5767   58.7078 C   0  0  0  0  0  0  0  0  0  0  0  0
  -47.5701   57.3099   57.4896 C   0  0  0  0  0  0  0  0  0  0  0  0
  -47.0924   58.5295   56.6923 C   0  0  0  0  0  0  0  0  0  0  0  0
 46 47  1  0  0  0
 46 48  1  0  0  0
 46 45  1  0  0  0
 47 49  2  0  0  0
 47 51  1  0  0  0
 19 20  2  0  0  0
 37 38  1  0  0  0
 37 39  1  0  0  0
 37 40  1  0  0  0
 37 41  1  0  0  0
 48 50  1  0  0  0
 38 29  1  0  0  0
 45 44  1  0  0  0
 25 27  1  0  0  0
 25 35  1  0  0  0
 25 28  1  0  0  0
 21 20  1  0  0  0
 21 22  1  0  0  0
 44 42  1  0  0  0
  2  1  1  0  0  0
  2  4  1  0  0  0
  2  5  1  0  0  0
 26 27  2  0  0  0
 42 43  2  0  0  0
 29 31  1  0  0  0
 29 36  1  0  0  0
  3  4  2  0  0  0
 43  1  1  0  0  0
  6  9  2  0  0  0
  6 10  1  0  0  0
  1 20  1  0  0  0
 30 36  2  0  0  0
  7  8  1  0  0  0
  7  9  1  0  0  0
 22 24  1  0  0  0
 22 23  1  0  0  0
 11 12  1  0  0  0
 11 18  1  0  0  0
 24 27  1  0  0  0
  4 10  1  0  0  0
 51 52  1  0  0  0
 52 53  1  0  0  0
 53 54  1  0  0  0
 54 55  1  0  0  0
 55 56  1  0  0  0
 56 57  1  0  0  0
 57 58  1  0  0  0
 58 59  1  0  0  0
 59 60  1  0  0  0
 60 61  1  0  0  0
 61 62  1  0  0  0
 62 63  1  0  0  0
 63 64  1  0  0  0
 64 65  1  0  0  0
 31 32  1  0  0  0
 32 33  1  0  0  0
 33 34  1  0  0  0
 34 35  1  0  0  0
 35 36  1  0  0  0
  8 10  1  0  0  0
  9 17  1  0  0  0
 12 13  2  0  0  0
 12 17  1  0  0  0
 13 14  1  0  0  0
 14 15  2  0  0  0
 15 16  1  0  0  0
 16 17  2  0  0  0
M  END
> <minimizedAffinity>
-9.27299

> <CNNscore>
0.1699123830

> <CNNaffinity>
6.8430891037

> <CNN_VS>
1.1627255678

> <CNNaffinity_variance>
0.7044150233

$$$$
/media/chris/experiments/cd1a-new-docking/inputs/ligands/1xz0_ligand.pdb


 65 67  0  0  0  0  0  0  0  0999 V2000
  -42.7110   57.8363   65.4899 C   0  0  0  0  0  0  0  0  0  0  0  0
  -42.0092   59.0488   65.9157 N   0  0  0  0  0  0  0  0  0  0  0  0
  -41.0956   61.1148   65.6511 O   0  0  0  0  0  0  0  0  0  0  0  0
  -41.7008   60.1483   65.2063 C   0  0  0  0  0  0  0  0  0  0  0  0
  -41.7217   59.0605   66.8573 H   0  0  0  0  0  0  0  0  0  0  0  0
  -41.4686   59.4083   62.8444 N   0  0  0  0  0  0  0  0  0  0  0  0
  -41.5043   61.4008   61.8342 O   0  0  0  0  0  0  0  0  0  0  0  0
  -42.2163   61.6195   63.0515 C   0  0  0  0  0  0  0  0  0  0  0  0
  -41.0771   60.0242   61.8124 C   0  0  0  0  0  0  0  0  0  0  0  0
  -42.2338   60.2493   63.7844 C   0  0  0  0  0  0  0  0  0  0  0  0
  -38.3945   60.7821   61.0212 O   0  0  0  0  0  0  0  0  0  0  0  0
  -39.0137   59.8046   60.3482 C   0  0  0  0  0  0  0  0  0  0  0  0
  -38.3512   59.1620   59.2942 C   0  0  0  0  0  0  0  0  0  0  0  0
  -38.9829   58.1396   58.5662 C   0  0  0  0  0  0  0  0  0  0  0  0
  -40.2809   57.7412   58.8906 C   0  0  0  0  0  0  0  0  0  0  0  0
  -40.9437   58.3748   59.9454 C   0  0  0  0  0  0  0  0  0  0  0  0
  -40.3165   59.4057   60.6710 C   0  0  0  0  0  0  0  0  0  0  0  0
  -37.5223   61.0321   60.7873 H   0  0  0  0  0  0  0  0  0  0  0  0
  -42.1718   56.4011   63.6501 O   0  0  0  0  0  0  0  0  0  0  0  0
  -41.7630   57.0959   64.5658 C   0  0  0  0  0  0  0  0  0  0  0  0
  -40.3173   57.1519   64.8063 O   0  0  0  0  0  0  0  0  0  0  0  0
  -39.4254   57.7820   63.8675 C   0  0  0  0  0  0  0  0  0  0  0  0
  -38.8792   56.8516   62.7917 C   0  0  0  0  0  0  0  0  0  0  0  0
  -38.2977   58.4420   64.6468 C   0  0  0  0  0  0  0  0  0  0  0  0
  -36.5868   59.6864   63.4138 N   0  0  0  0  0  0  0  0  0  0  0  0
  -38.5526   60.6491   63.9831 O   0  0  0  0  0  0  0  0  0  0  0  0
  -37.7920   59.7085   64.0013 C   0  0  0  0  0  0  0  0  0  0  0  0
  -36.2935   60.4984   62.9406 H   0  0  0  0  0  0  0  0  0  0  0  0
  -33.9041   59.2484   64.9841 N   0  0  0  0  0  0  0  0  0  0  0  0
  -35.0898   57.3812   65.3999 O   0  0  0  0  0  0  0  0  0  0  0  0
  -33.7353   60.5661   64.3541 C   0  0  0  0  0  0  0  0  0  0  0  0
  -33.2951   60.4158   62.8857 C   0  0  0  0  0  0  0  0  0  0  0  0
  -33.3061   58.9947   62.3473 C   0  0  0  0  0  0  0  0  0  0  0  0
  -34.7160   58.4095   62.2308 C   0  0  0  0  0  0  0  0  0  0  0  0
  -35.6742   58.5373   63.4266 C   0  0  0  0  0  0  0  0  0  0  0  0
  -34.8664   58.3571   64.6969 C   0  0  0  0  0  0  0  0  0  0  0  0
  -32.8491   57.2042   66.4781 Si  0  0  0  0  0  0  0  0  0  0  0  0
  -33.0095   58.9054   65.9527 O   0  0  0  0  0  0  0  0  0  0  0  0
  -31.8570   57.1130   67.4901 H   0  0  0  0  0  0  0  0  0  0  0  0
  -32.4705   56.4004   65.3705 H   0  0  0  0  0  0  0  0  0  0  0  0
  -34.0920   56.7480   66.9913 H   0  0  0  0  0  0  0  0  0  0  0  0
  -45.0221   59.0812   65.5499 C   0  0  0  0  0  0  0  0  0  0  0  0
  -44.1368   58.0042   64.9109 C   0  0  0  0  0  0  0  0  0  0  0  0
  -46.5362   58.9729   65.3022 C   0  0  0  0  0  0  0  0  0  0  0  0
  -47.4265   58.5774   66.4982 C   0  0  0  0  0  0  0  0  0  0  0  0
  -48.6102   59.4425   66.4962 N   0  0  0  0  0  0  0  0  0  0  0  0
  -49.8175   59.2399   65.9053 C   0  0  0  0  0  0  0  0  0  0  0  0
  -48.4432   60.6363   67.2120 O   0  0  0  0  0  0  0  0  0  0  0  0
  -50.7198   60.0717   65.9984 O   0  0  0  0  0  0  0  0  0  0  0  0
  -49.2608   61.1564   67.1686 H   0  0  0  0  0  0  0  0  0  0  0  0
  -50.0498   57.9466   65.1170 C   0  0  0  0  0  0  0  0  0  0  0  0
  -50.2391   58.1476   63.6072 C   0  0  0  0  0  0  0  0  0  0  0  0
  -48.9352   58.6734   62.9766 C   0  0  0  0  0  0  0  0  0  0  0  0
  -48.9856   60.1708   62.6184 C   0  0  0  0  0  0  0  0  0  0  0  0
  -49.7812   60.4983   61.3409 C   0  0  0  0  0  0  0  0  0  0  0  0
  -49.2826   59.7177   60.1068 C   0  0  0  0  0  0  0  0  0  0  0  0
  -50.3906   58.9678   59.3310 C   0  0  0  0  0  0  0  0  0  0  0  0
  -50.0475   57.5019   59.0420 C   0  0  0  0  0  0  0  0  0  0  0  0
  -49.7159   56.6514   60.2723 C   0  0  0  0  0  0  0  0  0  0  0  0
  -48.4678   55.7821   60.0336 C   0  0  0  0  0  0  0  0  0  0  0  0
  -47.5258   56.3291   58.9504 C   0  0  0  0  0  0  0  0  0  0  0  0
  -47.6997   55.7283   57.5517 C   0  0  0  0  0  0  0  0  0  0  0  0
  -46.9720   56.5090   56.4290 C   0  0  0  0  0  0  0  0  0  0  0  0
  -47.6931   57.8325   56.1024 C   0  0  0  0  0  0  0  0  0  0  0  0
  -47.2828   59.0705   56.9089 C   0  0  0  0  0  0  0  0  0  0  0  0
 46 47  1  0  0  0
 46 48  1  0  0  0
 46 45  1  0  0  0
 47 49  2  0  0  0
 47 51  1  0  0  0
 19 20  2  0  0  0
 37 38  1  0  0  0
 37 39  1  0  0  0
 37 40  1  0  0  0
 37 41  1  0  0  0
 48 50  1  0  0  0
 38 29  1  0  0  0
 45 44  1  0  0  0
 25 27  1  0  0  0
 25 35  1  0  0  0
 25 28  1  0  0  0
 21 20  1  0  0  0
 21 22  1  0  0  0
 44 42  1  0  0  0
  2  1  1  0  0  0
  2  4  1  0  0  0
  2  5  1  0  0  0
 26 27  2  0  0  0
 42 43  2  0  0  0
 29 31  1  0  0  0
 29 36  1  0  0  0
  3  4  2  0  0  0
 43  1  1  0  0  0
  6  9  2  0  0  0
  6 10  1  0  0  0
  1 20  1  0  0  0
 30 36  2  0  0  0
  7  8  1  0  0  0
  7  9  1  0  0  0
 22 24  1  0  0  0
 22 23  1  0  0  0
 11 12  1  0  0  0
 11 18  1  0  0  0
 24 27  1  0  0  0
  4 10  1  0  0  0
 51 52  1  0  0  0
 52 53  1  0  0  0
 53 54  1  0  0  0
 54 55  1  0  0  0
 55 56  1  0  0  0
 56 57  1  0  0  0
 57 58  1  0  0  0
 58 59  1  0  0  0
 59 60  1  0  0  0
 60 61  1  0  0  0
 61 62  1  0  0  0
 62 63  1  0  0  0
 63 64  1  0  0  0
 64 65  1  0  0  0
 31 32  1  0  0  0
 32 33  1  0  0  0
 33 34  1  0  0  0
 34 35  1  0  0  0
 35 36  1  0  0  0
  8 10  1  0  0  0
  9 17  1  0  0  0
 12 13  2  0  0  0
 12 17  1  0  0  0
 13 14  1  0  0  0
 14 15  2  0  0  0
 15 16  1  0  0  0
 16 17  2  0  0  0
M  END
> <minimizedAffinity>
-9.69139

> <CNNscore>
0.1649281979

> <CNNaffinity>
7.7155737877

> <CNN_VS>
1.2725156546

> <CNNaffinity_variance>
1.3540271521

$$$$
/media/chris/experiments/cd1a-new-docking/inputs/ligands/1xz0_ligand.pdb


 65 67  0  0  0  0  0  0  0  0999 V2000
  -41.4124   57.6902   65.4870 C   0  0  0  0  0  0  0  0  0  0  0  0
  -41.1535   59.0553   65.9490 N   0  0  0  0  0  0  0  0  0  0  0  0
  -41.0488   61.3199   65.7652 O   0  0  0  0  0  0  0  0  0  0  0  0
  -41.3057   60.2196   65.2944 C   0  0  0  0  0  0  0  0  0  0  0  0
  -40.8197   59.1314   66.8721 H   0  0  0  0  0  0  0  0  0  0  0  0
  -41.1517   59.3808   62.9593 N   0  0  0  0  0  0  0  0  0  0  0  0
  -41.4908   61.2971   61.8618 O   0  0  0  0  0  0  0  0  0  0  0  0
  -42.1379   61.5007   63.1174 C   0  0  0  0  0  0  0  0  0  0  0  0
  -40.9074   59.9790   61.8730 C   0  0  0  0  0  0  0  0  0  0  0  0
  -41.9437   60.1802   63.9133 C   0  0  0  0  0  0  0  0  0  0  0  0
  -38.3336   60.9144   60.9258 O   0  0  0  0  0  0  0  0  0  0  0  0
  -38.9093   59.8753   60.3089 C   0  0  0  0  0  0  0  0  0  0  0  0
  -38.2533   59.2559   59.2370 C   0  0  0  0  0  0  0  0  0  0  0  0
  -38.8408   58.1696   58.5668 C   0  0  0  0  0  0  0  0  0  0  0  0
  -40.0867   57.6839   58.9675 C   0  0  0  0  0  0  0  0  0  0  0  0
  -40.7423   58.2943   60.0404 C   0  0  0  0  0  0  0  0  0  0  0  0
  -40.1600   59.3886   60.7082 C   0  0  0  0  0  0  0  0  0  0  0  0
  -37.4958   61.2227   60.6411 H   0  0  0  0  0  0  0  0  0  0  0  0
  -40.5057   56.7278   63.4902 O   0  0  0  0  0  0  0  0  0  0  0  0
  -40.2952   57.3470   64.5201 C   0  0  0  0  0  0  0  0  0  0  0  0
  -38.9107   57.7025   64.8488 O   0  0  0  0  0  0  0  0  0  0  0  0
  -38.0260   58.2625   63.8601 C   0  0  0  0  0  0  0  0  0  0  0  0
  -37.1737   57.2381   63.1213 C   0  0  0  0  0  0  0  0  0  0  0  0
  -37.1583   59.3146   64.5344 C   0  0  0  0  0  0  0  0  0  0  0  0
  -35.2394   60.7687   64.0884 N   0  0  0  0  0  0  0  0  0  0  0  0
  -36.3782   59.7824   62.4015 O   0  0  0  0  0  0  0  0  0  0  0  0
  -36.2250   60.0158   63.5786 C   0  0  0  0  0  0  0  0  0  0  0  0
  -34.5978   61.1702   63.4586 H   0  0  0  0  0  0  0  0  0  0  0  0
  -35.8465   63.3543   65.7621 N   0  0  0  0  0  0  0  0  0  0  0  0
  -36.8083   61.6999   66.9469 O   0  0  0  0  0  0  0  0  0  0  0  0
  -35.0777   63.8494   64.6108 C   0  0  0  0  0  0  0  0  0  0  0  0
  -33.5674   63.6481   64.8367 C   0  0  0  0  0  0  0  0  0  0  0  0
  -33.1978   62.8394   66.0692 C   0  0  0  0  0  0  0  0  0  0  0  0
  -33.6181   61.3706   65.9697 C   0  0  0  0  0  0  0  0  0  0  0  0
  -35.0497   61.0368   65.5186 C   0  0  0  0  0  0  0  0  0  0  0  0
  -35.9841   62.0677   66.1209 C   0  0  0  0  0  0  0  0  0  0  0  0
  -36.8096   63.9663   68.2564 Si  0  0  0  0  0  0  0  0  0  0  0  0
  -36.4840   64.2836   66.5275 O   0  0  0  0  0  0  0  0  0  0  0  0
  -37.4792   65.0823   68.8245 H   0  0  0  0  0  0  0  0  0  0  0  0
  -35.5821   63.7537   68.9379 H   0  0  0  0  0  0  0  0  0  0  0  0
  -37.6260   62.8112   68.3802 H   0  0  0  0  0  0  0  0  0  0  0  0
  -44.0160   57.9116   65.7449 C   0  0  0  0  0  0  0  0  0  0  0  0
  -42.8257   57.3798   64.9371 C   0  0  0  0  0  0  0  0  0  0  0  0
  -45.3844   57.2638   65.4741 C   0  0  0  0  0  0  0  0  0  0  0  0
  -46.3933   57.2181   66.6401 C   0  0  0  0  0  0  0  0  0  0  0  0
  -46.9126   58.5727   66.8522 N   0  0  0  0  0  0  0  0  0  0  0  0
  -47.6512   59.3473   66.0142 C   0  0  0  0  0  0  0  0  0  0  0  0
  -46.5863   59.1175   68.1021 O   0  0  0  0  0  0  0  0  0  0  0  0
  -48.0142   60.4760   66.3443 O   0  0  0  0  0  0  0  0  0  0  0  0
  -46.9599   60.0098   68.1734 H   0  0  0  0  0  0  0  0  0  0  0  0
  -48.0380   58.7926   64.6391 C   0  0  0  0  0  0  0  0  0  0  0  0
  -49.2149   57.8078   64.6591 C   0  0  0  0  0  0  0  0  0  0  0  0
  -50.5482   58.5786   64.7070 C   0  0  0  0  0  0  0  0  0  0  0  0
  -51.1579   58.8396   63.3166 C   0  0  0  0  0  0  0  0  0  0  0  0
  -51.1769   60.3201   62.8922 C   0  0  0  0  0  0  0  0  0  0  0  0
  -50.2066   60.6240   61.7315 C   0  0  0  0  0  0  0  0  0  0  0  0
  -49.3140   59.4326   61.3124 C   0  0  0  0  0  0  0  0  0  0  0  0
  -49.6191   58.9074   59.9048 C   0  0  0  0  0  0  0  0  0  0  0  0
  -50.2223   57.5004   59.8465 C   0  0  0  0  0  0  0  0  0  0  0  0
  -49.1326   56.4180   59.9528 C   0  0  0  0  0  0  0  0  0  0  0  0
  -47.7412   56.8890   59.5033 C   0  0  0  0  0  0  0  0  0  0  0  0
  -47.0622   56.0307   58.4310 C   0  0  0  0  0  0  0  0  0  0  0  0
  -47.8276   55.9706   57.0855 C   0  0  0  0  0  0  0  0  0  0  0  0
  -48.1987   57.3806   56.5832 C   0  0  0  0  0  0  0  0  0  0  0  0
  -47.0792   58.4280   56.5477 C   0  0  0  0  0  0  0  0  0  0  0  0
 46 47  1  0  0  0
 46 48  1  0  0  0
 46 45  1  0  0  0
 47 49  2  0  0  0
 47 51  1  0  0  0
 19 20  2  0  0  0
 37 38  1  0  0  0
 37 39  1  0  0  0
 37 40  1  0  0  0
 37 41  1  0  0  0
 48 50  1  0  0  0
 38 29  1  0  0  0
 45 44  1  0  0  0
 25 27  1  0  0  0
 25 35  1  0  0  0
 25 28  1  0  0  0
 21 20  1  0  0  0
 21 22  1  0  0  0
 44 42  1  0  0  0
  2  1  1  0  0  0
  2  4  1  0  0  0
  2  5  1  0  0  0
 26 27  2  0  0  0
 42 43  2  0  0  0
 29 31  1  0  0  0
 29 36  1  0  0  0
  3  4  2  0  0  0
 43  1  1  0  0  0
  6  9  2  0  0  0
  6 10  1  0  0  0
  1 20  1  0  0  0
 30 36  2  0  0  0
  7  8  1  0  0  0
  7  9  1  0  0  0
 22 24  1  0  0  0
 22 23  1  0  0  0
 11 12  1  0  0  0
 11 18  1  0  0  0
 24 27  1  0  0  0
  4 10  1  0  0  0
 51 52  1  0  0  0
 52 53  1  0  0  0
 53 54  1  0  0  0
 54 55  1  0  0  0
 55 56  1  0  0  0
 56 57  1  0  0  0
 57 58  1  0  0  0
 58 59  1  0  0  0
 59 60  1  0  0  0
 60 61  1  0  0  0
 61 62  1  0  0  0
 62 63  1  0  0  0
 63 64  1  0  0  0
 64 65  1  0  0  0
 31 32  1  0  0  0
 32 33  1  0  0  0
 33 34  1  0  0  0
 34 35  1  0  0  0
 35 36  1  0  0  0
  8 10  1  0  0  0
  9 17  1  0  0  0
 12 13  2  0  0  0
 12 17  1  0  0  0
 13 14  1  0  0  0
 14 15  2  0  0  0
 15 16  1  0  0  0
 16 17  2  0  0  0
M  END
> <minimizedAffinity>
-10.51265

> <CNNscore>
0.1390028596

> <CNNaffinity>
7.4939851761

> <CNN_VS>
1.0416853428

> <CNNaffinity_variance>
1.2659313679

$$$$
/media/chris/experiments/cd1a-new-docking/inputs/ligands/1xz0_ligand.pdb


 65 67  0  0  0  0  0  0  0  0999 V2000
  -42.2647   59.0718   65.2185 C   0  0  0  0  0  0  0  0  0  0  0  0
  -42.0348   57.6718   65.5810 N   0  0  0  0  0  0  0  0  0  0  0  0
  -41.9380   55.4279   65.2224 O   0  0  0  0  0  0  0  0  0  0  0  0
  -42.1410   56.5669   64.8226 C   0  0  0  0  0  0  0  0  0  0  0  0
  -41.7635   57.5175   66.5148 H   0  0  0  0  0  0  0  0  0  0  0  0
  -41.2009   57.0462   62.5718 N   0  0  0  0  0  0  0  0  0  0  0  0
  -42.6135   58.6508   61.9222 O   0  0  0  0  0  0  0  0  0  0  0  0
  -43.3654   57.8933   62.8696 C   0  0  0  0  0  0  0  0  0  0  0  0
  -41.3017   58.0610   61.8250 C   0  0  0  0  0  0  0  0  0  0  0  0
  -42.4254   56.7482   63.3386 C   0  0  0  0  0  0  0  0  0  0  0  0
  -40.1016   60.6934   61.9872 O   0  0  0  0  0  0  0  0  0  0  0  0
  -39.6737   59.8465   61.0431 C   0  0  0  0  0  0  0  0  0  0  0  0
  -38.6513   60.2411   60.1703 C   0  0  0  0  0  0  0  0  0  0  0  0
  -38.1913   59.3741   59.1649 C   0  0  0  0  0  0  0  0  0  0  0  0
  -38.7416   58.0986   59.0272 C   0  0  0  0  0  0  0  0  0  0  0  0
  -39.7574   57.6978   59.8995 C   0  0  0  0  0  0  0  0  0  0  0  0
  -40.2266   58.5678   60.9024 C   0  0  0  0  0  0  0  0  0  0  0  0
  -39.7165   61.5444   62.0626 H   0  0  0  0  0  0  0  0  0  0  0  0
  -41.0275   60.3570   66.8162 O   0  0  0  0  0  0  0  0  0  0  0  0
  -41.0553   59.8445   65.7095 C   0  0  0  0  0  0  0  0  0  0  0  0
  -39.9080   60.0475   64.8186 O   0  0  0  0  0  0  0  0  0  0  0  0
  -38.6252   59.4579   65.1026 C   0  0  0  0  0  0  0  0  0  0  0  0
  -38.0125   59.8858   66.4304 C   0  0  0  0  0  0  0  0  0  0  0  0
  -37.6898   59.7636   63.9424 C   0  0  0  0  0  0  0  0  0  0  0  0
  -35.6702   58.4242   63.5918 N   0  0  0  0  0  0  0  0  0  0  0  0
  -37.6959   57.6908   62.9033 O   0  0  0  0  0  0  0  0  0  0  0  0
  -36.9929   58.5389   63.4032 C   0  0  0  0  0  0  0  0  0  0  0  0
  -35.2358   57.5928   63.2928 H   0  0  0  0  0  0  0  0  0  0  0  0
  -33.2347   60.0211   62.4199 N   0  0  0  0  0  0  0  0  0  0  0  0
  -34.5545   61.6138   63.3068 O   0  0  0  0  0  0  0  0  0  0  0  0
  -32.9220   58.6185   62.1088 C   0  0  0  0  0  0  0  0  0  0  0  0
  -32.3060   57.9131   63.3317 C   0  0  0  0  0  0  0  0  0  0  0  0
  -32.3183   58.7193   64.6200 C   0  0  0  0  0  0  0  0  0  0  0  0
  -33.7290   58.9503   65.1682 C   0  0  0  0  0  0  0  0  0  0  0  0
  -34.8245   59.4505   64.2121 C   0  0  0  0  0  0  0  0  0  0  0  0
  -34.1953   60.4455   63.2566 C   0  0  0  0  0  0  0  0  0  0  0  0
  -33.2352   62.5155   61.2791 Si  0  0  0  0  0  0  0  0  0  0  0  0
  -32.4891   60.9753   61.7959 O   0  0  0  0  0  0  0  0  0  0  0  0
  -32.2533   63.3324   60.6586 H   0  0  0  0  0  0  0  0  0  0  0  0
  -33.7640   63.1889   62.4119 H   0  0  0  0  0  0  0  0  0  0  0  0
  -34.2809   62.2487   60.3562 H   0  0  0  0  0  0  0  0  0  0  0  0
  -44.6170   58.7885   66.3501 C   0  0  0  0  0  0  0  0  0  0  0  0
  -43.6152   59.7034   65.6349 C   0  0  0  0  0  0  0  0  0  0  0  0
  -46.0837   59.2509   66.3770 C   0  0  0  0  0  0  0  0  0  0  0  0
  -46.9169   59.0497   65.0946 C   0  0  0  0  0  0  0  0  0  0  0  0
  -48.0616   58.1930   65.4195 N   0  0  0  0  0  0  0  0  0  0  0  0
  -49.3888   58.4433   65.2662 C   0  0  0  0  0  0  0  0  0  0  0  0
  -47.7057   56.9498   65.9610 O   0  0  0  0  0  0  0  0  0  0  0  0
  -50.2355   57.6110   65.5904 O   0  0  0  0  0  0  0  0  0  0  0  0
  -48.5077   56.4383   66.1509 H   0  0  0  0  0  0  0  0  0  0  0  0
  -49.8267   59.7864   64.6726 C   0  0  0  0  0  0  0  0  0  0  0  0
  -51.1716   59.7469   63.9343 C   0  0  0  0  0  0  0  0  0  0  0  0
  -51.0519   60.4700   62.5789 C   0  0  0  0  0  0  0  0  0  0  0  0
  -49.6164   60.4961   62.0206 C   0  0  0  0  0  0  0  0  0  0  0  0
  -49.5262   60.6351   60.4893 C   0  0  0  0  0  0  0  0  0  0  0  0
  -49.1745   59.3074   59.7860 C   0  0  0  0  0  0  0  0  0  0  0  0
  -50.3943   58.4225   59.4384 C   0  0  0  0  0  0  0  0  0  0  0  0
  -50.7450   57.4093   60.5342 C   0  0  0  0  0  0  0  0  0  0  0  0
  -49.6756   56.3482   60.8125 C   0  0  0  0  0  0  0  0  0  0  0  0
  -49.0251   55.8518   59.5083 C   0  0  0  0  0  0  0  0  0  0  0  0
  -47.4925   55.9556   59.4982 C   0  0  0  0  0  0  0  0  0  0  0  0
  -46.8527   56.2254   58.1323 C   0  0  0  0  0  0  0  0  0  0  0  0
  -47.8330   56.1159   56.9380 C   0  0  0  0  0  0  0  0  0  0  0  0
  -48.0932   57.4922   56.2927 C   0  0  0  0  0  0  0  0  0  0  0  0
  -47.1135   58.6215   56.6338 C   0  0  0  0  0  0  0  0  0  0  0  0
 46 47  1  0  0  0
 46 48  1  0  0  0
 46 45  1  0  0  0
 47 49  2  0  0  0
 47 51  1  0  0  0
 19 20  2  0  0  0
 37 38  1  0  0  0
 37 39  1  0  0  0
 37 40  1  0  0  0
 37 41  1  0  0  0
 48 50  1  0  0  0
 38 29  1  0  0  0
 45 44  1  0  0  0
 25 27  1  0  0  0
 25 35  1  0  0  0
 25 28  1  0  0  0
 21 20  1  0  0  0
 21 22  1  0  0  0
 44 42  1  0  0  0
  2  1  1  0  0  0
  2  4  1  0  0  0
  2  5  1  0  0  0
 26 27  2  0  0  0
 42 43  2  0  0  0
 29 31  1  0  0  0
 29 36  1  0  0  0
  3  4  2  0  0  0
 43  1  1  0  0  0
  6  9  2  0  0  0
  6 10  1  0  0  0
  1 20  1  0  0  0
 30 36  2  0  0  0
  7  8  1  0  0  0
  7  9  1  0  0  0
 22 24  1  0  0  0
 22 23  1  0  0  0
 11 12  1  0  0  0
 11 18  1  0  0  0
 24 27  1  0  0  0
  4 10  1  0  0  0
 51 52  1  0  0  0
 52 53  1  0  0  0
 53 54  1  0  0  0
 54 55  1  0  0  0
 55 56  1  0  0  0
 56 57  1  0  0  0
 57 58  1  0  0  0
 58 59  1  0  0  0
 59 60  1  0  0  0
 60 61  1  0  0  0
 61 62  1  0  0  0
 62 63  1  0  0  0
 63 64  1  0  0  0
 64 65  1  0  0  0
 31 32  1  0  0  0
 32 33  1  0  0  0
 33 34  1  0  0  0
 34 35  1  0  0  0
 35 36  1  0  0  0
  8 10  1  0  0  0
  9 17  1  0  0  0
 12 13  2  0  0  0
 12 17  1  0  0  0
 13 14  1  0  0  0
 14 15  2  0  0  0
 15 16  1  0  0  0
 16 17  2  0  0  0
M  END
> <minimizedAffinity>
-9.77863

> <CNNscore>
0.1283340603

> <CNNaffinity>
7.5143752098

> <CNN_VS>
0.9643502831

> <CNNaffinity_variance>
0.8706743121

$$$$
/media/chris/experiments/cd1a-new-docking/inputs/ligands/1xz0_ligand.pdb


 65 67  0  0  0  0  0  0  0  0999 V2000
  -40.3073   57.9992   62.2646 C   0  0  0  0  0  0  0  0  0  0  0  0
  -39.6511   57.7250   60.9846 N   0  0  0  0  0  0  0  0  0  0  0  0
  -38.6666   58.2586   59.0050 O   0  0  0  0  0  0  0  0  0  0  0  0
  -39.1949   58.5868   60.0592 C   0  0  0  0  0  0  0  0  0  0  0  0
  -39.5260   56.7721   60.7709 H   0  0  0  0  0  0  0  0  0  0  0  0
  -38.0897   60.4878   61.2187 N   0  0  0  0  0  0  0  0  0  0  0  0
  -39.8468   61.3072   62.3292 O   0  0  0  0  0  0  0  0  0  0  0  0
  -40.4277   60.6454   61.2061 C   0  0  0  0  0  0  0  0  0  0  0  0
  -38.4173   61.1385   62.2516 C   0  0  0  0  0  0  0  0  0  0  0  0
  -39.2366   60.0718   60.3893 C   0  0  0  0  0  0  0  0  0  0  0  0
  -36.4829   63.2116   61.6536 O   0  0  0  0  0  0  0  0  0  0  0  0
  -36.5530   62.7356   62.9027 C   0  0  0  0  0  0  0  0  0  0  0  0
  -35.7079   63.2568   63.8911 C   0  0  0  0  0  0  0  0  0  0  0  0
  -35.7554   62.7675   65.2073 C   0  0  0  0  0  0  0  0  0  0  0  0
  -36.6558   61.7582   65.5526 C   0  0  0  0  0  0  0  0  0  0  0  0
  -37.5056   61.2393   64.5717 C   0  0  0  0  0  0  0  0  0  0  0  0
  -37.4541   61.7215   63.2497 C   0  0  0  0  0  0  0  0  0  0  0  0
  -35.8720   63.8906   61.4446 H   0  0  0  0  0  0  0  0  0  0  0  0
  -39.7534   56.7921   64.2574 O   0  0  0  0  0  0  0  0  0  0  0  0
  -39.3648   57.5007   63.3435 C   0  0  0  0  0  0  0  0  0  0  0  0
  -37.9615   57.9269   63.3405 O   0  0  0  0  0  0  0  0  0  0  0  0
  -36.9953   57.3304   64.2262 C   0  0  0  0  0  0  0  0  0  0  0  0
  -36.9175   57.9757   65.6043 C   0  0  0  0  0  0  0  0  0  0  0  0
  -35.6396   57.3445   63.5361 C   0  0  0  0  0  0  0  0  0  0  0  0
  -34.4323   59.2243   62.5336 N   0  0  0  0  0  0  0  0  0  0  0  0
  -36.3654   58.4634   61.6393 O   0  0  0  0  0  0  0  0  0  0  0  0
  -35.5134   58.4317   62.4975 C   0  0  0  0  0  0  0  0  0  0  0  0
  -34.3278   59.8885   61.8145 H   0  0  0  0  0  0  0  0  0  0  0  0
  -32.6708   61.5184   63.7539 N   0  0  0  0  0  0  0  0  0  0  0  0
  -33.4921   60.4459   65.5541 O   0  0  0  0  0  0  0  0  0  0  0  0
  -32.5303   61.6977   62.3013 C   0  0  0  0  0  0  0  0  0  0  0  0
  -31.4762   60.7294   61.7321 C   0  0  0  0  0  0  0  0  0  0  0  0
  -30.9500   59.6940   62.7123 C   0  0  0  0  0  0  0  0  0  0  0  0
  -32.0095   58.6699   63.1275 C   0  0  0  0  0  0  0  0  0  0  0  0
  -33.3943   59.1715   63.5695 C   0  0  0  0  0  0  0  0  0  0  0  0
  -33.1993   60.4466   64.3663 C   0  0  0  0  0  0  0  0  0  0  0  0
  -32.9245   62.7704   66.1812 Si  0  0  0  0  0  0  0  0  0  0  0  0
  -32.2345   62.5350   64.5489 O   0  0  0  0  0  0  0  0  0  0  0  0
  -32.3050   63.8884   66.8002 H   0  0  0  0  0  0  0  0  0  0  0  0
  -32.6947   61.6084   66.9643 H   0  0  0  0  0  0  0  0  0  0  0  0
  -34.3215   63.0016   66.0758 H   0  0  0  0  0  0  0  0  0  0  0  0
  -42.7871   58.5326   62.9432 C   0  0  0  0  0  0  0  0  0  0  0  0
  -41.7647   57.5070   62.4382 C   0  0  0  0  0  0  0  0  0  0  0  0
  -44.0974   57.9778   63.5271 C   0  0  0  0  0  0  0  0  0  0  0  0
  -44.0467   57.3818   64.9489 C   0  0  0  0  0  0  0  0  0  0  0  0
  -44.5071   58.4047   65.8931 N   0  0  0  0  0  0  0  0  0  0  0  0
  -45.7721   58.6792   66.3082 C   0  0  0  0  0  0  0  0  0  0  0  0
  -43.4767   59.1925   66.4250 O   0  0  0  0  0  0  0  0  0  0  0  0
  -45.9960   59.5807   67.1155 O   0  0  0  0  0  0  0  0  0  0  0  0
  -43.8514   59.8442   67.0379 H   0  0  0  0  0  0  0  0  0  0  0  0
  -46.9313   57.8407   65.7592 C   0  0  0  0  0  0  0  0  0  0  0  0
  -48.0972   58.6621   65.1922 C   0  0  0  0  0  0  0  0  0  0  0  0
  -49.2775   57.7345   64.8449 C   0  0  0  0  0  0  0  0  0  0  0  0
  -50.6223   58.4740   64.7118 C   0  0  0  0  0  0  0  0  0  0  0  0
  -50.5929   59.9454   65.1659 C   0  0  0  0  0  0  0  0  0  0  0  0
  -50.8655   60.9346   64.0134 C   0  0  0  0  0  0  0  0  0  0  0  0
  -51.1769   60.2661   62.6540 C   0  0  0  0  0  0  0  0  0  0  0  0
  -50.0363   60.3912   61.6373 C   0  0  0  0  0  0  0  0  0  0  0  0
  -49.2672   59.0974   61.3524 C   0  0  0  0  0  0  0  0  0  0  0  0
  -50.2080   57.9820   60.8613 C   0  0  0  0  0  0  0  0  0  0  0  0
  -49.5835   56.5789   60.8995 C   0  0  0  0  0  0  0  0  0  0  0  0
  -48.7913   56.1688   59.6538 C   0  0  0  0  0  0  0  0  0  0  0  0
  -48.7897   57.2283   58.5237 C   0  0  0  0  0  0  0  0  0  0  0  0
  -47.3954   57.3647   57.8790 C   0  0  0  0  0  0  0  0  0  0  0  0
  -47.2557   58.3549   56.7166 C   0  0  0  0  0  0  0  0  0  0  0  0
 46 47  1  0  0  0
 46 48  1  0  0  0
 46 45  1  0  0  0
 47 49  2  0  0  0
 47 51  1  0  0  0
 19 20  2  0  0  0
 37 38  1  0  0  0
 37 39  1  0  0  0
 37 40  1  0  0  0
 37 41  1  0  0  0
 48 50  1  0  0  0
 38 29  1  0  0  0
 45 44  1  0  0  0
 25 27  1  0  0  0
 25 35  1  0  0  0
 25 28  1  0  0  0
 21 20  1  0  0  0
 21 22  1  0  0  0
 44 42  1  0  0  0
  2  1  1  0  0  0
  2  4  1  0  0  0
  2  5  1  0  0  0
 26 27  2  0  0  0
 42 43  2  0  0  0
 29 31  1  0  0  0
 29 36  1  0  0  0
  3  4  2  0  0  0
 43  1  1  0  0  0
  6  9  2  0  0  0
  6 10  1  0  0  0
  1 20  1  0  0  0
 30 36  2  0  0  0
  7  8  1  0  0  0
  7  9  1  0  0  0
 22 24  1  0  0  0
 22 23  1  0  0  0
 11 12  1  0  0  0
 11 18  1  0  0  0
 24 27  1  0  0  0
  4 10  1  0  0  0
 51 52  1  0  0  0
 52 53  1  0  0  0
 53 54  1  0  0  0
 54 55  1  0  0  0
 55 56  1  0  0  0
 56 57  1  0  0  0
 57 58  1  0  0  0
 58 59  1  0  0  0
 59 60  1  0  0  0
 60 61  1  0  0  0
 61 62  1  0  0  0
 62 63  1  0  0  0
 63 64  1  0  0  0
 64 65  1  0  0  0
 31 32  1  0  0  0
 32 33  1  0  0  0
 33 34  1  0  0  0
 34 35  1  0  0  0
 35 36  1  0  0  0
  8 10  1  0  0  0
  9 17  1  0  0  0
 12 13  2  0  0  0
 12 17  1  0  0  0
 13 14  1  0  0  0
 14 15  2  0  0  0
 15 16  1  0  0  0
 16 17  2  0  0  0
M  END
> <minimizedAffinity>
-9.30138

> <CNNscore>
0.1278558820

> <CNNaffinity>
7.1237130165

> <CNN_VS>
0.9108086228

> <CNNaffinity_variance>
0.5585761070

$$$$
/media/chris/experiments/cd1a-new-docking/inputs/ligands/1xz0_ligand.pdb


 65 67  0  0  0  0  0  0  0  0999 V2000
  -40.7976   58.7134   61.4582 C   0  0  0  0  0  0  0  0  0  0  0  0
  -39.7577   58.6683   60.4283 N   0  0  0  0  0  0  0  0  0  0  0  0
  -37.6260   58.6637   59.6354 O   0  0  0  0  0  0  0  0  0  0  0  0
  -38.4206   58.6940   60.5658 C   0  0  0  0  0  0  0  0  0  0  0  0
  -40.0849   58.6109   59.5015 H   0  0  0  0  0  0  0  0  0  0  0  0
  -36.4739   59.1743   62.0353 N   0  0  0  0  0  0  0  0  0  0  0  0
  -36.3114   57.2053   63.0785 O   0  0  0  0  0  0  0  0  0  0  0  0
  -37.6836   57.2784   62.6932 C   0  0  0  0  0  0  0  0  0  0  0  0
  -35.6574   58.4038   62.6160 C   0  0  0  0  0  0  0  0  0  0  0  0
  -37.8503   58.6468   61.9760 C   0  0  0  0  0  0  0  0  0  0  0  0
  -34.2855   57.9824   65.1333 O   0  0  0  0  0  0  0  0  0  0  0  0
  -33.5929   58.4634   64.0938 C   0  0  0  0  0  0  0  0  0  0  0  0
  -32.2262   58.7356   64.2383 C   0  0  0  0  0  0  0  0  0  0  0  0
  -31.4792   59.2500   63.1652 C   0  0  0  0  0  0  0  0  0  0  0  0
  -32.0883   59.4886   61.9320 C   0  0  0  0  0  0  0  0  0  0  0  0
  -33.4501   59.2126   61.7808 C   0  0  0  0  0  0  0  0  0  0  0  0
  -34.2032   58.7055   62.8571 C   0  0  0  0  0  0  0  0  0  0  0  0
  -33.8557   57.8282   65.9516 H   0  0  0  0  0  0  0  0  0  0  0  0
  -40.0688   60.9826   61.6921 O   0  0  0  0  0  0  0  0  0  0  0  0
  -40.5952   60.0133   62.2133 C   0  0  0  0  0  0  0  0  0  0  0  0
  -40.9752   60.1028   63.6270 O   0  0  0  0  0  0  0  0  0  0  0  0
  -40.0421   59.7807   64.6756 C   0  0  0  0  0  0  0  0  0  0  0  0
  -40.5839   59.9757   66.0862 C   0  0  0  0  0  0  0  0  0  0  0  0
  -38.7755   60.5945   64.4567 C   0  0  0  0  0  0  0  0  0  0  0  0
  -36.5920   60.9664   65.5006 N   0  0  0  0  0  0  0  0  0  0  0  0
  -37.7215   59.0309   65.8060 O   0  0  0  0  0  0  0  0  0  0  0  0
  -37.6142   60.1229   65.2965 C   0  0  0  0  0  0  0  0  0  0  0  0
  -35.8696   60.6729   66.1016 H   0  0  0  0  0  0  0  0  0  0  0  0
  -34.1553   62.3262   64.0626 N   0  0  0  0  0  0  0  0  0  0  0  0
  -35.8682   62.6271   62.6340 O   0  0  0  0  0  0  0  0  0  0  0  0
  -33.5885   61.8247   65.3232 C   0  0  0  0  0  0  0  0  0  0  0  0
  -33.8843   62.7986   66.4793 C   0  0  0  0  0  0  0  0  0  0  0  0
  -34.8263   63.9419   66.1396 C   0  0  0  0  0  0  0  0  0  0  0  0
  -36.2561   63.4748   65.8545 C   0  0  0  0  0  0  0  0  0  0  0  0
  -36.4742   62.2961   64.8913 C   0  0  0  0  0  0  0  0  0  0  0  0
  -35.4624   62.4142   63.7683 C   0  0  0  0  0  0  0  0  0  0  0  0
  -33.5703   62.3461   61.3828 Si  0  0  0  0  0  0  0  0  0  0  0  0
  -33.2748   62.7285   63.1039 O   0  0  0  0  0  0  0  0  0  0  0  0
  -32.5141   62.8725   60.5929 H   0  0  0  0  0  0  0  0  0  0  0  0
  -34.8008   62.9249   60.9738 H   0  0  0  0  0  0  0  0  0  0  0  0
  -33.6307   60.9375   61.2144 H   0  0  0  0  0  0  0  0  0  0  0  0
  -42.3486   57.1704   62.9101 C   0  0  0  0  0  0  0  0  0  0  0  0
  -40.9430   57.4775   62.3789 C   0  0  0  0  0  0  0  0  0  0  0  0
  -42.4414   56.2468   64.1365 C   0  0  0  0  0  0  0  0  0  0  0  0
  -43.6959   56.3686   65.0257 C   0  0  0  0  0  0  0  0  0  0  0  0
  -43.5608   57.5742   65.8491 N   0  0  0  0  0  0  0  0  0  0  0  0
  -44.2191   58.7591   65.7466 C   0  0  0  0  0  0  0  0  0  0  0  0
  -42.6143   57.4577   66.8767 O   0  0  0  0  0  0  0  0  0  0  0  0
  -43.9897   59.6845   66.5248 O   0  0  0  0  0  0  0  0  0  0  0  0
  -42.5777   58.2872   67.3782 H   0  0  0  0  0  0  0  0  0  0  0  0
  -45.2676   58.9319   64.6426 C   0  0  0  0  0  0  0  0  0  0  0  0
  -46.4250   59.8718   65.0068 C   0  0  0  0  0  0  0  0  0  0  0  0
  -47.1745   59.3336   66.2409 C   0  0  0  0  0  0  0  0  0  0  0  0
  -48.6327   59.8213   66.3357 C   0  0  0  0  0  0  0  0  0  0  0  0
  -49.6580   58.9208   65.6215 C   0  0  0  0  0  0  0  0  0  0  0  0
  -50.4837   59.6770   64.5597 C   0  0  0  0  0  0  0  0  0  0  0  0
  -49.6734   60.1401   63.3265 C   0  0  0  0  0  0  0  0  0  0  0  0
  -50.2516   59.6451   61.9957 C   0  0  0  0  0  0  0  0  0  0  0  0
  -51.1772   58.4286   62.0952 C   0  0  0  0  0  0  0  0  0  0  0  0
  -50.9847   57.4778   60.8995 C   0  0  0  0  0  0  0  0  0  0  0  0
  -49.6447   56.7266   60.9109 C   0  0  0  0  0  0  0  0  0  0  0  0
  -48.9300   56.6201   59.5598 C   0  0  0  0  0  0  0  0  0  0  0  0
  -48.4759   57.9793   58.9715 C   0  0  0  0  0  0  0  0  0  0  0  0
  -47.8737   57.8119   57.5617 C   0  0  0  0  0  0  0  0  0  0  0  0
  -47.4229   56.4035   57.1561 C   0  0  0  0  0  0  0  0  0  0  0  0
 46 47  1  0  0  0
 46 48  1  0  0  0
 46 45  1  0  0  0
 47 49  2  0  0  0
 47 51  1  0  0  0
 19 20  2  0  0  0
 37 38  1  0  0  0
 37 39  1  0  0  0
 37 40  1  0  0  0
 37 41  1  0  0  0
 48 50  1  0  0  0
 38 29  1  0  0  0
 45 44  1  0  0  0
 25 27  1  0  0  0
 25 35  1  0  0  0
 25 28  1  0  0  0
 21 20  1  0  0  0
 21 22  1  0  0  0
 44 42  1  0  0  0
  2  1  1  0  0  0
  2  4  1  0  0  0
  2  5  1  0  0  0
 26 27  2  0  0  0
 42 43  2  0  0  0
 29 31  1  0  0  0
 29 36  1  0  0  0
  3  4  2  0  0  0
 43  1  1  0  0  0
  6  9  2  0  0  0
  6 10  1  0  0  0
  1 20  1  0  0  0
 30 36  2  0  0  0
  7  8  1  0  0  0
  7  9  1  0  0  0
 22 24  1  0  0  0
 22 23  1  0  0  0
 11 12  1  0  0  0
 11 18  1  0  0  0
 24 27  1  0  0  0
  4 10  1  0  0  0
 51 52  1  0  0  0
 52 53  1  0  0  0
 53 54  1  0  0  0
 54 55  1  0  0  0
 55 56  1  0  0  0
 56 57  1  0  0  0
 57 58  1  0  0  0
 58 59  1  0  0  0
 59 60  1  0  0  0
 60 61  1  0  0  0
 61 62  1  0  0  0
 62 63  1  0  0  0
 63 64  1  0  0  0
 64 65  1  0  0  0
 31 32  1  0  0  0
 32 33  1  0  0  0
 33 34  1  0  0  0
 34 35  1  0  0  0
 35 36  1  0  0  0
  8 10  1  0  0  0
  9 17  1  0  0  0
 12 13  2  0  0  0
 12 17  1  0  0  0
 13 14  1  0  0  0
 14 15  2  0  0  0
 15 16  1  0  0  0
 16 17  2  0  0  0
M  END
> <minimizedAffinity>
-9.56878

> <CNNscore>
0.1079968289

> <CNNaffinity>
7.3710861206

> <CNN_VS>
0.7960539460

> <CNNaffinity_variance>
0.9529197812

$$$$
/media/chris/experiments/cd1a-new-docking/inputs/ligands/1xz0_ligand.pdb


 65 67  0  0  0  0  0  0  0  0999 V2000
  -37.1530   60.3894   64.7000 C   0  0  0  0  0  0  0  0  0  0  0  0
  -35.7854   59.9810   65.0273 N   0  0  0  0  0  0  0  0  0  0  0  0
  -34.0347   58.5369   65.1793 O   0  0  0  0  0  0  0  0  0  0  0  0
  -35.1897   58.7874   64.8605 C   0  0  0  0  0  0  0  0  0  0  0  0
  -35.2208   60.6815   65.4271 H   0  0  0  0  0  0  0  0  0  0  0  0
  -36.5355   58.1923   62.8569 N   0  0  0  0  0  0  0  0  0  0  0  0
  -38.2818   57.2299   63.8648 O   0  0  0  0  0  0  0  0  0  0  0  0
  -37.2123   57.0617   64.7946 C   0  0  0  0  0  0  0  0  0  0  0  0
  -37.7678   57.9451   62.7236 C   0  0  0  0  0  0  0  0  0  0  0  0
  -35.9646   57.7029   64.1261 C   0  0  0  0  0  0  0  0  0  0  0  0
  -37.6025   60.4506   61.2773 O   0  0  0  0  0  0  0  0  0  0  0  0
  -38.4560   59.5131   60.8481 C   0  0  0  0  0  0  0  0  0  0  0  0
  -39.2337   59.7541   59.7079 C   0  0  0  0  0  0  0  0  0  0  0  0
  -40.1438   58.7899   59.2427 C   0  0  0  0  0  0  0  0  0  0  0  0
  -40.2792   57.5695   59.9067 C   0  0  0  0  0  0  0  0  0  0  0  0
  -39.5010   57.3217   61.0409 C   0  0  0  0  0  0  0  0  0  0  0  0
  -38.5946   58.2895   61.5146 C   0  0  0  0  0  0  0  0  0  0  0  0
  -37.5266   61.2621   60.8150 H   0  0  0  0  0  0  0  0  0  0  0  0
  -37.2813   62.6855   65.3681 O   0  0  0  0  0  0  0  0  0  0  0  0
  -37.1066   61.8868   64.4626 C   0  0  0  0  0  0  0  0  0  0  0  0
  -36.9149   62.4047   63.1039 O   0  0  0  0  0  0  0  0  0  0  0  0
  -35.8653   63.3431   62.8009 C   0  0  0  0  0  0  0  0  0  0  0  0
  -36.1715   64.2813   61.6401 C   0  0  0  0  0  0  0  0  0  0  0  0
  -34.5824   62.5638   62.5532 C   0  0  0  0  0  0  0  0  0  0  0  0
  -32.3696   63.5901   62.7675 N   0  0  0  0  0  0  0  0  0  0  0  0
  -33.5941   63.8303   60.8812 O   0  0  0  0  0  0  0  0  0  0  0  0
  -33.4637   63.4189   62.0113 C   0  0  0  0  0  0  0  0  0  0  0  0
  -31.6198   64.0965   62.3794 H   0  0  0  0  0  0  0  0  0  0  0  0
  -33.6537   64.5667   65.4606 N   0  0  0  0  0  0  0  0  0  0  0  0
  -34.0285   62.3475   65.4515 O   0  0  0  0  0  0  0  0  0  0  0  0
  -33.1150   65.7952   64.8584 C   0  0  0  0  0  0  0  0  0  0  0  0
  -31.6057   65.9229   65.1383 C   0  0  0  0  0  0  0  0  0  0  0  0
  -30.9620   64.7108   65.7911 C   0  0  0  0  0  0  0  0  0  0  0  0
  -30.9278   63.4849   64.8747 C   0  0  0  0  0  0  0  0  0  0  0  0
  -32.2112   63.0762   64.1328 C   0  0  0  0  0  0  0  0  0  0  0  0
  -33.3859   63.3128   65.0617 C   0  0  0  0  0  0  0  0  0  0  0  0
  -34.7100   63.4025   67.7084 Si  0  0  0  0  0  0  0  0  0  0  0  0
  -34.5084   64.7146   66.5111 O   0  0  0  0  0  0  0  0  0  0  0  0
  -35.6491   63.8026   68.6955 H   0  0  0  0  0  0  0  0  0  0  0  0
  -33.4610   63.1297   68.3265 H   0  0  0  0  0  0  0  0  0  0  0  0
  -35.1800   62.2330   67.0544 H   0  0  0  0  0  0  0  0  0  0  0  0
  -39.7162   60.0238   65.1368 C   0  0  0  0  0  0  0  0  0  0  0  0
  -38.2789   59.9492   65.6668 C   0  0  0  0  0  0  0  0  0  0  0  0
  -40.8437   60.0167   66.1828 C   0  0  0  0  0  0  0  0  0  0  0  0
  -41.6369   58.7063   66.3651 C   0  0  0  0  0  0  0  0  0  0  0  0
  -42.1345   58.2835   65.0524 N   0  0  0  0  0  0  0  0  0  0  0  0
  -43.4063   58.3008   64.5728 C   0  0  0  0  0  0  0  0  0  0  0  0
  -41.1365   57.7998   64.1949 O   0  0  0  0  0  0  0  0  0  0  0  0
  -43.6635   57.9078   63.4352 O   0  0  0  0  0  0  0  0  0  0  0  0
  -41.5346   57.5397   63.3495 H   0  0  0  0  0  0  0  0  0  0  0  0
  -44.5307   58.8268   65.4713 C   0  0  0  0  0  0  0  0  0  0  0  0
  -45.2805   57.7397   66.2534 C   0  0  0  0  0  0  0  0  0  0  0  0
  -46.5245   58.3419   66.9347 C   0  0  0  0  0  0  0  0  0  0  0  0
  -46.9939   59.6644   66.2994 C   0  0  0  0  0  0  0  0  0  0  0  0
  -48.4803   59.6905   65.8967 C   0  0  0  0  0  0  0  0  0  0  0  0
  -48.8278   58.6445   64.8168 C   0  0  0  0  0  0  0  0  0  0  0  0
  -48.5662   59.1095   63.3652 C   0  0  0  0  0  0  0  0  0  0  0  0
  -49.8491   59.3470   62.5601 C   0  0  0  0  0  0  0  0  0  0  0  0
  -50.8467   58.1844   62.5587 C   0  0  0  0  0  0  0  0  0  0  0  0
  -50.5936   57.2294   61.3778 C   0  0  0  0  0  0  0  0  0  0  0  0
  -49.7948   57.8601   60.2272 C   0  0  0  0  0  0  0  0  0  0  0  0
  -48.5289   57.1072   59.8048 C   0  0  0  0  0  0  0  0  0  0  0  0
  -48.4533   56.7892   58.2906 C   0  0  0  0  0  0  0  0  0  0  0  0
  -47.1220   57.2695   57.6782 C   0  0  0  0  0  0  0  0  0  0  0  0
  -47.1785   58.4879   56.7487 C   0  0  0  0  0  0  0  0  0  0  0  0
 46 47  1  0  0  0
 46 48  1  0  0  0
 46 45  1  0  0  0
 47 49  2  0  0  0
 47 51  1  0  0  0
 19 20  2  0  0  0
 37 38  1  0  0  0
 37 39  1  0  0  0
 37 40  1  0  0  0
 37 41  1  0  0  0
 48 50  1  0  0  0
 38 29  1  0  0  0
 45 44  1  0  0  0
 25 27  1  0  0  0
 25 35  1  0  0  0
 25 28  1  0  0  0
 21 20  1  0  0  0
 21 22  1  0  0  0
 44 42  1  0  0  0
  2  1  1  0  0  0
  2  4  1  0  0  0
  2  5  1  0  0  0
 26 27  2  0  0  0
 42 43  2  0  0  0
 29 31  1  0  0  0
 29 36  1  0  0  0
  3  4  2  0  0  0
 43  1  1  0  0  0
  6  9  2  0  0  0
  6 10  1  0  0  0
  1 20  1  0  0  0
 30 36  2  0  0  0
  7  8  1  0  0  0
  7  9  1  0  0  0
 22 24  1  0  0  0
 22 23  1  0  0  0
 11 12  1  0  0  0
 11 18  1  0  0  0
 24 27  1  0  0  0
  4 10  1  0  0  0
 51 52  1  0  0  0
 52 53  1  0  0  0
 53 54  1  0  0  0
 54 55  1  0  0  0
 55 56  1  0  0  0
 56 57  1  0  0  0
 57 58  1  0  0  0
 58 59  1  0  0  0
 59 60  1  0  0  0
 60 61  1  0  0  0
 61 62  1  0  0  0
 62 63  1  0  0  0
 63 64  1  0  0  0
 64 65  1  0  0  0
 31 32  1  0  0  0
 32 33  1  0  0  0
 33 34  1  0  0  0
 34 35  1  0  0  0
 35 36  1  0  0  0
  8 10  1  0  0  0
  9 17  1  0  0  0
 12 13  2  0  0  0
 12 17  1  0  0  0
 13 14  1  0  0  0
 14 15  2  0  0  0
 15 16  1  0  0  0
 16 17  2  0  0  0
M  END
> <minimizedAffinity>
-9.46739

> <CNNscore>
0.0906938612

> <CNNaffinity>
6.9939126968

> <CNN_VS>
0.6343049407

> <CNNaffinity_variance>
0.8111669421

$$$$
/media/chris/experiments/cd1a-new-docking/inputs/ligands/1xz0_ligand.pdb


 65 67  0  0  0  0  0  0  0  0999 V2000
  -37.7568   58.2036   62.1884 C   0  0  0  0  0  0  0  0  0  0  0  0
  -37.4873   58.2706   60.7507 N   0  0  0  0  0  0  0  0  0  0  0  0
  -37.7717   59.0203   58.6223 O   0  0  0  0  0  0  0  0  0  0  0  0
  -38.0586   59.0449   59.8120 C   0  0  0  0  0  0  0  0  0  0  0  0
  -36.7867   57.6605   60.4246 H   0  0  0  0  0  0  0  0  0  0  0  0
  -39.1517   60.1681   61.7416 N   0  0  0  0  0  0  0  0  0  0  0  0
  -41.2837   60.0140   61.0917 O   0  0  0  0  0  0  0  0  0  0  0  0
  -40.5481   59.9789   59.8693 C   0  0  0  0  0  0  0  0  0  0  0  0
  -40.3378   60.1147   62.1748 C   0  0  0  0  0  0  0  0  0  0  0  0
  -39.0520   60.1024   60.2712 C   0  0  0  0  0  0  0  0  0  0  0  0
  -42.9532   60.9358   63.1141 O   0  0  0  0  0  0  0  0  0  0  0  0
  -42.0233   60.5922   64.0136 C   0  0  0  0  0  0  0  0  0  0  0  0
  -42.3363   60.6206   65.3789 C   0  0  0  0  0  0  0  0  0  0  0  0
  -41.3750   60.2738   66.3431 C   0  0  0  0  0  0  0  0  0  0  0  0
  -40.0925   59.8848   65.9524 C   0  0  0  0  0  0  0  0  0  0  0  0
  -39.7773   59.8486   64.5913 C   0  0  0  0  0  0  0  0  0  0  0  0
  -40.7359   60.2042   63.6231 C   0  0  0  0  0  0  0  0  0  0  0  0
  -43.8084   61.1921   63.3989 H   0  0  0  0  0  0  0  0  0  0  0  0
  -35.7312   57.3503   63.1395 O   0  0  0  0  0  0  0  0  0  0  0  0
  -36.4132   58.3284   62.8814 C   0  0  0  0  0  0  0  0  0  0  0  0
  -35.9376   59.6448   63.3195 O   0  0  0  0  0  0  0  0  0  0  0  0
  -35.4792   59.8657   64.6666 C   0  0  0  0  0  0  0  0  0  0  0  0
  -36.3185   60.8544   65.4663 C   0  0  0  0  0  0  0  0  0  0  0  0
  -34.0224   60.3007   64.6119 C   0  0  0  0  0  0  0  0  0  0  0  0
  -33.6267   61.8431   62.7517 N   0  0  0  0  0  0  0  0  0  0  0  0
  -33.0240   59.6673   62.6173 O   0  0  0  0  0  0  0  0  0  0  0  0
  -33.5403   60.5862   63.2110 C   0  0  0  0  0  0  0  0  0  0  0  0
  -33.2515   62.0316   61.8612 H   0  0  0  0  0  0  0  0  0  0  0  0
  -35.0569   64.4241   61.6803 N   0  0  0  0  0  0  0  0  0  0  0  0
  -36.4966   63.5936   63.1979 O   0  0  0  0  0  0  0  0  0  0  0  0
  -33.7909   64.3842   60.9337 C   0  0  0  0  0  0  0  0  0  0  0  0
  -32.6408   64.9623   61.7797 C   0  0  0  0  0  0  0  0  0  0  0  0
  -32.9909   65.2709   63.2261 C   0  0  0  0  0  0  0  0  0  0  0  0
  -33.2822   64.0155   64.0524 C   0  0  0  0  0  0  0  0  0  0  0  0
  -34.2413   62.9572   63.4826 C   0  0  0  0  0  0  0  0  0  0  0  0
  -35.3590   63.6795   62.7560 C   0  0  0  0  0  0  0  0  0  0  0  0
  -37.3139   65.8424   62.3269 Si  0  0  0  0  0  0  0  0  0  0  0  0
  -36.0123   65.2870   61.2346 O   0  0  0  0  0  0  0  0  0  0  0  0
  -38.1739   66.7288   61.6261 H   0  0  0  0  0  0  0  0  0  0  0  0
  -36.7432   66.5170   63.4385 H   0  0  0  0  0  0  0  0  0  0  0  0
  -38.0584   64.7230   62.7839 H   0  0  0  0  0  0  0  0  0  0  0  0
  -39.8179   56.6137   61.8443 C   0  0  0  0  0  0  0  0  0  0  0  0
  -38.6102   57.0174   62.6991 C   0  0  0  0  0  0  0  0  0  0  0  0
  -40.8998   55.7613   62.5288 C   0  0  0  0  0  0  0  0  0  0  0  0
  -41.5957   56.3571   63.7698 C   0  0  0  0  0  0  0  0  0  0  0  0
  -42.7094   57.1951   63.3147 N   0  0  0  0  0  0  0  0  0  0  0  0
  -43.7925   57.6313   64.0107 C   0  0  0  0  0  0  0  0  0  0  0  0
  -42.6155   57.5851   61.9714 O   0  0  0  0  0  0  0  0  0  0  0  0
  -44.6491   58.3372   63.4791 O   0  0  0  0  0  0  0  0  0  0  0  0
  -43.3809   58.1340   61.7398 H   0  0  0  0  0  0  0  0  0  0  0  0
  -43.9358   57.2360   65.4842 C   0  0  0  0  0  0  0  0  0  0  0  0
  -45.3593   57.3687   66.0424 C   0  0  0  0  0  0  0  0  0  0  0  0
  -45.6140   58.8172   66.5017 C   0  0  0  0  0  0  0  0  0  0  0  0
  -47.1037   59.2094   66.5020 C   0  0  0  0  0  0  0  0  0  0  0  0
  -47.7308   59.3476   65.1020 C   0  0  0  0  0  0  0  0  0  0  0  0
  -48.7089   58.2022   64.7669 C   0  0  0  0  0  0  0  0  0  0  0  0
  -50.1935   58.6283   64.6879 C   0  0  0  0  0  0  0  0  0  0  0  0
  -50.6835   58.8696   63.2554 C   0  0  0  0  0  0  0  0  0  0  0  0
  -50.7552   57.6228   62.3684 C   0  0  0  0  0  0  0  0  0  0  0  0
  -50.8264   57.9985   60.8770 C   0  0  0  0  0  0  0  0  0  0  0  0
  -49.4525   58.1795   60.2141 C   0  0  0  0  0  0  0  0  0  0  0  0
  -48.6238   56.9025   60.0405 C   0  0  0  0  0  0  0  0  0  0  0  0
  -47.6251   56.9482   58.8572 C   0  0  0  0  0  0  0  0  0  0  0  0
  -47.9643   58.0882   57.8754 C   0  0  0  0  0  0  0  0  0  0  0  0
  -47.0188   58.2912   56.6853 C   0  0  0  0  0  0  0  0  0  0  0  0
 46 47  1  0  0  0
 46 48  1  0  0  0
 46 45  1  0  0  0
 47 49  2  0  0  0
 47 51  1  0  0  0
 19 20  2  0  0  0
 37 38  1  0  0  0
 37 39  1  0  0  0
 37 40  1  0  0  0
 37 41  1  0  0  0
 48 50  1  0  0  0
 38 29  1  0  0  0
 45 44  1  0  0  0
 25 27  1  0  0  0
 25 35  1  0  0  0
 25 28  1  0  0  0
 21 20  1  0  0  0
 21 22  1  0  0  0
 44 42  1  0  0  0
  2  1  1  0  0  0
  2  4  1  0  0  0
  2  5  1  0  0  0
 26 27  2  0  0  0
 42 43  2  0  0  0
 29 31  1  0  0  0
 29 36  1  0  0  0
  3  4  2  0  0  0
 43  1  1  0  0  0
  6  9  2  0  0  0
  6 10  1  0  0  0
  1 20  1  0  0  0
 30 36  2  0  0  0
  7  8  1  0  0  0
  7  9  1  0  0  0
 22 24  1  0  0  0
 22 23  1  0  0  0
 11 12  1  0  0  0
 11 18  1  0  0  0
 24 27  1  0  0  0
  4 10  1  0  0  0
 51 52  1  0  0  0
 52 53  1  0  0  0
 53 54  1  0  0  0
 54 55  1  0  0  0
 55 56  1  0  0  0
 56 57  1  0  0  0
 57 58  1  0  0  0
 58 59  1  0  0  0
 59 60  1  0  0  0
 60 61  1  0  0  0
 61 62  1  0  0  0
 62 63  1  0  0  0
 63 64  1  0  0  0
 64 65  1  0  0  0
 31 32  1  0  0  0
 32 33  1  0  0  0
 33 34  1  0  0  0
 34 35  1  0  0  0
 35 36  1  0  0  0
  8 10  1  0  0  0
  9 17  1  0  0  0
 12 13  2  0  0  0
 12 17  1  0  0  0
 13 14  1  0  0  0
 14 15  2  0  0  0
 15 16  1  0  0  0
 16 17  2  0  0  0
M  END
> <minimizedAffinity>
-9.49282

> <CNNscore>
0.0904875994

> <CNNaffinity>
7.1700782776

> <CNN_VS>
0.6488031745

> <CNNaffinity_variance>
1.0820202827

$$$$
