/media/chris/experiments/cd1a-new-docking/inputs/ligands/1xz0_ligand.pdb


 65 67  0  0  0  0  0  0  0  0999 V2000
  -41.1357   57.8302   62.9928 C   0  0  0  0  0  0  0  0  0  0  0  0
  -40.2374   58.3638   64.0186 N   0  0  0  0  0  0  0  0  0  0  0  0
  -41.0855   60.4366   64.4148 O   0  0  0  0  0  0  0  0  0  0  0  0
  -40.2602   59.5594   64.6329 C   0  0  0  0  0  0  0  0  0  0  0  0
  -39.5121   57.7599   64.2989 H   0  0  0  0  0  0  0  0  0  0  0  0
  -38.5089   61.1995   65.2837 N   0  0  0  0  0  0  0  0  0  0  0  0
  -36.7494   59.8268   65.3950 O   0  0  0  0  0  0  0  0  0  0  0  0
  -37.8674   58.9731   65.6348 C   0  0  0  0  0  0  0  0  0  0  0  0
  -37.2501   61.1610   65.1772 C   0  0  0  0  0  0  0  0  0  0  0  0
  -39.1203   59.8910   65.5852 C   0  0  0  0  0  0  0  0  0  0  0  0
  -35.4251   62.3076   67.1142 O   0  0  0  0  0  0  0  0  0  0  0  0
  -35.4914   62.8483   65.8915 C   0  0  0  0  0  0  0  0  0  0  0  0
  -34.6719   63.9384   65.5707 C   0  0  0  0  0  0  0  0  0  0  0  0
  -34.7294   64.5297   64.2974 C   0  0  0  0  0  0  0  0  0  0  0  0
  -35.6002   64.0312   63.3270 C   0  0  0  0  0  0  0  0  0  0  0  0
  -36.4153   62.9398   63.6399 C   0  0  0  0  0  0  0  0  0  0  0  0
  -36.3662   62.3507   64.9179 C   0  0  0  0  0  0  0  0  0  0  0  0
  -34.8321   62.6575   67.7496 H   0  0  0  0  0  0  0  0  0  0  0  0
  -41.6500   59.4860   61.3408 O   0  0  0  0  0  0  0  0  0  0  0  0
  -40.8711   58.6330   61.7333 C   0  0  0  0  0  0  0  0  0  0  0  0
  -39.6868   58.3429   60.9184 O   0  0  0  0  0  0  0  0  0  0  0  0
  -38.7892   59.3891   60.5018 C   0  0  0  0  0  0  0  0  0  0  0  0
  -37.8921   59.0220   59.3262 C   0  0  0  0  0  0  0  0  0  0  0  0
  -37.9663   59.8225   61.7058 C   0  0  0  0  0  0  0  0  0  0  0  0
  -35.6839   59.1167   62.2424 N   0  0  0  0  0  0  0  0  0  0  0  0
  -37.4353   57.7085   62.4967 O   0  0  0  0  0  0  0  0  0  0  0  0
  -36.9780   58.7757   62.1570 C   0  0  0  0  0  0  0  0  0  0  0  0
  -35.4263   60.0157   61.9348 H   0  0  0  0  0  0  0  0  0  0  0  0
  -33.6895   59.5524   64.6273 N   0  0  0  0  0  0  0  0  0  0  0  0
  -34.5497   57.5069   65.0032 O   0  0  0  0  0  0  0  0  0  0  0  0
  -33.5763   60.7890   63.8398 C   0  0  0  0  0  0  0  0  0  0  0  0
  -32.6301   60.5872   62.6412 C   0  0  0  0  0  0  0  0  0  0  0  0
  -32.1696   59.1571   62.4118 C   0  0  0  0  0  0  0  0  0  0  0  0
  -33.3035   58.2259   61.9749 C   0  0  0  0  0  0  0  0  0  0  0  0
  -34.6245   58.2443   62.7620 C   0  0  0  0  0  0  0  0  0  0  0  0
  -34.2932   58.4204   64.2310 C   0  0  0  0  0  0  0  0  0  0  0  0
  -32.7089   58.0254   66.6841 Si  0  0  0  0  0  0  0  0  0  0  0  0
  -33.1409   59.5596   65.8743 O   0  0  0  0  0  0  0  0  0  0  0  0
  -32.1593   58.3040   67.9634 H   0  0  0  0  0  0  0  0  0  0  0  0
  -31.7519   57.3291   65.8994 H   0  0  0  0  0  0  0  0  0  0  0  0
  -33.8721   57.2248   66.8328 H   0  0  0  0  0  0  0  0  0  0  0  0
  -42.9836   57.5121   64.8308 C   0  0  0  0  0  0  0  0  0  0  0  0
  -42.6373   57.7146   63.3506 C   0  0  0  0  0  0  0  0  0  0  0  0
  -44.3873   56.9692   65.1481 C   0  0  0  0  0  0  0  0  0  0  0  0
  -45.0615   57.4554   66.4474 C   0  0  0  0  0  0  0  0  0  0  0  0
  -46.5082   57.5212   66.2180 N   0  0  0  0  0  0  0  0  0  0  0  0
  -47.2849   58.6056   65.9566 C   0  0  0  0  0  0  0  0  0  0  0  0
  -47.1512   56.2771   66.2828 O   0  0  0  0  0  0  0  0  0  0  0  0
  -46.7975   59.7324   65.8700 O   0  0  0  0  0  0  0  0  0  0  0  0
  -48.1006   56.3951   66.1225 H   0  0  0  0  0  0  0  0  0  0  0  0
  -48.7938   58.4106   65.7742 C   0  0  0  0  0  0  0  0  0  0  0  0
  -49.2176   58.0271   64.3498 C   0  0  0  0  0  0  0  0  0  0  0  0
  -50.6941   58.4025   64.1186 C   0  0  0  0  0  0  0  0  0  0  0  0
  -51.0743   59.7824   64.6880 C   0  0  0  0  0  0  0  0  0  0  0  0
  -50.8966   60.9536   63.7038 C   0  0  0  0  0  0  0  0  0  0  0  0
  -50.9328   60.5074   62.2271 C   0  0  0  0  0  0  0  0  0  0  0  0
  -49.5487   60.4519   61.5393 C   0  0  0  0  0  0  0  0  0  0  0  0
  -49.5202   59.5534   60.2975 C   0  0  0  0  0  0  0  0  0  0  0  0
  -49.8555   58.0796   60.5469 C   0  0  0  0  0  0  0  0  0  0  0  0
  -49.5907   57.2242   59.2945 C   0  0  0  0  0  0  0  0  0  0  0  0
  -48.5036   56.1562   59.4885 C   0  0  0  0  0  0  0  0  0  0  0  0
  -47.2315   56.3423   58.6552 C   0  0  0  0  0  0  0  0  0  0  0  0
  -47.4197   56.0811   57.1399 C   0  0  0  0  0  0  0  0  0  0  0  0
  -47.8806   57.3535   56.4002 C   0  0  0  0  0  0  0  0  0  0  0  0
  -47.0268   58.6147   56.5789 C   0  0  0  0  0  0  0  0  0  0  0  0
 46 47  1  0  0  0
 46 48  1  0  0  0
 46 45  1  0  0  0
 47 49  2  0  0  0
 47 51  1  0  0  0
 19 20  2  0  0  0
 37 38  1  0  0  0
 37 39  1  0  0  0
 37 40  1  0  0  0
 37 41  1  0  0  0
 48 50  1  0  0  0
 38 29  1  0  0  0
 45 44  1  0  0  0
 25 27  1  0  0  0
 25 35  1  0  0  0
 25 28  1  0  0  0
 21 20  1  0  0  0
 21 22  1  0  0  0
 44 42  1  0  0  0
  2  1  1  0  0  0
  2  4  1  0  0  0
  2  5  1  0  0  0
 26 27  2  0  0  0
 42 43  2  0  0  0
 29 31  1  0  0  0
 29 36  1  0  0  0
  3  4  2  0  0  0
 43  1  1  0  0  0
  6  9  2  0  0  0
  6 10  1  0  0  0
  1 20  1  0  0  0
 30 36  2  0  0  0
  7  8  1  0  0  0
  7  9  1  0  0  0
 22 24  1  0  0  0
 22 23  1  0  0  0
 11 12  1  0  0  0
 11 18  1  0  0  0
 24 27  1  0  0  0
  4 10  1  0  0  0
 51 52  1  0  0  0
 52 53  1  0  0  0
 53 54  1  0  0  0
 54 55  1  0  0  0
 55 56  1  0  0  0
 56 57  1  0  0  0
 57 58  1  0  0  0
 58 59  1  0  0  0
 59 60  1  0  0  0
 60 61  1  0  0  0
 61 62  1  0  0  0
 62 63  1  0  0  0
 63 64  1  0  0  0
 64 65  1  0  0  0
 31 32  1  0  0  0
 32 33  1  0  0  0
 33 34  1  0  0  0
 34 35  1  0  0  0
 35 36  1  0  0  0
  8 10  1  0  0  0
  9 17  1  0  0  0
 12 13  2  0  0  0
 12 17  1  0  0  0
 13 14  1  0  0  0
 14 15  2  0  0  0
 15 16  1  0  0  0
 16 17  2  0  0  0
M  END
> <minimizedAffinity>
-10.20633

> <CNNscore>
0.2821378708

> <CNNaffinity>
7.6413068771

> <CNN_VS>
2.1559021473

> <CNNaffinity_variance>
0.6130725145

$$$$
/media/chris/experiments/cd1a-new-docking/inputs/ligands/1xz0_ligand.pdb


 65 67  0  0  0  0  0  0  0  0999 V2000
  -40.1286   57.0757   62.2880 C   0  0  0  0  0  0  0  0  0  0  0  0
  -38.8649   57.1451   63.0245 N   0  0  0  0  0  0  0  0  0  0  0  0
  -39.3554   58.5384   64.7540 O   0  0  0  0  0  0  0  0  0  0  0  0
  -38.5674   57.8280   64.1437 C   0  0  0  0  0  0  0  0  0  0  0  0
  -38.1268   56.6153   62.6454 H   0  0  0  0  0  0  0  0  0  0  0  0
  -36.7916   58.9968   65.4323 N   0  0  0  0  0  0  0  0  0  0  0  0
  -35.1411   58.9198   63.9282 O   0  0  0  0  0  0  0  0  0  0  0  0
  -35.9661   57.8052   63.5910 C   0  0  0  0  0  0  0  0  0  0  0  0
  -35.7410   59.5896   65.0549 C   0  0  0  0  0  0  0  0  0  0  0  0
  -37.1244   57.8063   64.6268 C   0  0  0  0  0  0  0  0  0  0  0  0
  -37.2772   61.7905   66.1473 O   0  0  0  0  0  0  0  0  0  0  0  0
  -35.9425   61.8255   66.2426 C   0  0  0  0  0  0  0  0  0  0  0  0
  -35.3215   62.9088   66.8778 C   0  0  0  0  0  0  0  0  0  0  0  0
  -33.9218   62.9735   66.9825 C   0  0  0  0  0  0  0  0  0  0  0  0
  -33.1275   61.9506   66.4616 C   0  0  0  0  0  0  0  0  0  0  0  0
  -33.7425   60.8646   65.8325 C   0  0  0  0  0  0  0  0  0  0  0  0
  -35.1445   60.8012   65.7184 C   0  0  0  0  0  0  0  0  0  0  0  0
  -37.7908   62.4875   66.5055 H   0  0  0  0  0  0  0  0  0  0  0  0
  -40.0633   57.6092   59.9543 O   0  0  0  0  0  0  0  0  0  0  0  0
  -39.9848   58.0119   61.1032 C   0  0  0  0  0  0  0  0  0  0  0  0
  -39.6764   59.4284   61.3256 O   0  0  0  0  0  0  0  0  0  0  0  0
  -38.5130   60.0428   60.7401 C   0  0  0  0  0  0  0  0  0  0  0  0
  -37.9801   59.3351   59.5005 C   0  0  0  0  0  0  0  0  0  0  0  0
  -37.4394   60.1551   61.8122 C   0  0  0  0  0  0  0  0  0  0  0  0
  -36.5143   62.4211   61.8866 N   0  0  0  0  0  0  0  0  0  0  0  0
  -38.1284   61.7673   63.3296 O   0  0  0  0  0  0  0  0  0  0  0  0
  -37.3574   61.5299   62.4282 C   0  0  0  0  0  0  0  0  0  0  0  0
  -35.9313   62.1136   61.1553 H   0  0  0  0  0  0  0  0  0  0  0  0
  -34.3483   64.5785   61.1733 N   0  0  0  0  0  0  0  0  0  0  0  0
  -36.3044   65.6194   60.7790 O   0  0  0  0  0  0  0  0  0  0  0  0
  -33.5605   63.4111   61.5958 C   0  0  0  0  0  0  0  0  0  0  0  0
  -33.4727   63.3397   63.1319 C   0  0  0  0  0  0  0  0  0  0  0  0
  -34.3396   64.3402   63.8785 C   0  0  0  0  0  0  0  0  0  0  0  0
  -35.8381   64.0719   63.7165 C   0  0  0  0  0  0  0  0  0  0  0  0
  -36.3997   63.8223   62.3068 C   0  0  0  0  0  0  0  0  0  0  0  0
  -35.6708   64.7375   61.3424 C   0  0  0  0  0  0  0  0  0  0  0  0
  -31.9357   65.8439   60.8540 Si  0  0  0  0  0  0  0  0  0  0  0  0
  -33.6774   65.5845   60.5457 O   0  0  0  0  0  0  0  0  0  0  0  0
  -31.4776   66.9454   60.0838 H   0  0  0  0  0  0  0  0  0  0  0  0
  -31.2116   64.6780   60.4896 H   0  0  0  0  0  0  0  0  0  0  0  0
  -31.7344   66.1144   62.2333 H   0  0  0  0  0  0  0  0  0  0  0  0
  -42.5827   58.0054   62.3710 C   0  0  0  0  0  0  0  0  0  0  0  0
  -41.4345   57.2884   63.0916 C   0  0  0  0  0  0  0  0  0  0  0  0
  -43.6912   58.6035   63.2538 C   0  0  0  0  0  0  0  0  0  0  0  0
  -44.0130   57.8819   64.5786 C   0  0  0  0  0  0  0  0  0  0  0  0
  -45.4226   58.1226   64.9027 N   0  0  0  0  0  0  0  0  0  0  0  0
  -46.1308   57.7224   65.9917 C   0  0  0  0  0  0  0  0  0  0  0  0
  -46.1079   58.8731   63.9370 O   0  0  0  0  0  0  0  0  0  0  0  0
  -45.6014   57.0713   66.8919 O   0  0  0  0  0  0  0  0  0  0  0  0
  -47.0294   58.9932   64.2150 H   0  0  0  0  0  0  0  0  0  0  0  0
  -47.6156   58.0890   66.0865 C   0  0  0  0  0  0  0  0  0  0  0  0
  -47.8864   59.5458   66.4865 C   0  0  0  0  0  0  0  0  0  0  0  0
  -49.2806   59.9789   65.9936 C   0  0  0  0  0  0  0  0  0  0  0  0
  -49.2357   60.9936   64.8354 C   0  0  0  0  0  0  0  0  0  0  0  0
  -50.3106   60.7798   63.7533 C   0  0  0  0  0  0  0  0  0  0  0  0
  -49.7210   60.3142   62.4054 C   0  0  0  0  0  0  0  0  0  0  0  0
  -49.3319   58.8181   62.3577 C   0  0  0  0  0  0  0  0  0  0  0  0
  -50.5202   57.8719   62.5644 C   0  0  0  0  0  0  0  0  0  0  0  0
  -51.1769   57.3543   61.2809 C   0  0  0  0  0  0  0  0  0  0  0  0
  -50.2237   57.4688   60.0773 C   0  0  0  0  0  0  0  0  0  0  0  0
  -49.1647   56.3577   60.0140 C   0  0  0  0  0  0  0  0  0  0  0  0
  -47.8783   56.7065   59.2583 C   0  0  0  0  0  0  0  0  0  0  0  0
  -47.7641   56.0499   57.8599 C   0  0  0  0  0  0  0  0  0  0  0  0
  -48.0314   57.0689   56.7337 C   0  0  0  0  0  0  0  0  0  0  0  0
  -47.1907   58.3513   56.7363 C   0  0  0  0  0  0  0  0  0  0  0  0
 46 47  1  0  0  0
 46 48  1  0  0  0
 46 45  1  0  0  0
 47 49  2  0  0  0
 47 51  1  0  0  0
 19 20  2  0  0  0
 37 38  1  0  0  0
 37 39  1  0  0  0
 37 40  1  0  0  0
 37 41  1  0  0  0
 48 50  1  0  0  0
 38 29  1  0  0  0
 45 44  1  0  0  0
 25 27  1  0  0  0
 25 35  1  0  0  0
 25 28  1  0  0  0
 21 20  1  0  0  0
 21 22  1  0  0  0
 44 42  1  0  0  0
  2  1  1  0  0  0
  2  4  1  0  0  0
  2  5  1  0  0  0
 26 27  2  0  0  0
 42 43  2  0  0  0
 29 31  1  0  0  0
 29 36  1  0  0  0
  3  4  2  0  0  0
 43  1  1  0  0  0
  6  9  2  0  0  0
  6 10  1  0  0  0
  1 20  1  0  0  0
 30 36  2  0  0  0
  7  8  1  0  0  0
  7  9  1  0  0  0
 22 24  1  0  0  0
 22 23  1  0  0  0
 11 12  1  0  0  0
 11 18  1  0  0  0
 24 27  1  0  0  0
  4 10  1  0  0  0
 51 52  1  0  0  0
 52 53  1  0  0  0
 53 54  1  0  0  0
 54 55  1  0  0  0
 55 56  1  0  0  0
 56 57  1  0  0  0
 57 58  1  0  0  0
 58 59  1  0  0  0
 59 60  1  0  0  0
 60 61  1  0  0  0
 61 62  1  0  0  0
 62 63  1  0  0  0
 63 64  1  0  0  0
 64 65  1  0  0  0
 31 32  1  0  0  0
 32 33  1  0  0  0
 33 34  1  0  0  0
 34 35  1  0  0  0
 35 36  1  0  0  0
  8 10  1  0  0  0
  9 17  1  0  0  0
 12 13  2  0  0  0
 12 17  1  0  0  0
 13 14  1  0  0  0
 14 15  2  0  0  0
 15 16  1  0  0  0
 16 17  2  0  0  0
M  END
> <minimizedAffinity>
-9.24933

> <CNNscore>
0.2811617255

> <CNNaffinity>
7.2885842323

> <CNN_VS>
2.0492708683

> <CNNaffinity_variance>
0.5104586482

$$$$
/media/chris/experiments/cd1a-new-docking/inputs/ligands/1xz0_ligand.pdb


 65 67  0  0  0  0  0  0  0  0999 V2000
  -40.6293   57.2723   63.3233 C   0  0  0  0  0  0  0  0  0  0  0  0
  -39.4265   57.3768   64.1518 N   0  0  0  0  0  0  0  0  0  0  0  0
  -39.4474   59.5527   64.8135 O   0  0  0  0  0  0  0  0  0  0  0  0
  -38.9340   58.4417   64.8083 C   0  0  0  0  0  0  0  0  0  0  0  0
  -38.9029   56.5478   64.2408 H   0  0  0  0  0  0  0  0  0  0  0  0
  -36.4908   58.8937   64.7264 N   0  0  0  0  0  0  0  0  0  0  0  0
  -35.7268   56.8431   65.1780 O   0  0  0  0  0  0  0  0  0  0  0  0
  -37.0219   56.8673   65.7769 C   0  0  0  0  0  0  0  0  0  0  0  0
  -35.5057   58.1217   64.5499 C   0  0  0  0  0  0  0  0  0  0  0  0
  -37.5890   58.2881   65.5036 C   0  0  0  0  0  0  0  0  0  0  0  0
  -32.9005   58.2952   65.8069 O   0  0  0  0  0  0  0  0  0  0  0  0
  -33.0012   58.5399   64.4947 C   0  0  0  0  0  0  0  0  0  0  0  0
  -31.8518   58.8562   63.7588 C   0  0  0  0  0  0  0  0  0  0  0  0
  -31.9325   59.1264   62.3823 C   0  0  0  0  0  0  0  0  0  0  0  0
  -33.1623   59.0735   61.7240 C   0  0  0  0  0  0  0  0  0  0  0  0
  -34.3110   58.7522   62.4524 C   0  0  0  0  0  0  0  0  0  0  0  0
  -34.2346   58.4895   63.8337 C   0  0  0  0  0  0  0  0  0  0  0  0
  -32.0644   58.3347   66.2280 H   0  0  0  0  0  0  0  0  0  0  0  0
  -41.2177   59.2408   62.0928 O   0  0  0  0  0  0  0  0  0  0  0  0
  -40.4679   58.2851   62.2057 C   0  0  0  0  0  0  0  0  0  0  0  0
  -39.4309   58.0889   61.1873 O   0  0  0  0  0  0  0  0  0  0  0  0
  -38.6978   59.2012   60.6404 C   0  0  0  0  0  0  0  0  0  0  0  0
  -38.2169   58.9993   59.2088 C   0  0  0  0  0  0  0  0  0  0  0  0
  -37.5354   59.5134   61.5710 C   0  0  0  0  0  0  0  0  0  0  0  0
  -36.5820   61.4575   62.7144 N   0  0  0  0  0  0  0  0  0  0  0  0
  -38.8098   61.2790   62.3678 O   0  0  0  0  0  0  0  0  0  0  0  0
  -37.6892   60.8299   62.2917 C   0  0  0  0  0  0  0  0  0  0  0  0
  -35.7213   60.9934   62.6004 H   0  0  0  0  0  0  0  0  0  0  0  0
  -34.3521   63.6671   62.6998 N   0  0  0  0  0  0  0  0  0  0  0  0
  -36.2199   64.7741   62.1070 O   0  0  0  0  0  0  0  0  0  0  0  0
  -33.6371   62.4441   63.0939 C   0  0  0  0  0  0  0  0  0  0  0  0
  -33.8244   62.1636   64.5969 C   0  0  0  0  0  0  0  0  0  0  0  0
  -34.8241   63.0631   65.3051 C   0  0  0  0  0  0  0  0  0  0  0  0
  -36.2658   62.8363   64.8427 C   0  0  0  0  0  0  0  0  0  0  0  0
  -36.5629   62.7872   63.3346 C   0  0  0  0  0  0  0  0  0  0  0  0
  -35.6855   63.8166   62.6496 C   0  0  0  0  0  0  0  0  0  0  0  0
  -34.2027   65.9295   61.1563 Si  0  0  0  0  0  0  0  0  0  0  0  0
  -33.5932   64.7414   62.3449 O   0  0  0  0  0  0  0  0  0  0  0  0
  -33.2298   66.9453   60.9611 H   0  0  0  0  0  0  0  0  0  0  0  0
  -35.4036   66.5114   61.6416 H   0  0  0  0  0  0  0  0  0  0  0  0
  -34.4584   65.2757   59.9221 H   0  0  0  0  0  0  0  0  0  0  0  0
  -41.9756   57.6474   65.5461 C   0  0  0  0  0  0  0  0  0  0  0  0
  -41.9984   57.3536   64.0411 C   0  0  0  0  0  0  0  0  0  0  0  0
  -43.2480   57.3061   66.3400 C   0  0  0  0  0  0  0  0  0  0  0  0
  -44.4822   56.8405   65.5405 C   0  0  0  0  0  0  0  0  0  0  0  0
  -45.5511   57.8263   65.7293 N   0  0  0  0  0  0  0  0  0  0  0  0
  -45.7990   58.9646   65.0291 C   0  0  0  0  0  0  0  0  0  0  0  0
  -46.4225   57.5248   66.7854 O   0  0  0  0  0  0  0  0  0  0  0  0
  -45.0899   59.2954   64.0791 O   0  0  0  0  0  0  0  0  0  0  0  0
  -47.1006   58.2152   66.8521 H   0  0  0  0  0  0  0  0  0  0  0  0
  -46.9814   59.8471   65.4426 C   0  0  0  0  0  0  0  0  0  0  0  0
  -47.6203   60.6346   64.2906 C   0  0  0  0  0  0  0  0  0  0  0  0
  -49.0676   61.0202   64.6526 C   0  0  0  0  0  0  0  0  0  0  0  0
  -49.6692   60.1607   65.7807 C   0  0  0  0  0  0  0  0  0  0  0  0
  -50.7246   59.1398   65.3159 C   0  0  0  0  0  0  0  0  0  0  0  0
  -50.1897   58.1708   64.2409 C   0  0  0  0  0  0  0  0  0  0  0  0
  -50.9659   58.2040   62.9036 C   0  0  0  0  0  0  0  0  0  0  0  0
  -51.0046   59.5927   62.2552 C   0  0  0  0  0  0  0  0  0  0  0  0
  -49.9117   59.8616   61.2159 C   0  0  0  0  0  0  0  0  0  0  0  0
  -49.9780   58.8497   60.0574 C   0  0  0  0  0  0  0  0  0  0  0  0
  -48.6024   58.3637   59.5760 C   0  0  0  0  0  0  0  0  0  0  0  0
  -48.4573   56.8491   59.3955 C   0  0  0  0  0  0  0  0  0  0  0  0
  -47.1906   56.4202   58.6137 C   0  0  0  0  0  0  0  0  0  0  0  0
  -47.3734   56.6093   57.0941 C   0  0  0  0  0  0  0  0  0  0  0  0
  -46.9973   57.9757   56.5087 C   0  0  0  0  0  0  0  0  0  0  0  0
 46 47  1  0  0  0
 46 48  1  0  0  0
 46 45  1  0  0  0
 47 49  2  0  0  0
 47 51  1  0  0  0
 19 20  2  0  0  0
 37 38  1  0  0  0
 37 39  1  0  0  0
 37 40  1  0  0  0
 37 41  1  0  0  0
 48 50  1  0  0  0
 38 29  1  0  0  0
 45 44  1  0  0  0
 25 27  1  0  0  0
 25 35  1  0  0  0
 25 28  1  0  0  0
 21 20  1  0  0  0
 21 22  1  0  0  0
 44 42  1  0  0  0
  2  1  1  0  0  0
  2  4  1  0  0  0
  2  5  1  0  0  0
 26 27  2  0  0  0
 42 43  2  0  0  0
 29 31  1  0  0  0
 29 36  1  0  0  0
  3  4  2  0  0  0
 43  1  1  0  0  0
  6  9  2  0  0  0
  6 10  1  0  0  0
  1 20  1  0  0  0
 30 36  2  0  0  0
  7  8  1  0  0  0
  7  9  1  0  0  0
 22 24  1  0  0  0
 22 23  1  0  0  0
 11 12  1  0  0  0
 11 18  1  0  0  0
 24 27  1  0  0  0
  4 10  1  0  0  0
 51 52  1  0  0  0
 52 53  1  0  0  0
 53 54  1  0  0  0
 54 55  1  0  0  0
 55 56  1  0  0  0
 56 57  1  0  0  0
 57 58  1  0  0  0
 58 59  1  0  0  0
 59 60  1  0  0  0
 60 61  1  0  0  0
 61 62  1  0  0  0
 62 63  1  0  0  0
 63 64  1  0  0  0
 64 65  1  0  0  0
 31 32  1  0  0  0
 32 33  1  0  0  0
 33 34  1  0  0  0
 34 35  1  0  0  0
 35 36  1  0  0  0
  8 10  1  0  0  0
  9 17  1  0  0  0
 12 13  2  0  0  0
 12 17  1  0  0  0
 13 14  1  0  0  0
 14 15  2  0  0  0
 15 16  1  0  0  0
 16 17  2  0  0  0
M  END
> <minimizedAffinity>
-9.35621

> <CNNscore>
0.2454497665

> <CNNaffinity>
7.4956536293

> <CNN_VS>
1.8398064375

> <CNNaffinity_variance>
0.4953235686

$$$$
/media/chris/experiments/cd1a-new-docking/inputs/ligands/1xz0_ligand.pdb


 65 67  0  0  0  0  0  0  0  0999 V2000
  -40.9969   60.0928   65.8269 C   0  0  0  0  0  0  0  0  0  0  0  0
  -41.4157   60.2511   64.4327 N   0  0  0  0  0  0  0  0  0  0  0  0
  -43.6804   60.3899   64.5903 O   0  0  0  0  0  0  0  0  0  0  0  0
  -42.6534   60.3823   63.9245 C   0  0  0  0  0  0  0  0  0  0  0  0
  -40.6856   60.2632   63.7723 H   0  0  0  0  0  0  0  0  0  0  0  0
  -41.8103   59.5495   61.7391 N   0  0  0  0  0  0  0  0  0  0  0  0
  -41.5987   61.4975   60.6653 O   0  0  0  0  0  0  0  0  0  0  0  0
  -42.6039   61.7525   61.6457 C   0  0  0  0  0  0  0  0  0  0  0  0
  -41.1695   60.1297   60.8170 C   0  0  0  0  0  0  0  0  0  0  0  0
  -42.8001   60.4138   62.4100 C   0  0  0  0  0  0  0  0  0  0  0  0
  -38.3504   60.8003   60.8265 O   0  0  0  0  0  0  0  0  0  0  0  0
  -38.7814   59.8362   60.0039 C   0  0  0  0  0  0  0  0  0  0  0  0
  -37.8655   59.1654   59.1830 C   0  0  0  0  0  0  0  0  0  0  0  0
  -38.2942   58.1562   58.3043 C   0  0  0  0  0  0  0  0  0  0  0  0
  -39.6424   57.7996   58.2437 C   0  0  0  0  0  0  0  0  0  0  0  0
  -40.5591   58.4615   59.0652 C   0  0  0  0  0  0  0  0  0  0  0  0
  -40.1339   59.4792   59.9405 C   0  0  0  0  0  0  0  0  0  0  0  0
  -37.4405   61.0223   60.8518 H   0  0  0  0  0  0  0  0  0  0  0  0
  -39.3307   58.4437   65.3377 O   0  0  0  0  0  0  0  0  0  0  0  0
  -39.5814   59.5491   65.7889 C   0  0  0  0  0  0  0  0  0  0  0  0
  -38.4834   60.3314   66.3663 O   0  0  0  0  0  0  0  0  0  0  0  0
  -37.3492   60.7296   65.5733 C   0  0  0  0  0  0  0  0  0  0  0  0
  -36.6069   59.5773   64.9080 C   0  0  0  0  0  0  0  0  0  0  0  0
  -36.4156   61.5506   66.4501 C   0  0  0  0  0  0  0  0  0  0  0  0
  -35.0728   63.0473   65.0528 N   0  0  0  0  0  0  0  0  0  0  0  0
  -36.9005   63.7984   66.1529 O   0  0  0  0  0  0  0  0  0  0  0  0
  -36.1175   62.9166   65.8834 C   0  0  0  0  0  0  0  0  0  0  0  0
  -34.5016   62.2585   64.9085 H   0  0  0  0  0  0  0  0  0  0  0  0
  -34.0441   63.4754   62.1179 N   0  0  0  0  0  0  0  0  0  0  0  0
  -35.7419   64.9391   62.3191 O   0  0  0  0  0  0  0  0  0  0  0  0
  -33.1652   62.4246   62.6521 C   0  0  0  0  0  0  0  0  0  0  0  0
  -32.0343   63.0381   63.4990 C   0  0  0  0  0  0  0  0  0  0  0  0
  -32.1558   64.5305   63.7600 C   0  0  0  0  0  0  0  0  0  0  0  0
  -33.3421   64.8862   64.6599 C   0  0  0  0  0  0  0  0  0  0  0  0
  -34.7210   64.2829   64.3439 C   0  0  0  0  0  0  0  0  0  0  0  0
  -34.8807   64.2411   62.8367 C   0  0  0  0  0  0  0  0  0  0  0  0
  -35.5317   63.7693   59.8323 Si  0  0  0  0  0  0  0  0  0  0  0  0
  -34.0132   63.6841   60.7720 O   0  0  0  0  0  0  0  0  0  0  0  0
  -35.2288   63.9923   58.4629 H   0  0  0  0  0  0  0  0  0  0  0  0
  -36.3310   64.8367   60.3200 H   0  0  0  0  0  0  0  0  0  0  0  0
  -36.2410   62.5467   59.9671 H   0  0  0  0  0  0  0  0  0  0  0  0
  -42.5401   58.0051   66.2196 C   0  0  0  0  0  0  0  0  0  0  0  0
  -41.9390   59.3047   66.7690 C   0  0  0  0  0  0  0  0  0  0  0  0
  -43.7811   57.4539   66.9419 C   0  0  0  0  0  0  0  0  0  0  0  0
  -44.9706   57.0030   66.0695 C   0  0  0  0  0  0  0  0  0  0  0  0
  -45.8192   58.1703   65.8102 N   0  0  0  0  0  0  0  0  0  0  0  0
  -46.6163   58.8571   66.6708 C   0  0  0  0  0  0  0  0  0  0  0  0
  -45.7813   58.6170   64.4818 O   0  0  0  0  0  0  0  0  0  0  0  0
  -46.6967   58.5385   67.8569 O   0  0  0  0  0  0  0  0  0  0  0  0
  -46.3626   59.3872   64.3830 H   0  0  0  0  0  0  0  0  0  0  0  0
  -47.4294   60.0435   66.1423 C   0  0  0  0  0  0  0  0  0  0  0  0
  -48.9501   59.8405   66.1832 C   0  0  0  0  0  0  0  0  0  0  0  0
  -49.5959   60.4259   64.9125 C   0  0  0  0  0  0  0  0  0  0  0  0
  -51.0280   59.9175   64.6604 C   0  0  0  0  0  0  0  0  0  0  0  0
  -51.1764   59.0019   63.4309 C   0  0  0  0  0  0  0  0  0  0  0  0
  -49.8898   58.9226   62.5828 C   0  0  0  0  0  0  0  0  0  0  0  0
  -49.8695   59.8665   61.3578 C   0  0  0  0  0  0  0  0  0  0  0  0
  -49.5432   59.1509   60.0418 C   0  0  0  0  0  0  0  0  0  0  0  0
  -50.2594   57.8137   59.8277 C   0  0  0  0  0  0  0  0  0  0  0  0
  -49.2717   56.6338   59.8785 C   0  0  0  0  0  0  0  0  0  0  0  0
  -47.8197   57.0234   59.5625 C   0  0  0  0  0  0  0  0  0  0  0  0
  -47.1126   56.1608   58.5120 C   0  0  0  0  0  0  0  0  0  0  0  0
  -47.8669   56.0554   57.1630 C   0  0  0  0  0  0  0  0  0  0  0  0
  -48.1005   57.4449   56.5362 C   0  0  0  0  0  0  0  0  0  0  0  0
  -46.9642   58.4674   56.6576 C   0  0  0  0  0  0  0  0  0  0  0  0
 46 47  1  0  0  0
 46 48  1  0  0  0
 46 45  1  0  0  0
 47 49  2  0  0  0
 47 51  1  0  0  0
 19 20  2  0  0  0
 37 38  1  0  0  0
 37 39  1  0  0  0
 37 40  1  0  0  0
 37 41  1  0  0  0
 48 50  1  0  0  0
 38 29  1  0  0  0
 45 44  1  0  0  0
 25 27  1  0  0  0
 25 35  1  0  0  0
 25 28  1  0  0  0
 21 20  1  0  0  0
 21 22  1  0  0  0
 44 42  1  0  0  0
  2  1  1  0  0  0
  2  4  1  0  0  0
  2  5  1  0  0  0
 26 27  2  0  0  0
 42 43  2  0  0  0
 29 31  1  0  0  0
 29 36  1  0  0  0
  3  4  2  0  0  0
 43  1  1  0  0  0
  6  9  2  0  0  0
  6 10  1  0  0  0
  1 20  1  0  0  0
 30 36  2  0  0  0
  7  8  1  0  0  0
  7  9  1  0  0  0
 22 24  1  0  0  0
 22 23  1  0  0  0
 11 12  1  0  0  0
 11 18  1  0  0  0
 24 27  1  0  0  0
  4 10  1  0  0  0
 51 52  1  0  0  0
 52 53  1  0  0  0
 53 54  1  0  0  0
 54 55  1  0  0  0
 55 56  1  0  0  0
 56 57  1  0  0  0
 57 58  1  0  0  0
 58 59  1  0  0  0
 59 60  1  0  0  0
 60 61  1  0  0  0
 61 62  1  0  0  0
 62 63  1  0  0  0
 63 64  1  0  0  0
 64 65  1  0  0  0
 31 32  1  0  0  0
 32 33  1  0  0  0
 33 34  1  0  0  0
 34 35  1  0  0  0
 35 36  1  0  0  0
  8 10  1  0  0  0
  9 17  1  0  0  0
 12 13  2  0  0  0
 12 17  1  0  0  0
 13 14  1  0  0  0
 14 15  2  0  0  0
 15 16  1  0  0  0
 16 17  2  0  0  0
M  END
> <minimizedAffinity>
-9.46303

> <CNNscore>
0.2187644690

> <CNNaffinity>
7.0511727333

> <CNN_VS>
1.5425460339

> <CNNaffinity_variance>
0.7383643389

$$$$
/media/chris/experiments/cd1a-new-docking/inputs/ligands/1xz0_ligand.pdb


 65 67  0  0  0  0  0  0  0  0999 V2000
  -41.4861   57.8989   63.0166 C   0  0  0  0  0  0  0  0  0  0  0  0
  -40.6332   58.3715   64.1090 N   0  0  0  0  0  0  0  0  0  0  0  0
  -40.4016   60.5884   63.6562 O   0  0  0  0  0  0  0  0  0  0  0  0
  -40.1684   59.6093   64.3527 C   0  0  0  0  0  0  0  0  0  0  0  0
  -40.3610   57.6838   64.7587 H   0  0  0  0  0  0  0  0  0  0  0  0
  -38.4746   61.0727   65.4343 N   0  0  0  0  0  0  0  0  0  0  0  0
  -36.8355   59.5814   65.7200 O   0  0  0  0  0  0  0  0  0  0  0  0
  -38.0212   58.7878   65.6898 C   0  0  0  0  0  0  0  0  0  0  0  0
  -37.2203   60.9589   65.5399 C   0  0  0  0  0  0  0  0  0  0  0  0
  -39.1966   59.7883   65.5101 C   0  0  0  0  0  0  0  0  0  0  0  0
  -36.9675   62.9075   63.4100 O   0  0  0  0  0  0  0  0  0  0  0  0
  -36.1816   63.0238   64.4874 C   0  0  0  0  0  0  0  0  0  0  0  0
  -35.2719   64.0860   64.5697 C   0  0  0  0  0  0  0  0  0  0  0  0
  -34.4294   64.2248   65.6857 C   0  0  0  0  0  0  0  0  0  0  0  0
  -34.4942   63.3083   66.7366 C   0  0  0  0  0  0  0  0  0  0  0  0
  -35.4046   62.2504   66.6621 C   0  0  0  0  0  0  0  0  0  0  0  0
  -36.2439   62.1038   65.5411 C   0  0  0  0  0  0  0  0  0  0  0  0
  -36.9082   63.5352   62.7169 H   0  0  0  0  0  0  0  0  0  0  0  0
  -41.5311   59.5151   61.2499 O   0  0  0  0  0  0  0  0  0  0  0  0
  -40.9665   58.5578   61.7530 C   0  0  0  0  0  0  0  0  0  0  0  0
  -39.7951   58.0010   61.0683 O   0  0  0  0  0  0  0  0  0  0  0  0
  -38.6125   58.7915   60.8438 C   0  0  0  0  0  0  0  0  0  0  0  0
  -38.2052   58.9189   59.3811 C   0  0  0  0  0  0  0  0  0  0  0  0
  -37.4817   58.2109   61.6797 C   0  0  0  0  0  0  0  0  0  0  0  0
  -35.5068   58.8906   62.9577 N   0  0  0  0  0  0  0  0  0  0  0  0
  -37.0404   60.4074   62.2774 O   0  0  0  0  0  0  0  0  0  0  0  0
  -36.6531   59.2652   62.3712 C   0  0  0  0  0  0  0  0  0  0  0  0
  -35.2942   57.9295   62.9746 H   0  0  0  0  0  0  0  0  0  0  0  0
  -32.6332   59.7463   62.0274 N   0  0  0  0  0  0  0  0  0  0  0  0
  -33.6701   61.6971   62.4574 O   0  0  0  0  0  0  0  0  0  0  0  0
  -32.6051   58.2777   61.9604 C   0  0  0  0  0  0  0  0  0  0  0  0
  -32.3431   57.6735   63.3528 C   0  0  0  0  0  0  0  0  0  0  0  0
  -32.3539   58.6664   64.5034 C   0  0  0  0  0  0  0  0  0  0  0  0
  -33.7385   59.2652   64.7644 C   0  0  0  0  0  0  0  0  0  0  0  0
  -34.5469   59.8123   63.5761 C   0  0  0  0  0  0  0  0  0  0  0  0
  -33.5809   60.4882   62.6227 C   0  0  0  0  0  0  0  0  0  0  0  0
  -31.7859   62.1389   60.9875 Si  0  0  0  0  0  0  0  0  0  0  0  0
  -31.6109   60.4138   61.4230 O   0  0  0  0  0  0  0  0  0  0  0  0
  -30.5890   62.5961   60.3751 H   0  0  0  0  0  0  0  0  0  0  0  0
  -32.0383   62.8998   62.1595 H   0  0  0  0  0  0  0  0  0  0  0  0
  -32.8689   62.2909   60.0819 H   0  0  0  0  0  0  0  0  0  0  0  0
  -43.5412   59.3777   63.7121 C   0  0  0  0  0  0  0  0  0  0  0  0
  -43.0175   58.0304   63.2000 C   0  0  0  0  0  0  0  0  0  0  0  0
  -44.9605   59.3917   64.3047 C   0  0  0  0  0  0  0  0  0  0  0  0
  -45.1256   58.9307   65.7673 C   0  0  0  0  0  0  0  0  0  0  0  0
  -46.4113   58.2361   65.8882 N   0  0  0  0  0  0  0  0  0  0  0  0
  -47.4844   58.2706   65.0546 C   0  0  0  0  0  0  0  0  0  0  0  0
  -46.5179   57.4321   67.0317 O   0  0  0  0  0  0  0  0  0  0  0  0
  -47.4682   58.9410   64.0226 O   0  0  0  0  0  0  0  0  0  0  0  0
  -47.3889   57.0055   67.0469 H   0  0  0  0  0  0  0  0  0  0  0  0
  -48.7333   57.4612   65.4194 C   0  0  0  0  0  0  0  0  0  0  0  0
  -50.0529   58.0737   64.9306 C   0  0  0  0  0  0  0  0  0  0  0  0
  -50.4476   59.2633   65.8270 C   0  0  0  0  0  0  0  0  0  0  0  0
  -51.1752   60.3898   65.0690 C   0  0  0  0  0  0  0  0  0  0  0  0
  -50.3896   60.9743   63.8802 C   0  0  0  0  0  0  0  0  0  0  0  0
  -51.0124   60.6159   62.5147 C   0  0  0  0  0  0  0  0  0  0  0  0
  -50.0005   60.5413   61.3475 C   0  0  0  0  0  0  0  0  0  0  0  0
  -49.6447   59.1070   60.9394 C   0  0  0  0  0  0  0  0  0  0  0  0
  -50.6573   58.0362   61.3575 C   0  0  0  0  0  0  0  0  0  0  0  0
  -50.3515   56.6834   60.6890 C   0  0  0  0  0  0  0  0  0  0  0  0
  -48.8547   56.4287   60.4554 C   0  0  0  0  0  0  0  0  0  0  0  0
  -48.4616   56.0323   59.0285 C   0  0  0  0  0  0  0  0  0  0  0  0
  -47.1784   56.7254   58.5064 C   0  0  0  0  0  0  0  0  0  0  0  0
  -47.5123   57.9849   57.6814 C   0  0  0  0  0  0  0  0  0  0  0  0
  -47.8615   57.7804   56.2024 C   0  0  0  0  0  0  0  0  0  0  0  0
 46 47  1  0  0  0
 46 48  1  0  0  0
 46 45  1  0  0  0
 47 49  2  0  0  0
 47 51  1  0  0  0
 19 20  2  0  0  0
 37 38  1  0  0  0
 37 39  1  0  0  0
 37 40  1  0  0  0
 37 41  1  0  0  0
 48 50  1  0  0  0
 38 29  1  0  0  0
 45 44  1  0  0  0
 25 27  1  0  0  0
 25 35  1  0  0  0
 25 28  1  0  0  0
 21 20  1  0  0  0
 21 22  1  0  0  0
 44 42  1  0  0  0
  2  1  1  0  0  0
  2  4  1  0  0  0
  2  5  1  0  0  0
 26 27  2  0  0  0
 42 43  2  0  0  0
 29 31  1  0  0  0
 29 36  1  0  0  0
  3  4  2  0  0  0
 43  1  1  0  0  0
  6  9  2  0  0  0
  6 10  1  0  0  0
  1 20  1  0  0  0
 30 36  2  0  0  0
  7  8  1  0  0  0
  7  9  1  0  0  0
 22 24  1  0  0  0
 22 23  1  0  0  0
 11 12  1  0  0  0
 11 18  1  0  0  0
 24 27  1  0  0  0
  4 10  1  0  0  0
 51 52  1  0  0  0
 52 53  1  0  0  0
 53 54  1  0  0  0
 54 55  1  0  0  0
 55 56  1  0  0  0
 56 57  1  0  0  0
 57 58  1  0  0  0
 58 59  1  0  0  0
 59 60  1  0  0  0
 60 61  1  0  0  0
 61 62  1  0  0  0
 62 63  1  0  0  0
 63 64  1  0  0  0
 64 65  1  0  0  0
 31 32  1  0  0  0
 32 33  1  0  0  0
 33 34  1  0  0  0
 34 35  1  0  0  0
 35 36  1  0  0  0
  8 10  1  0  0  0
  9 17  1  0  0  0
 12 13  2  0  0  0
 12 17  1  0  0  0
 13 14  1  0  0  0
 14 15  2  0  0  0
 15 16  1  0  0  0
 16 17  2  0  0  0
M  END
> <minimizedAffinity>
-10.13420

> <CNNscore>
0.2148892879

> <CNNaffinity>
7.3818655014

> <CNN_VS>
1.5862838030

> <CNNaffinity_variance>
0.5852289796

$$$$
/media/chris/experiments/cd1a-new-docking/inputs/ligands/1xz0_ligand.pdb


 65 67  0  0  0  0  0  0  0  0999 V2000
  -41.4179   58.7239   64.4229 C   0  0  0  0  0  0  0  0  0  0  0  0
  -40.1050   58.7446   65.0709 N   0  0  0  0  0  0  0  0  0  0  0  0
  -39.8288   60.9394   65.5995 O   0  0  0  0  0  0  0  0  0  0  0  0
  -39.4271   59.7833   65.5896 C   0  0  0  0  0  0  0  0  0  0  0  0
  -39.6536   57.8721   65.1363 H   0  0  0  0  0  0  0  0  0  0  0  0
  -37.3007   60.7810   66.4040 N   0  0  0  0  0  0  0  0  0  0  0  0
  -35.8584   59.6674   65.1108 O   0  0  0  0  0  0  0  0  0  0  0  0
  -36.9884   58.7997   65.1922 C   0  0  0  0  0  0  0  0  0  0  0  0
  -36.1569   60.8552   65.8712 C   0  0  0  0  0  0  0  0  0  0  0  0
  -38.0171   59.5271   66.1017 C   0  0  0  0  0  0  0  0  0  0  0  0
  -36.9313   63.6355   66.1308 O   0  0  0  0  0  0  0  0  0  0  0  0
  -35.6314   63.3204   66.1820 C   0  0  0  0  0  0  0  0  0  0  0  0
  -34.6806   64.3313   66.3748 C   0  0  0  0  0  0  0  0  0  0  0  0
  -33.3096   64.0276   66.4228 C   0  0  0  0  0  0  0  0  0  0  0  0
  -32.8743   62.7082   66.2883 C   0  0  0  0  0  0  0  0  0  0  0  0
  -33.8192   61.6953   66.1021 C   0  0  0  0  0  0  0  0  0  0  0  0
  -35.1932   61.9976   66.0448 C   0  0  0  0  0  0  0  0  0  0  0  0
  -37.2011   64.5278   66.2250 H   0  0  0  0  0  0  0  0  0  0  0  0
  -42.1867   58.2269   66.6359 O   0  0  0  0  0  0  0  0  0  0  0  0
  -42.3851   58.1403   65.4352 C   0  0  0  0  0  0  0  0  0  0  0  0
  -43.5590   57.3911   64.9752 O   0  0  0  0  0  0  0  0  0  0  0  0
  -44.8353   58.0339   64.7967 C   0  0  0  0  0  0  0  0  0  0  0  0
  -44.7539   59.5079   64.4198 C   0  0  0  0  0  0  0  0  0  0  0  0
  -45.6533   57.8358   66.0641 C   0  0  0  0  0  0  0  0  0  0  0  0
  -47.8322   58.2414   65.0232 N   0  0  0  0  0  0  0  0  0  0  0  0
  -47.4379   56.3638   66.2208 O   0  0  0  0  0  0  0  0  0  0  0  0
  -47.0828   57.4376   65.7916 C   0  0  0  0  0  0  0  0  0  0  0  0
  -47.4370   59.0947   64.7318 H   0  0  0  0  0  0  0  0  0  0  0  0
  -49.5556   59.5206   62.7322 N   0  0  0  0  0  0  0  0  0  0  0  0
  -49.7329   57.3055   62.3753 O   0  0  0  0  0  0  0  0  0  0  0  0
  -49.0525   60.6783   63.4862 C   0  0  0  0  0  0  0  0  0  0  0  0
  -49.9145   60.9301   64.7376 C   0  0  0  0  0  0  0  0  0  0  0  0
  -50.9550   59.8627   65.0343 C   0  0  0  0  0  0  0  0  0  0  0  0
  -50.3379   58.5218   65.4405 C   0  0  0  0  0  0  0  0  0  0  0  0
  -49.1999   57.9389   64.5860 C   0  0  0  0  0  0  0  0  0  0  0  0
  -49.5038   58.2396   63.1314 C   0  0  0  0  0  0  0  0  0  0  0  0
  -51.0993   58.5208   60.6973 Si  0  0  0  0  0  0  0  0  0  0  0  0
  -50.1159   59.7694   61.5155 O   0  0  0  0  0  0  0  0  0  0  0  0
  -51.5650   59.0247   59.4540 H   0  0  0  0  0  0  0  0  0  0  0  0
  -52.2089   58.1807   61.5155 H   0  0  0  0  0  0  0  0  0  0  0  0
  -50.3054   57.3653   60.4721 H   0  0  0  0  0  0  0  0  0  0  0  0
  -40.2315   57.4316   62.4693 C   0  0  0  0  0  0  0  0  0  0  0  0
  -41.5122   58.0667   63.0245 C   0  0  0  0  0  0  0  0  0  0  0  0
  -40.1841   57.1743   60.9536 C   0  0  0  0  0  0  0  0  0  0  0  0
  -39.2428   58.0590   60.1107 C   0  0  0  0  0  0  0  0  0  0  0  0
  -39.0177   59.3129   60.8367 N   0  0  0  0  0  0  0  0  0  0  0  0
  -37.9351   59.6995   61.5619 C   0  0  0  0  0  0  0  0  0  0  0  0
  -40.0844   60.2186   60.7513 O   0  0  0  0  0  0  0  0  0  0  0  0
  -36.9510   58.9692   61.6763 O   0  0  0  0  0  0  0  0  0  0  0  0
  -39.8681   61.0209   61.2517 H   0  0  0  0  0  0  0  0  0  0  0  0
  -37.9537   61.0685   62.2501 C   0  0  0  0  0  0  0  0  0  0  0  0
  -36.5666   61.6182   62.6095 C   0  0  0  0  0  0  0  0  0  0  0  0
  -36.6119   63.1564   62.6890 C   0  0  0  0  0  0  0  0  0  0  0  0
  -35.2224   63.8173   62.6141 C   0  0  0  0  0  0  0  0  0  0  0  0
  -35.0325   64.7784   61.4257 C   0  0  0  0  0  0  0  0  0  0  0  0
  -33.9474   65.8447   61.6836 C   0  0  0  0  0  0  0  0  0  0  0  0
  -33.5528   66.0123   63.1696 C   0  0  0  0  0  0  0  0  0  0  0  0
  -32.0725   65.7230   63.4439 C   0  0  0  0  0  0  0  0  0  0  0  0
  -31.4064   64.7398   62.4761 C   0  0  0  0  0  0  0  0  0  0  0  0
  -31.1346   63.3838   63.1527 C   0  0  0  0  0  0  0  0  0  0  0  0
  -32.0451   62.2487   62.6601 C   0  0  0  0  0  0  0  0  0  0  0  0
  -31.4481   60.8393   62.7282 C   0  0  0  0  0  0  0  0  0  0  0  0
  -32.3921   59.7232   62.2155 C   0  0  0  0  0  0  0  0  0  0  0  0
  -32.7304   58.7129   63.3305 C   0  0  0  0  0  0  0  0  0  0  0  0
  -33.7850   57.6463   63.0119 C   0  0  0  0  0  0  0  0  0  0  0  0
 46 47  1  0  0  0
 46 48  1  0  0  0
 46 45  1  0  0  0
 47 49  2  0  0  0
 47 51  1  0  0  0
 19 20  2  0  0  0
 37 38  1  0  0  0
 37 39  1  0  0  0
 37 40  1  0  0  0
 37 41  1  0  0  0
 48 50  1  0  0  0
 38 29  1  0  0  0
 45 44  1  0  0  0
 25 27  1  0  0  0
 25 35  1  0  0  0
 25 28  1  0  0  0
 21 20  1  0  0  0
 21 22  1  0  0  0
 44 42  1  0  0  0
  2  1  1  0  0  0
  2  4  1  0  0  0
  2  5  1  0  0  0
 26 27  2  0  0  0
 42 43  2  0  0  0
 29 31  1  0  0  0
 29 36  1  0  0  0
  3  4  2  0  0  0
 43  1  1  0  0  0
  6  9  2  0  0  0
  6 10  1  0  0  0
  1 20  1  0  0  0
 30 36  2  0  0  0
  7  8  1  0  0  0
  7  9  1  0  0  0
 22 24  1  0  0  0
 22 23  1  0  0  0
 11 12  1  0  0  0
 11 18  1  0  0  0
 24 27  1  0  0  0
  4 10  1  0  0  0
 51 52  1  0  0  0
 52 53  1  0  0  0
 53 54  1  0  0  0
 54 55  1  0  0  0
 55 56  1  0  0  0
 56 57  1  0  0  0
 57 58  1  0  0  0
 58 59  1  0  0  0
 59 60  1  0  0  0
 60 61  1  0  0  0
 61 62  1  0  0  0
 62 63  1  0  0  0
 63 64  1  0  0  0
 64 65  1  0  0  0
 31 32  1  0  0  0
 32 33  1  0  0  0
 33 34  1  0  0  0
 34 35  1  0  0  0
 35 36  1  0  0  0
  8 10  1  0  0  0
  9 17  1  0  0  0
 12 13  2  0  0  0
 12 17  1  0  0  0
 13 14  1  0  0  0
 14 15  2  0  0  0
 15 16  1  0  0  0
 16 17  2  0  0  0
M  END
> <minimizedAffinity>
-8.57225

> <CNNscore>
0.2035063952

> <CNNaffinity>
7.3721861839

> <CNN_VS>
1.5002870560

> <CNNaffinity_variance>
1.2157440186

$$$$
/media/chris/experiments/cd1a-new-docking/inputs/ligands/1xz0_ligand.pdb


 65 67  0  0  0  0  0  0  0  0999 V2000
  -39.9531   56.3047   62.6878 C   0  0  0  0  0  0  0  0  0  0  0  0
  -38.5913   56.7898   62.9210 N   0  0  0  0  0  0  0  0  0  0  0  0
  -38.7858   57.9461   64.8699 O   0  0  0  0  0  0  0  0  0  0  0  0
  -38.1140   57.5350   63.9330 C   0  0  0  0  0  0  0  0  0  0  0  0
  -37.9300   56.5332   62.2383 H   0  0  0  0  0  0  0  0  0  0  0  0
  -36.3510   59.0136   64.8744 N   0  0  0  0  0  0  0  0  0  0  0  0
  -35.5987   59.9323   62.9816 O   0  0  0  0  0  0  0  0  0  0  0  0
  -36.1426   58.6807   62.5641 C   0  0  0  0  0  0  0  0  0  0  0  0
  -35.7905   60.0450   64.4059 C   0  0  0  0  0  0  0  0  0  0  0  0
  -36.6647   57.9930   63.8561 C   0  0  0  0  0  0  0  0  0  0  0  0
  -37.5354   62.0651   65.5336 O   0  0  0  0  0  0  0  0  0  0  0  0
  -36.2179   62.1557   65.7523 C   0  0  0  0  0  0  0  0  0  0  0  0
  -35.7154   63.2076   66.5292 C   0  0  0  0  0  0  0  0  0  0  0  0
  -34.3358   63.3301   66.7655 C   0  0  0  0  0  0  0  0  0  0  0  0
  -33.4438   62.3963   66.2357 C   0  0  0  0  0  0  0  0  0  0  0  0
  -33.9407   61.3414   65.4651 C   0  0  0  0  0  0  0  0  0  0  0  0
  -35.3219   61.2209   65.2193 C   0  0  0  0  0  0  0  0  0  0  0  0
  -38.1161   62.7024   65.9004 H   0  0  0  0  0  0  0  0  0  0  0  0
  -41.3545   56.3467   60.7462 O   0  0  0  0  0  0  0  0  0  0  0  0
  -40.3127   56.7056   61.2697 C   0  0  0  0  0  0  0  0  0  0  0  0
  -39.3647   57.4885   60.4701 O   0  0  0  0  0  0  0  0  0  0  0  0
  -39.5869   57.7288   59.0677 C   0  0  0  0  0  0  0  0  0  0  0  0
  -38.4479   58.4543   58.3621 C   0  0  0  0  0  0  0  0  0  0  0  0
  -40.8983   58.4842   58.9125 C   0  0  0  0  0  0  0  0  0  0  0  0
  -40.9654   59.7281   61.0205 N   0  0  0  0  0  0  0  0  0  0  0  0
  -40.8363   60.7989   59.0326 O   0  0  0  0  0  0  0  0  0  0  0  0
  -40.9302   59.7820   59.6811 C   0  0  0  0  0  0  0  0  0  0  0  0
  -41.0438   58.8413   61.4409 H   0  0  0  0  0  0  0  0  0  0  0  0
  -41.4205   59.9565   64.1182 N   0  0  0  0  0  0  0  0  0  0  0  0
  -39.4617   61.0107   63.7762 O   0  0  0  0  0  0  0  0  0  0  0  0
  -42.5993   59.2190   63.6399 C   0  0  0  0  0  0  0  0  0  0  0  0
  -43.6541   60.1869   63.0716 C   0  0  0  0  0  0  0  0  0  0  0  0
  -43.2074   61.6344   62.9491 C   0  0  0  0  0  0  0  0  0  0  0  0
  -42.1131   61.8363   61.8976 C   0  0  0  0  0  0  0  0  0  0  0  0
  -40.8950   60.8977   61.9039 C   0  0  0  0  0  0  0  0  0  0  0  0
  -40.5340   60.6069   63.3476 C   0  0  0  0  0  0  0  0  0  0  0  0
  -39.8209   60.8757   66.1479 Si  0  0  0  0  0  0  0  0  0  0  0  0
  -41.2038   59.9732   65.4631 O   0  0  0  0  0  0  0  0  0  0  0  0
  -39.8174   60.7357   67.5610 H   0  0  0  0  0  0  0  0  0  0  0  0
  -39.9376   62.2497   65.8088 H   0  0  0  0  0  0  0  0  0  0  0  0
  -38.6092   60.3586   65.6182 H   0  0  0  0  0  0  0  0  0  0  0  0
  -41.9023   55.5399   64.2720 C   0  0  0  0  0  0  0  0  0  0  0  0
  -41.0324   56.6814   63.7314 C   0  0  0  0  0  0  0  0  0  0  0  0
  -43.2253   55.9353   64.9495 C   0  0  0  0  0  0  0  0  0  0  0  0
  -43.1784   57.0680   65.9955 C   0  0  0  0  0  0  0  0  0  0  0  0
  -44.5377   57.5894   66.1698 N   0  0  0  0  0  0  0  0  0  0  0  0
  -44.9377   58.8539   66.4677 C   0  0  0  0  0  0  0  0  0  0  0  0
  -45.5423   56.6267   65.9983 O   0  0  0  0  0  0  0  0  0  0  0  0
  -44.1203   59.7611   66.6215 O   0  0  0  0  0  0  0  0  0  0  0  0
  -46.4107   57.0391   66.1273 H   0  0  0  0  0  0  0  0  0  0  0  0
  -46.4351   59.1420   66.6185 C   0  0  0  0  0  0  0  0  0  0  0  0
  -47.0965   59.7390   65.3688 C   0  0  0  0  0  0  0  0  0  0  0  0
  -48.5710   60.0772   65.6616 C   0  0  0  0  0  0  0  0  0  0  0  0
  -49.4991   58.8479   65.6437 C   0  0  0  0  0  0  0  0  0  0  0  0
  -50.1704   58.5707   64.2855 C   0  0  0  0  0  0  0  0  0  0  0  0
  -51.1765   59.6674   63.8783 C   0  0  0  0  0  0  0  0  0  0  0  0
  -50.8336   60.3943   62.5570 C   0  0  0  0  0  0  0  0  0  0  0  0
  -49.5446   59.8883   61.8992 C   0  0  0  0  0  0  0  0  0  0  0  0
  -49.6519   59.5726   60.4040 C   0  0  0  0  0  0  0  0  0  0  0  0
  -50.2957   58.1944   60.1663 C   0  0  0  0  0  0  0  0  0  0  0  0
  -49.4671   57.0189   60.7064 C   0  0  0  0  0  0  0  0  0  0  0  0
  -48.7517   56.1686   59.6515 C   0  0  0  0  0  0  0  0  0  0  0  0
  -47.4120   56.7665   59.1541 C   0  0  0  0  0  0  0  0  0  0  0  0
  -47.3907   56.9051   57.6183 C   0  0  0  0  0  0  0  0  0  0  0  0
  -47.4070   58.3266   57.0437 C   0  0  0  0  0  0  0  0  0  0  0  0
 46 47  1  0  0  0
 46 48  1  0  0  0
 46 45  1  0  0  0
 47 49  2  0  0  0
 47 51  1  0  0  0
 19 20  2  0  0  0
 37 38  1  0  0  0
 37 39  1  0  0  0
 37 40  1  0  0  0
 37 41  1  0  0  0
 48 50  1  0  0  0
 38 29  1  0  0  0
 45 44  1  0  0  0
 25 27  1  0  0  0
 25 35  1  0  0  0
 25 28  1  0  0  0
 21 20  1  0  0  0
 21 22  1  0  0  0
 44 42  1  0  0  0
  2  1  1  0  0  0
  2  4  1  0  0  0
  2  5  1  0  0  0
 26 27  2  0  0  0
 42 43  2  0  0  0
 29 31  1  0  0  0
 29 36  1  0  0  0
  3  4  2  0  0  0
 43  1  1  0  0  0
  6  9  2  0  0  0
  6 10  1  0  0  0
  1 20  1  0  0  0
 30 36  2  0  0  0
  7  8  1  0  0  0
  7  9  1  0  0  0
 22 24  1  0  0  0
 22 23  1  0  0  0
 11 12  1  0  0  0
 11 18  1  0  0  0
 24 27  1  0  0  0
  4 10  1  0  0  0
 51 52  1  0  0  0
 52 53  1  0  0  0
 53 54  1  0  0  0
 54 55  1  0  0  0
 55 56  1  0  0  0
 56 57  1  0  0  0
 57 58  1  0  0  0
 58 59  1  0  0  0
 59 60  1  0  0  0
 60 61  1  0  0  0
 61 62  1  0  0  0
 62 63  1  0  0  0
 63 64  1  0  0  0
 64 65  1  0  0  0
 31 32  1  0  0  0
 32 33  1  0  0  0
 33 34  1  0  0  0
 34 35  1  0  0  0
 35 36  1  0  0  0
  8 10  1  0  0  0
  9 17  1  0  0  0
 12 13  2  0  0  0
 12 17  1  0  0  0
 13 14  1  0  0  0
 14 15  2  0  0  0
 15 16  1  0  0  0
 16 17  2  0  0  0
M  END
> <minimizedAffinity>
-9.45527

> <CNNscore>
0.1854055226

> <CNNaffinity>
7.6711959839

> <CNN_VS>
1.4222820997

> <CNNaffinity_variance>
2.6531295776

$$$$
/media/chris/experiments/cd1a-new-docking/inputs/ligands/1xz0_ligand.pdb


 65 67  0  0  0  0  0  0  0  0999 V2000
  -41.6104   58.6710   64.8341 C   0  0  0  0  0  0  0  0  0  0  0  0
  -40.2548   58.7145   65.3860 N   0  0  0  0  0  0  0  0  0  0  0  0
  -39.7565   60.9333   65.3471 O   0  0  0  0  0  0  0  0  0  0  0  0
  -39.4549   59.7740   65.5981 C   0  0  0  0  0  0  0  0  0  0  0  0
  -39.8744   57.8421   65.6379 H   0  0  0  0  0  0  0  0  0  0  0  0
  -37.3229   60.7543   66.4191 N   0  0  0  0  0  0  0  0  0  0  0  0
  -35.8927   59.6982   65.0657 O   0  0  0  0  0  0  0  0  0  0  0  0
  -37.0164   58.8210   65.1307 C   0  0  0  0  0  0  0  0  0  0  0  0
  -36.1873   60.8553   65.8735 C   0  0  0  0  0  0  0  0  0  0  0  0
  -38.0363   59.5079   66.0808 C   0  0  0  0  0  0  0  0  0  0  0  0
  -36.9635   63.6392   66.0847 O   0  0  0  0  0  0  0  0  0  0  0  0
  -35.6673   63.3213   66.1872 C   0  0  0  0  0  0  0  0  0  0  0  0
  -34.7218   64.3312   66.4091 C   0  0  0  0  0  0  0  0  0  0  0  0
  -33.3544   64.0245   66.5111 C   0  0  0  0  0  0  0  0  0  0  0  0
  -32.9179   62.7031   66.4022 C   0  0  0  0  0  0  0  0  0  0  0  0
  -33.8577   61.6913   66.1872 C   0  0  0  0  0  0  0  0  0  0  0  0
  -35.2278   61.9965   66.0758 C   0  0  0  0  0  0  0  0  0  0  0  0
  -37.2343   64.5328   66.1625 H   0  0  0  0  0  0  0  0  0  0  0  0
  -42.3994   59.1628   67.0411 O   0  0  0  0  0  0  0  0  0  0  0  0
  -42.5485   58.5180   66.0163 C   0  0  0  0  0  0  0  0  0  0  0  0
  -43.6272   57.5255   65.9682 O   0  0  0  0  0  0  0  0  0  0  0  0
  -44.9423   57.8707   65.4937 C   0  0  0  0  0  0  0  0  0  0  0  0
  -45.1073   59.3318   65.0944 C   0  0  0  0  0  0  0  0  0  0  0  0
  -45.9551   57.4748   66.5577 C   0  0  0  0  0  0  0  0  0  0  0  0
  -48.0294   58.1720   65.4590 N   0  0  0  0  0  0  0  0  0  0  0  0
  -47.6531   56.0042   65.9828 O   0  0  0  0  0  0  0  0  0  0  0  0
  -47.3198   57.1670   65.9927 C   0  0  0  0  0  0  0  0  0  0  0  0
  -47.6577   59.0811   65.5270 H   0  0  0  0  0  0  0  0  0  0  0  0
  -49.1257   59.5243   62.8466 N   0  0  0  0  0  0  0  0  0  0  0  0
  -49.5149   57.3304   62.5290 O   0  0  0  0  0  0  0  0  0  0  0  0
  -48.6264   60.6520   63.6472 C   0  0  0  0  0  0  0  0  0  0  0  0
  -49.6643   61.0712   64.7052 C   0  0  0  0  0  0  0  0  0  0  0  0
  -50.8688   60.1530   64.8319 C   0  0  0  0  0  0  0  0  0  0  0  0
  -50.5126   58.7715   65.3871 C   0  0  0  0  0  0  0  0  0  0  0  0
  -49.3207   58.0122   64.7807 C   0  0  0  0  0  0  0  0  0  0  0  0
  -49.3116   58.2693   63.2865 C   0  0  0  0  0  0  0  0  0  0  0  0
  -49.2315   58.4900   60.3084 Si  0  0  0  0  0  0  0  0  0  0  0  0
  -49.4167   59.7732   61.5392 O   0  0  0  0  0  0  0  0  0  0  0  0
  -49.5961   59.0002   59.0343 H   0  0  0  0  0  0  0  0  0  0  0  0
  -50.0719   57.3937   60.6373 H   0  0  0  0  0  0  0  0  0  0  0  0
  -47.8796   58.0572   60.2756 H   0  0  0  0  0  0  0  0  0  0  0  0
  -41.3120   56.2498   63.8633 C   0  0  0  0  0  0  0  0  0  0  0  0
  -41.8829   57.6627   63.6916 C   0  0  0  0  0  0  0  0  0  0  0  0
  -41.1903   55.3905   62.5934 C   0  0  0  0  0  0  0  0  0  0  0  0
  -41.4976   56.0691   61.2428 C   0  0  0  0  0  0  0  0  0  0  0  0
  -40.3072   56.8144   60.8213 N   0  0  0  0  0  0  0  0  0  0  0  0
  -40.1651   57.6877   59.7895 C   0  0  0  0  0  0  0  0  0  0  0  0
  -39.1753   56.5723   61.6122 O   0  0  0  0  0  0  0  0  0  0  0  0
  -41.1126   57.9656   59.0549 O   0  0  0  0  0  0  0  0  0  0  0  0
  -38.4296   57.0950   61.2781 H   0  0  0  0  0  0  0  0  0  0  0  0
  -38.7945   58.3269   59.5422 C   0  0  0  0  0  0  0  0  0  0  0  0
  -38.7464   59.8416   59.7849 C   0  0  0  0  0  0  0  0  0  0  0  0
  -39.1261   60.1553   61.2450 C   0  0  0  0  0  0  0  0  0  0  0  0
  -37.9102   60.2939   62.1805 C   0  0  0  0  0  0  0  0  0  0  0  0
  -37.6916   61.7111   62.7425 C   0  0  0  0  0  0  0  0  0  0  0  0
  -36.2425   62.2106   62.5642 C   0  0  0  0  0  0  0  0  0  0  0  0
  -36.0716   63.7425   62.6910 C   0  0  0  0  0  0  0  0  0  0  0  0
  -34.6066   64.1943   62.6976 C   0  0  0  0  0  0  0  0  0  0  0  0
  -33.5779   63.0865   62.4501 C   0  0  0  0  0  0  0  0  0  0  0  0
  -32.1688   63.5200   62.8938 C   0  0  0  0  0  0  0  0  0  0  0  0
  -31.2106   62.3481   63.1555 C   0  0  0  0  0  0  0  0  0  0  0  0
  -31.2457   61.2163   62.1234 C   0  0  0  0  0  0  0  0  0  0  0  0
  -31.4021   59.8018   62.7354 C   0  0  0  0  0  0  0  0  0  0  0  0
  -32.8281   59.5751   63.2771 C   0  0  0  0  0  0  0  0  0  0  0  0
  -33.7744   58.7238   62.4219 C   0  0  0  0  0  0  0  0  0  0  0  0
 46 47  1  0  0  0
 46 48  1  0  0  0
 46 45  1  0  0  0
 47 49  2  0  0  0
 47 51  1  0  0  0
 19 20  2  0  0  0
 37 38  1  0  0  0
 37 39  1  0  0  0
 37 40  1  0  0  0
 37 41  1  0  0  0
 48 50  1  0  0  0
 38 29  1  0  0  0
 45 44  1  0  0  0
 25 27  1  0  0  0
 25 35  1  0  0  0
 25 28  1  0  0  0
 21 20  1  0  0  0
 21 22  1  0  0  0
 44 42  1  0  0  0
  2  1  1  0  0  0
  2  4  1  0  0  0
  2  5  1  0  0  0
 26 27  2  0  0  0
 42 43  2  0  0  0
 29 31  1  0  0  0
 29 36  1  0  0  0
  3  4  2  0  0  0
 43  1  1  0  0  0
  6  9  2  0  0  0
  6 10  1  0  0  0
  1 20  1  0  0  0
 30 36  2  0  0  0
  7  8  1  0  0  0
  7  9  1  0  0  0
 22 24  1  0  0  0
 22 23  1  0  0  0
 11 12  1  0  0  0
 11 18  1  0  0  0
 24 27  1  0  0  0
  4 10  1  0  0  0
 51 52  1  0  0  0
 52 53  1  0  0  0
 53 54  1  0  0  0
 54 55  1  0  0  0
 55 56  1  0  0  0
 56 57  1  0  0  0
 57 58  1  0  0  0
 58 59  1  0  0  0
 59 60  1  0  0  0
 60 61  1  0  0  0
 61 62  1  0  0  0
 62 63  1  0  0  0
 63 64  1  0  0  0
 64 65  1  0  0  0
 31 32  1  0  0  0
 32 33  1  0  0  0
 33 34  1  0  0  0
 34 35  1  0  0  0
 35 36  1  0  0  0
  8 10  1  0  0  0
  9 17  1  0  0  0
 12 13  2  0  0  0
 12 17  1  0  0  0
 13 14  1  0  0  0
 14 15  2  0  0  0
 15 16  1  0  0  0
 16 17  2  0  0  0
M  END
> <minimizedAffinity>
-8.97089

> <CNNscore>
0.1790949106

> <CNNaffinity>
7.4699430466

> <CNN_VS>
1.3378287554

> <CNNaffinity_variance>
1.3759477139

$$$$
/media/chris/experiments/cd1a-new-docking/inputs/ligands/1xz0_ligand.pdb


 65 67  0  0  0  0  0  0  0  0999 V2000
  -40.8576   59.6027   64.1430 C   0  0  0  0  0  0  0  0  0  0  0  0
  -39.8241   59.0809   63.2465 N   0  0  0  0  0  0  0  0  0  0  0  0
  -40.1675   56.8338   63.3212 O   0  0  0  0  0  0  0  0  0  0  0  0
  -39.5537   57.8085   62.9072 C   0  0  0  0  0  0  0  0  0  0  0  0
  -39.2436   59.7598   62.8325 H   0  0  0  0  0  0  0  0  0  0  0  0
  -37.0921   57.4693   62.8290 N   0  0  0  0  0  0  0  0  0  0  0  0
  -36.5754   58.9291   61.2183 O   0  0  0  0  0  0  0  0  0  0  0  0
  -37.9327   58.5826   60.9460 C   0  0  0  0  0  0  0  0  0  0  0  0
  -36.1623   58.2079   62.3962 C   0  0  0  0  0  0  0  0  0  0  0  0
  -38.3334   57.5495   62.0355 C   0  0  0  0  0  0  0  0  0  0  0  0
  -35.5133   57.6564   65.1660 O   0  0  0  0  0  0  0  0  0  0  0  0
  -34.5267   57.9963   64.3276 C   0  0  0  0  0  0  0  0  0  0  0  0
  -33.2090   58.0619   64.7988 C   0  0  0  0  0  0  0  0  0  0  0  0
  -32.1571   58.4252   63.9411 C   0  0  0  0  0  0  0  0  0  0  0  0
  -32.4097   58.7175   62.5997 C   0  0  0  0  0  0  0  0  0  0  0  0
  -33.7217   58.6474   62.1232 C   0  0  0  0  0  0  0  0  0  0  0  0
  -34.7791   58.2921   62.9824 C   0  0  0  0  0  0  0  0  0  0  0  0
  -35.3206   57.4628   66.0622 H   0  0  0  0  0  0  0  0  0  0  0  0
  -40.5781   60.9794   66.0825 O   0  0  0  0  0  0  0  0  0  0  0  0
  -40.1405   60.0719   65.3946 C   0  0  0  0  0  0  0  0  0  0  0  0
  -38.8528   59.4756   65.7648 O   0  0  0  0  0  0  0  0  0  0  0  0
  -37.6083   60.1384   65.4720 C   0  0  0  0  0  0  0  0  0  0  0  0
  -37.0306   60.9402   66.6316 C   0  0  0  0  0  0  0  0  0  0  0  0
  -37.8091   61.0149   64.2448 C   0  0  0  0  0  0  0  0  0  0  0  0
  -35.9339   62.2325   63.2465 N   0  0  0  0  0  0  0  0  0  0  0  0
  -37.0918   63.0903   64.9896 O   0  0  0  0  0  0  0  0  0  0  0  0
  -36.8745   62.1986   64.2016 C   0  0  0  0  0  0  0  0  0  0  0  0
  -35.8479   61.4459   62.6608 H   0  0  0  0  0  0  0  0  0  0  0  0
  -32.7974   62.3500   63.3118 N   0  0  0  0  0  0  0  0  0  0  0  0
  -33.3388   63.3303   61.3595 O   0  0  0  0  0  0  0  0  0  0  0  0
  -33.1540   61.6860   64.5744 C   0  0  0  0  0  0  0  0  0  0  0  0
  -33.5528   62.7226   65.6417 C   0  0  0  0  0  0  0  0  0  0  0  0
  -33.6763   64.1528   65.1428 C   0  0  0  0  0  0  0  0  0  0  0  0
  -34.8462   64.3504   64.1752 C   0  0  0  0  0  0  0  0  0  0  0  0
  -35.0237   63.3596   63.0126 C   0  0  0  0  0  0  0  0  0  0  0  0
  -33.6469   62.9926   62.4943 C   0  0  0  0  0  0  0  0  0  0  0  0
  -30.9278   61.0632   61.7716 Si  0  0  0  0  0  0  0  0  0  0  0  0
  -31.4897   62.3004   62.9334 O   0  0  0  0  0  0  0  0  0  0  0  0
  -29.5354   61.2248   61.5448 H   0  0  0  0  0  0  0  0  0  0  0  0
  -31.6276   61.2130   60.5452 H   0  0  0  0  0  0  0  0  0  0  0  0
  -31.1739   59.7694   62.3022 H   0  0  0  0  0  0  0  0  0  0  0  0
  -43.2815   58.8317   63.4917 C   0  0  0  0  0  0  0  0  0  0  0  0
  -42.0769   58.6935   64.4307 C   0  0  0  0  0  0  0  0  0  0  0  0
  -44.6253   58.2825   64.0000 C   0  0  0  0  0  0  0  0  0  0  0  0
  -44.6518   57.6600   65.4110 C   0  0  0  0  0  0  0  0  0  0  0  0
  -45.8429   58.1537   66.1091 N   0  0  0  0  0  0  0  0  0  0  0  0
  -46.5068   59.3282   65.9435 C   0  0  0  0  0  0  0  0  0  0  0  0
  -46.3436   57.2691   67.0746 O   0  0  0  0  0  0  0  0  0  0  0  0
  -46.1407   60.1547   65.1081 O   0  0  0  0  0  0  0  0  0  0  0  0
  -47.1269   57.6580   67.4942 H   0  0  0  0  0  0  0  0  0  0  0  0
  -47.7276   59.6205   66.8222 C   0  0  0  0  0  0  0  0  0  0  0  0
  -48.8854   60.3139   66.0914 C   0  0  0  0  0  0  0  0  0  0  0  0
  -50.0143   59.3033   65.8109 C   0  0  0  0  0  0  0  0  0  0  0  0
  -49.5678   58.1054   64.9514 C   0  0  0  0  0  0  0  0  0  0  0  0
  -50.1902   58.0589   63.5434 C   0  0  0  0  0  0  0  0  0  0  0  0
  -51.1777   59.2161   63.2852 C   0  0  0  0  0  0  0  0  0  0  0  0
  -50.7377   60.1997   62.1758 C   0  0  0  0  0  0  0  0  0  0  0  0
  -49.3515   59.8888   61.5996 C   0  0  0  0  0  0  0  0  0  0  0  0
  -49.3154   59.6071   60.0942 C   0  0  0  0  0  0  0  0  0  0  0  0
  -49.9215   58.2302   59.7664 C   0  0  0  0  0  0  0  0  0  0  0  0
  -49.1521   57.0498   60.3784 C   0  0  0  0  0  0  0  0  0  0  0  0
  -48.5099   56.0834   59.3779 C   0  0  0  0  0  0  0  0  0  0  0  0
  -47.2120   56.6168   58.7216 C   0  0  0  0  0  0  0  0  0  0  0  0
  -47.4097   56.8866   57.2162 C   0  0  0  0  0  0  0  0  0  0  0  0
  -47.2660   58.3373   56.7405 C   0  0  0  0  0  0  0  0  0  0  0  0
 46 47  1  0  0  0
 46 48  1  0  0  0
 46 45  1  0  0  0
 47 49  2  0  0  0
 47 51  1  0  0  0
 19 20  2  0  0  0
 37 38  1  0  0  0
 37 39  1  0  0  0
 37 40  1  0  0  0
 37 41  1  0  0  0
 48 50  1  0  0  0
 38 29  1  0  0  0
 45 44  1  0  0  0
 25 27  1  0  0  0
 25 35  1  0  0  0
 25 28  1  0  0  0
 21 20  1  0  0  0
 21 22  1  0  0  0
 44 42  1  0  0  0
  2  1  1  0  0  0
  2  4  1  0  0  0
  2  5  1  0  0  0
 26 27  2  0  0  0
 42 43  2  0  0  0
 29 31  1  0  0  0
 29 36  1  0  0  0
  3  4  2  0  0  0
 43  1  1  0  0  0
  6  9  2  0  0  0
  6 10  1  0  0  0
  1 20  1  0  0  0
 30 36  2  0  0  0
  7  8  1  0  0  0
  7  9  1  0  0  0
 22 24  1  0  0  0
 22 23  1  0  0  0
 11 12  1  0  0  0
 11 18  1  0  0  0
 24 27  1  0  0  0
  4 10  1  0  0  0
 51 52  1  0  0  0
 52 53  1  0  0  0
 53 54  1  0  0  0
 54 55  1  0  0  0
 55 56  1  0  0  0
 56 57  1  0  0  0
 57 58  1  0  0  0
 58 59  1  0  0  0
 59 60  1  0  0  0
 60 61  1  0  0  0
 61 62  1  0  0  0
 62 63  1  0  0  0
 63 64  1  0  0  0
 64 65  1  0  0  0
 31 32  1  0  0  0
 32 33  1  0  0  0
 33 34  1  0  0  0
 34 35  1  0  0  0
 35 36  1  0  0  0
  8 10  1  0  0  0
  9 17  1  0  0  0
 12 13  2  0  0  0
 12 17  1  0  0  0
 13 14  1  0  0  0
 14 15  2  0  0  0
 15 16  1  0  0  0
 16 17  2  0  0  0
M  END
> <minimizedAffinity>
-9.91314

> <CNNscore>
0.1734673232

> <CNNaffinity>
7.2735443115

> <CNN_VS>
1.2617222071

> <CNNaffinity_variance>
0.6603996158

$$$$
