/media/chris/experiments/cd1a-new-docking/inputs/ligands/1xz0_ligand.pdb


 65 67  0  0  0  0  0  0  0  0999 V2000
  -37.1514   59.1546   63.9435 C   0  0  0  0  0  0  0  0  0  0  0  0
  -36.4761   60.3031   64.5510 N   0  0  0  0  0  0  0  0  0  0  0  0
  -37.6518   60.6330   66.4698 O   0  0  0  0  0  0  0  0  0  0  0  0
  -36.7459   60.9375   65.7052 C   0  0  0  0  0  0  0  0  0  0  0  0
  -35.7147   60.6625   64.0407 H   0  0  0  0  0  0  0  0  0  0  0  0
  -36.0113   63.1908   64.9543 N   0  0  0  0  0  0  0  0  0  0  0  0
  -33.8184   63.0049   65.3392 O   0  0  0  0  0  0  0  0  0  0  0  0
  -34.4074   62.0801   66.2525 C   0  0  0  0  0  0  0  0  0  0  0  0
  -34.8814   63.6186   64.5833 C   0  0  0  0  0  0  0  0  0  0  0  0
  -35.9422   62.1874   66.0338 C   0  0  0  0  0  0  0  0  0  0  0  0
  -36.4859   63.9277   62.1902 O   0  0  0  0  0  0  0  0  0  0  0  0
  -35.4785   64.7823   62.4064 C   0  0  0  0  0  0  0  0  0  0  0  0
  -35.2330   65.8104   61.4868 C   0  0  0  0  0  0  0  0  0  0  0  0
  -34.1760   66.7145   61.6862 C   0  0  0  0  0  0  0  0  0  0  0  0
  -33.3587   66.6068   62.8128 C   0  0  0  0  0  0  0  0  0  0  0  0
  -33.6035   65.5867   63.7363 C   0  0  0  0  0  0  0  0  0  0  0  0
  -34.6566   64.6739   63.5347 C   0  0  0  0  0  0  0  0  0  0  0  0
  -37.0229   64.0197   61.4279 H   0  0  0  0  0  0  0  0  0  0  0  0
  -36.2144   57.0282   64.5230 O   0  0  0  0  0  0  0  0  0  0  0  0
  -36.1184   58.0471   63.8589 C   0  0  0  0  0  0  0  0  0  0  0  0
  -34.9329   58.2180   63.0125 O   0  0  0  0  0  0  0  0  0  0  0  0
  -33.6038   58.1574   63.5635 C   0  0  0  0  0  0  0  0  0  0  0  0
  -33.4863   58.6789   64.9903 C   0  0  0  0  0  0  0  0  0  0  0  0
  -32.6625   58.9010   62.6279 C   0  0  0  0  0  0  0  0  0  0  0  0
  -31.6920   61.1467   62.7337 N   0  0  0  0  0  0  0  0  0  0  0  0
  -33.9319   60.8411   62.6650 O   0  0  0  0  0  0  0  0  0  0  0  0
  -32.8060   60.4007   62.7104 C   0  0  0  0  0  0  0  0  0  0  0  0
  -30.8275   60.6770   62.7709 H   0  0  0  0  0  0  0  0  0  0  0  0
  -30.1758   63.1159   60.8157 N   0  0  0  0  0  0  0  0  0  0  0  0
  -32.2945   63.8754   60.8125 O   0  0  0  0  0  0  0  0  0  0  0  0
  -29.1340   62.1759   61.2548 C   0  0  0  0  0  0  0  0  0  0  0  0
  -28.5923   62.5714   62.6414 C   0  0  0  0  0  0  0  0  0  0  0  0
  -29.3430   63.6964   63.3345 C   0  0  0  0  0  0  0  0  0  0  0  0
  -30.7659   63.3048   63.7414 C   0  0  0  0  0  0  0  0  0  0  0  0
  -31.6704   62.6137   62.7076 C   0  0  0  0  0  0  0  0  0  0  0  0
  -31.3997   63.2404   61.3537 C   0  0  0  0  0  0  0  0  0  0  0  0
  -31.0258   65.1872   59.2313 Si  0  0  0  0  0  0  0  0  0  0  0  0
  -29.8754   63.9263   59.7627 O   0  0  0  0  0  0  0  0  0  0  0  0
  -30.4804   65.8892   58.1239 H   0  0  0  0  0  0  0  0  0  0  0  0
  -31.2596   66.0947   60.2982 H   0  0  0  0  0  0  0  0  0  0  0  0
  -32.2511   64.5796   58.8495 H   0  0  0  0  0  0  0  0  0  0  0  0
  -37.6728   58.3865   61.4875 C   0  0  0  0  0  0  0  0  0  0  0  0
  -37.9130   59.3951   62.6175 C   0  0  0  0  0  0  0  0  0  0  0  0
  -38.0564   58.8314   60.0660 C   0  0  0  0  0  0  0  0  0  0  0  0
  -39.3342   58.2244   59.4510 C   0  0  0  0  0  0  0  0  0  0  0  0
  -40.4759   58.6152   60.2840 N   0  0  0  0  0  0  0  0  0  0  0  0
  -41.1338   57.8919   61.2282 C   0  0  0  0  0  0  0  0  0  0  0  0
  -40.9282   59.9217   60.0519 O   0  0  0  0  0  0  0  0  0  0  0  0
  -40.7923   56.7416   61.5021 O   0  0  0  0  0  0  0  0  0  0  0  0
  -41.6806   60.1116   60.6340 H   0  0  0  0  0  0  0  0  0  0  0  0
  -42.3242   58.5279   61.9538 C   0  0  0  0  0  0  0  0  0  0  0  0
  -41.9384   59.4877   63.0876 C   0  0  0  0  0  0  0  0  0  0  0  0
  -41.2431   58.7123   64.2232 C   0  0  0  0  0  0  0  0  0  0  0  0
  -42.2259   58.0327   65.1954 C   0  0  0  0  0  0  0  0  0  0  0  0
  -42.7241   58.9356   66.3392 C   0  0  0  0  0  0  0  0  0  0  0  0
  -44.2435   59.1983   66.2782 C   0  0  0  0  0  0  0  0  0  0  0  0
  -44.9589   58.5496   65.0703 C   0  0  0  0  0  0  0  0  0  0  0  0
  -45.6494   59.5654   64.1528 C   0  0  0  0  0  0  0  0  0  0  0  0
  -47.0684   59.9659   64.5687 C   0  0  0  0  0  0  0  0  0  0  0  0
  -47.7575   58.8431   65.3656 C   0  0  0  0  0  0  0  0  0  0  0  0
  -48.8856   58.1372   64.5982 C   0  0  0  0  0  0  0  0  0  0  0  0
  -50.2918   58.2987   65.1848 C   0  0  0  0  0  0  0  0  0  0  0  0
  -50.9443   59.6751   64.9033 C   0  0  0  0  0  0  0  0  0  0  0  0
  -51.6782   59.6858   63.5470 C   0  0  0  0  0  0  0  0  0  0  0  0
  -52.0747   61.0529   62.9766 C   0  0  0  0  0  0  0  0  0  0  0  0
 46 47  1  0  0  0
 46 48  1  0  0  0
 46 45  1  0  0  0
 47 49  2  0  0  0
 47 51  1  0  0  0
 19 20  2  0  0  0
 37 38  1  0  0  0
 37 39  1  0  0  0
 37 40  1  0  0  0
 37 41  1  0  0  0
 48 50  1  0  0  0
 38 29  1  0  0  0
 45 44  1  0  0  0
 25 27  1  0  0  0
 25 35  1  0  0  0
 25 28  1  0  0  0
 21 20  1  0  0  0
 21 22  1  0  0  0
 44 42  1  0  0  0
  2  1  1  0  0  0
  2  4  1  0  0  0
  2  5  1  0  0  0
 26 27  2  0  0  0
 42 43  2  0  0  0
 29 31  1  0  0  0
 29 36  1  0  0  0
  3  4  2  0  0  0
 43  1  1  0  0  0
  6  9  2  0  0  0
  6 10  1  0  0  0
  1 20  1  0  0  0
 30 36  2  0  0  0
  7  8  1  0  0  0
  7  9  1  0  0  0
 22 24  1  0  0  0
 22 23  1  0  0  0
 11 12  1  0  0  0
 11 18  1  0  0  0
 24 27  1  0  0  0
  4 10  1  0  0  0
 51 52  1  0  0  0
 52 53  1  0  0  0
 53 54  1  0  0  0
 54 55  1  0  0  0
 55 56  1  0  0  0
 56 57  1  0  0  0
 57 58  1  0  0  0
 58 59  1  0  0  0
 59 60  1  0  0  0
 60 61  1  0  0  0
 61 62  1  0  0  0
 62 63  1  0  0  0
 63 64  1  0  0  0
 64 65  1  0  0  0
 31 32  1  0  0  0
 32 33  1  0  0  0
 33 34  1  0  0  0
 34 35  1  0  0  0
 35 36  1  0  0  0
  8 10  1  0  0  0
  9 17  1  0  0  0
 12 13  2  0  0  0
 12 17  1  0  0  0
 13 14  1  0  0  0
 14 15  2  0  0  0
 15 16  1  0  0  0
 16 17  2  0  0  0
M  END
> <minimizedAffinity>
-9.41459

> <CNNscore>
0.3093089461

> <CNNaffinity>
7.3016119003

> <CNN_VS>
2.2584538460

> <CNNaffinity_variance>
1.0767695904

$$$$
/media/chris/experiments/cd1a-new-docking/inputs/ligands/1xz0_ligand.pdb


 65 67  0  0  0  0  0  0  0  0999 V2000
  -40.5950   57.6289   62.7139 C   0  0  0  0  0  0  0  0  0  0  0  0
  -40.0821   58.7388   63.5195 N   0  0  0  0  0  0  0  0  0  0  0  0
  -38.4593   57.7551   64.7732 O   0  0  0  0  0  0  0  0  0  0  0  0
  -39.1063   58.7406   64.4443 C   0  0  0  0  0  0  0  0  0  0  0  0
  -40.5140   59.6092   63.3612 H   0  0  0  0  0  0  0  0  0  0  0  0
  -38.2168   61.0612   64.3805 N   0  0  0  0  0  0  0  0  0  0  0  0
  -36.9320   61.0081   66.2075 O   0  0  0  0  0  0  0  0  0  0  0  0
  -37.9271   60.0166   66.4580 C   0  0  0  0  0  0  0  0  0  0  0  0
  -37.1892   61.5750   64.9073 C   0  0  0  0  0  0  0  0  0  0  0  0
  -38.8606   60.0294   65.2156 C   0  0  0  0  0  0  0  0  0  0  0  0
  -35.1765   63.0975   66.3312 O   0  0  0  0  0  0  0  0  0  0  0  0
  -35.3932   63.3657   65.0378 C   0  0  0  0  0  0  0  0  0  0  0  0
  -34.6368   64.3578   64.4000 C   0  0  0  0  0  0  0  0  0  0  0  0
  -34.8516   64.6646   63.0457 C   0  0  0  0  0  0  0  0  0  0  0  0
  -35.8183   63.9757   62.3111 C   0  0  0  0  0  0  0  0  0  0  0  0
  -36.5709   62.9807   62.9412 C   0  0  0  0  0  0  0  0  0  0  0  0
  -36.3640   62.6771   64.3005 C   0  0  0  0  0  0  0  0  0  0  0  0
  -34.5212   63.5713   66.8046 H   0  0  0  0  0  0  0  0  0  0  0  0
  -41.7400   57.6401   60.6105 O   0  0  0  0  0  0  0  0  0  0  0  0
  -40.9810   58.2184   61.3706 C   0  0  0  0  0  0  0  0  0  0  0  0
  -40.3832   59.4831   60.9298 O   0  0  0  0  0  0  0  0  0  0  0  0
  -39.2142   59.5065   60.0891 C   0  0  0  0  0  0  0  0  0  0  0  0
  -38.8759   58.1706   59.4390 C   0  0  0  0  0  0  0  0  0  0  0  0
  -38.0445   60.0301   60.9087 C   0  0  0  0  0  0  0  0  0  0  0  0
  -36.0426   59.2598   62.0899 N   0  0  0  0  0  0  0  0  0  0  0  0
  -37.7088   57.8279   61.5525 O   0  0  0  0  0  0  0  0  0  0  0  0
  -37.2155   58.9323   61.5285 C   0  0  0  0  0  0  0  0  0  0  0  0
  -35.7400   60.1930   62.0063 H   0  0  0  0  0  0  0  0  0  0  0  0
  -34.0926   59.7648   64.4977 N   0  0  0  0  0  0  0  0  0  0  0  0
  -35.3211   57.9965   65.1531 O   0  0  0  0  0  0  0  0  0  0  0  0
  -33.7290   60.8037   63.5229 C   0  0  0  0  0  0  0  0  0  0  0  0
  -32.7908   60.2332   62.4427 C   0  0  0  0  0  0  0  0  0  0  0  0
  -32.5875   58.7278   62.4891 C   0  0  0  0  0  0  0  0  0  0  0  0
  -33.8537   57.9418   62.1390 C   0  0  0  0  0  0  0  0  0  0  0  0
  -35.1781   58.3255   62.8198 C   0  0  0  0  0  0  0  0  0  0  0  0
  -34.8754   58.7007   64.2574 C   0  0  0  0  0  0  0  0  0  0  0  0
  -33.2491   61.5199   66.4295 Si  0  0  0  0  0  0  0  0  0  0  0  0
  -33.5986   59.8995   65.7601 O   0  0  0  0  0  0  0  0  0  0  0  0
  -32.7474   61.3878   67.7513 H   0  0  0  0  0  0  0  0  0  0  0  0
  -34.4416   62.2906   66.4507 H   0  0  0  0  0  0  0  0  0  0  0  0
  -32.2807   62.1683   65.6182 H   0  0  0  0  0  0  0  0  0  0  0  0
  -42.8303   57.4645   64.0815 C   0  0  0  0  0  0  0  0  0  0  0  0
  -41.6975   56.7422   63.3419 C   0  0  0  0  0  0  0  0  0  0  0  0
  -43.6688   56.6235   65.0590 C   0  0  0  0  0  0  0  0  0  0  0  0
  -44.3445   57.3609   66.2334 C   0  0  0  0  0  0  0  0  0  0  0  0
  -45.7290   57.6592   65.8536 N   0  0  0  0  0  0  0  0  0  0  0  0
  -46.2266   58.7569   65.2249 C   0  0  0  0  0  0  0  0  0  0  0  0
  -46.6426   56.6537   66.1993 O   0  0  0  0  0  0  0  0  0  0  0  0
  -45.4904   59.6795   64.8759 O   0  0  0  0  0  0  0  0  0  0  0  0
  -47.5336   56.9163   65.9198 H   0  0  0  0  0  0  0  0  0  0  0  0
  -47.7329   58.8390   64.9567 C   0  0  0  0  0  0  0  0  0  0  0  0
  -48.3760   60.1767   65.3473 C   0  0  0  0  0  0  0  0  0  0  0  0
  -49.6502   59.9283   66.1773 C   0  0  0  0  0  0  0  0  0  0  0  0
  -50.8472   59.4447   65.3368 C   0  0  0  0  0  0  0  0  0  0  0  0
  -51.6058   60.5631   64.5982 C   0  0  0  0  0  0  0  0  0  0  0  0
  -52.0728   60.1422   63.1890 C   0  0  0  0  0  0  0  0  0  0  0  0
  -51.0499   59.2906   62.4016 C   0  0  0  0  0  0  0  0  0  0  0  0
  -49.8227   60.0846   61.9392 C   0  0  0  0  0  0  0  0  0  0  0  0
  -49.5740   60.0858   60.4276 C   0  0  0  0  0  0  0  0  0  0  0  0
  -49.7689   58.6822   59.8258 C   0  0  0  0  0  0  0  0  0  0  0  0
  -48.6552   57.6886   60.1899 C   0  0  0  0  0  0  0  0  0  0  0  0
  -48.4318   56.5453   59.1946 C   0  0  0  0  0  0  0  0  0  0  0  0
  -47.0454   56.5650   58.5039 C   0  0  0  0  0  0  0  0  0  0  0  0
  -47.0247   57.5353   57.3055 C   0  0  0  0  0  0  0  0  0  0  0  0
  -48.2149   57.4805   56.3401 C   0  0  0  0  0  0  0  0  0  0  0  0
 46 47  1  0  0  0
 46 48  1  0  0  0
 46 45  1  0  0  0
 47 49  2  0  0  0
 47 51  1  0  0  0
 19 20  2  0  0  0
 37 38  1  0  0  0
 37 39  1  0  0  0
 37 40  1  0  0  0
 37 41  1  0  0  0
 48 50  1  0  0  0
 38 29  1  0  0  0
 45 44  1  0  0  0
 25 27  1  0  0  0
 25 35  1  0  0  0
 25 28  1  0  0  0
 21 20  1  0  0  0
 21 22  1  0  0  0
 44 42  1  0  0  0
  2  1  1  0  0  0
  2  4  1  0  0  0
  2  5  1  0  0  0
 26 27  2  0  0  0
 42 43  2  0  0  0
 29 31  1  0  0  0
 29 36  1  0  0  0
  3  4  2  0  0  0
 43  1  1  0  0  0
  6  9  2  0  0  0
  6 10  1  0  0  0
  1 20  1  0  0  0
 30 36  2  0  0  0
  7  8  1  0  0  0
  7  9  1  0  0  0
 22 24  1  0  0  0
 22 23  1  0  0  0
 11 12  1  0  0  0
 11 18  1  0  0  0
 24 27  1  0  0  0
  4 10  1  0  0  0
 51 52  1  0  0  0
 52 53  1  0  0  0
 53 54  1  0  0  0
 54 55  1  0  0  0
 55 56  1  0  0  0
 56 57  1  0  0  0
 57 58  1  0  0  0
 58 59  1  0  0  0
 59 60  1  0  0  0
 60 61  1  0  0  0
 61 62  1  0  0  0
 62 63  1  0  0  0
 63 64  1  0  0  0
 64 65  1  0  0  0
 31 32  1  0  0  0
 32 33  1  0  0  0
 33 34  1  0  0  0
 34 35  1  0  0  0
 35 36  1  0  0  0
  8 10  1  0  0  0
  9 17  1  0  0  0
 12 13  2  0  0  0
 12 17  1  0  0  0
 13 14  1  0  0  0
 14 15  2  0  0  0
 15 16  1  0  0  0
 16 17  2  0  0  0
M  END
> <minimizedAffinity>
-10.03620

> <CNNscore>
0.2999365032

> <CNNaffinity>
7.5389404297

> <CNN_VS>
2.2612035275

> <CNNaffinity_variance>
0.6448976398

$$$$
/media/chris/experiments/cd1a-new-docking/inputs/ligands/1xz0_ligand.pdb


 65 67  0  0  0  0  0  0  0  0999 V2000
  -42.1606   59.7573   63.1792 C   0  0  0  0  0  0  0  0  0  0  0  0
  -41.1282   59.8198   64.2157 N   0  0  0  0  0  0  0  0  0  0  0  0
  -39.3812   60.8021   63.1404 O   0  0  0  0  0  0  0  0  0  0  0  0
  -39.8772   60.3069   64.1438 C   0  0  0  0  0  0  0  0  0  0  0  0
  -41.3875   59.4522   65.0914 H   0  0  0  0  0  0  0  0  0  0  0  0
  -38.0001   61.2323   65.4856 N   0  0  0  0  0  0  0  0  0  0  0  0
  -36.7310   59.4006   65.6466 O   0  0  0  0  0  0  0  0  0  0  0  0
  -38.0499   58.8896   65.4576 C   0  0  0  0  0  0  0  0  0  0  0  0
  -36.8076   60.8400   65.6327 C   0  0  0  0  0  0  0  0  0  0  0  0
  -38.9762   60.1334   65.3580 C   0  0  0  0  0  0  0  0  0  0  0  0
  -36.9649   63.6939   66.1099 O   0  0  0  0  0  0  0  0  0  0  0  0
  -35.7603   63.1112   66.0739 C   0  0  0  0  0  0  0  0  0  0  0  0
  -34.6104   63.8841   66.2824 C   0  0  0  0  0  0  0  0  0  0  0  0
  -33.3341   63.2979   66.2403 C   0  0  0  0  0  0  0  0  0  0  0  0
  -33.1937   61.9301   65.9991 C   0  0  0  0  0  0  0  0  0  0  0  0
  -34.3381   61.1537   65.7968 C   0  0  0  0  0  0  0  0  0  0  0  0
  -35.6180   61.7398   65.8298 C   0  0  0  0  0  0  0  0  0  0  0  0
  -37.0357   64.6134   66.2751 H   0  0  0  0  0  0  0  0  0  0  0  0
  -44.3068   58.6954   63.1426 O   0  0  0  0  0  0  0  0  0  0  0  0
  -43.3595   59.0756   63.8107 C   0  0  0  0  0  0  0  0  0  0  0  0
  -43.4279   58.9218   65.2676 O   0  0  0  0  0  0  0  0  0  0  0  0
  -43.4920   57.6207   65.8816 C   0  0  0  0  0  0  0  0  0  0  0  0
  -42.7853   56.5183   65.1026 C   0  0  0  0  0  0  0  0  0  0  0  0
  -44.9540   57.2742   66.1195 C   0  0  0  0  0  0  0  0  0  0  0  0
  -46.4425   58.9636   65.1569 N   0  0  0  0  0  0  0  0  0  0  0  0
  -46.0104   58.9117   67.3764 O   0  0  0  0  0  0  0  0  0  0  0  0
  -45.8375   58.4897   66.2558 C   0  0  0  0  0  0  0  0  0  0  0  0
  -46.2234   58.5404   64.2954 H   0  0  0  0  0  0  0  0  0  0  0  0
  -49.5791   58.9128   65.2757 N   0  0  0  0  0  0  0  0  0  0  0  0
  -48.9979   60.4010   66.8610 O   0  0  0  0  0  0  0  0  0  0  0  0
  -49.2489   57.9544   64.2106 C   0  0  0  0  0  0  0  0  0  0  0  0
  -48.9733   58.6873   62.8842 C   0  0  0  0  0  0  0  0  0  0  0  0
  -48.9138   60.2029   62.9805 C   0  0  0  0  0  0  0  0  0  0  0  0
  -47.7091   60.7049   63.7808 C   0  0  0  0  0  0  0  0  0  0  0  0
  -47.4081   60.0684   65.1479 C   0  0  0  0  0  0  0  0  0  0  0  0
  -48.7297   59.7885   65.8364 C   0  0  0  0  0  0  0  0  0  0  0  0
  -51.5798   60.3838   66.4406 Si  0  0  0  0  0  0  0  0  0  0  0  0
  -50.8593   58.9045   65.7417 O   0  0  0  0  0  0  0  0  0  0  0  0
  -52.9128   60.1137   66.8489 H   0  0  0  0  0  0  0  0  0  0  0  0
  -51.5836   61.4152   65.4646 H   0  0  0  0  0  0  0  0  0  0  0  0
  -50.8155   60.7976   67.5636 H   0  0  0  0  0  0  0  0  0  0  0  0
  -42.0237   57.6654   61.5985 C   0  0  0  0  0  0  0  0  0  0  0  0
  -41.7590   59.1613   61.8082 C   0  0  0  0  0  0  0  0  0  0  0  0
  -41.2572   56.9777   60.4559 C   0  0  0  0  0  0  0  0  0  0  0  0
  -39.9481   57.6392   59.9782 C   0  0  0  0  0  0  0  0  0  0  0  0
  -38.9436   57.4873   61.0355 N   0  0  0  0  0  0  0  0  0  0  0  0
  -37.8864   58.2881   61.3332 C   0  0  0  0  0  0  0  0  0  0  0  0
  -39.1262   56.3495   61.8340 O   0  0  0  0  0  0  0  0  0  0  0  0
  -37.6626   59.3131   60.6897 O   0  0  0  0  0  0  0  0  0  0  0  0
  -38.4301   56.3127   62.5085 H   0  0  0  0  0  0  0  0  0  0  0  0
  -36.9600   57.8947   62.4885 C   0  0  0  0  0  0  0  0  0  0  0  0
  -35.5714   58.5467   62.4402 C   0  0  0  0  0  0  0  0  0  0  0  0
  -34.6112   57.8175   63.3996 C   0  0  0  0  0  0  0  0  0  0  0  0
  -33.1693   57.7160   62.8671 C   0  0  0  0  0  0  0  0  0  0  0  0
  -32.1912   58.7449   63.4641 C   0  0  0  0  0  0  0  0  0  0  0  0
  -32.2136   60.0964   62.7198 C   0  0  0  0  0  0  0  0  0  0  0  0
  -30.9770   60.3591   61.8290 C   0  0  0  0  0  0  0  0  0  0  0  0
  -29.6506   60.3065   62.5958 C   0  0  0  0  0  0  0  0  0  0  0  0
  -28.4140   60.7299   61.7967 C   0  0  0  0  0  0  0  0  0  0  0  0
  -27.7864   62.0126   62.3721 C   0  0  0  0  0  0  0  0  0  0  0  0
  -28.6820   63.2544   62.2467 C   0  0  0  0  0  0  0  0  0  0  0  0
  -28.8842   64.0618   63.5331 C   0  0  0  0  0  0  0  0  0  0  0  0
  -30.2754   63.8761   64.1886 C   0  0  0  0  0  0  0  0  0  0  0  0
  -31.3816   63.7043   63.1278 C   0  0  0  0  0  0  0  0  0  0  0  0
  -32.4116   64.8332   63.0017 C   0  0  0  0  0  0  0  0  0  0  0  0
 46 47  1  0  0  0
 46 48  1  0  0  0
 46 45  1  0  0  0
 47 49  2  0  0  0
 47 51  1  0  0  0
 19 20  2  0  0  0
 37 38  1  0  0  0
 37 39  1  0  0  0
 37 40  1  0  0  0
 37 41  1  0  0  0
 48 50  1  0  0  0
 38 29  1  0  0  0
 45 44  1  0  0  0
 25 27  1  0  0  0
 25 35  1  0  0  0
 25 28  1  0  0  0
 21 20  1  0  0  0
 21 22  1  0  0  0
 44 42  1  0  0  0
  2  1  1  0  0  0
  2  4  1  0  0  0
  2  5  1  0  0  0
 26 27  2  0  0  0
 42 43  2  0  0  0
 29 31  1  0  0  0
 29 36  1  0  0  0
  3  4  2  0  0  0
 43  1  1  0  0  0
  6  9  2  0  0  0
  6 10  1  0  0  0
  1 20  1  0  0  0
 30 36  2  0  0  0
  7  8  1  0  0  0
  7  9  1  0  0  0
 22 24  1  0  0  0
 22 23  1  0  0  0
 11 12  1  0  0  0
 11 18  1  0  0  0
 24 27  1  0  0  0
  4 10  1  0  0  0
 51 52  1  0  0  0
 52 53  1  0  0  0
 53 54  1  0  0  0
 54 55  1  0  0  0
 55 56  1  0  0  0
 56 57  1  0  0  0
 57 58  1  0  0  0
 58 59  1  0  0  0
 59 60  1  0  0  0
 60 61  1  0  0  0
 61 62  1  0  0  0
 62 63  1  0  0  0
 63 64  1  0  0  0
 64 65  1  0  0  0
 31 32  1  0  0  0
 32 33  1  0  0  0
 33 34  1  0  0  0
 34 35  1  0  0  0
 35 36  1  0  0  0
  8 10  1  0  0  0
  9 17  1  0  0  0
 12 13  2  0  0  0
 12 17  1  0  0  0
 13 14  1  0  0  0
 14 15  2  0  0  0
 15 16  1  0  0  0
 16 17  2  0  0  0
M  END
> <minimizedAffinity>
-9.84222

> <CNNscore>
0.2690796852

> <CNNaffinity>
7.2035398483

> <CNN_VS>
1.9383262396

> <CNNaffinity_variance>
1.8489520550

$$$$
/media/chris/experiments/cd1a-new-docking/inputs/ligands/1xz0_ligand.pdb


 65 67  0  0  0  0  0  0  0  0999 V2000
  -40.9220   59.8956   63.9455 C   0  0  0  0  0  0  0  0  0  0  0  0
  -39.8926   59.2694   63.1134 N   0  0  0  0  0  0  0  0  0  0  0  0
  -40.1151   57.0588   63.5997 O   0  0  0  0  0  0  0  0  0  0  0  0
  -39.5672   57.9705   62.9942 C   0  0  0  0  0  0  0  0  0  0  0  0
  -39.3624   59.8889   62.5618 H   0  0  0  0  0  0  0  0  0  0  0  0
  -37.1094   57.6063   62.9083 N   0  0  0  0  0  0  0  0  0  0  0  0
  -36.6131   58.8919   61.1496 O   0  0  0  0  0  0  0  0  0  0  0  0
  -37.9770   58.5302   60.9371 C   0  0  0  0  0  0  0  0  0  0  0  0
  -36.1831   58.2901   62.3870 C   0  0  0  0  0  0  0  0  0  0  0  0
  -38.3642   57.6155   62.1323 C   0  0  0  0  0  0  0  0  0  0  0  0
  -35.3908   57.5096   65.0628 O   0  0  0  0  0  0  0  0  0  0  0  0
  -34.4648   58.0107   64.2361 C   0  0  0  0  0  0  0  0  0  0  0  0
  -33.1390   58.1312   64.6727 C   0  0  0  0  0  0  0  0  0  0  0  0
  -32.1504   58.6629   63.8274 C   0  0  0  0  0  0  0  0  0  0  0  0
  -32.4746   59.0708   62.5323 C   0  0  0  0  0  0  0  0  0  0  0  0
  -33.7946   58.9467   62.0900 C   0  0  0  0  0  0  0  0  0  0  0  0
  -34.7892   58.4224   62.9378 C   0  0  0  0  0  0  0  0  0  0  0  0
  -35.1504   57.2405   65.9275 H   0  0  0  0  0  0  0  0  0  0  0  0
  -40.7261   60.7666   66.1677 O   0  0  0  0  0  0  0  0  0  0  0  0
  -40.1923   60.5777   65.0871 C   0  0  0  0  0  0  0  0  0  0  0  0
  -38.8333   61.0895   64.8822 O   0  0  0  0  0  0  0  0  0  0  0  0
  -37.6771   60.2735   65.1494 C   0  0  0  0  0  0  0  0  0  0  0  0
  -37.9252   59.1225   66.1165 C   0  0  0  0  0  0  0  0  0  0  0  0
  -36.5576   61.1760   65.6459 C   0  0  0  0  0  0  0  0  0  0  0  0
  -34.7089   62.5635   64.8379 N   0  0  0  0  0  0  0  0  0  0  0  0
  -36.2117   61.6656   63.4059 O   0  0  0  0  0  0  0  0  0  0  0  0
  -35.8102   61.8633   64.5299 C   0  0  0  0  0  0  0  0  0  0  0  0
  -34.4790   62.6593   65.7904 H   0  0  0  0  0  0  0  0  0  0  0  0
  -31.7300   63.5145   65.1153 N   0  0  0  0  0  0  0  0  0  0  0  0
  -31.7364   62.2859   63.2295 O   0  0  0  0  0  0  0  0  0  0  0  0
  -32.4010   64.1048   66.2828 C   0  0  0  0  0  0  0  0  0  0  0  0
  -33.1342   65.4018   65.8920 C   0  0  0  0  0  0  0  0  0  0  0  0
  -33.1754   65.7002   64.4023 C   0  0  0  0  0  0  0  0  0  0  0  0
  -34.0286   64.7020   63.6153 C   0  0  0  0  0  0  0  0  0  0  0  0
  -33.8222   63.1972   63.8554 C   0  0  0  0  0  0  0  0  0  0  0  0
  -32.3395   62.9534   64.0586 C   0  0  0  0  0  0  0  0  0  0  0  0
  -29.4705   64.7464   66.0644 Si  0  0  0  0  0  0  0  0  0  0  0  0
  -30.3678   63.5298   65.1101 O   0  0  0  0  0  0  0  0  0  0  0  0
  -28.0750   64.5493   65.8902 H   0  0  0  0  0  0  0  0  0  0  0  0
  -29.8002   64.6072   67.4386 H   0  0  0  0  0  0  0  0  0  0  0  0
  -29.8234   66.0488   65.6224 H   0  0  0  0  0  0  0  0  0  0  0  0
  -42.2119   58.7252   65.9103 C   0  0  0  0  0  0  0  0  0  0  0  0
  -42.1031   59.0076   64.4068 C   0  0  0  0  0  0  0  0  0  0  0  0
  -43.0817   57.5285   66.3312 C   0  0  0  0  0  0  0  0  0  0  0  0
  -44.0334   56.9335   65.2730 C   0  0  0  0  0  0  0  0  0  0  0  0
  -45.2649   57.7294   65.2626 N   0  0  0  0  0  0  0  0  0  0  0  0
  -46.2900   57.7319   66.1552 C   0  0  0  0  0  0  0  0  0  0  0  0
  -45.3702   58.5996   64.1685 O   0  0  0  0  0  0  0  0  0  0  0  0
  -46.2702   57.0075   67.1501 O   0  0  0  0  0  0  0  0  0  0  0  0
  -46.2042   59.0916   64.2257 H   0  0  0  0  0  0  0  0  0  0  0  0
  -47.4892   58.6524   65.9051 C   0  0  0  0  0  0  0  0  0  0  0  0
  -48.5910   58.0376   65.0313 C   0  0  0  0  0  0  0  0  0  0  0  0
  -49.9778   58.3970   65.5986 C   0  0  0  0  0  0  0  0  0  0  0  0
  -50.1760   59.9073   65.8280 C   0  0  0  0  0  0  0  0  0  0  0  0
  -51.5369   60.4543   65.3584 C   0  0  0  0  0  0  0  0  0  0  0  0
  -51.5319   60.8847   63.8766 C   0  0  0  0  0  0  0  0  0  0  0  0
  -51.9837   59.7851   62.8874 C   0  0  0  0  0  0  0  0  0  0  0  0
  -50.8291   59.1758   62.0837 C   0  0  0  0  0  0  0  0  0  0  0  0
  -50.8306   57.6467   61.9902 C   0  0  0  0  0  0  0  0  0  0  0  0
  -50.6473   57.1733   60.5367 C   0  0  0  0  0  0  0  0  0  0  0  0
  -50.1879   58.2794   59.5749 C   0  0  0  0  0  0  0  0  0  0  0  0
  -48.6727   58.4158   59.3926 C   0  0  0  0  0  0  0  0  0  0  0  0
  -47.9368   57.0730   59.1582 C   0  0  0  0  0  0  0  0  0  0  0  0
  -47.1880   57.0668   57.8101 C   0  0  0  0  0  0  0  0  0  0  0  0
  -47.5003   58.2047   56.8308 C   0  0  0  0  0  0  0  0  0  0  0  0
 46 47  1  0  0  0
 46 48  1  0  0  0
 46 45  1  0  0  0
 47 49  2  0  0  0
 47 51  1  0  0  0
 19 20  2  0  0  0
 37 38  1  0  0  0
 37 39  1  0  0  0
 37 40  1  0  0  0
 37 41  1  0  0  0
 48 50  1  0  0  0
 38 29  1  0  0  0
 45 44  1  0  0  0
 25 27  1  0  0  0
 25 35  1  0  0  0
 25 28  1  0  0  0
 21 20  1  0  0  0
 21 22  1  0  0  0
 44 42  1  0  0  0
  2  1  1  0  0  0
  2  4  1  0  0  0
  2  5  1  0  0  0
 26 27  2  0  0  0
 42 43  2  0  0  0
 29 31  1  0  0  0
 29 36  1  0  0  0
  3  4  2  0  0  0
 43  1  1  0  0  0
  6  9  2  0  0  0
  6 10  1  0  0  0
  1 20  1  0  0  0
 30 36  2  0  0  0
  7  8  1  0  0  0
  7  9  1  0  0  0
 22 24  1  0  0  0
 22 23  1  0  0  0
 11 12  1  0  0  0
 11 18  1  0  0  0
 24 27  1  0  0  0
  4 10  1  0  0  0
 51 52  1  0  0  0
 52 53  1  0  0  0
 53 54  1  0  0  0
 54 55  1  0  0  0
 55 56  1  0  0  0
 56 57  1  0  0  0
 57 58  1  0  0  0
 58 59  1  0  0  0
 59 60  1  0  0  0
 60 61  1  0  0  0
 61 62  1  0  0  0
 62 63  1  0  0  0
 63 64  1  0  0  0
 64 65  1  0  0  0
 31 32  1  0  0  0
 32 33  1  0  0  0
 33 34  1  0  0  0
 34 35  1  0  0  0
 35 36  1  0  0  0
  8 10  1  0  0  0
  9 17  1  0  0  0
 12 13  2  0  0  0
 12 17  1  0  0  0
 13 14  1  0  0  0
 14 15  2  0  0  0
 15 16  1  0  0  0
 16 17  2  0  0  0
M  END
> <minimizedAffinity>
-10.16694

> <CNNscore>
0.2407965809

> <CNNaffinity>
7.1072349548

> <CNN_VS>
1.7113978863

> <CNNaffinity_variance>
0.4274362624

$$$$
/media/chris/experiments/cd1a-new-docking/inputs/ligands/1xz0_ligand.pdb


 65 67  0  0  0  0  0  0  0  0999 V2000
  -37.3535   59.5543   63.5739 C   0  0  0  0  0  0  0  0  0  0  0  0
  -35.8896   59.5889   63.5639 N   0  0  0  0  0  0  0  0  0  0  0  0
  -35.3265   57.8443   64.9100 O   0  0  0  0  0  0  0  0  0  0  0  0
  -35.0141   58.7846   64.1914 C   0  0  0  0  0  0  0  0  0  0  0  0
  -35.4888   60.3042   63.0190 H   0  0  0  0  0  0  0  0  0  0  0  0
  -33.3160   60.4724   63.5221 N   0  0  0  0  0  0  0  0  0  0  0  0
  -31.9740   59.1717   62.2978 O   0  0  0  0  0  0  0  0  0  0  0  0
  -32.6005   58.2639   63.2031 C   0  0  0  0  0  0  0  0  0  0  0  0
  -32.4909   60.4906   62.5649 C   0  0  0  0  0  0  0  0  0  0  0  0
  -33.5352   59.1297   64.0929 C   0  0  0  0  0  0  0  0  0  0  0  0
  -29.9137   60.7994   61.2766 O   0  0  0  0  0  0  0  0  0  0  0  0
  -30.7929   61.8066   61.2104 C   0  0  0  0  0  0  0  0  0  0  0  0
  -30.4579   62.9736   60.5111 C   0  0  0  0  0  0  0  0  0  0  0  0
  -31.3596   64.0486   60.4349 C   0  0  0  0  0  0  0  0  0  0  0  0
  -32.6105   63.9648   61.0487 C   0  0  0  0  0  0  0  0  0  0  0  0
  -32.9519   62.8003   61.7421 C   0  0  0  0  0  0  0  0  0  0  0  0
  -32.0470   61.7248   61.8275 C   0  0  0  0  0  0  0  0  0  0  0  0
  -29.0802   60.8767   60.8557 H   0  0  0  0  0  0  0  0  0  0  0  0
  -38.9672   60.6928   64.9285 O   0  0  0  0  0  0  0  0  0  0  0  0
  -37.7935   60.4183   64.7404 C   0  0  0  0  0  0  0  0  0  0  0  0
  -36.7892   61.0022   65.6356 O   0  0  0  0  0  0  0  0  0  0  0  0
  -36.2795   62.3323   65.4239 C   0  0  0  0  0  0  0  0  0  0  0  0
  -36.4774   62.8680   64.0113 C   0  0  0  0  0  0  0  0  0  0  0  0
  -34.8101   62.3510   65.8173 C   0  0  0  0  0  0  0  0  0  0  0  0
  -33.2630   64.1983   65.3813 N   0  0  0  0  0  0  0  0  0  0  0  0
  -34.8987   64.3822   66.9324 O   0  0  0  0  0  0  0  0  0  0  0  0
  -34.2911   63.7375   66.1084 C   0  0  0  0  0  0  0  0  0  0  0  0
  -32.8440   63.5811   64.7388 H   0  0  0  0  0  0  0  0  0  0  0  0
  -31.0791   65.6302   63.6391 N   0  0  0  0  0  0  0  0  0  0  0  0
  -32.7856   67.0969   63.6873 O   0  0  0  0  0  0  0  0  0  0  0  0
  -30.4572   64.3491   64.0049 C   0  0  0  0  0  0  0  0  0  0  0  0
  -29.8577   64.4193   65.4221 C   0  0  0  0  0  0  0  0  0  0  0  0
  -30.1805   65.6835   66.2013 C   0  0  0  0  0  0  0  0  0  0  0  0
  -31.6625   65.7990   66.5674 C   0  0  0  0  0  0  0  0  0  0  0  0
  -32.7182   65.5575   65.4757 C   0  0  0  0  0  0  0  0  0  0  0  0
  -32.1955   66.1448   64.1792 C   0  0  0  0  0  0  0  0  0  0  0  0
  -31.0237   68.0148   62.2847 Si  0  0  0  0  0  0  0  0  0  0  0  0
  -30.4734   66.3552   62.6576 O   0  0  0  0  0  0  0  0  0  0  0  0
  -30.2358   68.5491   61.2310 H   0  0  0  0  0  0  0  0  0  0  0  0
  -30.8855   68.8299   63.4392 H   0  0  0  0  0  0  0  0  0  0  0  0
  -32.3866   67.9835   61.8876 H   0  0  0  0  0  0  0  0  0  0  0  0
  -38.5340   57.6702   62.1773 C   0  0  0  0  0  0  0  0  0  0  0  0
  -38.0338   58.1643   63.5403 C   0  0  0  0  0  0  0  0  0  0  0  0
  -39.5711   56.5343   62.1879 C   0  0  0  0  0  0  0  0  0  0  0  0
  -40.9424   56.8168   61.5404 C   0  0  0  0  0  0  0  0  0  0  0  0
  -41.9323   56.9752   62.6105 N   0  0  0  0  0  0  0  0  0  0  0  0
  -42.6868   58.0613   62.9246 C   0  0  0  0  0  0  0  0  0  0  0  0
  -42.1024   55.8304   63.4016 O   0  0  0  0  0  0  0  0  0  0  0  0
  -42.6077   59.1021   62.2723 O   0  0  0  0  0  0  0  0  0  0  0  0
  -42.7678   56.0058   64.0853 H   0  0  0  0  0  0  0  0  0  0  0  0
  -43.6447   57.9792   64.1177 C   0  0  0  0  0  0  0  0  0  0  0  0
  -44.4986   59.2359   64.3349 C   0  0  0  0  0  0  0  0  0  0  0  0
  -45.8337   58.8584   65.0053 C   0  0  0  0  0  0  0  0  0  0  0  0
  -47.0704   59.2332   64.1669 C   0  0  0  0  0  0  0  0  0  0  0  0
  -48.3800   58.5609   64.6196 C   0  0  0  0  0  0  0  0  0  0  0  0
  -49.2779   59.4975   65.4549 C   0  0  0  0  0  0  0  0  0  0  0  0
  -50.1530   60.4609   64.6195 C   0  0  0  0  0  0  0  0  0  0  0  0
  -51.4034   59.7956   64.0330 C   0  0  0  0  0  0  0  0  0  0  0  0
  -51.3220   59.4448   62.5440 C   0  0  0  0  0  0  0  0  0  0  0  0
  -50.2531   60.2889   61.8262 C   0  0  0  0  0  0  0  0  0  0  0  0
  -49.5736   59.5664   60.6531 C   0  0  0  0  0  0  0  0  0  0  0  0
  -48.8156   58.2838   61.0107 C   0  0  0  0  0  0  0  0  0  0  0  0
  -48.8774   57.1837   59.9218 C   0  0  0  0  0  0  0  0  0  0  0  0
  -49.0376   57.7911   58.5134 C   0  0  0  0  0  0  0  0  0  0  0  0
  -47.7533   58.1184   57.7422 C   0  0  0  0  0  0  0  0  0  0  0  0
 46 47  1  0  0  0
 46 48  1  0  0  0
 46 45  1  0  0  0
 47 49  2  0  0  0
 47 51  1  0  0  0
 19 20  2  0  0  0
 37 38  1  0  0  0
 37 39  1  0  0  0
 37 40  1  0  0  0
 37 41  1  0  0  0
 48 50  1  0  0  0
 38 29  1  0  0  0
 45 44  1  0  0  0
 25 27  1  0  0  0
 25 35  1  0  0  0
 25 28  1  0  0  0
 21 20  1  0  0  0
 21 22  1  0  0  0
 44 42  1  0  0  0
  2  1  1  0  0  0
  2  4  1  0  0  0
  2  5  1  0  0  0
 26 27  2  0  0  0
 42 43  2  0  0  0
 29 31  1  0  0  0
 29 36  1  0  0  0
  3  4  2  0  0  0
 43  1  1  0  0  0
  6  9  2  0  0  0
  6 10  1  0  0  0
  1 20  1  0  0  0
 30 36  2  0  0  0
  7  8  1  0  0  0
  7  9  1  0  0  0
 22 24  1  0  0  0
 22 23  1  0  0  0
 11 12  1  0  0  0
 11 18  1  0  0  0
 24 27  1  0  0  0
  4 10  1  0  0  0
 51 52  1  0  0  0
 52 53  1  0  0  0
 53 54  1  0  0  0
 54 55  1  0  0  0
 55 56  1  0  0  0
 56 57  1  0  0  0
 57 58  1  0  0  0
 58 59  1  0  0  0
 59 60  1  0  0  0
 60 61  1  0  0  0
 61 62  1  0  0  0
 62 63  1  0  0  0
 63 64  1  0  0  0
 64 65  1  0  0  0
 31 32  1  0  0  0
 32 33  1  0  0  0
 33 34  1  0  0  0
 34 35  1  0  0  0
 35 36  1  0  0  0
  8 10  1  0  0  0
  9 17  1  0  0  0
 12 13  2  0  0  0
 12 17  1  0  0  0
 13 14  1  0  0  0
 14 15  2  0  0  0
 15 16  1  0  0  0
 16 17  2  0  0  0
M  END
> <minimizedAffinity>
-9.12012

> <CNNscore>
0.2361351997

> <CNNaffinity>
6.7756438255

> <CNN_VS>
1.5999679565

> <CNNaffinity_variance>
0.2581712902

$$$$
/media/chris/experiments/cd1a-new-docking/inputs/ligands/1xz0_ligand.pdb


 65 67  0  0  0  0  0  0  0  0999 V2000
  -34.0084   61.0908   63.6368 C   0  0  0  0  0  0  0  0  0  0  0  0
  -32.5661   61.3058   63.5035 N   0  0  0  0  0  0  0  0  0  0  0  0
  -32.0389   60.1073   61.6438 O   0  0  0  0  0  0  0  0  0  0  0  0
  -31.7165   60.8330   62.5751 C   0  0  0  0  0  0  0  0  0  0  0  0
  -32.1601   61.8791   64.1932 H   0  0  0  0  0  0  0  0  0  0  0  0
  -29.9462   62.5741   62.6992 N   0  0  0  0  0  0  0  0  0  0  0  0
  -28.4830   61.7083   61.2496 O   0  0  0  0  0  0  0  0  0  0  0  0
  -29.2107   60.5752   61.7218 C   0  0  0  0  0  0  0  0  0  0  0  0
  -29.0199   62.8799   61.8955 C   0  0  0  0  0  0  0  0  0  0  0  0
  -30.2340   61.1280   62.7525 C   0  0  0  0  0  0  0  0  0  0  0  0
  -28.2884   64.7202   64.0109 O   0  0  0  0  0  0  0  0  0  0  0  0
  -28.1385   65.1076   62.7384 C   0  0  0  0  0  0  0  0  0  0  0  0
  -27.6197   66.3784   62.4577 C   0  0  0  0  0  0  0  0  0  0  0  0
  -27.4615   66.8120   61.1305 C   0  0  0  0  0  0  0  0  0  0  0  0
  -27.8109   65.9757   60.0688 C   0  0  0  0  0  0  0  0  0  0  0  0
  -28.3229   64.7046   60.3436 C   0  0  0  0  0  0  0  0  0  0  0  0
  -28.4907   64.2706   61.6726 C   0  0  0  0  0  0  0  0  0  0  0  0
  -28.0457   65.2974   64.7080 H   0  0  0  0  0  0  0  0  0  0  0  0
  -35.6093   62.0877   65.1128 O   0  0  0  0  0  0  0  0  0  0  0  0
  -34.5157   62.1669   64.5777 C   0  0  0  0  0  0  0  0  0  0  0  0
  -33.7126   63.3722   64.8088 O   0  0  0  0  0  0  0  0  0  0  0  0
  -33.0667   63.6111   66.0736 C   0  0  0  0  0  0  0  0  0  0  0  0
  -33.7371   64.6738   66.9354 C   0  0  0  0  0  0  0  0  0  0  0  0
  -31.6091   63.9576   65.8096 C   0  0  0  0  0  0  0  0  0  0  0  0
  -32.2031   65.3443   63.8809 N   0  0  0  0  0  0  0  0  0  0  0  0
  -30.6678   66.0350   65.3912 O   0  0  0  0  0  0  0  0  0  0  0  0
  -31.4368   65.2005   64.9718 C   0  0  0  0  0  0  0  0  0  0  0  0
  -32.7929   64.5956   63.6341 H   0  0  0  0  0  0  0  0  0  0  0  0
  -34.3102   66.2717   61.7467 N   0  0  0  0  0  0  0  0  0  0  0  0
  -34.0031   68.0911   63.0356 O   0  0  0  0  0  0  0  0  0  0  0  0
  -34.0313   64.8740   61.3856 C   0  0  0  0  0  0  0  0  0  0  0  0
  -32.7357   64.7728   60.5588 C   0  0  0  0  0  0  0  0  0  0  0  0
  -31.9355   66.0600   60.4463 C   0  0  0  0  0  0  0  0  0  0  0  0
  -31.3290   66.5061   61.7793 C   0  0  0  0  0  0  0  0  0  0  0  0
  -32.2246   66.5388   63.0289 C   0  0  0  0  0  0  0  0  0  0  0  0
  -33.6002   67.0179   62.6080 C   0  0  0  0  0  0  0  0  0  0  0  0
  -36.9768   66.8674   61.9885 Si  0  0  0  0  0  0  0  0  0  0  0  0
  -35.3916   66.8589   61.1620 O   0  0  0  0  0  0  0  0  0  0  0  0
  -37.9306   67.5356   61.1759 H   0  0  0  0  0  0  0  0  0  0  0  0
  -36.8586   67.5426   63.2321 H   0  0  0  0  0  0  0  0  0  0  0  0
  -37.4003   65.5309   62.2138 H   0  0  0  0  0  0  0  0  0  0  0  0
  -35.5832   59.0513   63.1325 C   0  0  0  0  0  0  0  0  0  0  0  0
  -34.4853   59.6660   64.0092 C   0  0  0  0  0  0  0  0  0  0  0  0
  -36.3603   57.8629   63.7236 C   0  0  0  0  0  0  0  0  0  0  0  0
  -37.0241   58.0615   65.1018 C   0  0  0  0  0  0  0  0  0  0  0  0
  -38.4165   58.4679   64.8872 N   0  0  0  0  0  0  0  0  0  0  0  0
  -39.0876   59.5305   65.4051 C   0  0  0  0  0  0  0  0  0  0  0  0
  -39.1282   57.6243   64.0227 O   0  0  0  0  0  0  0  0  0  0  0  0
  -38.5328   60.3269   66.1619 O   0  0  0  0  0  0  0  0  0  0  0  0
  -40.0364   57.9511   63.9270 H   0  0  0  0  0  0  0  0  0  0  0  0
  -40.5623   59.7269   65.0381 C   0  0  0  0  0  0  0  0  0  0  0  0
  -41.4802   58.5690   65.4529 C   0  0  0  0  0  0  0  0  0  0  0  0
  -42.6204   59.0926   66.3473 C   0  0  0  0  0  0  0  0  0  0  0  0
  -44.0012   59.0611   65.6651 C   0  0  0  0  0  0  0  0  0  0  0  0
  -45.0007   58.0671   66.2854 C   0  0  0  0  0  0  0  0  0  0  0  0
  -46.2209   58.7628   66.9242 C   0  0  0  0  0  0  0  0  0  0  0  0
  -46.9359   59.7783   66.0027 C   0  0  0  0  0  0  0  0  0  0  0  0
  -48.2635   60.2903   66.5733 C   0  0  0  0  0  0  0  0  0  0  0  0
  -49.5236   59.7207   65.9141 C   0  0  0  0  0  0  0  0  0  0  0  0
  -49.1707   58.6912   64.8251 C   0  0  0  0  0  0  0  0  0  0  0  0
  -50.3879   57.9509   64.2504 C   0  0  0  0  0  0  0  0  0  0  0  0
  -50.8112   58.3634   62.8368 C   0  0  0  0  0  0  0  0  0  0  0  0
  -50.2609   59.7387   62.3838 C   0  0  0  0  0  0  0  0  0  0  0  0
  -51.1887   60.8904   62.8208 C   0  0  0  0  0  0  0  0  0  0  0  0
  -52.6400   60.5296   63.1600 C   0  0  0  0  0  0  0  0  0  0  0  0
 46 47  1  0  0  0
 46 48  1  0  0  0
 46 45  1  0  0  0
 47 49  2  0  0  0
 47 51  1  0  0  0
 19 20  2  0  0  0
 37 38  1  0  0  0
 37 39  1  0  0  0
 37 40  1  0  0  0
 37 41  1  0  0  0
 48 50  1  0  0  0
 38 29  1  0  0  0
 45 44  1  0  0  0
 25 27  1  0  0  0
 25 35  1  0  0  0
 25 28  1  0  0  0
 21 20  1  0  0  0
 21 22  1  0  0  0
 44 42  1  0  0  0
  2  1  1  0  0  0
  2  4  1  0  0  0
  2  5  1  0  0  0
 26 27  2  0  0  0
 42 43  2  0  0  0
 29 31  1  0  0  0
 29 36  1  0  0  0
  3  4  2  0  0  0
 43  1  1  0  0  0
  6  9  2  0  0  0
  6 10  1  0  0  0
  1 20  1  0  0  0
 30 36  2  0  0  0
  7  8  1  0  0  0
  7  9  1  0  0  0
 22 24  1  0  0  0
 22 23  1  0  0  0
 11 12  1  0  0  0
 11 18  1  0  0  0
 24 27  1  0  0  0
  4 10  1  0  0  0
 51 52  1  0  0  0
 52 53  1  0  0  0
 53 54  1  0  0  0
 54 55  1  0  0  0
 55 56  1  0  0  0
 56 57  1  0  0  0
 57 58  1  0  0  0
 58 59  1  0  0  0
 59 60  1  0  0  0
 60 61  1  0  0  0
 61 62  1  0  0  0
 62 63  1  0  0  0
 63 64  1  0  0  0
 64 65  1  0  0  0
 31 32  1  0  0  0
 32 33  1  0  0  0
 33 34  1  0  0  0
 34 35  1  0  0  0
 35 36  1  0  0  0
  8 10  1  0  0  0
  9 17  1  0  0  0
 12 13  2  0  0  0
 12 17  1  0  0  0
 13 14  1  0  0  0
 14 15  2  0  0  0
 15 16  1  0  0  0
 16 17  2  0  0  0
M  END
> <minimizedAffinity>
-8.77250

> <CNNscore>
0.2282251865

> <CNNaffinity>
6.6385283470

> <CNN_VS>
1.5150793791

> <CNNaffinity_variance>
0.1815744638

$$$$
/media/chris/experiments/cd1a-new-docking/inputs/ligands/1xz0_ligand.pdb


 65 67  0  0  0  0  0  0  0  0999 V2000
  -39.8197   58.6063   63.6776 C   0  0  0  0  0  0  0  0  0  0  0  0
  -38.4989   58.7141   64.3005 N   0  0  0  0  0  0  0  0  0  0  0  0
  -37.2541   57.2170   63.1250 O   0  0  0  0  0  0  0  0  0  0  0  0
  -37.3632   58.0565   64.0089 C   0  0  0  0  0  0  0  0  0  0  0  0
  -38.4331   59.3615   65.0393 H   0  0  0  0  0  0  0  0  0  0  0  0
  -36.1858   59.6203   65.5415 N   0  0  0  0  0  0  0  0  0  0  0  0
  -34.1357   59.5189   64.6592 O   0  0  0  0  0  0  0  0  0  0  0  0
  -34.7281   58.2722   64.2969 C   0  0  0  0  0  0  0  0  0  0  0  0
  -35.1130   60.2739   65.4027 C   0  0  0  0  0  0  0  0  0  0  0  0
  -36.1570   58.2884   64.9075 C   0  0  0  0  0  0  0  0  0  0  0  0
  -37.1119   62.3508   65.6995 O   0  0  0  0  0  0  0  0  0  0  0  0
  -35.8625   62.5938   66.1140 C   0  0  0  0  0  0  0  0  0  0  0  0
  -35.5533   63.8316   66.6933 C   0  0  0  0  0  0  0  0  0  0  0  0
  -34.2474   64.1145   67.1278 C   0  0  0  0  0  0  0  0  0  0  0  0
  -33.2379   63.1592   66.9971 C   0  0  0  0  0  0  0  0  0  0  0  0
  -33.5428   61.9207   66.4257 C   0  0  0  0  0  0  0  0  0  0  0  0
  -34.8486   61.6374   65.9814 C   0  0  0  0  0  0  0  0  0  0  0  0
  -37.7741   63.0061   65.7986 H   0  0  0  0  0  0  0  0  0  0  0  0
  -41.0795   60.1247   62.3201 O   0  0  0  0  0  0  0  0  0  0  0  0
  -40.0753   59.9316   62.9854 C   0  0  0  0  0  0  0  0  0  0  0  0
  -39.0681   60.9957   63.0516 O   0  0  0  0  0  0  0  0  0  0  0  0
  -38.1080   61.1855   61.9952 C   0  0  0  0  0  0  0  0  0  0  0  0
  -38.1345   60.1104   60.9158 C   0  0  0  0  0  0  0  0  0  0  0  0
  -36.7255   61.3031   62.6191 C   0  0  0  0  0  0  0  0  0  0  0  0
  -34.8136   62.8223   62.7988 N   0  0  0  0  0  0  0  0  0  0  0  0
  -36.6468   63.3840   61.5992 O   0  0  0  0  0  0  0  0  0  0  0  0
  -36.0513   62.6202   62.3242 C   0  0  0  0  0  0  0  0  0  0  0  0
  -34.4285   62.1293   63.3826 H   0  0  0  0  0  0  0  0  0  0  0  0
  -32.0606   63.0593   61.3089 N   0  0  0  0  0  0  0  0  0  0  0  0
  -33.3497   64.6186   60.3229 O   0  0  0  0  0  0  0  0  0  0  0  0
  -31.8404   61.9891   62.2928 C   0  0  0  0  0  0  0  0  0  0  0  0
  -31.5254   62.5803   63.6798 C   0  0  0  0  0  0  0  0  0  0  0  0
  -31.6849   64.0873   63.7942 C   0  0  0  0  0  0  0  0  0  0  0  0
  -33.1398   64.5466   63.6683 C   0  0  0  0  0  0  0  0  0  0  0  0
  -33.9924   64.0035   62.5095 C   0  0  0  0  0  0  0  0  0  0  0  0
  -33.1067   63.9006   61.2832 C   0  0  0  0  0  0  0  0  0  0  0  0
  -30.6462   61.8090   59.3189 Si  0  0  0  0  0  0  0  0  0  0  0  0
  -31.1239   63.2036   60.3303 O   0  0  0  0  0  0  0  0  0  0  0  0
  -29.6621   62.2195   58.3810 H   0  0  0  0  0  0  0  0  0  0  0  0
  -31.7832   61.3151   58.6263 H   0  0  0  0  0  0  0  0  0  0  0  0
  -30.1138   60.7848   60.1459 H   0  0  0  0  0  0  0  0  0  0  0  0
  -41.5314   56.7228   64.3227 C   0  0  0  0  0  0  0  0  0  0  0  0
  -40.9932   58.1371   64.5715 C   0  0  0  0  0  0  0  0  0  0  0  0
  -42.9327   56.4060   64.8721 C   0  0  0  0  0  0  0  0  0  0  0  0
  -43.4012   57.1851   66.1183 C   0  0  0  0  0  0  0  0  0  0  0  0
  -44.7824   57.6236   65.8941 N   0  0  0  0  0  0  0  0  0  0  0  0
  -45.2348   58.7305   65.2479 C   0  0  0  0  0  0  0  0  0  0  0  0
  -45.7473   56.7604   66.4318 O   0  0  0  0  0  0  0  0  0  0  0  0
  -44.4543   59.5329   64.7360 O   0  0  0  0  0  0  0  0  0  0  0  0
  -46.6330   57.1103   66.2472 H   0  0  0  0  0  0  0  0  0  0  0  0
  -46.7449   58.9769   65.1667 C   0  0  0  0  0  0  0  0  0  0  0  0
  -47.1873   59.8230   63.9650 C   0  0  0  0  0  0  0  0  0  0  0  0
  -48.5295   60.5151   64.2712 C   0  0  0  0  0  0  0  0  0  0  0  0
  -49.2652   59.9198   65.4868 C   0  0  0  0  0  0  0  0  0  0  0  0
  -50.7711   59.6802   65.2708 C   0  0  0  0  0  0  0  0  0  0  0  0
  -51.4173   60.7253   64.3374 C   0  0  0  0  0  0  0  0  0  0  0  0
  -52.1540   60.1269   63.1164 C   0  0  0  0  0  0  0  0  0  0  0  0
  -51.5512   58.8045   62.6283 C   0  0  0  0  0  0  0  0  0  0  0  0
  -50.4252   58.9379   61.5982 C   0  0  0  0  0  0  0  0  0  0  0  0
  -49.5272   57.6874   61.5834 C   0  0  0  0  0  0  0  0  0  0  0  0
  -48.5068   57.6672   60.4352 C   0  0  0  0  0  0  0  0  0  0  0  0
  -48.9045   58.4471   59.1777 C   0  0  0  0  0  0  0  0  0  0  0  0
  -47.9133   58.2979   57.9967 C   0  0  0  0  0  0  0  0  0  0  0  0
  -48.3743   57.2097   57.0060 C   0  0  0  0  0  0  0  0  0  0  0  0
  -47.4015   56.0568   56.7305 C   0  0  0  0  0  0  0  0  0  0  0  0
 46 47  1  0  0  0
 46 48  1  0  0  0
 46 45  1  0  0  0
 47 49  2  0  0  0
 47 51  1  0  0  0
 19 20  2  0  0  0
 37 38  1  0  0  0
 37 39  1  0  0  0
 37 40  1  0  0  0
 37 41  1  0  0  0
 48 50  1  0  0  0
 38 29  1  0  0  0
 45 44  1  0  0  0
 25 27  1  0  0  0
 25 35  1  0  0  0
 25 28  1  0  0  0
 21 20  1  0  0  0
 21 22  1  0  0  0
 44 42  1  0  0  0
  2  1  1  0  0  0
  2  4  1  0  0  0
  2  5  1  0  0  0
 26 27  2  0  0  0
 42 43  2  0  0  0
 29 31  1  0  0  0
 29 36  1  0  0  0
  3  4  2  0  0  0
 43  1  1  0  0  0
  6  9  2  0  0  0
  6 10  1  0  0  0
  1 20  1  0  0  0
 30 36  2  0  0  0
  7  8  1  0  0  0
  7  9  1  0  0  0
 22 24  1  0  0  0
 22 23  1  0  0  0
 11 12  1  0  0  0
 11 18  1  0  0  0
 24 27  1  0  0  0
  4 10  1  0  0  0
 51 52  1  0  0  0
 52 53  1  0  0  0
 53 54  1  0  0  0
 54 55  1  0  0  0
 55 56  1  0  0  0
 56 57  1  0  0  0
 57 58  1  0  0  0
 58 59  1  0  0  0
 59 60  1  0  0  0
 60 61  1  0  0  0
 61 62  1  0  0  0
 62 63  1  0  0  0
 63 64  1  0  0  0
 64 65  1  0  0  0
 31 32  1  0  0  0
 32 33  1  0  0  0
 33 34  1  0  0  0
 34 35  1  0  0  0
 35 36  1  0  0  0
  8 10  1  0  0  0
  9 17  1  0  0  0
 12 13  2  0  0  0
 12 17  1  0  0  0
 13 14  1  0  0  0
 14 15  2  0  0  0
 15 16  1  0  0  0
 16 17  2  0  0  0
M  END
> <minimizedAffinity>
-9.53643

> <CNNscore>
0.2226382047

> <CNNaffinity>
7.1898832321

> <CNN_VS>
1.6007426977

> <CNNaffinity_variance>
0.1301583499

$$$$
/media/chris/experiments/cd1a-new-docking/inputs/ligands/1xz0_ligand.pdb


 65 67  0  0  0  0  0  0  0  0999 V2000
  -37.8385   59.5928   64.0529 C   0  0  0  0  0  0  0  0  0  0  0  0
  -36.9276   60.6185   64.5650 N   0  0  0  0  0  0  0  0  0  0  0  0
  -37.4430   60.7028   66.7787 O   0  0  0  0  0  0  0  0  0  0  0  0
  -36.7891   61.0863   65.8178 C   0  0  0  0  0  0  0  0  0  0  0  0
  -36.3304   61.0239   63.8955 H   0  0  0  0  0  0  0  0  0  0  0  0
  -35.9386   63.2658   64.9771 N   0  0  0  0  0  0  0  0  0  0  0  0
  -33.7433   62.8640   65.0823 O   0  0  0  0  0  0  0  0  0  0  0  0
  -34.3001   61.9907   66.0639 C   0  0  0  0  0  0  0  0  0  0  0  0
  -34.8280   63.5861   64.4658 C   0  0  0  0  0  0  0  0  0  0  0  0
  -35.8324   62.2487   66.0406 C   0  0  0  0  0  0  0  0  0  0  0  0
  -36.1581   63.5640   61.8915 O   0  0  0  0  0  0  0  0  0  0  0  0
  -35.3209   64.5689   62.1765 C   0  0  0  0  0  0  0  0  0  0  0  0
  -35.1192   65.5897   61.2382 C   0  0  0  0  0  0  0  0  0  0  0  0
  -34.2385   66.6504   61.5096 C   0  0  0  0  0  0  0  0  0  0  0  0
  -33.5571   66.7075   62.7266 C   0  0  0  0  0  0  0  0  0  0  0  0
  -33.7597   65.6949   63.6684 C   0  0  0  0  0  0  0  0  0  0  0  0
  -34.6350   64.6261   63.3957 C   0  0  0  0  0  0  0  0  0  0  0  0
  -36.6063   63.5467   61.0688 H   0  0  0  0  0  0  0  0  0  0  0  0
  -37.7379   58.1863   62.1173 O   0  0  0  0  0  0  0  0  0  0  0  0
  -37.1729   59.0056   62.8229 C   0  0  0  0  0  0  0  0  0  0  0  0
  -35.7904   59.3706   62.4969 O   0  0  0  0  0  0  0  0  0  0  0  0
  -34.6750   58.6281   63.0247 C   0  0  0  0  0  0  0  0  0  0  0  0
  -35.0337   57.6581   64.1437 C   0  0  0  0  0  0  0  0  0  0  0  0
  -33.6108   59.6172   63.4757 C   0  0  0  0  0  0  0  0  0  0  0  0
  -32.4814   61.4702   62.3412 N   0  0  0  0  0  0  0  0  0  0  0  0
  -32.3837   59.3633   61.5246 O   0  0  0  0  0  0  0  0  0  0  0  0
  -32.7882   60.1648   62.3356 C   0  0  0  0  0  0  0  0  0  0  0  0
  -32.8707   62.0286   63.0525 H   0  0  0  0  0  0  0  0  0  0  0  0
  -29.4077   62.0950   62.4705 N   0  0  0  0  0  0  0  0  0  0  0  0
  -29.6773   61.0972   60.4711 O   0  0  0  0  0  0  0  0  0  0  0  0
  -29.9280   62.6086   63.7461 C   0  0  0  0  0  0  0  0  0  0  0  0
  -30.5487   64.0058   63.5586 C   0  0  0  0  0  0  0  0  0  0  0  0
  -30.6657   64.4757   62.1181 C   0  0  0  0  0  0  0  0  0  0  0  0
  -31.6724   63.6603   61.3023 C   0  0  0  0  0  0  0  0  0  0  0  0
  -31.6066   62.1251   61.3619 C   0  0  0  0  0  0  0  0  0  0  0  0
  -30.1466   61.7195   61.4141 C   0  0  0  0  0  0  0  0  0  0  0  0
  -27.3386   60.9100   61.1147 Si  0  0  0  0  0  0  0  0  0  0  0  0
  -28.0552   61.9809   62.3538 O   0  0  0  0  0  0  0  0  0  0  0  0
  -25.9223   60.9687   61.2000 H   0  0  0  0  0  0  0  0  0  0  0  0
  -27.7530   61.3350   59.8247 H   0  0  0  0  0  0  0  0  0  0  0  0
  -27.7711   59.5755   61.3350 H   0  0  0  0  0  0  0  0  0  0  0  0
  -40.3224   59.5863   64.9039 C   0  0  0  0  0  0  0  0  0  0  0  0
  -39.3144   60.0001   63.8247 C   0  0  0  0  0  0  0  0  0  0  0  0
  -41.8078   59.5881   64.5044 C   0  0  0  0  0  0  0  0  0  0  0  0
  -42.7225   58.5340   65.1615 C   0  0  0  0  0  0  0  0  0  0  0  0
  -44.0569   58.6466   64.5639 N   0  0  0  0  0  0  0  0  0  0  0  0
  -45.2241   59.0337   65.1430 C   0  0  0  0  0  0  0  0  0  0  0  0
  -44.1027   58.3013   63.2060 O   0  0  0  0  0  0  0  0  0  0  0  0
  -45.2684   59.3655   66.3274 O   0  0  0  0  0  0  0  0  0  0  0  0
  -45.0104   58.3985   62.8780 H   0  0  0  0  0  0  0  0  0  0  0  0
  -46.5024   59.0473   64.2983 C   0  0  0  0  0  0  0  0  0  0  0  0
  -47.0721   60.4470   64.0299 C   0  0  0  0  0  0  0  0  0  0  0  0
  -48.4824   60.5693   64.6383 C   0  0  0  0  0  0  0  0  0  0  0  0
  -48.9930   59.2629   65.2752 C   0  0  0  0  0  0  0  0  0  0  0  0
  -50.5231   59.0906   65.2466 C   0  0  0  0  0  0  0  0  0  0  0  0
  -51.2510   60.2955   64.6144 C   0  0  0  0  0  0  0  0  0  0  0  0
  -52.0244   59.9687   63.3156 C   0  0  0  0  0  0  0  0  0  0  0  0
  -51.3222   58.9309   62.4323 C   0  0  0  0  0  0  0  0  0  0  0  0
  -50.2422   59.4874   61.4992 C   0  0  0  0  0  0  0  0  0  0  0  0
  -48.9824   58.6024   61.5083 C   0  0  0  0  0  0  0  0  0  0  0  0
  -49.0403   57.4268   60.5212 C   0  0  0  0  0  0  0  0  0  0  0  0
  -48.6011   57.7397   59.0870 C   0  0  0  0  0  0  0  0  0  0  0  0
  -47.9995   56.5307   58.3279 C   0  0  0  0  0  0  0  0  0  0  0  0
  -47.0525   56.9864   57.1993 C   0  0  0  0  0  0  0  0  0  0  0  0
  -47.2072   58.4261   56.6946 C   0  0  0  0  0  0  0  0  0  0  0  0
 46 47  1  0  0  0
 46 48  1  0  0  0
 46 45  1  0  0  0
 47 49  2  0  0  0
 47 51  1  0  0  0
 19 20  2  0  0  0
 37 38  1  0  0  0
 37 39  1  0  0  0
 37 40  1  0  0  0
 37 41  1  0  0  0
 48 50  1  0  0  0
 38 29  1  0  0  0
 45 44  1  0  0  0
 25 27  1  0  0  0
 25 35  1  0  0  0
 25 28  1  0  0  0
 21 20  1  0  0  0
 21 22  1  0  0  0
 44 42  1  0  0  0
  2  1  1  0  0  0
  2  4  1  0  0  0
  2  5  1  0  0  0
 26 27  2  0  0  0
 42 43  2  0  0  0
 29 31  1  0  0  0
 29 36  1  0  0  0
  3  4  2  0  0  0
 43  1  1  0  0  0
  6  9  2  0  0  0
  6 10  1  0  0  0
  1 20  1  0  0  0
 30 36  2  0  0  0
  7  8  1  0  0  0
  7  9  1  0  0  0
 22 24  1  0  0  0
 22 23  1  0  0  0
 11 12  1  0  0  0
 11 18  1  0  0  0
 24 27  1  0  0  0
  4 10  1  0  0  0
 51 52  1  0  0  0
 52 53  1  0  0  0
 53 54  1  0  0  0
 54 55  1  0  0  0
 55 56  1  0  0  0
 56 57  1  0  0  0
 57 58  1  0  0  0
 58 59  1  0  0  0
 59 60  1  0  0  0
 60 61  1  0  0  0
 61 62  1  0  0  0
 62 63  1  0  0  0
 63 64  1  0  0  0
 64 65  1  0  0  0
 31 32  1  0  0  0
 32 33  1  0  0  0
 33 34  1  0  0  0
 34 35  1  0  0  0
 35 36  1  0  0  0
  8 10  1  0  0  0
  9 17  1  0  0  0
 12 13  2  0  0  0
 12 17  1  0  0  0
 13 14  1  0  0  0
 14 15  2  0  0  0
 15 16  1  0  0  0
 16 17  2  0  0  0
M  END
> <minimizedAffinity>
-9.52588

> <CNNscore>
0.2223763019

> <CNNaffinity>
6.5465798378

> <CNN_VS>
1.4558042288

> <CNNaffinity_variance>
0.2738901675

$$$$
/media/chris/experiments/cd1a-new-docking/inputs/ligands/1xz0_ligand.pdb


 65 67  0  0  0  0  0  0  0  0999 V2000
  -42.5318   59.6827   63.4644 C   0  0  0  0  0  0  0  0  0  0  0  0
  -41.4243   59.6702   64.4222 N   0  0  0  0  0  0  0  0  0  0  0  0
  -39.8003   60.8414   63.3434 O   0  0  0  0  0  0  0  0  0  0  0  0
  -40.1997   60.2146   64.3159 C   0  0  0  0  0  0  0  0  0  0  0  0
  -41.6021   59.1946   65.2657 H   0  0  0  0  0  0  0  0  0  0  0  0
  -38.1753   60.9978   65.5278 N   0  0  0  0  0  0  0  0  0  0  0  0
  -36.9702   59.1171   65.4752 O   0  0  0  0  0  0  0  0  0  0  0  0
  -38.3199   58.6635   65.3806 C   0  0  0  0  0  0  0  0  0  0  0  0
  -36.9909   60.5568   65.5445 C   0  0  0  0  0  0  0  0  0  0  0  0
  -39.2015   59.9422   65.4319 C   0  0  0  0  0  0  0  0  0  0  0  0
  -36.9865   63.3596   66.2801 O   0  0  0  0  0  0  0  0  0  0  0  0
  -35.8163   62.7498   66.0553 C   0  0  0  0  0  0  0  0  0  0  0  0
  -34.6222   63.4692   66.1953 C   0  0  0  0  0  0  0  0  0  0  0  0
  -33.3816   62.8545   65.9558 C   0  0  0  0  0  0  0  0  0  0  0  0
  -33.3205   61.5105   65.5835 C   0  0  0  0  0  0  0  0  0  0  0  0
  -34.5086   60.7869   65.4487 C   0  0  0  0  0  0  0  0  0  0  0  0
  -35.7538   61.4025   65.6795 C   0  0  0  0  0  0  0  0  0  0  0  0
  -37.0039   64.2623   66.5307 H   0  0  0  0  0  0  0  0  0  0  0  0
  -42.8504   57.3328   63.7985 O   0  0  0  0  0  0  0  0  0  0  0  0
  -43.3565   58.4417   63.7483 C   0  0  0  0  0  0  0  0  0  0  0  0
  -44.8109   58.5515   63.9021 O   0  0  0  0  0  0  0  0  0  0  0  0
  -45.4096   58.8387   65.1800 C   0  0  0  0  0  0  0  0  0  0  0  0
  -45.8902   57.6108   65.9435 C   0  0  0  0  0  0  0  0  0  0  0  0
  -46.5430   59.8307   64.9664 C   0  0  0  0  0  0  0  0  0  0  0  0
  -48.2061   58.7525   63.5284 N   0  0  0  0  0  0  0  0  0  0  0  0
  -48.5491   58.9739   65.7530 O   0  0  0  0  0  0  0  0  0  0  0  0
  -47.8824   59.1666   64.7620 C   0  0  0  0  0  0  0  0  0  0  0  0
  -47.5848   58.9678   62.7957 H   0  0  0  0  0  0  0  0  0  0  0  0
  -49.9543   58.7869   60.9212 N   0  0  0  0  0  0  0  0  0  0  0  0
  -49.5857   56.5994   61.3012 O   0  0  0  0  0  0  0  0  0  0  0  0
  -49.8023   60.2084   61.2651 C   0  0  0  0  0  0  0  0  0  0  0  0
  -50.8123   60.6167   62.3540 C   0  0  0  0  0  0  0  0  0  0  0  0
  -51.6039   59.4731   62.9664 C   0  0  0  0  0  0  0  0  0  0  0  0
  -50.7371   58.5216   63.7953 C   0  0  0  0  0  0  0  0  0  0  0  0
  -49.4212   58.0011   63.1935 C   0  0  0  0  0  0  0  0  0  0  0  0
  -49.6483   57.7487   61.7158 C   0  0  0  0  0  0  0  0  0  0  0  0
  -50.0430   56.9443   58.8914 Si  0  0  0  0  0  0  0  0  0  0  0  0
  -50.4402   58.4978   59.6817 O   0  0  0  0  0  0  0  0  0  0  0  0
  -50.6672   56.8883   57.6171 H   0  0  0  0  0  0  0  0  0  0  0  0
  -50.5109   55.8711   59.6950 H   0  0  0  0  0  0  0  0  0  0  0  0
  -48.6357   56.8394   58.7341 H   0  0  0  0  0  0  0  0  0  0  0  0
  -41.6391   58.6322   61.2297 C   0  0  0  0  0  0  0  0  0  0  0  0
  -42.1781   59.8635   61.9682 C   0  0  0  0  0  0  0  0  0  0  0  0
  -40.8892   58.8860   59.9110 C   0  0  0  0  0  0  0  0  0  0  0  0
  -39.6411   58.0257   59.6253 C   0  0  0  0  0  0  0  0  0  0  0  0
  -38.5042   58.6126   60.3415 N   0  0  0  0  0  0  0  0  0  0  0  0
  -37.9206   58.2068   61.5001 C   0  0  0  0  0  0  0  0  0  0  0  0
  -37.9656   59.7480   59.7200 O   0  0  0  0  0  0  0  0  0  0  0  0
  -38.3241   57.2120   62.1022 O   0  0  0  0  0  0  0  0  0  0  0  0
  -37.2215   60.0818   60.2452 H   0  0  0  0  0  0  0  0  0  0  0  0
  -36.7443   59.0132   62.0603 C   0  0  0  0  0  0  0  0  0  0  0  0
  -35.6156   58.1607   62.6559 C   0  0  0  0  0  0  0  0  0  0  0  0
  -34.2525   58.8287   62.3909 C   0  0  0  0  0  0  0  0  0  0  0  0
  -33.0871   58.1726   63.1555 C   0  0  0  0  0  0  0  0  0  0  0  0
  -31.7947   59.0092   63.1957 C   0  0  0  0  0  0  0  0  0  0  0  0
  -31.6233   59.9091   61.9539 C   0  0  0  0  0  0  0  0  0  0  0  0
  -31.1716   61.3547   62.2663 C   0  0  0  0  0  0  0  0  0  0  0  0
  -32.2737   62.3983   62.0505 C   0  0  0  0  0  0  0  0  0  0  0  0
  -31.9782   63.4517   60.9782 C   0  0  0  0  0  0  0  0  0  0  0  0
  -32.0897   64.8780   61.5471 C   0  0  0  0  0  0  0  0  0  0  0  0
  -32.6906   64.9397   62.9596 C   0  0  0  0  0  0  0  0  0  0  0  0
  -34.1571   65.3761   63.0403 C   0  0  0  0  0  0  0  0  0  0  0  0
  -35.1730   64.2088   62.9697 C   0  0  0  0  0  0  0  0  0  0  0  0
  -36.2062   64.4261   61.8456 C   0  0  0  0  0  0  0  0  0  0  0  0
  -35.7862   65.3191   60.6720 C   0  0  0  0  0  0  0  0  0  0  0  0
 46 47  1  0  0  0
 46 48  1  0  0  0
 46 45  1  0  0  0
 47 49  2  0  0  0
 47 51  1  0  0  0
 19 20  2  0  0  0
 37 38  1  0  0  0
 37 39  1  0  0  0
 37 40  1  0  0  0
 37 41  1  0  0  0
 48 50  1  0  0  0
 38 29  1  0  0  0
 45 44  1  0  0  0
 25 27  1  0  0  0
 25 35  1  0  0  0
 25 28  1  0  0  0
 21 20  1  0  0  0
 21 22  1  0  0  0
 44 42  1  0  0  0
  2  1  1  0  0  0
  2  4  1  0  0  0
  2  5  1  0  0  0
 26 27  2  0  0  0
 42 43  2  0  0  0
 29 31  1  0  0  0
 29 36  1  0  0  0
  3  4  2  0  0  0
 43  1  1  0  0  0
  6  9  2  0  0  0
  6 10  1  0  0  0
  1 20  1  0  0  0
 30 36  2  0  0  0
  7  8  1  0  0  0
  7  9  1  0  0  0
 22 24  1  0  0  0
 22 23  1  0  0  0
 11 12  1  0  0  0
 11 18  1  0  0  0
 24 27  1  0  0  0
  4 10  1  0  0  0
 51 52  1  0  0  0
 52 53  1  0  0  0
 53 54  1  0  0  0
 54 55  1  0  0  0
 55 56  1  0  0  0
 56 57  1  0  0  0
 57 58  1  0  0  0
 58 59  1  0  0  0
 59 60  1  0  0  0
 60 61  1  0  0  0
 61 62  1  0  0  0
 62 63  1  0  0  0
 63 64  1  0  0  0
 64 65  1  0  0  0
 31 32  1  0  0  0
 32 33  1  0  0  0
 33 34  1  0  0  0
 34 35  1  0  0  0
 35 36  1  0  0  0
  8 10  1  0  0  0
  9 17  1  0  0  0
 12 13  2  0  0  0
 12 17  1  0  0  0
 13 14  1  0  0  0
 14 15  2  0  0  0
 15 16  1  0  0  0
 16 17  2  0  0  0
M  END
> <minimizedAffinity>
-9.36743

> <CNNscore>
0.2136731446

> <CNNaffinity>
7.4191007614

> <CNN_VS>
1.5852625370

> <CNNaffinity_variance>
1.2617418766

$$$$
