/media/chris/experiments/cd1a-new-docking/inputs/ligands/1xz0_ligand.pdb


 65 67  0  0  0  0  0  0  0  0999 V2000
  -40.1755   59.3224   64.8682 C   0  0  0  0  0  0  0  0  0  0  0  0
  -38.8548   59.6466   65.4112 N   0  0  0  0  0  0  0  0  0  0  0  0
  -38.1148   61.2836   64.0164 O   0  0  0  0  0  0  0  0  0  0  0  0
  -37.9561   60.5503   64.9835 C   0  0  0  0  0  0  0  0  0  0  0  0
  -38.5864   59.1281   66.2039 H   0  0  0  0  0  0  0  0  0  0  0  0
  -36.0899   61.9681   65.8126 N   0  0  0  0  0  0  0  0  0  0  0  0
  -34.3682   60.8661   64.9107 O   0  0  0  0  0  0  0  0  0  0  0  0
  -35.3849   59.8726   65.0359 C   0  0  0  0  0  0  0  0  0  0  0  0
  -34.9047   62.1122   65.3978 C   0  0  0  0  0  0  0  0  0  0  0  0
  -36.6032   60.5913   65.6792 C   0  0  0  0  0  0  0  0  0  0  0  0
  -33.5775   63.1280   67.7652 O   0  0  0  0  0  0  0  0  0  0  0  0
  -33.4841   63.8229   66.6249 C   0  0  0  0  0  0  0  0  0  0  0  0
  -32.7390   65.0090   66.5957 C   0  0  0  0  0  0  0  0  0  0  0  0
  -32.6335   65.7615   65.4138 C   0  0  0  0  0  0  0  0  0  0  0  0
  -33.2638   65.3311   64.2449 C   0  0  0  0  0  0  0  0  0  0  0  0
  -34.0030   64.1452   64.2673 C   0  0  0  0  0  0  0  0  0  0  0  0
  -34.1178   63.3935   65.4525 C   0  0  0  0  0  0  0  0  0  0  0  0
  -33.1448   63.4347   68.5375 H   0  0  0  0  0  0  0  0  0  0  0  0
  -41.3586   61.2874   65.5568 O   0  0  0  0  0  0  0  0  0  0  0  0
  -40.8790   60.6461   64.6364 C   0  0  0  0  0  0  0  0  0  0  0  0
  -41.0550   61.1496   63.2702 O   0  0  0  0  0  0  0  0  0  0  0  0
  -42.3610   61.4589   62.7480 C   0  0  0  0  0  0  0  0  0  0  0  0
  -43.4464   60.4585   63.1255 C   0  0  0  0  0  0  0  0  0  0  0  0
  -42.2509   61.6057   61.2378 C   0  0  0  0  0  0  0  0  0  0  0  0
  -41.4086   59.3072   61.3003 N   0  0  0  0  0  0  0  0  0  0  0  0
  -41.3875   60.5105   59.3853 O   0  0  0  0  0  0  0  0  0  0  0  0
  -41.6077   60.4149   60.5710 C   0  0  0  0  0  0  0  0  0  0  0  0
  -41.6241   59.3465   62.2601 H   0  0  0  0  0  0  0  0  0  0  0  0
  -38.7276   57.7949   61.9169 N   0  0  0  0  0  0  0  0  0  0  0  0
  -40.3107   56.2112   62.1420 O   0  0  0  0  0  0  0  0  0  0  0  0
  -38.2998   59.1715   61.6269 C   0  0  0  0  0  0  0  0  0  0  0  0
  -38.2129   59.4064   60.1071 C   0  0  0  0  0  0  0  0  0  0  0  0
  -38.7465   58.2750   59.2441 C   0  0  0  0  0  0  0  0  0  0  0  0
  -40.2616   58.0919   59.3668 C   0  0  0  0  0  0  0  0  0  0  0  0
  -40.8922   58.0408   60.7685 C   0  0  0  0  0  0  0  0  0  0  0  0
  -39.9469   57.2845   61.6812 C   0  0  0  0  0  0  0  0  0  0  0  0
  -37.1591   57.3110   64.1145 Si  0  0  0  0  0  0  0  0  0  0  0  0
  -37.8070   56.9664   62.4844 O   0  0  0  0  0  0  0  0  0  0  0  0
  -36.2234   56.3054   64.4742 H   0  0  0  0  0  0  0  0  0  0  0  0
  -38.2238   57.3248   65.0539 H   0  0  0  0  0  0  0  0  0  0  0  0
  -36.5154   58.5768   64.1100 H   0  0  0  0  0  0  0  0  0  0  0  0
  -42.2146   57.6686   64.8928 C   0  0  0  0  0  0  0  0  0  0  0  0
  -41.0318   58.2922   65.6438 C   0  0  0  0  0  0  0  0  0  0  0  0
  -43.3064   57.0021   65.7471 C   0  0  0  0  0  0  0  0  0  0  0  0
  -44.7660   57.1345   65.2662 C   0  0  0  0  0  0  0  0  0  0  0  0
  -45.5691   57.6618   66.3738 N   0  0  0  0  0  0  0  0  0  0  0  0
  -46.2354   58.8433   66.4613 C   0  0  0  0  0  0  0  0  0  0  0  0
  -45.6416   56.8055   67.4814 O   0  0  0  0  0  0  0  0  0  0  0  0
  -46.8725   59.1421   67.4712 O   0  0  0  0  0  0  0  0  0  0  0  0
  -46.1854   57.2155   68.1722 H   0  0  0  0  0  0  0  0  0  0  0  0
  -46.1908   59.8099   65.2732 C   0  0  0  0  0  0  0  0  0  0  0  0
  -47.3586   59.6613   64.2885 C   0  0  0  0  0  0  0  0  0  0  0  0
  -48.5807   60.4515   64.7947 C   0  0  0  0  0  0  0  0  0  0  0  0
  -49.8468   59.5891   64.9565 C   0  0  0  0  0  0  0  0  0  0  0  0
  -49.8660   58.3106   64.0980 C   0  0  0  0  0  0  0  0  0  0  0  0
  -50.9531   58.3391   63.0033 C   0  0  0  0  0  0  0  0  0  0  0  0
  -50.8402   59.5252   62.0174 C   0  0  0  0  0  0  0  0  0  0  0  0
  -49.4609   59.6413   61.3582 C   0  0  0  0  0  0  0  0  0  0  0  0
  -49.4446   59.4643   59.8367 C   0  0  0  0  0  0  0  0  0  0  0  0
  -50.0436   58.1077   59.4231 C   0  0  0  0  0  0  0  0  0  0  0  0
  -49.2005   56.8977   59.8531 C   0  0  0  0  0  0  0  0  0  0  0  0
  -47.7660   56.8612   59.3159 C   0  0  0  0  0  0  0  0  0  0  0  0
  -47.6018   56.0710   57.9937 C   0  0  0  0  0  0  0  0  0  0  0  0
  -46.9784   56.9451   56.8866 C   0  0  0  0  0  0  0  0  0  0  0  0
  -47.3322   58.4371   56.8905 C   0  0  0  0  0  0  0  0  0  0  0  0
 46 47  1  0  0  0
 46 48  1  0  0  0
 46 45  1  0  0  0
 47 49  2  0  0  0
 47 51  1  0  0  0
 19 20  2  0  0  0
 37 38  1  0  0  0
 37 39  1  0  0  0
 37 40  1  0  0  0
 37 41  1  0  0  0
 48 50  1  0  0  0
 38 29  1  0  0  0
 45 44  1  0  0  0
 25 27  1  0  0  0
 25 35  1  0  0  0
 25 28  1  0  0  0
 21 20  1  0  0  0
 21 22  1  0  0  0
 44 42  1  0  0  0
  2  1  1  0  0  0
  2  4  1  0  0  0
  2  5  1  0  0  0
 26 27  2  0  0  0
 42 43  2  0  0  0
 29 31  1  0  0  0
 29 36  1  0  0  0
  3  4  2  0  0  0
 43  1  1  0  0  0
  6  9  2  0  0  0
  6 10  1  0  0  0
  1 20  1  0  0  0
 30 36  2  0  0  0
  7  8  1  0  0  0
  7  9  1  0  0  0
 22 24  1  0  0  0
 22 23  1  0  0  0
 11 12  1  0  0  0
 11 18  1  0  0  0
 24 27  1  0  0  0
  4 10  1  0  0  0
 51 52  1  0  0  0
 52 53  1  0  0  0
 53 54  1  0  0  0
 54 55  1  0  0  0
 55 56  1  0  0  0
 56 57  1  0  0  0
 57 58  1  0  0  0
 58 59  1  0  0  0
 59 60  1  0  0  0
 60 61  1  0  0  0
 61 62  1  0  0  0
 62 63  1  0  0  0
 63 64  1  0  0  0
 64 65  1  0  0  0
 31 32  1  0  0  0
 32 33  1  0  0  0
 33 34  1  0  0  0
 34 35  1  0  0  0
 35 36  1  0  0  0
  8 10  1  0  0  0
  9 17  1  0  0  0
 12 13  2  0  0  0
 12 17  1  0  0  0
 13 14  1  0  0  0
 14 15  2  0  0  0
 15 16  1  0  0  0
 16 17  2  0  0  0
M  END
> <minimizedAffinity>
-10.28861

> <CNNscore>
0.2638995051

> <CNNaffinity>
7.6932992935

> <CNN_VS>
2.0302579403

> <CNNaffinity_variance>
1.8684886694

$$$$
/media/chris/experiments/cd1a-new-docking/inputs/ligands/1xz0_ligand.pdb


 65 67  0  0  0  0  0  0  0  0999 V2000
  -43.1217   58.1212   63.9243 C   0  0  0  0  0  0  0  0  0  0  0  0
  -44.4273   58.1541   64.5865 N   0  0  0  0  0  0  0  0  0  0  0  0
  -43.9919   57.2416   66.6237 O   0  0  0  0  0  0  0  0  0  0  0  0
  -44.7682   57.7396   65.8191 C   0  0  0  0  0  0  0  0  0  0  0  0
  -45.1614   58.5345   64.0519 H   0  0  0  0  0  0  0  0  0  0  0  0
  -47.1021   58.1260   65.0554 N   0  0  0  0  0  0  0  0  0  0  0  0
  -47.7664   59.5645   66.6307 O   0  0  0  0  0  0  0  0  0  0  0  0
  -46.7236   58.8216   67.2609 C   0  0  0  0  0  0  0  0  0  0  0  0
  -47.9078   59.0730   65.2830 C   0  0  0  0  0  0  0  0  0  0  0  0
  -46.2396   57.7901   66.2043 C   0  0  0  0  0  0  0  0  0  0  0  0
  -50.5915   59.8986   65.9993 O   0  0  0  0  0  0  0  0  0  0  0  0
  -50.2071   59.9932   64.7206 C   0  0  0  0  0  0  0  0  0  0  0  0
  -51.0975   60.5008   63.7653 C   0  0  0  0  0  0  0  0  0  0  0  0
  -50.7214   60.6013   62.4153 C   0  0  0  0  0  0  0  0  0  0  0  0
  -49.4468   60.2047   62.0067 C   0  0  0  0  0  0  0  0  0  0  0  0
  -48.5526   59.7036   62.9569 C   0  0  0  0  0  0  0  0  0  0  0  0
  -48.9298   59.5935   64.3091 C   0  0  0  0  0  0  0  0  0  0  0  0
  -51.4514   60.1724   66.2514 H   0  0  0  0  0  0  0  0  0  0  0  0
  -42.7023   60.4789   63.9456 O   0  0  0  0  0  0  0  0  0  0  0  0
  -42.3892   59.3755   64.3613 C   0  0  0  0  0  0  0  0  0  0  0  0
  -41.2299   59.2701   65.2535 O   0  0  0  0  0  0  0  0  0  0  0  0
  -39.8879   59.2107   64.7346 C   0  0  0  0  0  0  0  0  0  0  0  0
  -39.3644   57.8002   64.4944 C   0  0  0  0  0  0  0  0  0  0  0  0
  -38.9753   59.9821   65.6762 C   0  0  0  0  0  0  0  0  0  0  0  0
  -36.5827   60.4543   65.4549 N   0  0  0  0  0  0  0  0  0  0  0  0
  -38.0765   61.2458   63.9523 O   0  0  0  0  0  0  0  0  0  0  0  0
  -37.8185   60.6456   64.9705 C   0  0  0  0  0  0  0  0  0  0  0  0
  -36.4938   59.9486   66.2948 H   0  0  0  0  0  0  0  0  0  0  0  0
  -34.3378   62.3384   66.5797 N   0  0  0  0  0  0  0  0  0  0  0  0
  -33.2056   60.5877   65.7320 O   0  0  0  0  0  0  0  0  0  0  0  0
  -35.5858   63.0574   66.8759 C   0  0  0  0  0  0  0  0  0  0  0  0
  -36.0802   63.8249   65.6353 C   0  0  0  0  0  0  0  0  0  0  0  0
  -35.3152   63.5457   64.3521 C   0  0  0  0  0  0  0  0  0  0  0  0
  -35.5106   62.1171   63.8374 C   0  0  0  0  0  0  0  0  0  0  0  0
  -35.3538   60.9455   64.8211 C   0  0  0  0  0  0  0  0  0  0  0  0
  -34.2163   61.2761   65.7674 C   0  0  0  0  0  0  0  0  0  0  0  0
  -33.2480   64.2394   68.2296 Si  0  0  0  0  0  0  0  0  0  0  0  0
  -33.2054   62.7844   67.1917 O   0  0  0  0  0  0  0  0  0  0  0  0
  -31.9490   64.4915   68.7447 H   0  0  0  0  0  0  0  0  0  0  0  0
  -34.1507   64.0274   69.3050 H   0  0  0  0  0  0  0  0  0  0  0  0
  -33.6781   65.3548   67.4634 H   0  0  0  0  0  0  0  0  0  0  0  0
  -41.7765   57.4417   61.7743 C   0  0  0  0  0  0  0  0  0  0  0  0
  -43.1046   57.8945   62.3931 C   0  0  0  0  0  0  0  0  0  0  0  0
  -41.6168   57.6314   60.2563 C   0  0  0  0  0  0  0  0  0  0  0  0
  -40.1818   57.6879   59.6933 C   0  0  0  0  0  0  0  0  0  0  0  0
  -39.6262   59.0135   59.9826 N   0  0  0  0  0  0  0  0  0  0  0  0
  -38.5220   59.3398   60.7050 C   0  0  0  0  0  0  0  0  0  0  0  0
  -40.3567   60.0709   59.4223 O   0  0  0  0  0  0  0  0  0  0  0  0
  -38.1837   60.5135   60.8566 O   0  0  0  0  0  0  0  0  0  0  0  0
  -39.9346   60.9133   59.6525 H   0  0  0  0  0  0  0  0  0  0  0  0
  -37.6875   58.2179   61.3319 C   0  0  0  0  0  0  0  0  0  0  0  0
  -36.4419   58.6990   62.0886 C   0  0  0  0  0  0  0  0  0  0  0  0
  -36.0131   57.6435   63.1260 C   0  0  0  0  0  0  0  0  0  0  0  0
  -34.4857   57.4801   63.2419 C   0  0  0  0  0  0  0  0  0  0  0  0
  -33.6683   58.6047   62.5793 C   0  0  0  0  0  0  0  0  0  0  0  0
  -32.1992   58.6364   63.0505 C   0  0  0  0  0  0  0  0  0  0  0  0
  -31.3686   59.8111   62.4832 C   0  0  0  0  0  0  0  0  0  0  0  0
  -32.1547   61.1239   62.3878 C   0  0  0  0  0  0  0  0  0  0  0  0
  -31.6201   62.2722   63.2493 C   0  0  0  0  0  0  0  0  0  0  0  0
  -31.9590   63.6414   62.6323 C   0  0  0  0  0  0  0  0  0  0  0  0
  -32.8210   63.5565   61.3636 C   0  0  0  0  0  0  0  0  0  0  0  0
  -33.1643   64.8948   60.7013 C   0  0  0  0  0  0  0  0  0  0  0  0
  -33.5369   66.0206   61.6979 C   0  0  0  0  0  0  0  0  0  0  0  0
  -35.0641   66.1289   61.8833 C   0  0  0  0  0  0  0  0  0  0  0  0
  -35.9434   65.2836   60.9540 C   0  0  0  0  0  0  0  0  0  0  0  0
 46 47  1  0  0  0
 46 48  1  0  0  0
 46 45  1  0  0  0
 47 49  2  0  0  0
 47 51  1  0  0  0
 19 20  2  0  0  0
 37 38  1  0  0  0
 37 39  1  0  0  0
 37 40  1  0  0  0
 37 41  1  0  0  0
 48 50  1  0  0  0
 38 29  1  0  0  0
 45 44  1  0  0  0
 25 27  1  0  0  0
 25 35  1  0  0  0
 25 28  1  0  0  0
 21 20  1  0  0  0
 21 22  1  0  0  0
 44 42  1  0  0  0
  2  1  1  0  0  0
  2  4  1  0  0  0
  2  5  1  0  0  0
 26 27  2  0  0  0
 42 43  2  0  0  0
 29 31  1  0  0  0
 29 36  1  0  0  0
  3  4  2  0  0  0
 43  1  1  0  0  0
  6  9  2  0  0  0
  6 10  1  0  0  0
  1 20  1  0  0  0
 30 36  2  0  0  0
  7  8  1  0  0  0
  7  9  1  0  0  0
 22 24  1  0  0  0
 22 23  1  0  0  0
 11 12  1  0  0  0
 11 18  1  0  0  0
 24 27  1  0  0  0
  4 10  1  0  0  0
 51 52  1  0  0  0
 52 53  1  0  0  0
 53 54  1  0  0  0
 54 55  1  0  0  0
 55 56  1  0  0  0
 56 57  1  0  0  0
 57 58  1  0  0  0
 58 59  1  0  0  0
 59 60  1  0  0  0
 60 61  1  0  0  0
 61 62  1  0  0  0
 62 63  1  0  0  0
 63 64  1  0  0  0
 64 65  1  0  0  0
 31 32  1  0  0  0
 32 33  1  0  0  0
 33 34  1  0  0  0
 34 35  1  0  0  0
 35 36  1  0  0  0
  8 10  1  0  0  0
  9 17  1  0  0  0
 12 13  2  0  0  0
 12 17  1  0  0  0
 13 14  1  0  0  0
 14 15  2  0  0  0
 15 16  1  0  0  0
 16 17  2  0  0  0
M  END
> <minimizedAffinity>
-9.33173

> <CNNscore>
0.2140402049

> <CNNaffinity>
7.5224914551

> <CNN_VS>
1.6101156473

> <CNNaffinity_variance>
1.2212889194

$$$$
/media/chris/experiments/cd1a-new-docking/inputs/ligands/1xz0_ligand.pdb


 65 67  0  0  0  0  0  0  0  0999 V2000
  -42.2820   58.1865   64.1879 C   0  0  0  0  0  0  0  0  0  0  0  0
  -41.0695   58.4562   64.9633 N   0  0  0  0  0  0  0  0  0  0  0  0
  -40.4369   60.5129   64.2266 O   0  0  0  0  0  0  0  0  0  0  0  0
  -40.2663   59.5341   64.9414 C   0  0  0  0  0  0  0  0  0  0  0  0
  -40.8042   57.7458   65.5912 H   0  0  0  0  0  0  0  0  0  0  0  0
  -38.2808   60.7815   65.7672 N   0  0  0  0  0  0  0  0  0  0  0  0
  -36.6846   59.3050   65.2530 O   0  0  0  0  0  0  0  0  0  0  0  0
  -37.8573   58.5058   65.4023 C   0  0  0  0  0  0  0  0  0  0  0  0
  -37.0540   60.6797   65.4808 C   0  0  0  0  0  0  0  0  0  0  0  0
  -38.9973   59.4918   65.7804 C   0  0  0  0  0  0  0  0  0  0  0  0
  -36.3507   62.3297   67.7567 O   0  0  0  0  0  0  0  0  0  0  0  0
  -35.7658   62.5737   66.5777 C   0  0  0  0  0  0  0  0  0  0  0  0
  -34.8210   63.6030   66.4730 C   0  0  0  0  0  0  0  0  0  0  0  0
  -34.2000   63.8852   65.2447 C   0  0  0  0  0  0  0  0  0  0  0  0
  -34.5094   63.1346   64.1090 C   0  0  0  0  0  0  0  0  0  0  0  0
  -35.4465   62.1026   64.2097 C   0  0  0  0  0  0  0  0  0  0  0  0
  -36.0770   61.8232   65.4374 C   0  0  0  0  0  0  0  0  0  0  0  0
  -36.1266   62.8451   68.5064 H   0  0  0  0  0  0  0  0  0  0  0  0
  -43.2636   56.1653   65.0165 O   0  0  0  0  0  0  0  0  0  0  0  0
  -43.1966   57.3812   65.0911 C   0  0  0  0  0  0  0  0  0  0  0  0
  -44.0793   58.0709   66.0378 O   0  0  0  0  0  0  0  0  0  0  0  0
  -45.4755   58.2738   65.7490 C   0  0  0  0  0  0  0  0  0  0  0  0
  -46.0037   59.6545   66.1181 C   0  0  0  0  0  0  0  0  0  0  0  0
  -46.2723   57.1782   66.4411 C   0  0  0  0  0  0  0  0  0  0  0  0
  -48.1959   57.9836   65.1576 N   0  0  0  0  0  0  0  0  0  0  0  0
  -48.1217   55.8675   65.9527 O   0  0  0  0  0  0  0  0  0  0  0  0
  -47.6424   56.9729   65.8435 C   0  0  0  0  0  0  0  0  0  0  0  0
  -47.7135   58.8415   65.1380 H   0  0  0  0  0  0  0  0  0  0  0  0
  -49.1281   59.4209   62.5270 N   0  0  0  0  0  0  0  0  0  0  0  0
  -49.6228   57.2548   62.1689 O   0  0  0  0  0  0  0  0  0  0  0  0
  -48.5968   60.5115   63.3581 C   0  0  0  0  0  0  0  0  0  0  0  0
  -49.6466   60.9745   64.3857 C   0  0  0  0  0  0  0  0  0  0  0  0
  -50.9021   60.1213   64.4602 C   0  0  0  0  0  0  0  0  0  0  0  0
  -50.6396   58.7167   65.0097 C   0  0  0  0  0  0  0  0  0  0  0  0
  -49.4699   57.9008   64.4342 C   0  0  0  0  0  0  0  0  0  0  0  0
  -49.3957   58.1732   62.9446 C   0  0  0  0  0  0  0  0  0  0  0  0
  -49.6364   58.3780   60.0415 Si  0  0  0  0  0  0  0  0  0  0  0  0
  -49.3603   59.6992   61.2138 O   0  0  0  0  0  0  0  0  0  0  0  0
  -49.8526   58.9283   58.7505 H   0  0  0  0  0  0  0  0  0  0  0  0
  -50.7767   57.6281   60.4335 H   0  0  0  0  0  0  0  0  0  0  0  0
  -48.4991   57.5283   60.0096 H   0  0  0  0  0  0  0  0  0  0  0  0
  -40.6847   57.5656   62.1987 C   0  0  0  0  0  0  0  0  0  0  0  0
  -42.1046   57.5722   62.7782 C   0  0  0  0  0  0  0  0  0  0  0  0
  -40.5558   57.3746   60.6780 C   0  0  0  0  0  0  0  0  0  0  0  0
  -39.2714   57.8964   60.0016 C   0  0  0  0  0  0  0  0  0  0  0  0
  -38.9322   59.1926   60.5970 N   0  0  0  0  0  0  0  0  0  0  0  0
  -37.9437   59.4971   61.4789 C   0  0  0  0  0  0  0  0  0  0  0  0
  -39.7594   60.2444   60.1787 O   0  0  0  0  0  0  0  0  0  0  0  0
  -37.7870   60.6473   61.8881 O   0  0  0  0  0  0  0  0  0  0  0  0
  -39.4794   61.0671   60.6095 H   0  0  0  0  0  0  0  0  0  0  0  0
  -37.0098   58.3818   61.9604 C   0  0  0  0  0  0  0  0  0  0  0  0
  -35.6093   58.8578   62.3700 C   0  0  0  0  0  0  0  0  0  0  0  0
  -34.8000   57.6821   62.9503 C   0  0  0  0  0  0  0  0  0  0  0  0
  -33.3183   57.6882   62.5291 C   0  0  0  0  0  0  0  0  0  0  0  0
  -32.3502   58.2311   63.5969 C   0  0  0  0  0  0  0  0  0  0  0  0
  -32.3798   59.7699   63.7070 C   0  0  0  0  0  0  0  0  0  0  0  0
  -32.4889   60.5082   62.3525 C   0  0  0  0  0  0  0  0  0  0  0  0
  -31.1386   60.9908   61.8103 C   0  0  0  0  0  0  0  0  0  0  0  0
  -30.9293   62.5082   61.8287 C   0  0  0  0  0  0  0  0  0  0  0  0
  -32.1830   63.2537   61.3361 C   0  0  0  0  0  0  0  0  0  0  0  0
  -32.2725   64.7089   61.8200 C   0  0  0  0  0  0  0  0  0  0  0  0
  -33.2054   65.6213   61.0169 C   0  0  0  0  0  0  0  0  0  0  0  0
  -34.2248   66.4064   61.8795 C   0  0  0  0  0  0  0  0  0  0  0  0
  -35.6768   66.0322   61.5189 C   0  0  0  0  0  0  0  0  0  0  0  0
  -35.9616   64.5595   61.2010 C   0  0  0  0  0  0  0  0  0  0  0  0
 46 47  1  0  0  0
 46 48  1  0  0  0
 46 45  1  0  0  0
 47 49  2  0  0  0
 47 51  1  0  0  0
 19 20  2  0  0  0
 37 38  1  0  0  0
 37 39  1  0  0  0
 37 40  1  0  0  0
 37 41  1  0  0  0
 48 50  1  0  0  0
 38 29  1  0  0  0
 45 44  1  0  0  0
 25 27  1  0  0  0
 25 35  1  0  0  0
 25 28  1  0  0  0
 21 20  1  0  0  0
 21 22  1  0  0  0
 44 42  1  0  0  0
  2  1  1  0  0  0
  2  4  1  0  0  0
  2  5  1  0  0  0
 26 27  2  0  0  0
 42 43  2  0  0  0
 29 31  1  0  0  0
 29 36  1  0  0  0
  3  4  2  0  0  0
 43  1  1  0  0  0
  6  9  2  0  0  0
  6 10  1  0  0  0
  1 20  1  0  0  0
 30 36  2  0  0  0
  7  8  1  0  0  0
  7  9  1  0  0  0
 22 24  1  0  0  0
 22 23  1  0  0  0
 11 12  1  0  0  0
 11 18  1  0  0  0
 24 27  1  0  0  0
  4 10  1  0  0  0
 51 52  1  0  0  0
 52 53  1  0  0  0
 53 54  1  0  0  0
 54 55  1  0  0  0
 55 56  1  0  0  0
 56 57  1  0  0  0
 57 58  1  0  0  0
 58 59  1  0  0  0
 59 60  1  0  0  0
 60 61  1  0  0  0
 61 62  1  0  0  0
 62 63  1  0  0  0
 63 64  1  0  0  0
 64 65  1  0  0  0
 31 32  1  0  0  0
 32 33  1  0  0  0
 33 34  1  0  0  0
 34 35  1  0  0  0
 35 36  1  0  0  0
  8 10  1  0  0  0
  9 17  1  0  0  0
 12 13  2  0  0  0
 12 17  1  0  0  0
 13 14  1  0  0  0
 14 15  2  0  0  0
 15 16  1  0  0  0
 16 17  2  0  0  0
M  END
> <minimizedAffinity>
-9.00066

> <CNNscore>
0.1977285296

> <CNNaffinity>
7.3452768326

> <CNN_VS>
1.4523707628

> <CNNaffinity_variance>
1.3478971720

$$$$
/media/chris/experiments/cd1a-new-docking/inputs/ligands/1xz0_ligand.pdb


 65 67  0  0  0  0  0  0  0  0999 V2000
  -41.0564   59.2576   64.6012 C   0  0  0  0  0  0  0  0  0  0  0  0
  -40.0214   58.7597   63.6930 N   0  0  0  0  0  0  0  0  0  0  0  0
  -41.2084   57.5471   62.1786 O   0  0  0  0  0  0  0  0  0  0  0  0
  -40.1462   57.9828   62.6030 C   0  0  0  0  0  0  0  0  0  0  0  0
  -39.1014   59.0334   63.9122 H   0  0  0  0  0  0  0  0  0  0  0  0
  -37.7133   57.5218   62.8226 N   0  0  0  0  0  0  0  0  0  0  0  0
  -36.9671   58.6552   61.0476 O   0  0  0  0  0  0  0  0  0  0  0  0
  -38.3141   58.3300   60.7067 C   0  0  0  0  0  0  0  0  0  0  0  0
  -36.7048   58.1304   62.3643 C   0  0  0  0  0  0  0  0  0  0  0  0
  -38.8725   57.5207   61.9100 C   0  0  0  0  0  0  0  0  0  0  0  0
  -36.3510   58.1736   65.2401 O   0  0  0  0  0  0  0  0  0  0  0  0
  -35.2689   58.2487   64.4557 C   0  0  0  0  0  0  0  0  0  0  0  0
  -33.9965   58.3296   65.0368 C   0  0  0  0  0  0  0  0  0  0  0  0
  -32.8459   58.4189   64.2355 C   0  0  0  0  0  0  0  0  0  0  0  0
  -32.9537   58.4184   62.8437 C   0  0  0  0  0  0  0  0  0  0  0  0
  -34.2203   58.3316   62.2591 C   0  0  0  0  0  0  0  0  0  0  0  0
  -35.3759   58.2507   63.0597 C   0  0  0  0  0  0  0  0  0  0  0  0
  -36.2550   58.1739   66.1721 H   0  0  0  0  0  0  0  0  0  0  0  0
  -40.9785   60.9486   66.2952 O   0  0  0  0  0  0  0  0  0  0  0  0
  -40.3565   60.1765   65.5843 C   0  0  0  0  0  0  0  0  0  0  0  0
  -38.8913   60.1981   65.6469 O   0  0  0  0  0  0  0  0  0  0  0  0
  -38.1300   61.2485   65.0217 C   0  0  0  0  0  0  0  0  0  0  0  0
  -37.8900   61.0536   63.5297 C   0  0  0  0  0  0  0  0  0  0  0  0
  -36.8164   61.4013   65.7737 C   0  0  0  0  0  0  0  0  0  0  0  0
  -34.9669   62.7119   64.8475 N   0  0  0  0  0  0  0  0  0  0  0  0
  -36.7288   63.7172   65.8477 O   0  0  0  0  0  0  0  0  0  0  0  0
  -36.1321   62.7201   65.5112 C   0  0  0  0  0  0  0  0  0  0  0  0
  -34.5728   61.8374   64.6258 H   0  0  0  0  0  0  0  0  0  0  0  0
  -33.6037   63.4004   62.1048 N   0  0  0  0  0  0  0  0  0  0  0  0
  -34.8633   65.2100   62.5566 O   0  0  0  0  0  0  0  0  0  0  0  0
  -33.0866   62.0634   62.4322 C   0  0  0  0  0  0  0  0  0  0  0  0
  -31.9138   62.1610   63.4259 C   0  0  0  0  0  0  0  0  0  0  0  0
  -31.6576   63.5475   63.9931 C   0  0  0  0  0  0  0  0  0  0  0  0
  -32.7825   64.0367   64.9092 C   0  0  0  0  0  0  0  0  0  0  0  0
  -34.2380   63.9144   64.4282 C   0  0  0  0  0  0  0  0  0  0  0  0
  -34.2679   64.2132   62.9421 C   0  0  0  0  0  0  0  0  0  0  0  0
  -33.2757   65.6025   60.5027 Si  0  0  0  0  0  0  0  0  0  0  0  0
  -33.3986   63.8504   60.8354 O   0  0  0  0  0  0  0  0  0  0  0  0
  -33.0635   65.8068   59.1136 H   0  0  0  0  0  0  0  0  0  0  0  0
  -32.1869   66.1478   61.2331 H   0  0  0  0  0  0  0  0  0  0  0  0
  -34.4793   66.2447   60.8972 H   0  0  0  0  0  0  0  0  0  0  0  0
  -43.4761   58.5254   65.3107 C   0  0  0  0  0  0  0  0  0  0  0  0
  -41.9754   58.2110   65.2768 C   0  0  0  0  0  0  0  0  0  0  0  0
  -44.3262   57.7466   66.3288 C   0  0  0  0  0  0  0  0  0  0  0  0
  -45.8134   57.5193   65.9881 C   0  0  0  0  0  0  0  0  0  0  0  0
  -46.5893   58.6274   66.5535 N   0  0  0  0  0  0  0  0  0  0  0  0
  -47.3267   59.5715   65.9111 C   0  0  0  0  0  0  0  0  0  0  0  0
  -46.5458   58.6960   67.9531 O   0  0  0  0  0  0  0  0  0  0  0  0
  -47.9273   60.4451   66.5364 O   0  0  0  0  0  0  0  0  0  0  0  0
  -47.0778   59.4481   68.2568 H   0  0  0  0  0  0  0  0  0  0  0  0
  -47.4096   59.5339   64.3815 C   0  0  0  0  0  0  0  0  0  0  0  0
  -48.2876   58.4072   63.8199 C   0  0  0  0  0  0  0  0  0  0  0  0
  -49.4036   58.0569   64.8228 C   0  0  0  0  0  0  0  0  0  0  0  0
  -50.7964   58.5537   64.3913 C   0  0  0  0  0  0  0  0  0  0  0  0
  -51.0986   60.0176   64.7626 C   0  0  0  0  0  0  0  0  0  0  0  0
  -51.0538   60.9666   63.5467 C   0  0  0  0  0  0  0  0  0  0  0  0
  -51.0949   60.2542   62.1747 C   0  0  0  0  0  0  0  0  0  0  0  0
  -49.8420   60.4950   61.3247 C   0  0  0  0  0  0  0  0  0  0  0  0
  -49.5219   59.3987   60.3037 C   0  0  0  0  0  0  0  0  0  0  0  0
  -50.1752   58.0604   60.6939 C   0  0  0  0  0  0  0  0  0  0  0  0
  -49.2863   56.8346   60.4348 C   0  0  0  0  0  0  0  0  0  0  0  0
  -47.9964   57.1012   59.6520 C   0  0  0  0  0  0  0  0  0  0  0  0
  -47.8944   56.3302   58.3124 C   0  0  0  0  0  0  0  0  0  0  0  0
  -48.2015   57.2447   57.1091 C   0  0  0  0  0  0  0  0  0  0  0  0
  -47.1955   58.3609   56.8038 C   0  0  0  0  0  0  0  0  0  0  0  0
 46 47  1  0  0  0
 46 48  1  0  0  0
 46 45  1  0  0  0
 47 49  2  0  0  0
 47 51  1  0  0  0
 19 20  2  0  0  0
 37 38  1  0  0  0
 37 39  1  0  0  0
 37 40  1  0  0  0
 37 41  1  0  0  0
 48 50  1  0  0  0
 38 29  1  0  0  0
 45 44  1  0  0  0
 25 27  1  0  0  0
 25 35  1  0  0  0
 25 28  1  0  0  0
 21 20  1  0  0  0
 21 22  1  0  0  0
 44 42  1  0  0  0
  2  1  1  0  0  0
  2  4  1  0  0  0
  2  5  1  0  0  0
 26 27  2  0  0  0
 42 43  2  0  0  0
 29 31  1  0  0  0
 29 36  1  0  0  0
  3  4  2  0  0  0
 43  1  1  0  0  0
  6  9  2  0  0  0
  6 10  1  0  0  0
  1 20  1  0  0  0
 30 36  2  0  0  0
  7  8  1  0  0  0
  7  9  1  0  0  0
 22 24  1  0  0  0
 22 23  1  0  0  0
 11 12  1  0  0  0
 11 18  1  0  0  0
 24 27  1  0  0  0
  4 10  1  0  0  0
 51 52  1  0  0  0
 52 53  1  0  0  0
 53 54  1  0  0  0
 54 55  1  0  0  0
 55 56  1  0  0  0
 56 57  1  0  0  0
 57 58  1  0  0  0
 58 59  1  0  0  0
 59 60  1  0  0  0
 60 61  1  0  0  0
 61 62  1  0  0  0
 62 63  1  0  0  0
 63 64  1  0  0  0
 64 65  1  0  0  0
 31 32  1  0  0  0
 32 33  1  0  0  0
 33 34  1  0  0  0
 34 35  1  0  0  0
 35 36  1  0  0  0
  8 10  1  0  0  0
  9 17  1  0  0  0
 12 13  2  0  0  0
 12 17  1  0  0  0
 13 14  1  0  0  0
 14 15  2  0  0  0
 15 16  1  0  0  0
 16 17  2  0  0  0
M  END
> <minimizedAffinity>
-9.93249

> <CNNscore>
0.1330630034

> <CNNaffinity>
6.9773583412

> <CNN_VS>
0.9284282327

> <CNNaffinity_variance>
0.6464480162

$$$$
/media/chris/experiments/cd1a-new-docking/inputs/ligands/1xz0_ligand.pdb


 65 67  0  0  0  0  0  0  0  0999 V2000
  -42.8726   57.6652   65.6040 C   0  0  0  0  0  0  0  0  0  0  0  0
  -42.6120   58.6814   64.5824 N   0  0  0  0  0  0  0  0  0  0  0  0
  -44.6738   59.5607   64.1967 O   0  0  0  0  0  0  0  0  0  0  0  0
  -43.4709   59.5185   63.9748 C   0  0  0  0  0  0  0  0  0  0  0  0
  -41.6725   58.7635   64.2997 H   0  0  0  0  0  0  0  0  0  0  0  0
  -42.1733   59.6237   61.8569 N   0  0  0  0  0  0  0  0  0  0  0  0
  -40.7883   61.3025   62.3626 O   0  0  0  0  0  0  0  0  0  0  0  0
  -41.9289   61.5372   63.1874 C   0  0  0  0  0  0  0  0  0  0  0  0
  -41.0319   60.1027   61.6016 C   0  0  0  0  0  0  0  0  0  0  0  0
  -42.9335   60.3990   62.8559 C   0  0  0  0  0  0  0  0  0  0  0  0
  -38.2342   60.8370   61.4260 O   0  0  0  0  0  0  0  0  0  0  0  0
  -38.7171   59.9268   60.5715 C   0  0  0  0  0  0  0  0  0  0  0  0
  -37.8631   59.3407   59.6280 C   0  0  0  0  0  0  0  0  0  0  0  0
  -38.3477   58.3900   58.7140 C   0  0  0  0  0  0  0  0  0  0  0  0
  -39.6900   58.0072   58.7395 C   0  0  0  0  0  0  0  0  0  0  0  0
  -40.5446   58.5843   59.6829 C   0  0  0  0  0  0  0  0  0  0  0  0
  -40.0637   59.5438   60.5945 C   0  0  0  0  0  0  0  0  0  0  0  0
  -37.3293   61.0778   61.3920 H   0  0  0  0  0  0  0  0  0  0  0  0
  -43.1485   55.3396   65.1034 O   0  0  0  0  0  0  0  0  0  0  0  0
  -42.4536   56.3372   65.0025 C   0  0  0  0  0  0  0  0  0  0  0  0
  -41.1521   56.2156   64.3374 O   0  0  0  0  0  0  0  0  0  0  0  0
  -41.0150   56.4122   62.9174 C   0  0  0  0  0  0  0  0  0  0  0  0
  -41.5254   55.2560   62.0664 C   0  0  0  0  0  0  0  0  0  0  0  0
  -39.5552   56.7145   62.6140 C   0  0  0  0  0  0  0  0  0  0  0  0
  -37.5994   57.4502   63.8907 N   0  0  0  0  0  0  0  0  0  0  0  0
  -39.6022   58.4753   64.1220 O   0  0  0  0  0  0  0  0  0  0  0  0
  -38.9079   57.6082   63.6429 C   0  0  0  0  0  0  0  0  0  0  0  0
  -37.1354   56.7066   63.4424 H   0  0  0  0  0  0  0  0  0  0  0  0
  -35.6794   59.8427   63.2242 N   0  0  0  0  0  0  0  0  0  0  0  0
  -37.0279   60.6577   64.8312 O   0  0  0  0  0  0  0  0  0  0  0  0
  -35.2308   58.7673   62.3274 C   0  0  0  0  0  0  0  0  0  0  0  0
  -34.3038   57.7880   63.0718 C   0  0  0  0  0  0  0  0  0  0  0  0
  -34.1933   58.0117   64.5710 C   0  0  0  0  0  0  0  0  0  0  0  0
  -35.4963   57.7152   65.3180 C   0  0  0  0  0  0  0  0  0  0  0  0
  -36.8106   58.3076   64.7827 C   0  0  0  0  0  0  0  0  0  0  0  0
  -36.5194   59.7015   64.2622 C   0  0  0  0  0  0  0  0  0  0  0  0
  -36.2389   62.3066   62.1565 Si  0  0  0  0  0  0  0  0  0  0  0  0
  -35.2079   61.0960   62.9734 O   0  0  0  0  0  0  0  0  0  0  0  0
  -35.5194   63.5225   62.0145 H   0  0  0  0  0  0  0  0  0  0  0  0
  -37.4061   62.5351   62.9323 H   0  0  0  0  0  0  0  0  0  0  0  0
  -36.6103   61.8236   60.8738 H   0  0  0  0  0  0  0  0  0  0  0  0
  -45.3496   56.7975   65.5305 C   0  0  0  0  0  0  0  0  0  0  0  0
  -44.2832   57.6401   66.2409 C   0  0  0  0  0  0  0  0  0  0  0  0
  -46.8175   57.0984   65.8773 C   0  0  0  0  0  0  0  0  0  0  0  0
  -47.0881   58.1047   67.0147 C   0  0  0  0  0  0  0  0  0  0  0  0
  -47.3426   59.4184   66.4155 N   0  0  0  0  0  0  0  0  0  0  0  0
  -48.5121   59.9383   65.9575 C   0  0  0  0  0  0  0  0  0  0  0  0
  -46.2025   60.2281   66.3153 O   0  0  0  0  0  0  0  0  0  0  0  0
  -48.5611   61.0706   65.4774 O   0  0  0  0  0  0  0  0  0  0  0  0
  -46.4431   61.0771   65.9123 H   0  0  0  0  0  0  0  0  0  0  0  0
  -49.7868   59.0933   66.0516 C   0  0  0  0  0  0  0  0  0  0  0  0
  -51.0214   59.7304   65.3993 C   0  0  0  0  0  0  0  0  0  0  0  0
  -51.1237   59.2960   63.9246 C   0  0  0  0  0  0  0  0  0  0  0  0
  -50.9731   60.4612   62.9283 C   0  0  0  0  0  0  0  0  0  0  0  0
  -49.6093   60.5233   62.2154 C   0  0  0  0  0  0  0  0  0  0  0  0
  -49.7325   60.4675   60.6783 C   0  0  0  0  0  0  0  0  0  0  0  0
  -49.4264   59.0836   60.0598 C   0  0  0  0  0  0  0  0  0  0  0  0
  -49.0131   58.0308   61.0948 C   0  0  0  0  0  0  0  0  0  0  0  0
  -49.5896   56.6294   60.8706 C   0  0  0  0  0  0  0  0  0  0  0  0
  -48.8624   55.8998   59.7264 C   0  0  0  0  0  0  0  0  0  0  0  0
  -47.5298   56.5485   59.3219 C   0  0  0  0  0  0  0  0  0  0  0  0
  -46.9252   56.0596   58.0017 C   0  0  0  0  0  0  0  0  0  0  0  0
  -47.9083   56.0829   56.8048 C   0  0  0  0  0  0  0  0  0  0  0  0
  -48.0852   57.5095   56.2463 C   0  0  0  0  0  0  0  0  0  0  0  0
  -47.0470   58.5580   56.6634 C   0  0  0  0  0  0  0  0  0  0  0  0
 46 47  1  0  0  0
 46 48  1  0  0  0
 46 45  1  0  0  0
 47 49  2  0  0  0
 47 51  1  0  0  0
 19 20  2  0  0  0
 37 38  1  0  0  0
 37 39  1  0  0  0
 37 40  1  0  0  0
 37 41  1  0  0  0
 48 50  1  0  0  0
 38 29  1  0  0  0
 45 44  1  0  0  0
 25 27  1  0  0  0
 25 35  1  0  0  0
 25 28  1  0  0  0
 21 20  1  0  0  0
 21 22  1  0  0  0
 44 42  1  0  0  0
  2  1  1  0  0  0
  2  4  1  0  0  0
  2  5  1  0  0  0
 26 27  2  0  0  0
 42 43  2  0  0  0
 29 31  1  0  0  0
 29 36  1  0  0  0
  3  4  2  0  0  0
 43  1  1  0  0  0
  6  9  2  0  0  0
  6 10  1  0  0  0
  1 20  1  0  0  0
 30 36  2  0  0  0
  7  8  1  0  0  0
  7  9  1  0  0  0
 22 24  1  0  0  0
 22 23  1  0  0  0
 11 12  1  0  0  0
 11 18  1  0  0  0
 24 27  1  0  0  0
  4 10  1  0  0  0
 51 52  1  0  0  0
 52 53  1  0  0  0
 53 54  1  0  0  0
 54 55  1  0  0  0
 55 56  1  0  0  0
 56 57  1  0  0  0
 57 58  1  0  0  0
 58 59  1  0  0  0
 59 60  1  0  0  0
 60 61  1  0  0  0
 61 62  1  0  0  0
 62 63  1  0  0  0
 63 64  1  0  0  0
 64 65  1  0  0  0
 31 32  1  0  0  0
 32 33  1  0  0  0
 33 34  1  0  0  0
 34 35  1  0  0  0
 35 36  1  0  0  0
  8 10  1  0  0  0
  9 17  1  0  0  0
 12 13  2  0  0  0
 12 17  1  0  0  0
 13 14  1  0  0  0
 14 15  2  0  0  0
 15 16  1  0  0  0
 16 17  2  0  0  0
M  END
> <minimizedAffinity>
-9.48662

> <CNNscore>
0.1100044399

> <CNNaffinity>
7.5543541908

> <CNN_VS>
0.8310124874

> <CNNaffinity_variance>
1.6322479248

$$$$
/media/chris/experiments/cd1a-new-docking/inputs/ligands/1xz0_ligand.pdb


 65 67  0  0  0  0  0  0  0  0999 V2000
  -41.1187   59.5653   63.6231 C   0  0  0  0  0  0  0  0  0  0  0  0
  -39.9824   59.1071   62.8212 N   0  0  0  0  0  0  0  0  0  0  0  0
  -40.0883   56.8446   63.0280 O   0  0  0  0  0  0  0  0  0  0  0  0
  -39.5577   57.8540   62.5833 C   0  0  0  0  0  0  0  0  0  0  0  0
  -39.4532   59.8195   62.3948 H   0  0  0  0  0  0  0  0  0  0  0  0
  -37.0992   57.4993   62.6844 N   0  0  0  0  0  0  0  0  0  0  0  0
  -36.4410   59.1201   61.2944 O   0  0  0  0  0  0  0  0  0  0  0  0
  -37.7693   58.8197   60.8681 C   0  0  0  0  0  0  0  0  0  0  0  0
  -36.1340   58.2707   62.4180 C   0  0  0  0  0  0  0  0  0  0  0  0
  -38.2655   57.6785   61.7987 C   0  0  0  0  0  0  0  0  0  0  0  0
  -33.5815   58.7532   61.1339 O   0  0  0  0  0  0  0  0  0  0  0  0
  -33.6082   58.5329   62.4540 C   0  0  0  0  0  0  0  0  0  0  0  0
  -32.4128   58.5562   63.1844 C   0  0  0  0  0  0  0  0  0  0  0  0
  -32.4131   58.3186   64.5692 C   0  0  0  0  0  0  0  0  0  0  0  0
  -33.6101   58.0648   65.2412 C   0  0  0  0  0  0  0  0  0  0  0  0
  -34.8060   58.0468   64.5180 C   0  0  0  0  0  0  0  0  0  0  0  0
  -34.8078   58.2759   63.1287 C   0  0  0  0  0  0  0  0  0  0  0  0
  -32.7666   58.9231   60.7037 H   0  0  0  0  0  0  0  0  0  0  0  0
  -40.8027   60.9835   65.5269 O   0  0  0  0  0  0  0  0  0  0  0  0
  -40.5635   59.9139   64.9911 C   0  0  0  0  0  0  0  0  0  0  0  0
  -39.6599   58.9802   65.6714 O   0  0  0  0  0  0  0  0  0  0  0  0
  -38.2489   58.9594   65.3842 C   0  0  0  0  0  0  0  0  0  0  0  0
  -37.5546   57.6451   65.7189 C   0  0  0  0  0  0  0  0  0  0  0  0
  -37.5948   60.1260   66.1091 C   0  0  0  0  0  0  0  0  0  0  0  0
  -35.6133   61.2690   65.2354 N   0  0  0  0  0  0  0  0  0  0  0  0
  -37.6653   61.6518   64.3645 O   0  0  0  0  0  0  0  0  0  0  0  0
  -36.9442   61.1159   65.1747 C   0  0  0  0  0  0  0  0  0  0  0  0
  -35.1284   60.7814   65.9398 H   0  0  0  0  0  0  0  0  0  0  0  0
  -32.9703   62.8845   65.7448 N   0  0  0  0  0  0  0  0  0  0  0  0
  -32.5467   61.7265   63.8620 O   0  0  0  0  0  0  0  0  0  0  0  0
  -33.8468   63.2780   66.8579 C   0  0  0  0  0  0  0  0  0  0  0  0
  -34.8326   64.3751   66.4138 C   0  0  0  0  0  0  0  0  0  0  0  0
  -34.8308   64.6854   64.9260 C   0  0  0  0  0  0  0  0  0  0  0  0
  -35.3644   63.5313   64.0732 C   0  0  0  0  0  0  0  0  0  0  0  0
  -34.8290   62.1120   64.3258 C   0  0  0  0  0  0  0  0  0  0  0  0
  -33.3502   62.2178   64.6429 C   0  0  0  0  0  0  0  0  0  0  0  0
  -31.1446   64.6165   66.8360 Si  0  0  0  0  0  0  0  0  0  0  0  0
  -31.6533   63.2181   65.8452 O   0  0  0  0  0  0  0  0  0  0  0  0
  -29.7323   64.7503   66.7759 H   0  0  0  0  0  0  0  0  0  0  0  0
  -31.5438   64.4123   68.1833 H   0  0  0  0  0  0  0  0  0  0  0  0
  -31.7538   65.7975   66.3356 H   0  0  0  0  0  0  0  0  0  0  0  0
  -42.8364   58.1971   65.0623 C   0  0  0  0  0  0  0  0  0  0  0  0
  -42.3684   58.6533   63.6749 C   0  0  0  0  0  0  0  0  0  0  0  0
  -43.7716   56.9770   65.1135 C   0  0  0  0  0  0  0  0  0  0  0  0
  -45.2843   57.2326   64.9518 C   0  0  0  0  0  0  0  0  0  0  0  0
  -45.8035   57.7408   66.2252 N   0  0  0  0  0  0  0  0  0  0  0  0
  -46.6558   58.7755   66.4503 C   0  0  0  0  0  0  0  0  0  0  0  0
  -45.3392   57.0416   67.3482 O   0  0  0  0  0  0  0  0  0  0  0  0
  -47.0008   59.0799   67.5919 O   0  0  0  0  0  0  0  0  0  0  0  0
  -45.7208   57.4294   68.1513 H   0  0  0  0  0  0  0  0  0  0  0  0
  -47.1952   59.5660   65.2536 C   0  0  0  0  0  0  0  0  0  0  0  0
  -48.5259   60.2850   65.5143 C   0  0  0  0  0  0  0  0  0  0  0  0
  -49.6759   59.2616   65.5791 C   0  0  0  0  0  0  0  0  0  0  0  0
  -51.0362   59.8364   65.1411 C   0  0  0  0  0  0  0  0  0  0  0  0
  -50.9499   60.9562   64.0872 C   0  0  0  0  0  0  0  0  0  0  0  0
  -51.0969   60.4337   62.6428 C   0  0  0  0  0  0  0  0  0  0  0  0
  -49.7669   60.3251   61.8612 C   0  0  0  0  0  0  0  0  0  0  0  0
  -49.0881   58.9575   61.9995 C   0  0  0  0  0  0  0  0  0  0  0  0
  -50.0392   57.7611   62.1037 C   0  0  0  0  0  0  0  0  0  0  0  0
  -50.3225   57.1473   60.7205 C   0  0  0  0  0  0  0  0  0  0  0  0
  -49.4508   55.9261   60.3908 C   0  0  0  0  0  0  0  0  0  0  0  0
  -48.3866   56.1404   59.3095 C   0  0  0  0  0  0  0  0  0  0  0  0
  -48.0988   57.6277   58.9862 C   0  0  0  0  0  0  0  0  0  0  0  0
  -48.1996   57.9068   57.4728 C   0  0  0  0  0  0  0  0  0  0  0  0
  -46.9047   57.8159   56.6566 C   0  0  0  0  0  0  0  0  0  0  0  0
 46 47  1  0  0  0
 46 48  1  0  0  0
 46 45  1  0  0  0
 47 49  2  0  0  0
 47 51  1  0  0  0
 19 20  2  0  0  0
 37 38  1  0  0  0
 37 39  1  0  0  0
 37 40  1  0  0  0
 37 41  1  0  0  0
 48 50  1  0  0  0
 38 29  1  0  0  0
 45 44  1  0  0  0
 25 27  1  0  0  0
 25 35  1  0  0  0
 25 28  1  0  0  0
 21 20  1  0  0  0
 21 22  1  0  0  0
 44 42  1  0  0  0
  2  1  1  0  0  0
  2  4  1  0  0  0
  2  5  1  0  0  0
 26 27  2  0  0  0
 42 43  2  0  0  0
 29 31  1  0  0  0
 29 36  1  0  0  0
  3  4  2  0  0  0
 43  1  1  0  0  0
  6  9  2  0  0  0
  6 10  1  0  0  0
  1 20  1  0  0  0
 30 36  2  0  0  0
  7  8  1  0  0  0
  7  9  1  0  0  0
 22 24  1  0  0  0
 22 23  1  0  0  0
 11 12  1  0  0  0
 11 18  1  0  0  0
 24 27  1  0  0  0
  4 10  1  0  0  0
 51 52  1  0  0  0
 52 53  1  0  0  0
 53 54  1  0  0  0
 54 55  1  0  0  0
 55 56  1  0  0  0
 56 57  1  0  0  0
 57 58  1  0  0  0
 58 59  1  0  0  0
 59 60  1  0  0  0
 60 61  1  0  0  0
 61 62  1  0  0  0
 62 63  1  0  0  0
 63 64  1  0  0  0
 64 65  1  0  0  0
 31 32  1  0  0  0
 32 33  1  0  0  0
 33 34  1  0  0  0
 34 35  1  0  0  0
 35 36  1  0  0  0
  8 10  1  0  0  0
  9 17  1  0  0  0
 12 13  2  0  0  0
 12 17  1  0  0  0
 13 14  1  0  0  0
 14 15  2  0  0  0
 15 16  1  0  0  0
 16 17  2  0  0  0
M  END
> <minimizedAffinity>
-9.37041

> <CNNscore>
0.1004218683

> <CNNaffinity>
7.2250075340

> <CNN_VS>
0.7255487442

> <CNNaffinity_variance>
0.3912801147

$$$$
/media/chris/experiments/cd1a-new-docking/inputs/ligands/1xz0_ligand.pdb


 65 67  0  0  0  0  0  0  0  0999 V2000
  -42.3932   58.4510   65.1048 C   0  0  0  0  0  0  0  0  0  0  0  0
  -40.9889   58.6817   65.4497 N   0  0  0  0  0  0  0  0  0  0  0  0
  -40.9652   60.8713   66.0644 O   0  0  0  0  0  0  0  0  0  0  0  0
  -40.3914   59.8057   65.8823 C   0  0  0  0  0  0  0  0  0  0  0  0
  -40.3970   57.9012   65.3505 H   0  0  0  0  0  0  0  0  0  0  0  0
  -38.2694   61.0935   65.7451 N   0  0  0  0  0  0  0  0  0  0  0  0
  -37.0550   59.6642   64.5307 O   0  0  0  0  0  0  0  0  0  0  0  0
  -38.0181   58.8337   65.1780 C   0  0  0  0  0  0  0  0  0  0  0  0
  -37.3046   61.0263   64.9312 C   0  0  0  0  0  0  0  0  0  0  0  0
  -38.8793   59.7859   66.0534 C   0  0  0  0  0  0  0  0  0  0  0  0
  -35.4714   62.5019   66.6221 O   0  0  0  0  0  0  0  0  0  0  0  0
  -35.5918   62.8570   65.3371 C   0  0  0  0  0  0  0  0  0  0  0  0
  -34.8231   63.9158   64.8361 C   0  0  0  0  0  0  0  0  0  0  0  0
  -34.9382   64.3140   63.4936 C   0  0  0  0  0  0  0  0  0  0  0  0
  -35.8161   63.6512   62.6341 C   0  0  0  0  0  0  0  0  0  0  0  0
  -36.5805   62.5902   63.1274 C   0  0  0  0  0  0  0  0  0  0  0  0
  -36.4738   62.1946   64.4746 C   0  0  0  0  0  0  0  0  0  0  0  0
  -34.8745   62.9597   67.1807 H   0  0  0  0  0  0  0  0  0  0  0  0
  -43.2526   58.1134   62.8951 O   0  0  0  0  0  0  0  0  0  0  0  0
  -42.5279   58.7669   63.6273 C   0  0  0  0  0  0  0  0  0  0  0  0
  -41.7224   59.8394   63.0340 O   0  0  0  0  0  0  0  0  0  0  0  0
  -42.3077   61.1056   62.6761 C   0  0  0  0  0  0  0  0  0  0  0  0
  -43.7336   61.3066   63.1739 C   0  0  0  0  0  0  0  0  0  0  0  0
  -42.2268   61.2610   61.1649 C   0  0  0  0  0  0  0  0  0  0  0  0
  -41.1864   59.0443   61.1666 N   0  0  0  0  0  0  0  0  0  0  0  0
  -41.0423   60.4042   59.3650 O   0  0  0  0  0  0  0  0  0  0  0  0
  -41.3972   60.1896   60.5015 C   0  0  0  0  0  0  0  0  0  0  0  0
  -41.5214   58.9833   62.0903 H   0  0  0  0  0  0  0  0  0  0  0  0
  -38.3213   57.9161   61.7776 N   0  0  0  0  0  0  0  0  0  0  0  0
  -39.6642   56.1189   61.9567 O   0  0  0  0  0  0  0  0  0  0  0  0
  -38.0921   59.3453   61.5189 C   0  0  0  0  0  0  0  0  0  0  0  0
  -38.0300   59.6219   60.0049 C   0  0  0  0  0  0  0  0  0  0  0  0
  -38.3917   58.4444   59.1148 C   0  0  0  0  0  0  0  0  0  0  0  0
  -39.8660   58.0453   59.2200 C   0  0  0  0  0  0  0  0  0  0  0  0
  -40.4917   57.8756   60.6145 C   0  0  0  0  0  0  0  0  0  0  0  0
  -39.4541   57.2424   61.5206 C   0  0  0  0  0  0  0  0  0  0  0  0
  -35.7920   58.0464   62.8308 Si  0  0  0  0  0  0  0  0  0  0  0  0
  -37.2957   57.2152   62.3369 O   0  0  0  0  0  0  0  0  0  0  0  0
  -34.8874   57.1005   63.3816 H   0  0  0  0  0  0  0  0  0  0  0  0
  -36.0951   59.0342   63.8048 H   0  0  0  0  0  0  0  0  0  0  0  0
  -35.1991   58.6645   61.6982 H   0  0  0  0  0  0  0  0  0  0  0  0
  -44.6806   58.2899   66.3837 C   0  0  0  0  0  0  0  0  0  0  0  0
  -43.4654   59.1367   65.9859 C   0  0  0  0  0  0  0  0  0  0  0  0
  -45.9279   59.0489   66.8675 C   0  0  0  0  0  0  0  0  0  0  0  0
  -46.6839   59.9079   65.8331 C   0  0  0  0  0  0  0  0  0  0  0  0
  -47.1559   59.0268   64.7605 N   0  0  0  0  0  0  0  0  0  0  0  0
  -48.3687   58.4307   64.6138 C   0  0  0  0  0  0  0  0  0  0  0  0
  -46.2019   58.7849   63.7622 O   0  0  0  0  0  0  0  0  0  0  0  0
  -48.6121   57.7117   63.6449 O   0  0  0  0  0  0  0  0  0  0  0  0
  -46.5800   58.1978   63.0888 H   0  0  0  0  0  0  0  0  0  0  0  0
  -49.4464   58.6703   65.6764 C   0  0  0  0  0  0  0  0  0  0  0  0
  -50.8619   58.8611   65.1145 C   0  0  0  0  0  0  0  0  0  0  0  0
  -51.1777   60.3628   64.9758 C   0  0  0  0  0  0  0  0  0  0  0  0
  -50.4016   61.0520   63.8376 C   0  0  0  0  0  0  0  0  0  0  0  0
  -50.7381   60.5343   62.4267 C   0  0  0  0  0  0  0  0  0  0  0  0
  -49.4932   60.0581   61.6493 C   0  0  0  0  0  0  0  0  0  0  0  0
  -49.6434   60.0978   60.1106 C   0  0  0  0  0  0  0  0  0  0  0  0
  -49.9813   58.7349   59.4954 C   0  0  0  0  0  0  0  0  0  0  0  0
  -50.1869   57.5956   60.4986 C   0  0  0  0  0  0  0  0  0  0  0  0
  -49.0937   56.5206   60.3588 C   0  0  0  0  0  0  0  0  0  0  0  0
  -48.0572   56.8250   59.2666 C   0  0  0  0  0  0  0  0  0  0  0  0
  -47.9323   55.7763   58.1566 C   0  0  0  0  0  0  0  0  0  0  0  0
  -47.1750   56.2690   56.8983 C   0  0  0  0  0  0  0  0  0  0  0  0
  -47.8061   57.5547   56.3261 C   0  0  0  0  0  0  0  0  0  0  0  0
  -47.1038   58.8802   56.6436 C   0  0  0  0  0  0  0  0  0  0  0  0
 46 47  1  0  0  0
 46 48  1  0  0  0
 46 45  1  0  0  0
 47 49  2  0  0  0
 47 51  1  0  0  0
 19 20  2  0  0  0
 37 38  1  0  0  0
 37 39  1  0  0  0
 37 40  1  0  0  0
 37 41  1  0  0  0
 48 50  1  0  0  0
 38 29  1  0  0  0
 45 44  1  0  0  0
 25 27  1  0  0  0
 25 35  1  0  0  0
 25 28  1  0  0  0
 21 20  1  0  0  0
 21 22  1  0  0  0
 44 42  1  0  0  0
  2  1  1  0  0  0
  2  4  1  0  0  0
  2  5  1  0  0  0
 26 27  2  0  0  0
 42 43  2  0  0  0
 29 31  1  0  0  0
 29 36  1  0  0  0
  3  4  2  0  0  0
 43  1  1  0  0  0
  6  9  2  0  0  0
  6 10  1  0  0  0
  1 20  1  0  0  0
 30 36  2  0  0  0
  7  8  1  0  0  0
  7  9  1  0  0  0
 22 24  1  0  0  0
 22 23  1  0  0  0
 11 12  1  0  0  0
 11 18  1  0  0  0
 24 27  1  0  0  0
  4 10  1  0  0  0
 51 52  1  0  0  0
 52 53  1  0  0  0
 53 54  1  0  0  0
 54 55  1  0  0  0
 55 56  1  0  0  0
 56 57  1  0  0  0
 57 58  1  0  0  0
 58 59  1  0  0  0
 59 60  1  0  0  0
 60 61  1  0  0  0
 61 62  1  0  0  0
 62 63  1  0  0  0
 63 64  1  0  0  0
 64 65  1  0  0  0
 31 32  1  0  0  0
 32 33  1  0  0  0
 33 34  1  0  0  0
 34 35  1  0  0  0
 35 36  1  0  0  0
  8 10  1  0  0  0
  9 17  1  0  0  0
 12 13  2  0  0  0
 12 17  1  0  0  0
 13 14  1  0  0  0
 14 15  2  0  0  0
 15 16  1  0  0  0
 16 17  2  0  0  0
M  END
> <minimizedAffinity>
-9.82964

> <CNNscore>
0.0994396955

> <CNNaffinity>
7.5168771744

> <CNN_VS>
0.7474759817

> <CNNaffinity_variance>
1.7934764624

$$$$
/media/chris/experiments/cd1a-new-docking/inputs/ligands/1xz0_ligand.pdb


 65 67  0  0  0  0  0  0  0  0999 V2000
  -37.7958   60.2391   65.5795 C   0  0  0  0  0  0  0  0  0  0  0  0
  -37.1256   61.5342   65.4467 N   0  0  0  0  0  0  0  0  0  0  0  0
  -36.5041   62.0109   67.5820 O   0  0  0  0  0  0  0  0  0  0  0  0
  -36.5540   62.2987   66.3933 C   0  0  0  0  0  0  0  0  0  0  0  0
  -37.0882   61.8974   64.5324 H   0  0  0  0  0  0  0  0  0  0  0  0
  -35.4954   63.6637   64.6056 N   0  0  0  0  0  0  0  0  0  0  0  0
  -33.8491   64.6005   65.7906 O   0  0  0  0  0  0  0  0  0  0  0  0
  -34.8497   64.3063   66.7646 C   0  0  0  0  0  0  0  0  0  0  0  0
  -34.3348   64.1549   64.5086 C   0  0  0  0  0  0  0  0  0  0  0  0
  -36.0291   63.6664   65.9810 C   0  0  0  0  0  0  0  0  0  0  0  0
  -34.0112   62.0807   62.5111 O   0  0  0  0  0  0  0  0  0  0  0  0
  -33.4618   63.2811   62.2895 C   0  0  0  0  0  0  0  0  0  0  0  0
  -32.7612   63.5131   61.0986 C   0  0  0  0  0  0  0  0  0  0  0  0
  -32.1674   64.7612   60.8466 C   0  0  0  0  0  0  0  0  0  0  0  0
  -32.2759   65.7950   61.7784 C   0  0  0  0  0  0  0  0  0  0  0  0
  -32.9793   65.5706   62.9652 C   0  0  0  0  0  0  0  0  0  0  0  0
  -33.5680   64.3180   63.2244 C   0  0  0  0  0  0  0  0  0  0  0  0
  -33.9272   61.4017   61.8709 H   0  0  0  0  0  0  0  0  0  0  0  0
  -35.6331   59.3195   65.1187 O   0  0  0  0  0  0  0  0  0  0  0  0
  -36.8429   59.2044   65.0117 C   0  0  0  0  0  0  0  0  0  0  0  0
  -37.3702   58.0651   64.2534 O   0  0  0  0  0  0  0  0  0  0  0  0
  -36.7671   57.6457   63.0148 C   0  0  0  0  0  0  0  0  0  0  0  0
  -35.3940   57.0028   63.1657 C   0  0  0  0  0  0  0  0  0  0  0  0
  -36.7125   58.8434   62.0784 C   0  0  0  0  0  0  0  0  0  0  0  0
  -39.1133   58.6356   61.6429 N   0  0  0  0  0  0  0  0  0  0  0  0
  -37.6875   59.3366   60.0332 O   0  0  0  0  0  0  0  0  0  0  0  0
  -37.9000   58.9267   61.1514 C   0  0  0  0  0  0  0  0  0  0  0  0
  -39.1648   58.3081   62.5699 H   0  0  0  0  0  0  0  0  0  0  0  0
  -42.0502   57.8981   62.4707 N   0  0  0  0  0  0  0  0  0  0  0  0
  -42.2148   60.0056   61.6980 O   0  0  0  0  0  0  0  0  0  0  0  0
  -41.2782   56.6868   62.7850 C   0  0  0  0  0  0  0  0  0  0  0  0
  -41.0604   55.8357   61.5198 C   0  0  0  0  0  0  0  0  0  0  0  0
  -41.5040   56.4829   60.2182 C   0  0  0  0  0  0  0  0  0  0  0  0
  -40.6544   57.6970   59.8334 C   0  0  0  0  0  0  0  0  0  0  0  0
  -40.3693   58.7709   60.8965 C   0  0  0  0  0  0  0  0  0  0  0  0
  -41.6176   58.9387   61.7406 C   0  0  0  0  0  0  0  0  0  0  0  0
  -44.1142   59.5610   63.1766 Si  0  0  0  0  0  0  0  0  0  0  0  0
  -43.3141   57.9754   62.9733 O   0  0  0  0  0  0  0  0  0  0  0  0
  -45.4146   59.3696   63.7139 H   0  0  0  0  0  0  0  0  0  0  0  0
  -44.2135   60.2063   61.9156 H   0  0  0  0  0  0  0  0  0  0  0  0
  -43.3501   60.3667   64.0617 H   0  0  0  0  0  0  0  0  0  0  0  0
  -40.3470   59.8290   66.0458 C   0  0  0  0  0  0  0  0  0  0  0  0
  -39.2377   60.1229   65.0284 C   0  0  0  0  0  0  0  0  0  0  0  0
  -41.6747   59.2877   65.4891 C   0  0  0  0  0  0  0  0  0  0  0  0
  -42.9501   59.5405   66.3190 C   0  0  0  0  0  0  0  0  0  0  0  0
  -43.7699   58.3255   66.2839 N   0  0  0  0  0  0  0  0  0  0  0  0
  -45.1021   58.1984   66.0457 C   0  0  0  0  0  0  0  0  0  0  0  0
  -43.0518   57.1476   66.5334 O   0  0  0  0  0  0  0  0  0  0  0  0
  -45.6477   57.0950   66.0502 O   0  0  0  0  0  0  0  0  0  0  0  0
  -43.6534   56.3876   66.4947 H   0  0  0  0  0  0  0  0  0  0  0  0
  -45.9283   59.4572   65.7615 C   0  0  0  0  0  0  0  0  0  0  0  0
  -47.2648   59.5236   66.5132 C   0  0  0  0  0  0  0  0  0  0  0  0
  -48.4250   59.6984   65.5145 C   0  0  0  0  0  0  0  0  0  0  0  0
  -49.7971   59.8785   66.1911 C   0  0  0  0  0  0  0  0  0  0  0  0
  -50.9957   59.8654   65.2240 C   0  0  0  0  0  0  0  0  0  0  0  0
  -50.7625   60.7299   63.9673 C   0  0  0  0  0  0  0  0  0  0  0  0
  -51.1716   60.0536   62.6381 C   0  0  0  0  0  0  0  0  0  0  0  0
  -50.7765   58.5744   62.5594 C   0  0  0  0  0  0  0  0  0  0  0  0
  -49.4979   58.2786   61.7692 C   0  0  0  0  0  0  0  0  0  0  0  0
  -49.5135   58.9742   60.3958 C   0  0  0  0  0  0  0  0  0  0  0  0
  -49.6359   58.0064   59.2090 C   0  0  0  0  0  0  0  0  0  0  0  0
  -48.8764   56.6830   59.3483 C   0  0  0  0  0  0  0  0  0  0  0  0
  -47.4569   56.6959   58.7283 C   0  0  0  0  0  0  0  0  0  0  0  0
  -47.5052   56.9699   57.2114 C   0  0  0  0  0  0  0  0  0  0  0  0
  -47.1280   58.3802   56.7427 C   0  0  0  0  0  0  0  0  0  0  0  0
 46 47  1  0  0  0
 46 48  1  0  0  0
 46 45  1  0  0  0
 47 49  2  0  0  0
 47 51  1  0  0  0
 19 20  2  0  0  0
 37 38  1  0  0  0
 37 39  1  0  0  0
 37 40  1  0  0  0
 37 41  1  0  0  0
 48 50  1  0  0  0
 38 29  1  0  0  0
 45 44  1  0  0  0
 25 27  1  0  0  0
 25 35  1  0  0  0
 25 28  1  0  0  0
 21 20  1  0  0  0
 21 22  1  0  0  0
 44 42  1  0  0  0
  2  1  1  0  0  0
  2  4  1  0  0  0
  2  5  1  0  0  0
 26 27  2  0  0  0
 42 43  2  0  0  0
 29 31  1  0  0  0
 29 36  1  0  0  0
  3  4  2  0  0  0
 43  1  1  0  0  0
  6  9  2  0  0  0
  6 10  1  0  0  0
  1 20  1  0  0  0
 30 36  2  0  0  0
  7  8  1  0  0  0
  7  9  1  0  0  0
 22 24  1  0  0  0
 22 23  1  0  0  0
 11 12  1  0  0  0
 11 18  1  0  0  0
 24 27  1  0  0  0
  4 10  1  0  0  0
 51 52  1  0  0  0
 52 53  1  0  0  0
 53 54  1  0  0  0
 54 55  1  0  0  0
 55 56  1  0  0  0
 56 57  1  0  0  0
 57 58  1  0  0  0
 58 59  1  0  0  0
 59 60  1  0  0  0
 60 61  1  0  0  0
 61 62  1  0  0  0
 62 63  1  0  0  0
 63 64  1  0  0  0
 64 65  1  0  0  0
 31 32  1  0  0  0
 32 33  1  0  0  0
 33 34  1  0  0  0
 34 35  1  0  0  0
 35 36  1  0  0  0
  8 10  1  0  0  0
  9 17  1  0  0  0
 12 13  2  0  0  0
 12 17  1  0  0  0
 13 14  1  0  0  0
 14 15  2  0  0  0
 15 16  1  0  0  0
 16 17  2  0  0  0
M  END
> <minimizedAffinity>
-10.10280

> <CNNscore>
0.0984329581

> <CNNaffinity>
7.2425355911

> <CNN_VS>
0.7129042149

> <CNNaffinity_variance>
1.0609686375

$$$$
/media/chris/experiments/cd1a-new-docking/inputs/ligands/1xz0_ligand.pdb


 65 67  0  0  0  0  0  0  0  0999 V2000
  -42.0237   58.3675   65.9297 C   0  0  0  0  0  0  0  0  0  0  0  0
  -41.6563   57.5765   64.7535 N   0  0  0  0  0  0  0  0  0  0  0  0
  -42.6036   55.5533   65.1801 O   0  0  0  0  0  0  0  0  0  0  0  0
  -41.9475   56.2967   64.4625 C   0  0  0  0  0  0  0  0  0  0  0  0
  -41.1185   58.0502   64.0785 H   0  0  0  0  0  0  0  0  0  0  0  0
  -40.2722   56.5550   62.6441 N   0  0  0  0  0  0  0  0  0  0  0  0
  -41.5792   56.1278   60.8829 O   0  0  0  0  0  0  0  0  0  0  0  0
  -42.2165   55.4407   61.9590 C   0  0  0  0  0  0  0  0  0  0  0  0
  -40.4111   56.7884   61.4096 C   0  0  0  0  0  0  0  0  0  0  0  0
  -41.3292   55.6945   63.2091 C   0  0  0  0  0  0  0  0  0  0  0  0
  -38.1149   58.2237   62.4413 O   0  0  0  0  0  0  0  0  0  0  0  0
  -38.3573   58.2549   61.1252 C   0  0  0  0  0  0  0  0  0  0  0  0
  -37.4934   58.9616   60.2784 C   0  0  0  0  0  0  0  0  0  0  0  0
  -37.7312   59.0175   58.8948 C   0  0  0  0  0  0  0  0  0  0  0  0
  -38.8303   58.3588   58.3408 C   0  0  0  0  0  0  0  0  0  0  0  0
  -39.6915   57.6471   59.1805 C   0  0  0  0  0  0  0  0  0  0  0  0
  -39.4606   57.5966   60.5687 C   0  0  0  0  0  0  0  0  0  0  0  0
  -37.3702   58.6717   62.7913 H   0  0  0  0  0  0  0  0  0  0  0  0
  -43.6755   59.5061   64.6218 O   0  0  0  0  0  0  0  0  0  0  0  0
  -43.4104   58.9189   65.6578 C   0  0  0  0  0  0  0  0  0  0  0  0
  -44.4528   58.8111   66.6840 O   0  0  0  0  0  0  0  0  0  0  0  0
  -45.8440   58.6981   66.3298 C   0  0  0  0  0  0  0  0  0  0  0  0
  -46.8007   59.3842   67.2971 C   0  0  0  0  0  0  0  0  0  0  0  0
  -46.1817   57.2226   66.1777 C   0  0  0  0  0  0  0  0  0  0  0  0
  -48.1747   57.9457   64.9523 N   0  0  0  0  0  0  0  0  0  0  0  0
  -48.0587   55.8915   65.8915 O   0  0  0  0  0  0  0  0  0  0  0  0
  -47.5844   56.9833   65.6759 C   0  0  0  0  0  0  0  0  0  0  0  0
  -47.6925   58.7972   64.8435 H   0  0  0  0  0  0  0  0  0  0  0  0
  -49.3371   59.3846   62.4159 N   0  0  0  0  0  0  0  0  0  0  0  0
  -49.7609   57.2050   62.0481 O   0  0  0  0  0  0  0  0  0  0  0  0
  -48.8000   60.4833   63.2321 C   0  0  0  0  0  0  0  0  0  0  0  0
  -49.7993   60.8825   64.3342 C   0  0  0  0  0  0  0  0  0  0  0  0
  -51.0096   59.9738   64.4727 C   0  0  0  0  0  0  0  0  0  0  0  0
  -50.6519   58.5730   64.9766 C   0  0  0  0  0  0  0  0  0  0  0  0
  -49.4884   57.8191   64.3111 C   0  0  0  0  0  0  0  0  0  0  0  0
  -49.5233   58.1194   62.8254 C   0  0  0  0  0  0  0  0  0  0  0  0
  -50.5630   58.4906   60.1308 Si  0  0  0  0  0  0  0  0  0  0  0  0
  -49.6662   59.6743   61.1260 O   0  0  0  0  0  0  0  0  0  0  0  0
  -50.7803   59.0297   58.8353 H   0  0  0  0  0  0  0  0  0  0  0  0
  -51.8133   58.2090   60.7421 H   0  0  0  0  0  0  0  0  0  0  0  0
  -49.8076   57.2929   60.0245 H   0  0  0  0  0  0  0  0  0  0  0  0
  -39.7692   59.6571   65.5454 C   0  0  0  0  0  0  0  0  0  0  0  0
  -41.0146   59.4372   66.4129 C   0  0  0  0  0  0  0  0  0  0  0  0
  -38.5776   60.3688   66.2083 C   0  0  0  0  0  0  0  0  0  0  0  0
  -37.3281   60.6231   65.3403 C   0  0  0  0  0  0  0  0  0  0  0  0
  -36.5902   61.7517   65.9161 N   0  0  0  0  0  0  0  0  0  0  0  0
  -35.9694   62.7813   65.2820 C   0  0  0  0  0  0  0  0  0  0  0  0
  -36.5354   61.7399   67.3169 O   0  0  0  0  0  0  0  0  0  0  0  0
  -35.3868   63.6612   65.9155 O   0  0  0  0  0  0  0  0  0  0  0  0
  -36.0351   62.5107   67.6275 H   0  0  0  0  0  0  0  0  0  0  0  0
  -36.0073   62.8408   63.7513 C   0  0  0  0  0  0  0  0  0  0  0  0
  -35.7027   64.2245   63.1611 C   0  0  0  0  0  0  0  0  0  0  0  0
  -36.2076   64.3021   61.7075 C   0  0  0  0  0  0  0  0  0  0  0  0
  -35.1620   64.8572   60.7219 C   0  0  0  0  0  0  0  0  0  0  0  0
  -33.9036   65.4462   61.3864 C   0  0  0  0  0  0  0  0  0  0  0  0
  -32.6025   64.7571   60.9244 C   0  0  0  0  0  0  0  0  0  0  0  0
  -32.4361   63.3018   61.4203 C   0  0  0  0  0  0  0  0  0  0  0  0
  -31.8382   63.2019   62.8284 C   0  0  0  0  0  0  0  0  0  0  0  0
  -32.4642   62.1351   63.7322 C   0  0  0  0  0  0  0  0  0  0  0  0
  -32.8742   60.8882   62.9277 C   0  0  0  0  0  0  0  0  0  0  0  0
  -32.9439   59.6021   63.7649 C   0  0  0  0  0  0  0  0  0  0  0  0
  -32.9465   58.2910   62.9721 C   0  0  0  0  0  0  0  0  0  0  0  0
  -34.2554   57.4726   63.1005 C   0  0  0  0  0  0  0  0  0  0  0  0
  -35.2025   58.0828   64.1536 C   0  0  0  0  0  0  0  0  0  0  0  0
  -35.9944   57.1067   65.0317 C   0  0  0  0  0  0  0  0  0  0  0  0
 46 47  1  0  0  0
 46 48  1  0  0  0
 46 45  1  0  0  0
 47 49  2  0  0  0
 47 51  1  0  0  0
 19 20  2  0  0  0
 37 38  1  0  0  0
 37 39  1  0  0  0
 37 40  1  0  0  0
 37 41  1  0  0  0
 48 50  1  0  0  0
 38 29  1  0  0  0
 45 44  1  0  0  0
 25 27  1  0  0  0
 25 35  1  0  0  0
 25 28  1  0  0  0
 21 20  1  0  0  0
 21 22  1  0  0  0
 44 42  1  0  0  0
  2  1  1  0  0  0
  2  4  1  0  0  0
  2  5  1  0  0  0
 26 27  2  0  0  0
 42 43  2  0  0  0
 29 31  1  0  0  0
 29 36  1  0  0  0
  3  4  2  0  0  0
 43  1  1  0  0  0
  6  9  2  0  0  0
  6 10  1  0  0  0
  1 20  1  0  0  0
 30 36  2  0  0  0
  7  8  1  0  0  0
  7  9  1  0  0  0
 22 24  1  0  0  0
 22 23  1  0  0  0
 11 12  1  0  0  0
 11 18  1  0  0  0
 24 27  1  0  0  0
  4 10  1  0  0  0
 51 52  1  0  0  0
 52 53  1  0  0  0
 53 54  1  0  0  0
 54 55  1  0  0  0
 55 56  1  0  0  0
 56 57  1  0  0  0
 57 58  1  0  0  0
 58 59  1  0  0  0
 59 60  1  0  0  0
 60 61  1  0  0  0
 61 62  1  0  0  0
 62 63  1  0  0  0
 63 64  1  0  0  0
 64 65  1  0  0  0
 31 32  1  0  0  0
 32 33  1  0  0  0
 33 34  1  0  0  0
 34 35  1  0  0  0
 35 36  1  0  0  0
  8 10  1  0  0  0
  9 17  1  0  0  0
 12 13  2  0  0  0
 12 17  1  0  0  0
 13 14  1  0  0  0
 14 15  2  0  0  0
 15 16  1  0  0  0
 16 17  2  0  0  0
M  END
> <minimizedAffinity>
-8.31140

> <CNNscore>
0.0961771756

> <CNNaffinity>
7.4010939598

> <CNN_VS>
0.7118163109

> <CNNaffinity_variance>
0.6051971316

$$$$
