/media/chris/experiments/cd1a-new-docking/inputs/ligands/1xz0_ligand.pdb


 65 67  0  0  0  0  0  0  0  0999 V2000
  -37.3469   59.5971   64.3624 C   0  0  0  0  0  0  0  0  0  0  0  0
  -35.8948   59.4356   64.4590 N   0  0  0  0  0  0  0  0  0  0  0  0
  -35.2483   59.3000   62.2827 O   0  0  0  0  0  0  0  0  0  0  0  0
  -34.9850   59.3046   63.4780 C   0  0  0  0  0  0  0  0  0  0  0  0
  -35.5325   59.4209   65.3744 H   0  0  0  0  0  0  0  0  0  0  0  0
  -32.6314   60.1034   63.4292 N   0  0  0  0  0  0  0  0  0  0  0  0
  -31.6311   58.2427   62.7017 O   0  0  0  0  0  0  0  0  0  0  0  0
  -32.8179   57.7693   63.3375 C   0  0  0  0  0  0  0  0  0  0  0  0
  -31.6204   59.6808   62.7991 C   0  0  0  0  0  0  0  0  0  0  0  0
  -33.5421   59.0333   63.8786 C   0  0  0  0  0  0  0  0  0  0  0  0
  -32.0054   61.9792   61.0768 O   0  0  0  0  0  0  0  0  0  0  0  0
  -30.7617   61.6534   61.4494 C   0  0  0  0  0  0  0  0  0  0  0  0
  -29.6819   62.4337   61.0158 C   0  0  0  0  0  0  0  0  0  0  0  0
  -28.3662   62.1072   61.3853 C   0  0  0  0  0  0  0  0  0  0  0  0
  -28.1162   61.0022   62.2009 C   0  0  0  0  0  0  0  0  0  0  0  0
  -29.1906   60.2243   62.6413 C   0  0  0  0  0  0  0  0  0  0  0  0
  -30.5094   60.5439   62.2655 C   0  0  0  0  0  0  0  0  0  0  0  0
  -32.1502   62.7263   60.5302 H   0  0  0  0  0  0  0  0  0  0  0  0
  -38.7643   60.8449   65.8353 O   0  0  0  0  0  0  0  0  0  0  0  0
  -37.7039   60.7854   65.2349 C   0  0  0  0  0  0  0  0  0  0  0  0
  -36.7915   61.9309   65.3168 O   0  0  0  0  0  0  0  0  0  0  0  0
  -35.8511   62.0637   66.3992 C   0  0  0  0  0  0  0  0  0  0  0  0
  -36.1440   63.2144   67.3541 C   0  0  0  0  0  0  0  0  0  0  0  0
  -34.4541   62.1826   65.8086 C   0  0  0  0  0  0  0  0  0  0  0  0
  -32.9686   64.1076   66.0980 N   0  0  0  0  0  0  0  0  0  0  0  0
  -34.7125   64.1799   64.6595 O   0  0  0  0  0  0  0  0  0  0  0  0
  -34.0591   63.6057   65.5002 C   0  0  0  0  0  0  0  0  0  0  0  0
  -32.5163   63.5476   66.7696 H   0  0  0  0  0  0  0  0  0  0  0  0
  -31.4226   65.1635   63.5781 N   0  0  0  0  0  0  0  0  0  0  0  0
  -33.0056   66.7222   63.9387 O   0  0  0  0  0  0  0  0  0  0  0  0
  -30.7359   63.9078   63.9150 C   0  0  0  0  0  0  0  0  0  0  0  0
  -29.7203   64.1299   65.0517 C   0  0  0  0  0  0  0  0  0  0  0  0
  -29.7632   65.5034   65.7008 C   0  0  0  0  0  0  0  0  0  0  0  0
  -31.0531   65.7541   66.4865 C   0  0  0  0  0  0  0  0  0  0  0  0
  -32.4019   65.4327   65.8216 C   0  0  0  0  0  0  0  0  0  0  0  0
  -32.3049   65.8104   64.3565 C   0  0  0  0  0  0  0  0  0  0  0  0
  -32.1409   67.0568   61.7280 Si  0  0  0  0  0  0  0  0  0  0  0  0
  -31.1457   65.7145   62.3634 O   0  0  0  0  0  0  0  0  0  0  0  0
  -31.6496   67.4486   60.4545 H   0  0  0  0  0  0  0  0  0  0  0  0
  -32.0744   68.1591   62.6205 H   0  0  0  0  0  0  0  0  0  0  0  0
  -33.4891   66.6288   61.6039 H   0  0  0  0  0  0  0  0  0  0  0  0
  -39.2902   58.0151   63.5781 C   0  0  0  0  0  0  0  0  0  0  0  0
  -38.2222   58.3481   64.6272 C   0  0  0  0  0  0  0  0  0  0  0  0
  -40.4260   57.0753   64.0171 C   0  0  0  0  0  0  0  0  0  0  0  0
  -41.6822   57.0118   63.1241 C   0  0  0  0  0  0  0  0  0  0  0  0
  -42.8631   57.1595   63.9806 N   0  0  0  0  0  0  0  0  0  0  0  0
  -43.7639   58.1764   64.0286 C   0  0  0  0  0  0  0  0  0  0  0  0
  -43.0651   56.0868   64.8604 O   0  0  0  0  0  0  0  0  0  0  0  0
  -43.6666   59.1494   63.2812 O   0  0  0  0  0  0  0  0  0  0  0  0
  -43.8590   56.2507   65.3931 H   0  0  0  0  0  0  0  0  0  0  0  0
  -44.9130   58.1022   65.0395 C   0  0  0  0  0  0  0  0  0  0  0  0
  -45.6187   59.4402   65.2990 C   0  0  0  0  0  0  0  0  0  0  0  0
  -47.0732   59.3772   64.7944 C   0  0  0  0  0  0  0  0  0  0  0  0
  -47.8581   58.1648   65.3300 C   0  0  0  0  0  0  0  0  0  0  0  0
  -49.2832   58.0222   64.7636 C   0  0  0  0  0  0  0  0  0  0  0  0
  -50.3540   58.6782   65.6605 C   0  0  0  0  0  0  0  0  0  0  0  0
  -50.7529   60.1118   65.2397 C   0  0  0  0  0  0  0  0  0  0  0  0
  -51.9729   60.1582   64.3126 C   0  0  0  0  0  0  0  0  0  0  0  0
  -51.6858   59.8680   62.8362 C   0  0  0  0  0  0  0  0  0  0  0  0
  -50.7283   60.9129   62.2348 C   0  0  0  0  0  0  0  0  0  0  0  0
  -49.4064   60.3230   61.7204 C   0  0  0  0  0  0  0  0  0  0  0  0
  -49.5359   59.2168   60.6683 C   0  0  0  0  0  0  0  0  0  0  0  0
  -48.7759   57.9132   61.0191 C   0  0  0  0  0  0  0  0  0  0  0  0
  -49.7369   56.7126   61.1349 C   0  0  0  0  0  0  0  0  0  0  0  0
  -51.2399   57.0166   61.1327 C   0  0  0  0  0  0  0  0  0  0  0  0
 46 47  1  0  0  0
 46 48  1  0  0  0
 46 45  1  0  0  0
 47 49  2  0  0  0
 47 51  1  0  0  0
 19 20  2  0  0  0
 37 38  1  0  0  0
 37 39  1  0  0  0
 37 40  1  0  0  0
 37 41  1  0  0  0
 48 50  1  0  0  0
 38 29  1  0  0  0
 45 44  1  0  0  0
 25 27  1  0  0  0
 25 35  1  0  0  0
 25 28  1  0  0  0
 21 20  1  0  0  0
 21 22  1  0  0  0
 44 42  1  0  0  0
  2  1  1  0  0  0
  2  4  1  0  0  0
  2  5  1  0  0  0
 26 27  2  0  0  0
 42 43  2  0  0  0
 29 31  1  0  0  0
 29 36  1  0  0  0
  3  4  2  0  0  0
 43  1  1  0  0  0
  6  9  2  0  0  0
  6 10  1  0  0  0
  1 20  1  0  0  0
 30 36  2  0  0  0
  7  8  1  0  0  0
  7  9  1  0  0  0
 22 24  1  0  0  0
 22 23  1  0  0  0
 11 12  1  0  0  0
 11 18  1  0  0  0
 24 27  1  0  0  0
  4 10  1  0  0  0
 51 52  1  0  0  0
 52 53  1  0  0  0
 53 54  1  0  0  0
 54 55  1  0  0  0
 55 56  1  0  0  0
 56 57  1  0  0  0
 57 58  1  0  0  0
 58 59  1  0  0  0
 59 60  1  0  0  0
 60 61  1  0  0  0
 61 62  1  0  0  0
 62 63  1  0  0  0
 63 64  1  0  0  0
 64 65  1  0  0  0
 31 32  1  0  0  0
 32 33  1  0  0  0
 33 34  1  0  0  0
 34 35  1  0  0  0
 35 36  1  0  0  0
  8 10  1  0  0  0
  9 17  1  0  0  0
 12 13  2  0  0  0
 12 17  1  0  0  0
 13 14  1  0  0  0
 14 15  2  0  0  0
 15 16  1  0  0  0
 16 17  2  0  0  0
M  END
> <minimizedAffinity>
-9.37890

> <CNNscore>
0.3474784195

> <CNNaffinity>
6.8983054161

> <CNN_VS>
2.3970122337

> <CNNaffinity_variance>
0.0209745727

$$$$
/media/chris/experiments/cd1a-new-docking/inputs/ligands/1xz0_ligand.pdb


 65 67  0  0  0  0  0  0  0  0999 V2000
  -36.9549   58.9493   63.6310 C   0  0  0  0  0  0  0  0  0  0  0  0
  -36.4745   60.1604   64.2993 N   0  0  0  0  0  0  0  0  0  0  0  0
  -38.1976   60.7005   65.6821 O   0  0  0  0  0  0  0  0  0  0  0  0
  -37.0825   60.9196   65.2274 C   0  0  0  0  0  0  0  0  0  0  0  0
  -35.5768   60.4622   64.0302 H   0  0  0  0  0  0  0  0  0  0  0  0
  -36.2635   63.1697   64.5594 N   0  0  0  0  0  0  0  0  0  0  0  0
  -34.1858   63.0564   65.3735 O   0  0  0  0  0  0  0  0  0  0  0  0
  -34.9233   62.1423   66.1842 C   0  0  0  0  0  0  0  0  0  0  0  0
  -35.0920   63.6180   64.4032 C   0  0  0  0  0  0  0  0  0  0  0  0
  -36.3867   62.2004   65.6648 C   0  0  0  0  0  0  0  0  0  0  0  0
  -36.2262   63.8360   61.7456 O   0  0  0  0  0  0  0  0  0  0  0  0
  -35.2866   64.7128   62.1199 C   0  0  0  0  0  0  0  0  0  0  0  0
  -34.8858   65.7197   61.2320 C   0  0  0  0  0  0  0  0  0  0  0  0
  -33.8948   66.6463   61.5976 C   0  0  0  0  0  0  0  0  0  0  0  0
  -33.3003   66.5825   62.8590 C   0  0  0  0  0  0  0  0  0  0  0  0
  -33.7012   65.5836   63.7506 C   0  0  0  0  0  0  0  0  0  0  0  0
  -34.6878   64.6483   63.3840 C   0  0  0  0  0  0  0  0  0  0  0  0
  -36.6131   63.8986   60.8945 H   0  0  0  0  0  0  0  0  0  0  0  0
  -36.3007   57.1957   65.1250 O   0  0  0  0  0  0  0  0  0  0  0  0
  -36.0618   57.8178   64.1030 C   0  0  0  0  0  0  0  0  0  0  0  0
  -34.8394   57.4943   63.3599 O   0  0  0  0  0  0  0  0  0  0  0  0
  -33.5497   57.9597   63.8001 C   0  0  0  0  0  0  0  0  0  0  0  0
  -33.5856   58.8408   65.0428 C   0  0  0  0  0  0  0  0  0  0  0  0
  -32.8763   58.6757   62.6389 C   0  0  0  0  0  0  0  0  0  0  0  0
  -31.8595   60.8999   62.7600 N   0  0  0  0  0  0  0  0  0  0  0  0
  -34.1045   60.6423   62.6639 O   0  0  0  0  0  0  0  0  0  0  0  0
  -32.9889   60.1779   62.7220 C   0  0  0  0  0  0  0  0  0  0  0  0
  -31.0058   60.4119   62.8069 H   0  0  0  0  0  0  0  0  0  0  0  0
  -30.1406   62.8360   60.9847 N   0  0  0  0  0  0  0  0  0  0  0  0
  -32.2350   63.6377   60.7945 O   0  0  0  0  0  0  0  0  0  0  0  0
  -29.1606   61.8760   61.5137 C   0  0  0  0  0  0  0  0  0  0  0  0
  -28.7359   62.2624   62.9430 C   0  0  0  0  0  0  0  0  0  0  0  0
  -29.5223   63.4031   63.5676 C   0  0  0  0  0  0  0  0  0  0  0  0
  -30.9833   63.0404   63.8469 C   0  0  0  0  0  0  0  0  0  0  0  0
  -31.8064   62.3662   62.7366 C   0  0  0  0  0  0  0  0  0  0  0  0
  -31.4045   62.9856   61.4124 C   0  0  0  0  0  0  0  0  0  0  0  0
  -30.9176   64.6108   59.0430 Si  0  0  0  0  0  0  0  0  0  0  0  0
  -29.7321   63.6390   59.9627 O   0  0  0  0  0  0  0  0  0  0  0  0
  -30.2427   65.3552   58.0395 H   0  0  0  0  0  0  0  0  0  0  0  0
  -31.5852   65.5015   59.9245 H   0  0  0  0  0  0  0  0  0  0  0  0
  -31.8666   63.7475   58.4342 H   0  0  0  0  0  0  0  0  0  0  0  0
  -38.1199   60.0347   61.5432 C   0  0  0  0  0  0  0  0  0  0  0  0
  -37.1265   59.0040   62.0935 C   0  0  0  0  0  0  0  0  0  0  0  0
  -38.6224   59.8168   60.1059 C   0  0  0  0  0  0  0  0  0  0  0  0
  -40.1483   59.7689   59.8852 C   0  0  0  0  0  0  0  0  0  0  0  0
  -40.6469   58.4881   60.3963 N   0  0  0  0  0  0  0  0  0  0  0  0
  -41.3632   58.2370   61.5239 C   0  0  0  0  0  0  0  0  0  0  0  0
  -40.3249   57.3891   59.5876 O   0  0  0  0  0  0  0  0  0  0  0  0
  -41.6981   59.1472   62.2818 O   0  0  0  0  0  0  0  0  0  0  0  0
  -40.6839   56.5799   59.9839 H   0  0  0  0  0  0  0  0  0  0  0  0
  -41.7496   56.7906   61.8505 C   0  0  0  0  0  0  0  0  0  0  0  0
  -41.0967   56.2297   63.1212 C   0  0  0  0  0  0  0  0  0  0  0  0
  -42.1782   55.8859   64.1634 C   0  0  0  0  0  0  0  0  0  0  0  0
  -42.5999   57.0867   65.0313 C   0  0  0  0  0  0  0  0  0  0  0  0
  -44.1142   57.3676   65.0453 C   0  0  0  0  0  0  0  0  0  0  0  0
  -44.5651   58.2854   63.8897 C   0  0  0  0  0  0  0  0  0  0  0  0
  -45.1480   59.6451   64.3401 C   0  0  0  0  0  0  0  0  0  0  0  0
  -46.3159   59.5122   65.3241 C   0  0  0  0  0  0  0  0  0  0  0  0
  -47.7088   59.4769   64.6875 C   0  0  0  0  0  0  0  0  0  0  0  0
  -48.5618   58.3336   65.2667 C   0  0  0  0  0  0  0  0  0  0  0  0
  -49.7975   57.9888   64.4217 C   0  0  0  0  0  0  0  0  0  0  0  0
  -50.1100   58.9549   63.2744 C   0  0  0  0  0  0  0  0  0  0  0  0
  -51.5861   58.9289   62.8050 C   0  0  0  0  0  0  0  0  0  0  0  0
  -52.2971   60.2647   63.1020 C   0  0  0  0  0  0  0  0  0  0  0  0
  -51.4823   61.3463   63.8214 C   0  0  0  0  0  0  0  0  0  0  0  0
 46 47  1  0  0  0
 46 48  1  0  0  0
 46 45  1  0  0  0
 47 49  2  0  0  0
 47 51  1  0  0  0
 19 20  2  0  0  0
 37 38  1  0  0  0
 37 39  1  0  0  0
 37 40  1  0  0  0
 37 41  1  0  0  0
 48 50  1  0  0  0
 38 29  1  0  0  0
 45 44  1  0  0  0
 25 27  1  0  0  0
 25 35  1  0  0  0
 25 28  1  0  0  0
 21 20  1  0  0  0
 21 22  1  0  0  0
 44 42  1  0  0  0
  2  1  1  0  0  0
  2  4  1  0  0  0
  2  5  1  0  0  0
 26 27  2  0  0  0
 42 43  2  0  0  0
 29 31  1  0  0  0
 29 36  1  0  0  0
  3  4  2  0  0  0
 43  1  1  0  0  0
  6  9  2  0  0  0
  6 10  1  0  0  0
  1 20  1  0  0  0
 30 36  2  0  0  0
  7  8  1  0  0  0
  7  9  1  0  0  0
 22 24  1  0  0  0
 22 23  1  0  0  0
 11 12  1  0  0  0
 11 18  1  0  0  0
 24 27  1  0  0  0
  4 10  1  0  0  0
 51 52  1  0  0  0
 52 53  1  0  0  0
 53 54  1  0  0  0
 54 55  1  0  0  0
 55 56  1  0  0  0
 56 57  1  0  0  0
 57 58  1  0  0  0
 58 59  1  0  0  0
 59 60  1  0  0  0
 60 61  1  0  0  0
 61 62  1  0  0  0
 62 63  1  0  0  0
 63 64  1  0  0  0
 64 65  1  0  0  0
 31 32  1  0  0  0
 32 33  1  0  0  0
 33 34  1  0  0  0
 34 35  1  0  0  0
 35 36  1  0  0  0
  8 10  1  0  0  0
  9 17  1  0  0  0
 12 13  2  0  0  0
 12 17  1  0  0  0
 13 14  1  0  0  0
 14 15  2  0  0  0
 15 16  1  0  0  0
 16 17  2  0  0  0
M  END
> <minimizedAffinity>
-9.66172

> <CNNscore>
0.3191120028

> <CNNaffinity>
7.1948637962

> <CNN_VS>
2.2959673405

> <CNNaffinity_variance>
1.3872845173

$$$$
/media/chris/experiments/cd1a-new-docking/inputs/ligands/1xz0_ligand.pdb


 65 67  0  0  0  0  0  0  0  0999 V2000
  -37.0267   59.1520   63.3653 C   0  0  0  0  0  0  0  0  0  0  0  0
  -36.5494   60.3111   64.1222 N   0  0  0  0  0  0  0  0  0  0  0  0
  -38.3145   60.8063   65.4684 O   0  0  0  0  0  0  0  0  0  0  0  0
  -37.1784   61.0275   65.0701 C   0  0  0  0  0  0  0  0  0  0  0  0
  -35.6362   60.6086   63.9058 H   0  0  0  0  0  0  0  0  0  0  0  0
  -36.1860   63.2455   64.5454 N   0  0  0  0  0  0  0  0  0  0  0  0
  -34.2182   63.0167   65.5785 O   0  0  0  0  0  0  0  0  0  0  0  0
  -35.0825   62.1264   66.2836 C   0  0  0  0  0  0  0  0  0  0  0  0
  -34.9848   63.6383   64.5279 C   0  0  0  0  0  0  0  0  0  0  0  0
  -36.4756   62.2650   65.6091 C   0  0  0  0  0  0  0  0  0  0  0  0
  -33.0285   65.6488   65.2545 O   0  0  0  0  0  0  0  0  0  0  0  0
  -33.4653   65.6010   63.9901 C   0  0  0  0  0  0  0  0  0  0  0  0
  -32.9595   66.5061   63.0479 C   0  0  0  0  0  0  0  0  0  0  0  0
  -33.4088   66.4826   61.7168 C   0  0  0  0  0  0  0  0  0  0  0  0
  -34.3618   65.5470   61.3104 C   0  0  0  0  0  0  0  0  0  0  0  0
  -34.8647   64.6377   62.2451 C   0  0  0  0  0  0  0  0  0  0  0  0
  -34.4229   64.6645   63.5818 C   0  0  0  0  0  0  0  0  0  0  0  0
  -32.3870   66.2841   65.5049 H   0  0  0  0  0  0  0  0  0  0  0  0
  -35.6924   57.1634   63.3602 O   0  0  0  0  0  0  0  0  0  0  0  0
  -35.7986   58.3307   63.0217 C   0  0  0  0  0  0  0  0  0  0  0  0
  -34.6722   58.9592   62.3237 O   0  0  0  0  0  0  0  0  0  0  0  0
  -33.3103   58.6012   62.6249 C   0  0  0  0  0  0  0  0  0  0  0  0
  -32.9279   58.7465   64.0927 C   0  0  0  0  0  0  0  0  0  0  0  0
  -32.3904   59.4227   61.7341 C   0  0  0  0  0  0  0  0  0  0  0  0
  -31.2983   61.6138   61.7811 N   0  0  0  0  0  0  0  0  0  0  0  0
  -33.4177   61.3455   62.5241 O   0  0  0  0  0  0  0  0  0  0  0  0
  -32.3894   60.8921   62.0764 C   0  0  0  0  0  0  0  0  0  0  0  0
  -30.5169   61.1354   61.4211 H   0  0  0  0  0  0  0  0  0  0  0  0
  -29.0788   63.6079   60.8055 N   0  0  0  0  0  0  0  0  0  0  0  0
  -31.0036   64.5707   60.1471 O   0  0  0  0  0  0  0  0  0  0  0  0
  -28.3236   62.5291   61.4596 C   0  0  0  0  0  0  0  0  0  0  0  0
  -28.3056   62.7253   62.9873 C   0  0  0  0  0  0  0  0  0  0  0  0
  -29.1940   63.8428   63.5085 C   0  0  0  0  0  0  0  0  0  0  0  0
  -30.6866   63.5551   63.3266 C   0  0  0  0  0  0  0  0  0  0  0  0
  -31.1872   63.0664   61.9571 C   0  0  0  0  0  0  0  0  0  0  0  0
  -30.4057   63.7979   60.8834 C   0  0  0  0  0  0  0  0  0  0  0  0
  -26.9302   63.9444   59.1338 Si  0  0  0  0  0  0  0  0  0  0  0  0
  -28.3694   64.4876   60.0446 O   0  0  0  0  0  0  0  0  0  0  0  0
  -26.3749   65.0436   58.4266 H   0  0  0  0  0  0  0  0  0  0  0  0
  -27.3072   62.9311   58.2133 H   0  0  0  0  0  0  0  0  0  0  0  0
  -25.9653   63.4272   60.0381 H   0  0  0  0  0  0  0  0  0  0  0  0
  -38.6968   58.2189   61.5670 C   0  0  0  0  0  0  0  0  0  0  0  0
  -37.9503   59.4236   62.1531 C   0  0  0  0  0  0  0  0  0  0  0  0
  -39.2536   58.3730   60.1414 C   0  0  0  0  0  0  0  0  0  0  0  0
  -40.6845   57.8611   59.8772 C   0  0  0  0  0  0  0  0  0  0  0  0
  -41.4058   57.8332   61.1536 N   0  0  0  0  0  0  0  0  0  0  0  0
  -41.9640   58.8626   61.8440 C   0  0  0  0  0  0  0  0  0  0  0  0
  -41.5201   56.5533   61.7142 O   0  0  0  0  0  0  0  0  0  0  0  0
  -41.9196   60.0154   61.4153 O   0  0  0  0  0  0  0  0  0  0  0  0
  -42.0055   56.6095   62.5521 H   0  0  0  0  0  0  0  0  0  0  0  0
  -42.6525   58.5715   63.1816 C   0  0  0  0  0  0  0  0  0  0  0  0
  -43.7556   59.5697   63.5592 C   0  0  0  0  0  0  0  0  0  0  0  0
  -44.6940   58.9474   64.6109 C   0  0  0  0  0  0  0  0  0  0  0  0
  -45.9817   59.7601   64.8440 C   0  0  0  0  0  0  0  0  0  0  0  0
  -46.7969   59.3304   66.0780 C   0  0  0  0  0  0  0  0  0  0  0  0
  -47.9927   60.2635   66.3621 C   0  0  0  0  0  0  0  0  0  0  0  0
  -49.3788   59.6229   66.1177 C   0  0  0  0  0  0  0  0  0  0  0  0
  -49.9883   59.9875   64.7591 C   0  0  0  0  0  0  0  0  0  0  0  0
  -51.4701   60.3749   64.7881 C   0  0  0  0  0  0  0  0  0  0  0  0
  -52.1179   60.2200   63.4001 C   0  0  0  0  0  0  0  0  0  0  0  0
  -51.1787   59.6308   62.3368 C   0  0  0  0  0  0  0  0  0  0  0  0
  -51.3137   58.1247   62.0904 C   0  0  0  0  0  0  0  0  0  0  0  0
  -50.9421   57.6793   60.6539 C   0  0  0  0  0  0  0  0  0  0  0  0
  -49.4174   57.5171   60.4892 C   0  0  0  0  0  0  0  0  0  0  0  0
  -48.7736   58.1661   59.2581 C   0  0  0  0  0  0  0  0  0  0  0  0
 46 47  1  0  0  0
 46 48  1  0  0  0
 46 45  1  0  0  0
 47 49  2  0  0  0
 47 51  1  0  0  0
 19 20  2  0  0  0
 37 38  1  0  0  0
 37 39  1  0  0  0
 37 40  1  0  0  0
 37 41  1  0  0  0
 48 50  1  0  0  0
 38 29  1  0  0  0
 45 44  1  0  0  0
 25 27  1  0  0  0
 25 35  1  0  0  0
 25 28  1  0  0  0
 21 20  1  0  0  0
 21 22  1  0  0  0
 44 42  1  0  0  0
  2  1  1  0  0  0
  2  4  1  0  0  0
  2  5  1  0  0  0
 26 27  2  0  0  0
 42 43  2  0  0  0
 29 31  1  0  0  0
 29 36  1  0  0  0
  3  4  2  0  0  0
 43  1  1  0  0  0
  6  9  2  0  0  0
  6 10  1  0  0  0
  1 20  1  0  0  0
 30 36  2  0  0  0
  7  8  1  0  0  0
  7  9  1  0  0  0
 22 24  1  0  0  0
 22 23  1  0  0  0
 11 12  1  0  0  0
 11 18  1  0  0  0
 24 27  1  0  0  0
  4 10  1  0  0  0
 51 52  1  0  0  0
 52 53  1  0  0  0
 53 54  1  0  0  0
 54 55  1  0  0  0
 55 56  1  0  0  0
 56 57  1  0  0  0
 57 58  1  0  0  0
 58 59  1  0  0  0
 59 60  1  0  0  0
 60 61  1  0  0  0
 61 62  1  0  0  0
 62 63  1  0  0  0
 63 64  1  0  0  0
 64 65  1  0  0  0
 31 32  1  0  0  0
 32 33  1  0  0  0
 33 34  1  0  0  0
 34 35  1  0  0  0
 35 36  1  0  0  0
  8 10  1  0  0  0
  9 17  1  0  0  0
 12 13  2  0  0  0
 12 17  1  0  0  0
 13 14  1  0  0  0
 14 15  2  0  0  0
 15 16  1  0  0  0
 16 17  2  0  0  0
M  END
> <minimizedAffinity>
-9.68938

> <CNNscore>
0.3152421415

> <CNNaffinity>
6.9428930283

> <CNN_VS>
2.1886925697

> <CNNaffinity_variance>
0.2295001447

$$$$
/media/chris/experiments/cd1a-new-docking/inputs/ligands/1xz0_ligand.pdb


 65 67  0  0  0  0  0  0  0  0999 V2000
  -37.8878   59.6107   63.2371 C   0  0  0  0  0  0  0  0  0  0  0  0
  -37.2520   60.7136   63.9606 N   0  0  0  0  0  0  0  0  0  0  0  0
  -37.7887   60.2816   66.1281 O   0  0  0  0  0  0  0  0  0  0  0  0
  -37.2384   60.9714   65.2800 C   0  0  0  0  0  0  0  0  0  0  0  0
  -36.7643   61.3595   63.4000 H   0  0  0  0  0  0  0  0  0  0  0  0
  -36.4475   63.2411   64.6451 N   0  0  0  0  0  0  0  0  0  0  0  0
  -34.3991   63.1741   65.5350 O   0  0  0  0  0  0  0  0  0  0  0  0
  -35.1446   62.2417   66.3170 C   0  0  0  0  0  0  0  0  0  0  0  0
  -35.2818   63.7166   64.5327 C   0  0  0  0  0  0  0  0  0  0  0  0
  -36.5889   62.2671   65.7442 C   0  0  0  0  0  0  0  0  0  0  0  0
  -33.0101   65.4874   64.8496 O   0  0  0  0  0  0  0  0  0  0  0  0
  -33.7443   65.5734   63.7337 C   0  0  0  0  0  0  0  0  0  0  0  0
  -33.3925   66.4992   62.7426 C   0  0  0  0  0  0  0  0  0  0  0  0
  -34.1525   66.6154   61.5666 C   0  0  0  0  0  0  0  0  0  0  0  0
  -35.2674   65.8002   61.3638 C   0  0  0  0  0  0  0  0  0  0  0  0
  -35.6188   64.8707   62.3467 C   0  0  0  0  0  0  0  0  0  0  0  0
  -34.8642   64.7579   63.5301 C   0  0  0  0  0  0  0  0  0  0  0  0
  -32.2646   66.0435   64.9640 H   0  0  0  0  0  0  0  0  0  0  0  0
  -37.3253   58.8091   61.0516 O   0  0  0  0  0  0  0  0  0  0  0  0
  -36.9278   59.2153   62.1312 C   0  0  0  0  0  0  0  0  0  0  0  0
  -35.4816   59.2526   62.3722 O   0  0  0  0  0  0  0  0  0  0  0  0
  -34.7598   58.0761   62.7826 C   0  0  0  0  0  0  0  0  0  0  0  0
  -35.2349   57.4689   64.0969 C   0  0  0  0  0  0  0  0  0  0  0  0
  -33.2785   58.4179   62.8397 C   0  0  0  0  0  0  0  0  0  0  0  0
  -32.5867   60.6948   62.2625 N   0  0  0  0  0  0  0  0  0  0  0  0
  -33.2909   60.1783   64.3489 O   0  0  0  0  0  0  0  0  0  0  0  0
  -33.0150   59.8550   63.2163 C   0  0  0  0  0  0  0  0  0  0  0  0
  -32.3920   60.3175   61.3743 H   0  0  0  0  0  0  0  0  0  0  0  0
  -30.6312   62.6744   60.8092 N   0  0  0  0  0  0  0  0  0  0  0  0
  -32.6290   63.7054   60.7023 O   0  0  0  0  0  0  0  0  0  0  0  0
  -29.7678   61.5542   61.2112 C   0  0  0  0  0  0  0  0  0  0  0  0
  -29.3503   61.6904   62.6876 C   0  0  0  0  0  0  0  0  0  0  0  0
  -30.0380   62.8067   63.4560 C   0  0  0  0  0  0  0  0  0  0  0  0
  -31.5355   62.5602   63.6576 C   0  0  0  0  0  0  0  0  0  0  0  0
  -32.3876   62.1366   62.4496 C   0  0  0  0  0  0  0  0  0  0  0  0
  -31.8864   62.8913   61.2339 C   0  0  0  0  0  0  0  0  0  0  0  0
  -31.1895   64.6706   59.0128 Si  0  0  0  0  0  0  0  0  0  0  0  0
  -30.1143   63.5667   59.9189 O   0  0  0  0  0  0  0  0  0  0  0  0
  -30.4104   65.4936   58.1571 H   0  0  0  0  0  0  0  0  0  0  0  0
  -31.9098   65.4852   59.9259 H   0  0  0  0  0  0  0  0  0  0  0  0
  -32.1023   63.9098   58.2353 H   0  0  0  0  0  0  0  0  0  0  0  0
  -40.4143   58.9052   63.3514 C   0  0  0  0  0  0  0  0  0  0  0  0
  -39.3419   59.8220   62.7501 C   0  0  0  0  0  0  0  0  0  0  0  0
  -41.7447   58.7978   62.5869 C   0  0  0  0  0  0  0  0  0  0  0  0
  -42.8385   57.8902   63.1862 C   0  0  0  0  0  0  0  0  0  0  0  0
  -43.7810   58.7341   63.9276 N   0  0  0  0  0  0  0  0  0  0  0  0
  -44.6399   58.3880   64.9227 C   0  0  0  0  0  0  0  0  0  0  0  0
  -43.7708   60.0795   63.5334 O   0  0  0  0  0  0  0  0  0  0  0  0
  -44.7019   57.2306   65.3367 O   0  0  0  0  0  0  0  0  0  0  0  0
  -44.4145   60.5762   64.0624 H   0  0  0  0  0  0  0  0  0  0  0  0
  -45.5465   59.4649   65.5279 C   0  0  0  0  0  0  0  0  0  0  0  0
  -46.9724   59.4877   64.9606 C   0  0  0  0  0  0  0  0  0  0  0  0
  -47.9845   59.1116   66.0599 C   0  0  0  0  0  0  0  0  0  0  0  0
  -49.2015   60.0539   66.1240 C   0  0  0  0  0  0  0  0  0  0  0  0
  -50.5443   59.3930   65.7605 C   0  0  0  0  0  0  0  0  0  0  0  0
  -51.2990   60.1425   64.6425 C   0  0  0  0  0  0  0  0  0  0  0  0
  -51.4104   59.3649   63.3105 C   0  0  0  0  0  0  0  0  0  0  0  0
  -50.1206   58.6332   62.9216 C   0  0  0  0  0  0  0  0  0  0  0  0
  -49.1668   59.4212   62.0182 C   0  0  0  0  0  0  0  0  0  0  0  0
  -49.7409   59.5797   60.5986 C   0  0  0  0  0  0  0  0  0  0  0  0
  -50.2025   58.2597   59.9626 C   0  0  0  0  0  0  0  0  0  0  0  0
  -49.4302   57.8155   58.7162 C   0  0  0  0  0  0  0  0  0  0  0  0
  -48.0149   57.2582   59.0099 C   0  0  0  0  0  0  0  0  0  0  0  0
  -47.1575   57.1902   57.7298 C   0  0  0  0  0  0  0  0  0  0  0  0
  -47.2594   58.3703   56.7559 C   0  0  0  0  0  0  0  0  0  0  0  0
 46 47  1  0  0  0
 46 48  1  0  0  0
 46 45  1  0  0  0
 47 49  2  0  0  0
 47 51  1  0  0  0
 19 20  2  0  0  0
 37 38  1  0  0  0
 37 39  1  0  0  0
 37 40  1  0  0  0
 37 41  1  0  0  0
 48 50  1  0  0  0
 38 29  1  0  0  0
 45 44  1  0  0  0
 25 27  1  0  0  0
 25 35  1  0  0  0
 25 28  1  0  0  0
 21 20  1  0  0  0
 21 22  1  0  0  0
 44 42  1  0  0  0
  2  1  1  0  0  0
  2  4  1  0  0  0
  2  5  1  0  0  0
 26 27  2  0  0  0
 42 43  2  0  0  0
 29 31  1  0  0  0
 29 36  1  0  0  0
  3  4  2  0  0  0
 43  1  1  0  0  0
  6  9  2  0  0  0
  6 10  1  0  0  0
  1 20  1  0  0  0
 30 36  2  0  0  0
  7  8  1  0  0  0
  7  9  1  0  0  0
 22 24  1  0  0  0
 22 23  1  0  0  0
 11 12  1  0  0  0
 11 18  1  0  0  0
 24 27  1  0  0  0
  4 10  1  0  0  0
 51 52  1  0  0  0
 52 53  1  0  0  0
 53 54  1  0  0  0
 54 55  1  0  0  0
 55 56  1  0  0  0
 56 57  1  0  0  0
 57 58  1  0  0  0
 58 59  1  0  0  0
 59 60  1  0  0  0
 60 61  1  0  0  0
 61 62  1  0  0  0
 62 63  1  0  0  0
 63 64  1  0  0  0
 64 65  1  0  0  0
 31 32  1  0  0  0
 32 33  1  0  0  0
 33 34  1  0  0  0
 34 35  1  0  0  0
 35 36  1  0  0  0
  8 10  1  0  0  0
  9 17  1  0  0  0
 12 13  2  0  0  0
 12 17  1  0  0  0
 13 14  1  0  0  0
 14 15  2  0  0  0
 15 16  1  0  0  0
 16 17  2  0  0  0
M  END
> <minimizedAffinity>
-9.78584

> <CNNscore>
0.3071131110

> <CNNaffinity>
6.7895531654

> <CNN_VS>
2.0851607323

> <CNNaffinity_variance>
0.2143146992

$$$$
/media/chris/experiments/cd1a-new-docking/inputs/ligands/1xz0_ligand.pdb


 65 67  0  0  0  0  0  0  0  0999 V2000
  -37.7423   59.1262   63.3818 C   0  0  0  0  0  0  0  0  0  0  0  0
  -36.3342   59.2529   63.7631 N   0  0  0  0  0  0  0  0  0  0  0  0
  -35.2335   58.6843   61.8557 O   0  0  0  0  0  0  0  0  0  0  0  0
  -35.2296   59.0391   63.0271 C   0  0  0  0  0  0  0  0  0  0  0  0
  -36.1731   59.5355   64.6923 H   0  0  0  0  0  0  0  0  0  0  0  0
  -33.0180   60.1702   63.1211 N   0  0  0  0  0  0  0  0  0  0  0  0
  -31.6929   58.3725   63.1863 O   0  0  0  0  0  0  0  0  0  0  0  0
  -32.9275   57.9099   63.7328 C   0  0  0  0  0  0  0  0  0  0  0  0
  -31.8585   59.7595   62.8305 C   0  0  0  0  0  0  0  0  0  0  0  0
  -33.8808   59.1371   63.7250 C   0  0  0  0  0  0  0  0  0  0  0  0
  -32.2902   62.1505   61.2514 O   0  0  0  0  0  0  0  0  0  0  0  0
  -31.0343   61.7624   61.5041 C   0  0  0  0  0  0  0  0  0  0  0  0
  -29.9631   62.5231   61.0176 C   0  0  0  0  0  0  0  0  0  0  0  0
  -28.6358   62.1317   61.2612 C   0  0  0  0  0  0  0  0  0  0  0  0
  -28.3646   60.9804   62.0025 C   0  0  0  0  0  0  0  0  0  0  0  0
  -29.4298   60.2216   62.4954 C   0  0  0  0  0  0  0  0  0  0  0  0
  -30.7610   60.6065   62.2455 C   0  0  0  0  0  0  0  0  0  0  0  0
  -32.4491   62.9279   60.7529 H   0  0  0  0  0  0  0  0  0  0  0  0
  -38.5944   60.5221   61.6323 O   0  0  0  0  0  0  0  0  0  0  0  0
  -38.1383   60.4527   62.7618 C   0  0  0  0  0  0  0  0  0  0  0  0
  -37.9114   61.6998   63.4996 O   0  0  0  0  0  0  0  0  0  0  0  0
  -36.5848   62.2265   63.6906 C   0  0  0  0  0  0  0  0  0  0  0  0
  -36.4071   63.0472   64.9621 C   0  0  0  0  0  0  0  0  0  0  0  0
  -36.2081   63.0351   62.4582 C   0  0  0  0  0  0  0  0  0  0  0  0
  -34.1269   64.1138   63.1661 N   0  0  0  0  0  0  0  0  0  0  0  0
  -35.9413   65.3347   62.5891 O   0  0  0  0  0  0  0  0  0  0  0  0
  -35.4022   64.2690   62.7814 C   0  0  0  0  0  0  0  0  0  0  0  0
  -33.7955   63.1954   63.2922 H   0  0  0  0  0  0  0  0  0  0  0  0
  -31.1452   64.0577   64.1464 N   0  0  0  0  0  0  0  0  0  0  0  0
  -31.0979   65.3918   62.3344 O   0  0  0  0  0  0  0  0  0  0  0  0
  -31.8516   63.2015   65.1106 C   0  0  0  0  0  0  0  0  0  0  0  0
  -32.5458   64.0536   66.1898 C   0  0  0  0  0  0  0  0  0  0  0  0
  -32.5221   65.5536   65.9467 C   0  0  0  0  0  0  0  0  0  0  0  0
  -33.3608   65.9774   64.7380 C   0  0  0  0  0  0  0  0  0  0  0  0
  -33.1906   65.2165   63.4126 C   0  0  0  0  0  0  0  0  0  0  0  0
  -31.7219   64.8763   63.2518 C   0  0  0  0  0  0  0  0  0  0  0  0
  -28.8851   64.0364   65.7006 Si  0  0  0  0  0  0  0  0  0  0  0  0
  -29.7837   64.0087   64.1554 O   0  0  0  0  0  0  0  0  0  0  0  0
  -27.4908   63.9757   65.4384 H   0  0  0  0  0  0  0  0  0  0  0  0
  -29.2672   62.9202   66.4906 H   0  0  0  0  0  0  0  0  0  0  0  0
  -29.1833   65.2357   66.4000 H   0  0  0  0  0  0  0  0  0  0  0  0
  -40.1462   58.2658   63.9942 C   0  0  0  0  0  0  0  0  0  0  0  0
  -38.7313   58.6269   64.4629 C   0  0  0  0  0  0  0  0  0  0  0  0
  -41.2389   58.1945   65.0744 C   0  0  0  0  0  0  0  0  0  0  0  0
  -42.4002   57.2049   64.8474 C   0  0  0  0  0  0  0  0  0  0  0  0
  -43.6114   57.9771   64.5527 N   0  0  0  0  0  0  0  0  0  0  0  0
  -44.7049   58.1851   65.3329 C   0  0  0  0  0  0  0  0  0  0  0  0
  -43.6114   58.5721   63.2832 O   0  0  0  0  0  0  0  0  0  0  0  0
  -44.7792   57.7091   66.4655 O   0  0  0  0  0  0  0  0  0  0  0  0
  -44.4378   59.0639   63.1568 H   0  0  0  0  0  0  0  0  0  0  0  0
  -45.8622   59.0233   64.7796 C   0  0  0  0  0  0  0  0  0  0  0  0
  -46.9093   59.4298   65.8255 C   0  0  0  0  0  0  0  0  0  0  0  0
  -48.2063   59.8812   65.1269 C   0  0  0  0  0  0  0  0  0  0  0  0
  -49.4460   59.8318   66.0401 C   0  0  0  0  0  0  0  0  0  0  0  0
  -50.7883   60.0266   65.3104 C   0  0  0  0  0  0  0  0  0  0  0  0
  -50.7113   61.0764   64.1820 C   0  0  0  0  0  0  0  0  0  0  0  0
  -51.2233   60.5818   62.8092 C   0  0  0  0  0  0  0  0  0  0  0  0
  -51.9296   59.2228   62.8751 C   0  0  0  0  0  0  0  0  0  0  0  0
  -51.3050   58.1170   62.0185 C   0  0  0  0  0  0  0  0  0  0  0  0
  -49.7839   58.0281   62.2389 C   0  0  0  0  0  0  0  0  0  0  0  0
  -48.9609   58.1164   60.9448 C   0  0  0  0  0  0  0  0  0  0  0  0
  -49.3514   57.1305   59.8390 C   0  0  0  0  0  0  0  0  0  0  0  0
  -49.1170   57.6604   58.4023 C   0  0  0  0  0  0  0  0  0  0  0  0
  -47.6210   57.6370   58.0284 C   0  0  0  0  0  0  0  0  0  0  0  0
  -47.2047   58.3918   56.7602 C   0  0  0  0  0  0  0  0  0  0  0  0
 46 47  1  0  0  0
 46 48  1  0  0  0
 46 45  1  0  0  0
 47 49  2  0  0  0
 47 51  1  0  0  0
 19 20  2  0  0  0
 37 38  1  0  0  0
 37 39  1  0  0  0
 37 40  1  0  0  0
 37 41  1  0  0  0
 48 50  1  0  0  0
 38 29  1  0  0  0
 45 44  1  0  0  0
 25 27  1  0  0  0
 25 35  1  0  0  0
 25 28  1  0  0  0
 21 20  1  0  0  0
 21 22  1  0  0  0
 44 42  1  0  0  0
  2  1  1  0  0  0
  2  4  1  0  0  0
  2  5  1  0  0  0
 26 27  2  0  0  0
 42 43  2  0  0  0
 29 31  1  0  0  0
 29 36  1  0  0  0
  3  4  2  0  0  0
 43  1  1  0  0  0
  6  9  2  0  0  0
  6 10  1  0  0  0
  1 20  1  0  0  0
 30 36  2  0  0  0
  7  8  1  0  0  0
  7  9  1  0  0  0
 22 24  1  0  0  0
 22 23  1  0  0  0
 11 12  1  0  0  0
 11 18  1  0  0  0
 24 27  1  0  0  0
  4 10  1  0  0  0
 51 52  1  0  0  0
 52 53  1  0  0  0
 53 54  1  0  0  0
 54 55  1  0  0  0
 55 56  1  0  0  0
 56 57  1  0  0  0
 57 58  1  0  0  0
 58 59  1  0  0  0
 59 60  1  0  0  0
 60 61  1  0  0  0
 61 62  1  0  0  0
 62 63  1  0  0  0
 63 64  1  0  0  0
 64 65  1  0  0  0
 31 32  1  0  0  0
 32 33  1  0  0  0
 33 34  1  0  0  0
 34 35  1  0  0  0
 35 36  1  0  0  0
  8 10  1  0  0  0
  9 17  1  0  0  0
 12 13  2  0  0  0
 12 17  1  0  0  0
 13 14  1  0  0  0
 14 15  2  0  0  0
 15 16  1  0  0  0
 16 17  2  0  0  0
M  END
> <minimizedAffinity>
-9.53592

> <CNNscore>
0.2876397371

> <CNNaffinity>
6.6580300331

> <CNN_VS>
1.9151140451

> <CNNaffinity_variance>
0.0985703245

$$$$
/media/chris/experiments/cd1a-new-docking/inputs/ligands/1xz0_ligand.pdb


 65 67  0  0  0  0  0  0  0  0999 V2000
  -36.8928   58.6513   64.4817 C   0  0  0  0  0  0  0  0  0  0  0  0
  -36.2907   59.8826   64.9968 N   0  0  0  0  0  0  0  0  0  0  0  0
  -38.0873   61.0538   65.7541 O   0  0  0  0  0  0  0  0  0  0  0  0
  -36.8824   60.9465   65.5674 C   0  0  0  0  0  0  0  0  0  0  0  0
  -35.3114   59.9397   64.9133 H   0  0  0  0  0  0  0  0  0  0  0  0
  -36.0337   63.1667   64.8391 N   0  0  0  0  0  0  0  0  0  0  0  0
  -33.8513   62.8597   65.2063 O   0  0  0  0  0  0  0  0  0  0  0  0
  -34.4831   61.9560   66.1124 C   0  0  0  0  0  0  0  0  0  0  0  0
  -34.8849   63.5384   64.4655 C   0  0  0  0  0  0  0  0  0  0  0  0
  -36.0113   62.1476   65.9057 C   0  0  0  0  0  0  0  0  0  0  0  0
  -36.2652   63.7465   61.9261 O   0  0  0  0  0  0  0  0  0  0  0  0
  -35.3250   64.6511   62.2253 C   0  0  0  0  0  0  0  0  0  0  0  0
  -35.0415   65.6811   61.3189 C   0  0  0  0  0  0  0  0  0  0  0  0
  -34.0526   66.6373   61.6054 C   0  0  0  0  0  0  0  0  0  0  0  0
  -33.3429   66.5802   62.8061 C   0  0  0  0  0  0  0  0  0  0  0  0
  -33.6265   65.5582   63.7164 C   0  0  0  0  0  0  0  0  0  0  0  0
  -34.6108   64.5934   63.4283 C   0  0  0  0  0  0  0  0  0  0  0  0
  -36.7306   63.8051   61.1149 H   0  0  0  0  0  0  0  0  0  0  0  0
  -35.5971   56.6639   64.8085 O   0  0  0  0  0  0  0  0  0  0  0  0
  -35.7447   57.7043   64.1886 C   0  0  0  0  0  0  0  0  0  0  0  0
  -34.7394   58.0653   63.1835 O   0  0  0  0  0  0  0  0  0  0  0  0
  -33.3338   58.0668   63.4967 C   0  0  0  0  0  0  0  0  0  0  0  0
  -32.9955   58.5975   64.8843 C   0  0  0  0  0  0  0  0  0  0  0  0
  -32.6028   58.8497   62.4163 C   0  0  0  0  0  0  0  0  0  0  0  0
  -31.6083   61.0772   62.6292 N   0  0  0  0  0  0  0  0  0  0  0  0
  -33.8518   60.7977   62.5647 O   0  0  0  0  0  0  0  0  0  0  0  0
  -32.7303   60.3445   62.5773 C   0  0  0  0  0  0  0  0  0  0  0  0
  -30.7485   60.5977   62.6346 H   0  0  0  0  0  0  0  0  0  0  0  0
  -29.9755   63.1220   60.8951 N   0  0  0  0  0  0  0  0  0  0  0  0
  -32.0839   63.9059   60.8203 O   0  0  0  0  0  0  0  0  0  0  0  0
  -28.9668   62.1490   61.3394 C   0  0  0  0  0  0  0  0  0  0  0  0
  -28.4950   62.4679   62.7706 C   0  0  0  0  0  0  0  0  0  0  0  0
  -29.2707   63.5656   63.4800 C   0  0  0  0  0  0  0  0  0  0  0  0
  -30.7166   63.1709   63.7921 C   0  0  0  0  0  0  0  0  0  0  0  0
  -31.5719   62.5433   62.6787 C   0  0  0  0  0  0  0  0  0  0  0  0
  -31.2247   63.2339   61.3744 C   0  0  0  0  0  0  0  0  0  0  0  0
  -30.8363   64.6284   58.7706 Si  0  0  0  0  0  0  0  0  0  0  0  0
  -29.6127   63.9807   59.9015 O   0  0  0  0  0  0  0  0  0  0  0  0
  -30.2069   65.4934   57.8367 H   0  0  0  0  0  0  0  0  0  0  0  0
  -31.8180   65.3514   59.4984 H   0  0  0  0  0  0  0  0  0  0  0  0
  -31.4560   63.5547   58.0780 H   0  0  0  0  0  0  0  0  0  0  0  0
  -38.5973   57.5000   62.8498 C   0  0  0  0  0  0  0  0  0  0  0  0
  -37.9003   58.7848   63.3142 C   0  0  0  0  0  0  0  0  0  0  0  0
  -39.2438   57.5257   61.4543 C   0  0  0  0  0  0  0  0  0  0  0  0
  -40.6088   56.8264   61.2896 C   0  0  0  0  0  0  0  0  0  0  0  0
  -41.6465   57.7105   61.8298 N   0  0  0  0  0  0  0  0  0  0  0  0
  -42.4927   57.4998   62.8725 C   0  0  0  0  0  0  0  0  0  0  0  0
  -41.7562   58.9357   61.1571 O   0  0  0  0  0  0  0  0  0  0  0  0
  -42.4533   56.4564   63.5241 O   0  0  0  0  0  0  0  0  0  0  0  0
  -42.4578   59.4668   61.5653 H   0  0  0  0  0  0  0  0  0  0  0  0
  -43.5137   58.5850   63.2301 C   0  0  0  0  0  0  0  0  0  0  0  0
  -44.2150   58.3780   64.5795 C   0  0  0  0  0  0  0  0  0  0  0  0
  -45.2510   59.4943   64.8134 C   0  0  0  0  0  0  0  0  0  0  0  0
  -46.6326   59.1888   64.2045 C   0  0  0  0  0  0  0  0  0  0  0  0
  -47.3844   60.4217   63.6689 C   0  0  0  0  0  0  0  0  0  0  0  0
  -48.8348   60.1044   63.2484 C   0  0  0  0  0  0  0  0  0  0  0  0
  -49.6280   59.2558   64.2694 C   0  0  0  0  0  0  0  0  0  0  0  0
  -50.5522   58.2219   63.6160 C   0  0  0  0  0  0  0  0  0  0  0  0
  -51.0950   58.6071   62.2362 C   0  0  0  0  0  0  0  0  0  0  0  0
  -51.4092   57.3607   61.3888 C   0  0  0  0  0  0  0  0  0  0  0  0
  -50.1714   56.7164   60.7463 C   0  0  0  0  0  0  0  0  0  0  0  0
  -49.0805   57.6872   60.2829 C   0  0  0  0  0  0  0  0  0  0  0  0
  -49.3104   58.2740   58.8678 C   0  0  0  0  0  0  0  0  0  0  0  0
  -48.4982   57.5118   57.8011 C   0  0  0  0  0  0  0  0  0  0  0  0
  -47.3234   58.2544   57.1533 C   0  0  0  0  0  0  0  0  0  0  0  0
 46 47  1  0  0  0
 46 48  1  0  0  0
 46 45  1  0  0  0
 47 49  2  0  0  0
 47 51  1  0  0  0
 19 20  2  0  0  0
 37 38  1  0  0  0
 37 39  1  0  0  0
 37 40  1  0  0  0
 37 41  1  0  0  0
 48 50  1  0  0  0
 38 29  1  0  0  0
 45 44  1  0  0  0
 25 27  1  0  0  0
 25 35  1  0  0  0
 25 28  1  0  0  0
 21 20  1  0  0  0
 21 22  1  0  0  0
 44 42  1  0  0  0
  2  1  1  0  0  0
  2  4  1  0  0  0
  2  5  1  0  0  0
 26 27  2  0  0  0
 42 43  2  0  0  0
 29 31  1  0  0  0
 29 36  1  0  0  0
  3  4  2  0  0  0
 43  1  1  0  0  0
  6  9  2  0  0  0
  6 10  1  0  0  0
  1 20  1  0  0  0
 30 36  2  0  0  0
  7  8  1  0  0  0
  7  9  1  0  0  0
 22 24  1  0  0  0
 22 23  1  0  0  0
 11 12  1  0  0  0
 11 18  1  0  0  0
 24 27  1  0  0  0
  4 10  1  0  0  0
 51 52  1  0  0  0
 52 53  1  0  0  0
 53 54  1  0  0  0
 54 55  1  0  0  0
 55 56  1  0  0  0
 56 57  1  0  0  0
 57 58  1  0  0  0
 58 59  1  0  0  0
 59 60  1  0  0  0
 60 61  1  0  0  0
 61 62  1  0  0  0
 62 63  1  0  0  0
 63 64  1  0  0  0
 64 65  1  0  0  0
 31 32  1  0  0  0
 32 33  1  0  0  0
 33 34  1  0  0  0
 34 35  1  0  0  0
 35 36  1  0  0  0
  8 10  1  0  0  0
  9 17  1  0  0  0
 12 13  2  0  0  0
 12 17  1  0  0  0
 13 14  1  0  0  0
 14 15  2  0  0  0
 15 16  1  0  0  0
 16 17  2  0  0  0
M  END
> <minimizedAffinity>
-9.91492

> <CNNscore>
0.2531110346

> <CNNaffinity>
6.8090848923

> <CNN_VS>
1.7234544754

> <CNNaffinity_variance>
0.5118095279

$$$$
/media/chris/experiments/cd1a-new-docking/inputs/ligands/1xz0_ligand.pdb


 65 67  0  0  0  0  0  0  0  0999 V2000
  -42.4945   59.7133   63.5330 C   0  0  0  0  0  0  0  0  0  0  0  0
  -41.3775   59.7621   64.4785 N   0  0  0  0  0  0  0  0  0  0  0  0
  -39.7372   60.7867   63.2818 O   0  0  0  0  0  0  0  0  0  0  0  0
  -40.1413   60.2634   64.3118 C   0  0  0  0  0  0  0  0  0  0  0  0
  -41.5578   59.3714   65.3641 H   0  0  0  0  0  0  0  0  0  0  0  0
  -38.1369   61.1535   65.4823 N   0  0  0  0  0  0  0  0  0  0  0  0
  -36.8882   59.3011   65.5244 O   0  0  0  0  0  0  0  0  0  0  0  0
  -38.2271   58.8120   65.4530 C   0  0  0  0  0  0  0  0  0  0  0  0
  -36.9426   60.7416   65.5210 C   0  0  0  0  0  0  0  0  0  0  0  0
  -39.1382   60.0708   65.4399 C   0  0  0  0  0  0  0  0  0  0  0  0
  -36.3187   62.4557   67.7725 O   0  0  0  0  0  0  0  0  0  0  0  0
  -35.4708   62.4161   66.7375 C   0  0  0  0  0  0  0  0  0  0  0  0
  -34.3004   63.1855   66.7710 C   0  0  0  0  0  0  0  0  0  0  0  0
  -33.3992   63.1686   65.6932 C   0  0  0  0  0  0  0  0  0  0  0  0
  -33.6531   62.3743   64.5737 C   0  0  0  0  0  0  0  0  0  0  0  0
  -34.8162   61.6000   64.5382 C   0  0  0  0  0  0  0  0  0  0  0  0
  -35.7256   61.6216   65.6130 C   0  0  0  0  0  0  0  0  0  0  0  0
  -36.1273   62.9948   68.5146 H   0  0  0  0  0  0  0  0  0  0  0  0
  -42.8151   57.4055   64.0864 O   0  0  0  0  0  0  0  0  0  0  0  0
  -43.3233   58.5010   63.9126 C   0  0  0  0  0  0  0  0  0  0  0  0
  -44.7821   58.6161   64.0115 O   0  0  0  0  0  0  0  0  0  0  0  0
  -45.4308   58.8545   65.2748 C   0  0  0  0  0  0  0  0  0  0  0  0
  -45.9256   57.5972   65.9790 C   0  0  0  0  0  0  0  0  0  0  0  0
  -46.5667   59.8417   65.0517 C   0  0  0  0  0  0  0  0  0  0  0  0
  -48.2322   58.7834   63.6019 N   0  0  0  0  0  0  0  0  0  0  0  0
  -48.5603   58.9524   65.8334 O   0  0  0  0  0  0  0  0  0  0  0  0
  -47.9025   59.1722   64.8422 C   0  0  0  0  0  0  0  0  0  0  0  0
  -47.6180   59.0198   62.8698 H   0  0  0  0  0  0  0  0  0  0  0  0
  -49.9316   58.7742   60.9624 N   0  0  0  0  0  0  0  0  0  0  0  0
  -49.5798   56.5930   61.3915 O   0  0  0  0  0  0  0  0  0  0  0  0
  -49.7798   60.2014   61.2815 C   0  0  0  0  0  0  0  0  0  0  0  0
  -50.8080   60.6349   62.3434 C   0  0  0  0  0  0  0  0  0  0  0  0
  -51.6159   59.5066   62.9629 C   0  0  0  0  0  0  0  0  0  0  0  0
  -50.7688   58.5678   63.8261 C   0  0  0  0  0  0  0  0  0  0  0  0
  -49.4442   58.0305   63.2590 C   0  0  0  0  0  0  0  0  0  0  0  0
  -49.6450   57.7504   61.7826 C   0  0  0  0  0  0  0  0  0  0  0  0
  -49.9386   56.9203   58.9409 Si  0  0  0  0  0  0  0  0  0  0  0  0
  -50.3958   58.4630   59.7200 O   0  0  0  0  0  0  0  0  0  0  0  0
  -50.5485   56.8374   57.6611 H   0  0  0  0  0  0  0  0  0  0  0  0
  -50.3770   55.8355   59.7453 H   0  0  0  0  0  0  0  0  0  0  0  0
  -48.5270   56.8628   58.7970 H   0  0  0  0  0  0  0  0  0  0  0  0
  -41.4614   58.5621   61.4113 C   0  0  0  0  0  0  0  0  0  0  0  0
  -42.1549   59.7849   62.0244 C   0  0  0  0  0  0  0  0  0  0  0  0
  -40.7390   58.7730   60.0698 C   0  0  0  0  0  0  0  0  0  0  0  0
  -39.4661   57.9418   59.8087 C   0  0  0  0  0  0  0  0  0  0  0  0
  -38.3442   58.5913   60.4939 N   0  0  0  0  0  0  0  0  0  0  0  0
  -37.7215   58.2314   61.6473 C   0  0  0  0  0  0  0  0  0  0  0  0
  -37.8694   59.7396   59.8446 O   0  0  0  0  0  0  0  0  0  0  0  0
  -38.0680   57.2294   62.2725 O   0  0  0  0  0  0  0  0  0  0  0  0
  -37.1319   60.1153   60.3503 H   0  0  0  0  0  0  0  0  0  0  0  0
  -36.5731   59.0994   62.1724 C   0  0  0  0  0  0  0  0  0  0  0  0
  -35.4158   58.3107   62.8002 C   0  0  0  0  0  0  0  0  0  0  0  0
  -34.1170   58.5587   62.0092 C   0  0  0  0  0  0  0  0  0  0  0  0
  -32.9480   59.0493   62.8844 C   0  0  0  0  0  0  0  0  0  0  0  0
  -32.0443   60.1023   62.2161 C   0  0  0  0  0  0  0  0  0  0  0  0
  -30.5510   59.9150   62.5570 C   0  0  0  0  0  0  0  0  0  0  0  0
  -29.5760   60.5655   61.5482 C   0  0  0  0  0  0  0  0  0  0  0  0
  -28.3084   61.1283   62.2013 C   0  0  0  0  0  0  0  0  0  0  0  0
  -28.5225   62.3448   63.1074 C   0  0  0  0  0  0  0  0  0  0  0  0
  -29.2448   63.4808   62.3604 C   0  0  0  0  0  0  0  0  0  0  0  0
  -30.5764   63.8998   63.0017 C   0  0  0  0  0  0  0  0  0  0  0  0
  -31.5652   64.6152   62.0756 C   0  0  0  0  0  0  0  0  0  0  0  0
  -32.5073   63.6649   61.2950 C   0  0  0  0  0  0  0  0  0  0  0  0
  -33.9376   64.2347   61.2061 C   0  0  0  0  0  0  0  0  0  0  0  0
  -34.3917   65.1653   62.3370 C   0  0  0  0  0  0  0  0  0  0  0  0
 46 47  1  0  0  0
 46 48  1  0  0  0
 46 45  1  0  0  0
 47 49  2  0  0  0
 47 51  1  0  0  0
 19 20  2  0  0  0
 37 38  1  0  0  0
 37 39  1  0  0  0
 37 40  1  0  0  0
 37 41  1  0  0  0
 48 50  1  0  0  0
 38 29  1  0  0  0
 45 44  1  0  0  0
 25 27  1  0  0  0
 25 35  1  0  0  0
 25 28  1  0  0  0
 21 20  1  0  0  0
 21 22  1  0  0  0
 44 42  1  0  0  0
  2  1  1  0  0  0
  2  4  1  0  0  0
  2  5  1  0  0  0
 26 27  2  0  0  0
 42 43  2  0  0  0
 29 31  1  0  0  0
 29 36  1  0  0  0
  3  4  2  0  0  0
 43  1  1  0  0  0
  6  9  2  0  0  0
  6 10  1  0  0  0
  1 20  1  0  0  0
 30 36  2  0  0  0
  7  8  1  0  0  0
  7  9  1  0  0  0
 22 24  1  0  0  0
 22 23  1  0  0  0
 11 12  1  0  0  0
 11 18  1  0  0  0
 24 27  1  0  0  0
  4 10  1  0  0  0
 51 52  1  0  0  0
 52 53  1  0  0  0
 53 54  1  0  0  0
 54 55  1  0  0  0
 55 56  1  0  0  0
 56 57  1  0  0  0
 57 58  1  0  0  0
 58 59  1  0  0  0
 59 60  1  0  0  0
 60 61  1  0  0  0
 61 62  1  0  0  0
 62 63  1  0  0  0
 63 64  1  0  0  0
 64 65  1  0  0  0
 31 32  1  0  0  0
 32 33  1  0  0  0
 33 34  1  0  0  0
 34 35  1  0  0  0
 35 36  1  0  0  0
  8 10  1  0  0  0
  9 17  1  0  0  0
 12 13  2  0  0  0
 12 17  1  0  0  0
 13 14  1  0  0  0
 14 15  2  0  0  0
 15 16  1  0  0  0
 16 17  2  0  0  0
M  END
> <minimizedAffinity>
-9.45002

> <CNNscore>
0.2168864906

> <CNNaffinity>
7.3544797897

> <CNN_VS>
1.5950872898

> <CNNaffinity_variance>
0.8582165837

$$$$
/media/chris/experiments/cd1a-new-docking/inputs/ligands/1xz0_ligand.pdb


 65 67  0  0  0  0  0  0  0  0999 V2000
  -34.3580   61.8921   64.7913 C   0  0  0  0  0  0  0  0  0  0  0  0
  -34.5128   62.8149   63.6649 N   0  0  0  0  0  0  0  0  0  0  0  0
  -36.4357   63.9201   64.1684 O   0  0  0  0  0  0  0  0  0  0  0  0
  -35.4798   63.7190   63.4309 C   0  0  0  0  0  0  0  0  0  0  0  0
  -33.8069   62.7662   62.9803 H   0  0  0  0  0  0  0  0  0  0  0  0
  -34.1837   65.2071   61.9191 N   0  0  0  0  0  0  0  0  0  0  0  0
  -35.7447   66.7502   61.5022 O   0  0  0  0  0  0  0  0  0  0  0  0
  -36.4953   65.5801   61.8253 C   0  0  0  0  0  0  0  0  0  0  0  0
  -34.3452   66.4204   61.6041 C   0  0  0  0  0  0  0  0  0  0  0  0
  -35.4468   64.4682   62.1066 C   0  0  0  0  0  0  0  0  0  0  0  0
  -34.1989   69.1149   62.6600 O   0  0  0  0  0  0  0  0  0  0  0  0
  -33.2136   68.6790   61.8657 C   0  0  0  0  0  0  0  0  0  0  0  0
  -32.1325   69.5220   61.5768 C   0  0  0  0  0  0  0  0  0  0  0  0
  -31.0906   69.0914   60.7382 C   0  0  0  0  0  0  0  0  0  0  0  0
  -31.1130   67.8091   60.1870 C   0  0  0  0  0  0  0  0  0  0  0  0
  -32.1862   66.9621   60.4773 C   0  0  0  0  0  0  0  0  0  0  0  0
  -33.2361   67.3939   61.3102 C   0  0  0  0  0  0  0  0  0  0  0  0
  -34.1625   69.9790   63.0206 H   0  0  0  0  0  0  0  0  0  0  0  0
  -33.2602   62.2650   66.8868 O   0  0  0  0  0  0  0  0  0  0  0  0
  -33.2886   62.4872   65.6875 C   0  0  0  0  0  0  0  0  0  0  0  0
  -32.2957   63.4091   65.1258 O   0  0  0  0  0  0  0  0  0  0  0  0
  -32.0747   64.7118   65.6983 C   0  0  0  0  0  0  0  0  0  0  0  0
  -32.4538   65.8746   64.7896 C   0  0  0  0  0  0  0  0  0  0  0  0
  -30.6189   64.8049   66.1303 C   0  0  0  0  0  0  0  0  0  0  0  0
  -29.6039   63.3528   64.4400 N   0  0  0  0  0  0  0  0  0  0  0  0
  -29.0248   65.5325   64.6119 O   0  0  0  0  0  0  0  0  0  0  0  0
  -29.6479   64.5708   64.9995 C   0  0  0  0  0  0  0  0  0  0  0  0
  -30.1558   62.6441   64.8428 H   0  0  0  0  0  0  0  0  0  0  0  0
  -30.4587   62.8155   61.4676 N   0  0  0  0  0  0  0  0  0  0  0  0
  -28.7650   64.2872   61.2899 O   0  0  0  0  0  0  0  0  0  0  0  0
  -31.3695   61.9729   62.2564 C   0  0  0  0  0  0  0  0  0  0  0  0
  -30.6833   60.6525   62.6541 C   0  0  0  0  0  0  0  0  0  0  0  0
  -29.2013   60.5675   62.3281 C   0  0  0  0  0  0  0  0  0  0  0  0
  -28.3498   61.5332   63.1566 C   0  0  0  0  0  0  0  0  0  0  0  0
  -28.7908   63.0021   63.2699 C   0  0  0  0  0  0  0  0  0  0  0  0
  -29.3560   63.4273   61.9289 C   0  0  0  0  0  0  0  0  0  0  0  0
  -30.6039   61.6550   58.9865 Si  0  0  0  0  0  0  0  0  0  0  0  0
  -30.7667   62.9995   60.1533 O   0  0  0  0  0  0  0  0  0  0  0  0
  -30.9839   62.1019   57.6933 H   0  0  0  0  0  0  0  0  0  0  0  0
  -31.4442   60.5808   59.3818 H   0  0  0  0  0  0  0  0  0  0  0  0
  -29.2543   61.2144   58.9574 H   0  0  0  0  0  0  0  0  0  0  0  0
  -34.7367   59.8750   63.1536 C   0  0  0  0  0  0  0  0  0  0  0  0
  -34.1295   60.3970   64.4616 C   0  0  0  0  0  0  0  0  0  0  0  0
  -34.8999   58.3511   63.0230 C   0  0  0  0  0  0  0  0  0  0  0  0
  -35.5640   57.6034   64.1974 C   0  0  0  0  0  0  0  0  0  0  0  0
  -37.0163   57.7744   64.0889 N   0  0  0  0  0  0  0  0  0  0  0  0
  -37.8690   58.4100   64.9355 C   0  0  0  0  0  0  0  0  0  0  0  0
  -37.5733   57.1913   62.9420 O   0  0  0  0  0  0  0  0  0  0  0  0
  -37.4598   58.9592   65.9581 O   0  0  0  0  0  0  0  0  0  0  0  0
  -38.5315   57.3422   62.9355 H   0  0  0  0  0  0  0  0  0  0  0  0
  -39.3648   58.4313   64.6039 C   0  0  0  0  0  0  0  0  0  0  0  0
  -39.9770   59.8361   64.5186 C   0  0  0  0  0  0  0  0  0  0  0  0
  -40.8509   60.1078   65.7582 C   0  0  0  0  0  0  0  0  0  0  0  0
  -41.6671   58.8841   66.2157 C   0  0  0  0  0  0  0  0  0  0  0  0
  -43.1700   58.9561   65.8867 C   0  0  0  0  0  0  0  0  0  0  0  0
  -43.6678   57.7360   65.0837 C   0  0  0  0  0  0  0  0  0  0  0  0
  -42.6857   56.5417   65.0563 C   0  0  0  0  0  0  0  0  0  0  0  0
  -42.1304   56.2406   63.6595 C   0  0  0  0  0  0  0  0  0  0  0  0
  -42.3301   57.3494   62.6215 C   0  0  0  0  0  0  0  0  0  0  0  0
  -41.1614   57.3983   61.6206 C   0  0  0  0  0  0  0  0  0  0  0  0
  -41.5566   57.9073   60.2261 C   0  0  0  0  0  0  0  0  0  0  0  0
  -40.9822   59.2706   59.8276 C   0  0  0  0  0  0  0  0  0  0  0  0
  -40.8252   60.2638   61.0061 C   0  0  0  0  0  0  0  0  0  0  0  0
  -42.0723   61.1575   61.1619 C   0  0  0  0  0  0  0  0  0  0  0  0
  -42.8066   61.1057   62.5071 C   0  0  0  0  0  0  0  0  0  0  0  0
 46 47  1  0  0  0
 46 48  1  0  0  0
 46 45  1  0  0  0
 47 49  2  0  0  0
 47 51  1  0  0  0
 19 20  2  0  0  0
 37 38  1  0  0  0
 37 39  1  0  0  0
 37 40  1  0  0  0
 37 41  1  0  0  0
 48 50  1  0  0  0
 38 29  1  0  0  0
 45 44  1  0  0  0
 25 27  1  0  0  0
 25 35  1  0  0  0
 25 28  1  0  0  0
 21 20  1  0  0  0
 21 22  1  0  0  0
 44 42  1  0  0  0
  2  1  1  0  0  0
  2  4  1  0  0  0
  2  5  1  0  0  0
 26 27  2  0  0  0
 42 43  2  0  0  0
 29 31  1  0  0  0
 29 36  1  0  0  0
  3  4  2  0  0  0
 43  1  1  0  0  0
  6  9  2  0  0  0
  6 10  1  0  0  0
  1 20  1  0  0  0
 30 36  2  0  0  0
  7  8  1  0  0  0
  7  9  1  0  0  0
 22 24  1  0  0  0
 22 23  1  0  0  0
 11 12  1  0  0  0
 11 18  1  0  0  0
 24 27  1  0  0  0
  4 10  1  0  0  0
 51 52  1  0  0  0
 52 53  1  0  0  0
 53 54  1  0  0  0
 54 55  1  0  0  0
 55 56  1  0  0  0
 56 57  1  0  0  0
 57 58  1  0  0  0
 58 59  1  0  0  0
 59 60  1  0  0  0
 60 61  1  0  0  0
 61 62  1  0  0  0
 62 63  1  0  0  0
 63 64  1  0  0  0
 64 65  1  0  0  0
 31 32  1  0  0  0
 32 33  1  0  0  0
 33 34  1  0  0  0
 34 35  1  0  0  0
 35 36  1  0  0  0
  8 10  1  0  0  0
  9 17  1  0  0  0
 12 13  2  0  0  0
 12 17  1  0  0  0
 13 14  1  0  0  0
 14 15  2  0  0  0
 15 16  1  0  0  0
 16 17  2  0  0  0
M  END
> <minimizedAffinity>
-8.70069

> <CNNscore>
0.2039104402

> <CNNaffinity>
7.2237844467

> <CNN_VS>
1.4730050564

> <CNNaffinity_variance>
1.5185852051

$$$$
/media/chris/experiments/cd1a-new-docking/inputs/ligands/1xz0_ligand.pdb


 65 67  0  0  0  0  0  0  0  0999 V2000
  -38.3338   59.7999   66.0407 C   0  0  0  0  0  0  0  0  0  0  0  0
  -37.4379   60.9429   66.2282 N   0  0  0  0  0  0  0  0  0  0  0  0
  -37.3277   61.8544   64.1474 O   0  0  0  0  0  0  0  0  0  0  0  0
  -37.0121   61.8480   65.3300 C   0  0  0  0  0  0  0  0  0  0  0  0
  -37.0984   61.0662   67.1441 H   0  0  0  0  0  0  0  0  0  0  0  0
  -35.7325   63.9018   64.7601 N   0  0  0  0  0  0  0  0  0  0  0  0
  -33.6772   63.2103   65.2980 O   0  0  0  0  0  0  0  0  0  0  0  0
  -34.5335   62.4106   66.1129 C   0  0  0  0  0  0  0  0  0  0  0  0
  -34.5082   64.0756   64.4989 C   0  0  0  0  0  0  0  0  0  0  0  0
  -35.9812   62.8706   65.7856 C   0  0  0  0  0  0  0  0  0  0  0  0
  -32.6217   66.1646   65.1877 O   0  0  0  0  0  0  0  0  0  0  0  0
  -33.0409   66.0662   63.9203 C   0  0  0  0  0  0  0  0  0  0  0  0
  -32.5503   66.9577   62.9572 C   0  0  0  0  0  0  0  0  0  0  0  0
  -32.9818   66.8812   61.6223 C   0  0  0  0  0  0  0  0  0  0  0  0
  -33.9014   65.9057   61.2330 C   0  0  0  0  0  0  0  0  0  0  0  0
  -34.3890   65.0099   62.1887 C   0  0  0  0  0  0  0  0  0  0  0  0
  -33.9650   65.0897   63.5291 C   0  0  0  0  0  0  0  0  0  0  0  0
  -32.0025   66.8261   65.4264 H   0  0  0  0  0  0  0  0  0  0  0  0
  -37.9641   57.6045   65.1584 O   0  0  0  0  0  0  0  0  0  0  0  0
  -37.5109   58.7176   65.3682 C   0  0  0  0  0  0  0  0  0  0  0  0
  -36.1113   58.9781   65.0155 O   0  0  0  0  0  0  0  0  0  0  0  0
  -35.1828   57.9009   64.7887 C   0  0  0  0  0  0  0  0  0  0  0  0
  -33.7194   58.2745   64.9897 C   0  0  0  0  0  0  0  0  0  0  0  0
  -35.4215   57.3485   63.3915 C   0  0  0  0  0  0  0  0  0  0  0  0
  -37.2070   58.1917   61.9434 N   0  0  0  0  0  0  0  0  0  0  0  0
  -35.2873   59.3523   62.2324 O   0  0  0  0  0  0  0  0  0  0  0  0
  -35.9722   58.3755   62.4331 C   0  0  0  0  0  0  0  0  0  0  0  0
  -37.6708   57.3545   62.1741 H   0  0  0  0  0  0  0  0  0  0  0  0
  -40.2204   59.0715   61.9514 N   0  0  0  0  0  0  0  0  0  0  0  0
  -39.0855   61.0150   61.9403 O   0  0  0  0  0  0  0  0  0  0  0  0
  -40.2799   57.6024   61.9533 C   0  0  0  0  0  0  0  0  0  0  0  0
  -40.0941   57.0475   60.5285 C   0  0  0  0  0  0  0  0  0  0  0  0
  -39.7131   58.0758   59.4763 C   0  0  0  0  0  0  0  0  0  0  0  0
  -38.3121   58.6564   59.6864 C   0  0  0  0  0  0  0  0  0  0  0  0
  -37.9155   59.1504   61.0877 C   0  0  0  0  0  0  0  0  0  0  0  0
  -39.1275   59.8138   61.7120 C   0  0  0  0  0  0  0  0  0  0  0  0
  -42.9375   58.8698   62.2687 Si  0  0  0  0  0  0  0  0  0  0  0  0
  -41.3758   59.7388   62.2267 O   0  0  0  0  0  0  0  0  0  0  0  0
  -43.9799   59.7842   62.5751 H   0  0  0  0  0  0  0  0  0  0  0  0
  -42.8890   57.8569   63.2626 H   0  0  0  0  0  0  0  0  0  0  0  0
  -43.1842   58.2782   61.0015 H   0  0  0  0  0  0  0  0  0  0  0  0
  -40.9558   59.8034   66.1788 C   0  0  0  0  0  0  0  0  0  0  0  0
  -39.6929   60.0656   65.3491 C   0  0  0  0  0  0  0  0  0  0  0  0
  -42.2743   59.6386   65.4040 C   0  0  0  0  0  0  0  0  0  0  0  0
  -43.4332   58.9129   66.1180 C   0  0  0  0  0  0  0  0  0  0  0  0
  -44.6828   59.2562   65.4319 N   0  0  0  0  0  0  0  0  0  0  0  0
  -45.9438   59.3267   65.9347 C   0  0  0  0  0  0  0  0  0  0  0  0
  -44.5221   59.5480   64.0701 O   0  0  0  0  0  0  0  0  0  0  0  0
  -46.1696   59.0983   67.1228 O   0  0  0  0  0  0  0  0  0  0  0  0
  -45.3843   59.7651   63.6821 H   0  0  0  0  0  0  0  0  0  0  0  0
  -47.0976   59.6919   64.9948 C   0  0  0  0  0  0  0  0  0  0  0  0
  -47.9636   58.5019   64.5593 C   0  0  0  0  0  0  0  0  0  0  0  0
  -49.2428   58.4378   65.4157 C   0  0  0  0  0  0  0  0  0  0  0  0
  -49.7521   59.8204   65.8652 C   0  0  0  0  0  0  0  0  0  0  0  0
  -51.1641   60.1777   65.3646 C   0  0  0  0  0  0  0  0  0  0  0  0
  -51.1490   61.1747   64.1869 C   0  0  0  0  0  0  0  0  0  0  0  0
  -51.9173   60.6978   62.9324 C   0  0  0  0  0  0  0  0  0  0  0  0
  -51.9630   59.1723   62.7884 C   0  0  0  0  0  0  0  0  0  0  0  0
  -50.7650   58.5456   62.0681 C   0  0  0  0  0  0  0  0  0  0  0  0
  -51.1897   57.3271   61.2284 C   0  0  0  0  0  0  0  0  0  0  0  0
  -50.0641   56.7475   60.3584 C   0  0  0  0  0  0  0  0  0  0  0  0
  -49.3225   57.7535   59.4722 C   0  0  0  0  0  0  0  0  0  0  0  0
  -47.9315   57.2718   58.9897 C   0  0  0  0  0  0  0  0  0  0  0  0
  -47.8489   57.2353   57.4501 C   0  0  0  0  0  0  0  0  0  0  0  0
  -47.1858   58.4313   56.7564 C   0  0  0  0  0  0  0  0  0  0  0  0
 46 47  1  0  0  0
 46 48  1  0  0  0
 46 45  1  0  0  0
 47 49  2  0  0  0
 47 51  1  0  0  0
 19 20  2  0  0  0
 37 38  1  0  0  0
 37 39  1  0  0  0
 37 40  1  0  0  0
 37 41  1  0  0  0
 48 50  1  0  0  0
 38 29  1  0  0  0
 45 44  1  0  0  0
 25 27  1  0  0  0
 25 35  1  0  0  0
 25 28  1  0  0  0
 21 20  1  0  0  0
 21 22  1  0  0  0
 44 42  1  0  0  0
  2  1  1  0  0  0
  2  4  1  0  0  0
  2  5  1  0  0  0
 26 27  2  0  0  0
 42 43  2  0  0  0
 29 31  1  0  0  0
 29 36  1  0  0  0
  3  4  2  0  0  0
 43  1  1  0  0  0
  6  9  2  0  0  0
  6 10  1  0  0  0
  1 20  1  0  0  0
 30 36  2  0  0  0
  7  8  1  0  0  0
  7  9  1  0  0  0
 22 24  1  0  0  0
 22 23  1  0  0  0
 11 12  1  0  0  0
 11 18  1  0  0  0
 24 27  1  0  0  0
  4 10  1  0  0  0
 51 52  1  0  0  0
 52 53  1  0  0  0
 53 54  1  0  0  0
 54 55  1  0  0  0
 55 56  1  0  0  0
 56 57  1  0  0  0
 57 58  1  0  0  0
 58 59  1  0  0  0
 59 60  1  0  0  0
 60 61  1  0  0  0
 61 62  1  0  0  0
 62 63  1  0  0  0
 63 64  1  0  0  0
 64 65  1  0  0  0
 31 32  1  0  0  0
 32 33  1  0  0  0
 33 34  1  0  0  0
 34 35  1  0  0  0
 35 36  1  0  0  0
  8 10  1  0  0  0
  9 17  1  0  0  0
 12 13  2  0  0  0
 12 17  1  0  0  0
 13 14  1  0  0  0
 14 15  2  0  0  0
 15 16  1  0  0  0
 16 17  2  0  0  0
M  END
> <minimizedAffinity>
-10.30797

> <CNNscore>
0.1976667047

> <CNNaffinity>
7.3351287842

> <CNN_VS>
1.4499107599

> <CNNaffinity_variance>
0.5949050784

$$$$
