/media/chris/experiments/cd1a-new-docking/inputs/ligands/1xz0_ligand.pdb


 65 67  0  0  0  0  0  0  0  0999 V2000
  -37.0387   60.8601   64.7308 C   0  0  0  0  0  0  0  0  0  0  0  0
  -35.9637   61.8105   65.0228 N   0  0  0  0  0  0  0  0  0  0  0  0
  -37.0703   63.5659   65.9538 O   0  0  0  0  0  0  0  0  0  0  0  0
  -36.0342   63.0311   65.5817 C   0  0  0  0  0  0  0  0  0  0  0  0
  -35.0590   61.5126   64.7739 H   0  0  0  0  0  0  0  0  0  0  0  0
  -33.9729   63.7784   64.4098 N   0  0  0  0  0  0  0  0  0  0  0  0
  -32.4645   63.2990   65.9867 O   0  0  0  0  0  0  0  0  0  0  0  0
  -33.6746   63.4966   66.7169 C   0  0  0  0  0  0  0  0  0  0  0  0
  -32.7581   63.4782   64.5868 C   0  0  0  0  0  0  0  0  0  0  0  0
  -34.7552   63.8524   65.6585 C   0  0  0  0  0  0  0  0  0  0  0  0
  -33.3591   63.2924   61.7582 O   0  0  0  0  0  0  0  0  0  0  0  0
  -32.0780   63.3058   62.1460 C   0  0  0  0  0  0  0  0  0  0  0  0
  -31.0622   63.2469   61.1829 C   0  0  0  0  0  0  0  0  0  0  0  0
  -29.7099   63.2500   61.5648 C   0  0  0  0  0  0  0  0  0  0  0  0
  -29.3581   63.3222   62.9137 C   0  0  0  0  0  0  0  0  0  0  0  0
  -30.3678   63.3877   63.8780 C   0  0  0  0  0  0  0  0  0  0  0  0
  -31.7238   63.3760   63.4988 C   0  0  0  0  0  0  0  0  0  0  0  0
  -33.5724   63.2451   60.8470 H   0  0  0  0  0  0  0  0  0  0  0  0
  -36.9719   62.0158   62.6344 O   0  0  0  0  0  0  0  0  0  0  0  0
  -37.4351   61.0940   63.2855 C   0  0  0  0  0  0  0  0  0  0  0  0
  -38.4502   60.2400   62.6599 O   0  0  0  0  0  0  0  0  0  0  0  0
  -38.6622   60.2486   61.2355 C   0  0  0  0  0  0  0  0  0  0  0  0
  -40.1184   60.1023   60.8118 C   0  0  0  0  0  0  0  0  0  0  0  0
  -37.7981   59.1607   60.6157 C   0  0  0  0  0  0  0  0  0  0  0  0
  -35.8903   58.4009   61.9494 N   0  0  0  0  0  0  0  0  0  0  0  0
  -37.9304   57.4511   62.1764 O   0  0  0  0  0  0  0  0  0  0  0  0
  -37.1841   58.2361   61.6376 C   0  0  0  0  0  0  0  0  0  0  0  0
  -35.3791   59.0718   61.4417 H   0  0  0  0  0  0  0  0  0  0  0  0
  -34.0764   59.4237   64.2987 N   0  0  0  0  0  0  0  0  0  0  0  0
  -35.5268   58.0237   65.2999 O   0  0  0  0  0  0  0  0  0  0  0  0
  -33.5372   60.1042   63.1121 C   0  0  0  0  0  0  0  0  0  0  0  0
  -32.5885   59.1732   62.3339 C   0  0  0  0  0  0  0  0  0  0  0  0
  -32.5473   57.7343   62.8213 C   0  0  0  0  0  0  0  0  0  0  0  0
  -33.8602   56.9837   62.5829 C   0  0  0  0  0  0  0  0  0  0  0  0
  -35.1828   57.6519   62.9942 C   0  0  0  0  0  0  0  0  0  0  0  0
  -34.9466   58.4012   64.2910 C   0  0  0  0  0  0  0  0  0  0  0  0
  -32.8903   58.7670   66.6831 Si  0  0  0  0  0  0  0  0  0  0  0  0
  -33.6632   59.8777   65.5148 O   0  0  0  0  0  0  0  0  0  0  0  0
  -32.5553   59.4806   67.8642 H   0  0  0  0  0  0  0  0  0  0  0  0
  -31.7116   58.2216   66.1091 H   0  0  0  0  0  0  0  0  0  0  0  0
  -33.7902   57.7165   67.0041 H   0  0  0  0  0  0  0  0  0  0  0  0
  -39.1971   59.6298   65.5806 C   0  0  0  0  0  0  0  0  0  0  0  0
  -38.2409   60.8223   65.7053 C   0  0  0  0  0  0  0  0  0  0  0  0
  -40.5911   59.7882   66.2108 C   0  0  0  0  0  0  0  0  0  0  0  0
  -41.7083   60.3809   65.3275 C   0  0  0  0  0  0  0  0  0  0  0  0
  -42.6985   59.3302   65.0719 N   0  0  0  0  0  0  0  0  0  0  0  0
  -43.8177   59.0187   65.7776 C   0  0  0  0  0  0  0  0  0  0  0  0
  -42.4263   58.5570   63.9345 O   0  0  0  0  0  0  0  0  0  0  0  0
  -44.1359   59.6563   66.7812 O   0  0  0  0  0  0  0  0  0  0  0  0
  -43.1180   57.8855   63.8270 H   0  0  0  0  0  0  0  0  0  0  0  0
  -44.6876   57.8472   65.3098 C   0  0  0  0  0  0  0  0  0  0  0  0
  -45.8352   57.4872   66.2633 C   0  0  0  0  0  0  0  0  0  0  0  0
  -47.1447   58.1446   65.7863 C   0  0  0  0  0  0  0  0  0  0  0  0
  -47.5413   59.3888   66.6035 C   0  0  0  0  0  0  0  0  0  0  0  0
  -48.7004   60.2070   66.0042 C   0  0  0  0  0  0  0  0  0  0  0  0
  -50.0221   59.4138   65.9350 C   0  0  0  0  0  0  0  0  0  0  0  0
  -51.1314   60.0872   65.0938 C   0  0  0  0  0  0  0  0  0  0  0  0
  -51.2482   59.5217   63.6737 C   0  0  0  0  0  0  0  0  0  0  0  0
  -50.5687   58.1672   63.4495 C   0  0  0  0  0  0  0  0  0  0  0  0
  -49.6161   58.2106   62.2407 C   0  0  0  0  0  0  0  0  0  0  0  0
  -50.3143   58.5249   60.9089 C   0  0  0  0  0  0  0  0  0  0  0  0
  -49.4338   58.4351   59.6582 C   0  0  0  0  0  0  0  0  0  0  0  0
  -48.2365   57.4612   59.7918 C   0  0  0  0  0  0  0  0  0  0  0  0
  -47.6167   57.1360   58.4176 C   0  0  0  0  0  0  0  0  0  0  0  0
  -47.5464   58.2757   57.3942 C   0  0  0  0  0  0  0  0  0  0  0  0
 46 47  1  0  0  0
 46 48  1  0  0  0
 46 45  1  0  0  0
 47 49  2  0  0  0
 47 51  1  0  0  0
 19 20  2  0  0  0
 37 38  1  0  0  0
 37 39  1  0  0  0
 37 40  1  0  0  0
 37 41  1  0  0  0
 48 50  1  0  0  0
 38 29  1  0  0  0
 45 44  1  0  0  0
 25 27  1  0  0  0
 25 35  1  0  0  0
 25 28  1  0  0  0
 21 20  1  0  0  0
 21 22  1  0  0  0
 44 42  1  0  0  0
  2  1  1  0  0  0
  2  4  1  0  0  0
  2  5  1  0  0  0
 26 27  2  0  0  0
 42 43  2  0  0  0
 29 31  1  0  0  0
 29 36  1  0  0  0
  3  4  2  0  0  0
 43  1  1  0  0  0
  6  9  2  0  0  0
  6 10  1  0  0  0
  1 20  1  0  0  0
 30 36  2  0  0  0
  7  8  1  0  0  0
  7  9  1  0  0  0
 22 24  1  0  0  0
 22 23  1  0  0  0
 11 12  1  0  0  0
 11 18  1  0  0  0
 24 27  1  0  0  0
  4 10  1  0  0  0
 51 52  1  0  0  0
 52 53  1  0  0  0
 53 54  1  0  0  0
 54 55  1  0  0  0
 55 56  1  0  0  0
 56 57  1  0  0  0
 57 58  1  0  0  0
 58 59  1  0  0  0
 59 60  1  0  0  0
 60 61  1  0  0  0
 61 62  1  0  0  0
 62 63  1  0  0  0
 63 64  1  0  0  0
 64 65  1  0  0  0
 31 32  1  0  0  0
 32 33  1  0  0  0
 33 34  1  0  0  0
 34 35  1  0  0  0
 35 36  1  0  0  0
  8 10  1  0  0  0
  9 17  1  0  0  0
 12 13  2  0  0  0
 12 17  1  0  0  0
 13 14  1  0  0  0
 14 15  2  0  0  0
 15 16  1  0  0  0
 16 17  2  0  0  0
M  END
> <minimizedAffinity>
-9.18033

> <CNNscore>
0.3635846376

> <CNNaffinity>
7.1315560341

> <CNN_VS>
2.5929241180

> <CNNaffinity_variance>
0.5871739984

$$$$
/media/chris/experiments/cd1a-new-docking/inputs/ligands/1xz0_ligand.pdb


 65 67  0  0  0  0  0  0  0  0999 V2000
  -37.1370   59.6453   62.5435 C   0  0  0  0  0  0  0  0  0  0  0  0
  -35.7229   59.4714   62.8814 N   0  0  0  0  0  0  0  0  0  0  0  0
  -35.7701   59.1450   65.1317 O   0  0  0  0  0  0  0  0  0  0  0  0
  -35.1546   59.2455   64.0786 C   0  0  0  0  0  0  0  0  0  0  0  0
  -35.0984   59.5280   62.1225 H   0  0  0  0  0  0  0  0  0  0  0  0
  -33.0326   60.4320   63.5590 N   0  0  0  0  0  0  0  0  0  0  0  0
  -31.9215   58.7694   62.5626 O   0  0  0  0  0  0  0  0  0  0  0  0
  -32.8470   58.1002   63.4184 C   0  0  0  0  0  0  0  0  0  0  0  0
  -32.1274   60.1883   62.7113 C   0  0  0  0  0  0  0  0  0  0  0  0
  -33.6347   59.2219   64.1506 C   0  0  0  0  0  0  0  0  0  0  0  0
  -29.2510   60.0910   62.3737 O   0  0  0  0  0  0  0  0  0  0  0  0
  -29.9286   61.1159   61.8424 C   0  0  0  0  0  0  0  0  0  0  0  0
  -29.2407   62.1038   61.1258 C   0  0  0  0  0  0  0  0  0  0  0  0
  -29.9278   63.1945   60.5665 C   0  0  0  0  0  0  0  0  0  0  0  0
  -31.3120   63.3043   60.7091 C   0  0  0  0  0  0  0  0  0  0  0  0
  -32.0037   62.3179   61.4177 C   0  0  0  0  0  0  0  0  0  0  0  0
  -31.3168   61.2284   61.9867 C   0  0  0  0  0  0  0  0  0  0  0  0
  -28.3220   60.0364   62.2641 H   0  0  0  0  0  0  0  0  0  0  0  0
  -38.2838   61.3234   63.8101 O   0  0  0  0  0  0  0  0  0  0  0  0
  -37.4931   61.0721   62.9157 C   0  0  0  0  0  0  0  0  0  0  0  0
  -36.9330   62.1883   62.1467 O   0  0  0  0  0  0  0  0  0  0  0  0
  -36.3755   63.3437   62.8009 C   0  0  0  0  0  0  0  0  0  0  0  0
  -36.0447   64.5012   61.8670 C   0  0  0  0  0  0  0  0  0  0  0  0
  -35.1490   62.9045   63.5866 C   0  0  0  0  0  0  0  0  0  0  0  0
  -33.4929   64.6565   64.0156 N   0  0  0  0  0  0  0  0  0  0  0  0
  -35.1896   64.2697   65.4603 O   0  0  0  0  0  0  0  0  0  0  0  0
  -34.5763   63.9985   64.4535 C   0  0  0  0  0  0  0  0  0  0  0  0
  -33.0751   64.3452   63.1803 H   0  0  0  0  0  0  0  0  0  0  0  0
  -30.6651   65.9677   63.6426 N   0  0  0  0  0  0  0  0  0  0  0  0
  -32.0900   67.7069   63.5398 O   0  0  0  0  0  0  0  0  0  0  0  0
  -30.3740   64.5348   63.7976 C   0  0  0  0  0  0  0  0  0  0  0  0
  -30.3682   64.1378   65.2859 C   0  0  0  0  0  0  0  0  0  0  0  0
  -30.8319   65.2193   66.2477 C   0  0  0  0  0  0  0  0  0  0  0  0
  -32.3184   65.5544   66.1002 C   0  0  0  0  0  0  0  0  0  0  0  0
  -32.8865   65.8078   64.6937 C   0  0  0  0  0  0  0  0  0  0  0  0
  -31.8420   66.5626   63.8948 C   0  0  0  0  0  0  0  0  0  0  0  0
  -29.7665   67.5626   61.6000 Si  0  0  0  0  0  0  0  0  0  0  0  0
  -29.6524   66.7608   63.1937 O   0  0  0  0  0  0  0  0  0  0  0  0
  -28.5914   68.3258   61.3689 H   0  0  0  0  0  0  0  0  0  0  0  0
  -30.8987   68.4194   61.5811 H   0  0  0  0  0  0  0  0  0  0  0  0
  -29.8998   66.5797   60.5840 H   0  0  0  0  0  0  0  0  0  0  0  0
  -38.8692   57.7339   62.0536 C   0  0  0  0  0  0  0  0  0  0  0  0
  -38.1346   58.5947   63.0887 C   0  0  0  0  0  0  0  0  0  0  0  0
  -40.1451   57.0166   62.5262 C   0  0  0  0  0  0  0  0  0  0  0  0
  -40.3724   56.8970   64.0472 C   0  0  0  0  0  0  0  0  0  0  0  0
  -41.8169   56.8438   64.2934 N   0  0  0  0  0  0  0  0  0  0  0  0
  -42.6662   57.8513   64.6269 C   0  0  0  0  0  0  0  0  0  0  0  0
  -42.3699   55.5625   64.1575 O   0  0  0  0  0  0  0  0  0  0  0  0
  -42.2640   59.0077   64.7533 O   0  0  0  0  0  0  0  0  0  0  0  0
  -43.3230   55.6015   64.3335 H   0  0  0  0  0  0  0  0  0  0  0  0
  -44.1470   57.5290   64.8531 C   0  0  0  0  0  0  0  0  0  0  0  0
  -44.7895   58.2822   66.0259 C   0  0  0  0  0  0  0  0  0  0  0  0
  -46.0862   57.5734   66.4625 C   0  0  0  0  0  0  0  0  0  0  0  0
  -47.3665   58.2857   65.9866 C   0  0  0  0  0  0  0  0  0  0  0  0
  -47.4043   59.7979   66.2756 C   0  0  0  0  0  0  0  0  0  0  0  0
  -48.7317   60.4579   65.8474 C   0  0  0  0  0  0  0  0  0  0  0  0
  -49.9800   59.5623   66.0238 C   0  0  0  0  0  0  0  0  0  0  0  0
  -51.2020   60.0581   65.2421 C   0  0  0  0  0  0  0  0  0  0  0  0
  -50.8927   60.7407   63.9059 C   0  0  0  0  0  0  0  0  0  0  0  0
  -51.4374   59.9245   62.7196 C   0  0  0  0  0  0  0  0  0  0  0  0
  -50.8967   58.4882   62.6516 C   0  0  0  0  0  0  0  0  0  0  0  0
  -51.4918   57.6042   61.5506 C   0  0  0  0  0  0  0  0  0  0  0  0
  -50.4374   56.8798   60.6771 C   0  0  0  0  0  0  0  0  0  0  0  0
  -49.1130   57.6678   60.6203 C   0  0  0  0  0  0  0  0  0  0  0  0
  -48.8403   58.4877   59.3535 C   0  0  0  0  0  0  0  0  0  0  0  0
 46 47  1  0  0  0
 46 48  1  0  0  0
 46 45  1  0  0  0
 47 49  2  0  0  0
 47 51  1  0  0  0
 19 20  2  0  0  0
 37 38  1  0  0  0
 37 39  1  0  0  0
 37 40  1  0  0  0
 37 41  1  0  0  0
 48 50  1  0  0  0
 38 29  1  0  0  0
 45 44  1  0  0  0
 25 27  1  0  0  0
 25 35  1  0  0  0
 25 28  1  0  0  0
 21 20  1  0  0  0
 21 22  1  0  0  0
 44 42  1  0  0  0
  2  1  1  0  0  0
  2  4  1  0  0  0
  2  5  1  0  0  0
 26 27  2  0  0  0
 42 43  2  0  0  0
 29 31  1  0  0  0
 29 36  1  0  0  0
  3  4  2  0  0  0
 43  1  1  0  0  0
  6  9  2  0  0  0
  6 10  1  0  0  0
  1 20  1  0  0  0
 30 36  2  0  0  0
  7  8  1  0  0  0
  7  9  1  0  0  0
 22 24  1  0  0  0
 22 23  1  0  0  0
 11 12  1  0  0  0
 11 18  1  0  0  0
 24 27  1  0  0  0
  4 10  1  0  0  0
 51 52  1  0  0  0
 52 53  1  0  0  0
 53 54  1  0  0  0
 54 55  1  0  0  0
 55 56  1  0  0  0
 56 57  1  0  0  0
 57 58  1  0  0  0
 58 59  1  0  0  0
 59 60  1  0  0  0
 60 61  1  0  0  0
 61 62  1  0  0  0
 62 63  1  0  0  0
 63 64  1  0  0  0
 64 65  1  0  0  0
 31 32  1  0  0  0
 32 33  1  0  0  0
 33 34  1  0  0  0
 34 35  1  0  0  0
 35 36  1  0  0  0
  8 10  1  0  0  0
  9 17  1  0  0  0
 12 13  2  0  0  0
 12 17  1  0  0  0
 13 14  1  0  0  0
 14 15  2  0  0  0
 15 16  1  0  0  0
 16 17  2  0  0  0
M  END
> <minimizedAffinity>
-9.50895

> <CNNscore>
0.3105501831

> <CNNaffinity>
6.7722306252

> <CNN_VS>
2.1031174660

> <CNNaffinity_variance>
0.2952610552

$$$$
/media/chris/experiments/cd1a-new-docking/inputs/ligands/1xz0_ligand.pdb


 65 67  0  0  0  0  0  0  0  0999 V2000
  -36.7063   60.6500   65.2172 C   0  0  0  0  0  0  0  0  0  0  0  0
  -35.7318   61.6184   65.7238 N   0  0  0  0  0  0  0  0  0  0  0  0
  -36.9622   63.5192   65.9386 O   0  0  0  0  0  0  0  0  0  0  0  0
  -35.9023   62.9148   66.0361 C   0  0  0  0  0  0  0  0  0  0  0  0
  -34.8204   61.2699   65.8544 H   0  0  0  0  0  0  0  0  0  0  0  0
  -33.9891   64.3019   65.2642 N   0  0  0  0  0  0  0  0  0  0  0  0
  -32.3339   63.2831   66.3659 O   0  0  0  0  0  0  0  0  0  0  0  0
  -33.4914   63.0100   67.1547 C   0  0  0  0  0  0  0  0  0  0  0  0
  -32.7483   64.0641   65.2275 C   0  0  0  0  0  0  0  0  0  0  0  0
  -34.6722   63.7177   66.4341 C   0  0  0  0  0  0  0  0  0  0  0  0
  -32.6328   66.8079   64.3026 O   0  0  0  0  0  0  0  0  0  0  0  0
  -31.7815   65.9154   63.7825 C   0  0  0  0  0  0  0  0  0  0  0  0
  -30.8486   66.3264   62.8215 C   0  0  0  0  0  0  0  0  0  0  0  0
  -29.9505   65.4070   62.2535 C   0  0  0  0  0  0  0  0  0  0  0  0
  -29.9685   64.0680   62.6476 C   0  0  0  0  0  0  0  0  0  0  0  0
  -30.8930   63.6543   63.6108 C   0  0  0  0  0  0  0  0  0  0  0  0
  -31.8000   64.5715   64.1753 C   0  0  0  0  0  0  0  0  0  0  0  0
  -32.6019   67.7021   64.0245 H   0  0  0  0  0  0  0  0  0  0  0  0
  -37.6889   61.7002   63.3024 O   0  0  0  0  0  0  0  0  0  0  0  0
  -36.8506   60.9254   63.7326 C   0  0  0  0  0  0  0  0  0  0  0  0
  -36.0139   60.1997   62.7711 O   0  0  0  0  0  0  0  0  0  0  0  0
  -35.5525   58.8621   63.0392 C   0  0  0  0  0  0  0  0  0  0  0  0
  -34.1715   58.5453   62.4790 C   0  0  0  0  0  0  0  0  0  0  0  0
  -36.5938   57.8826   62.5192 C   0  0  0  0  0  0  0  0  0  0  0  0
  -38.8489   58.6077   61.8990 N   0  0  0  0  0  0  0  0  0  0  0  0
  -37.0873   58.9554   60.5237 O   0  0  0  0  0  0  0  0  0  0  0  0
  -37.5602   58.5063   61.5427 C   0  0  0  0  0  0  0  0  0  0  0  0
  -39.1206   58.2023   62.7541 H   0  0  0  0  0  0  0  0  0  0  0  0
  -41.9680   58.6490   62.2527 N   0  0  0  0  0  0  0  0  0  0  0  0
  -41.4163   60.8195   62.0280 O   0  0  0  0  0  0  0  0  0  0  0  0
  -41.6227   57.2212   62.3160 C   0  0  0  0  0  0  0  0  0  0  0  0
  -41.4512   56.6387   60.9004 C   0  0  0  0  0  0  0  0  0  0  0  0
  -41.4850   57.6559   59.7717 C   0  0  0  0  0  0  0  0  0  0  0  0
  -40.2819   58.6027   59.7830 C   0  0  0  0  0  0  0  0  0  0  0  0
  -39.8829   59.2806   61.1044 C   0  0  0  0  0  0  0  0  0  0  0  0
  -41.1533   59.6378   61.8510 C   0  0  0  0  0  0  0  0  0  0  0  0
  -44.4478   57.7473   63.0016 Si  0  0  0  0  0  0  0  0  0  0  0  0
  -43.2239   59.0009   62.6460 O   0  0  0  0  0  0  0  0  0  0  0  0
  -45.6645   58.3696   63.3874 H   0  0  0  0  0  0  0  0  0  0  0  0
  -43.9840   56.9191   64.0577 H   0  0  0  0  0  0  0  0  0  0  0  0
  -44.6671   56.9574   61.8421 H   0  0  0  0  0  0  0  0  0  0  0  0
  -39.0757   59.5357   65.4128 C   0  0  0  0  0  0  0  0  0  0  0  0
  -38.0588   60.5435   65.9626 C   0  0  0  0  0  0  0  0  0  0  0  0
  -40.5400   59.7193   65.8464 C   0  0  0  0  0  0  0  0  0  0  0  0
  -41.4546   58.4778   65.8080 C   0  0  0  0  0  0  0  0  0  0  0  0
  -42.8128   58.8959   66.1692 N   0  0  0  0  0  0  0  0  0  0  0  0
  -43.9972   58.2884   65.8940 C   0  0  0  0  0  0  0  0  0  0  0  0
  -42.8641   60.0912   66.9002 O   0  0  0  0  0  0  0  0  0  0  0  0
  -44.0395   57.2292   65.2684 O   0  0  0  0  0  0  0  0  0  0  0  0
  -43.7878   60.3062   67.1037 H   0  0  0  0  0  0  0  0  0  0  0  0
  -45.2966   58.9460   66.3705 C   0  0  0  0  0  0  0  0  0  0  0  0
  -46.4976   58.7280   65.4402 C   0  0  0  0  0  0  0  0  0  0  0  0
  -46.7830   60.0110   64.6358 C   0  0  0  0  0  0  0  0  0  0  0  0
  -48.2784   60.3748   64.5685 C   0  0  0  0  0  0  0  0  0  0  0  0
  -49.0896   59.9873   65.8190 C   0  0  0  0  0  0  0  0  0  0  0  0
  -50.5000   59.4610   65.4802 C   0  0  0  0  0  0  0  0  0  0  0  0
  -51.3597   60.4283   64.6335 C   0  0  0  0  0  0  0  0  0  0  0  0
  -51.8031   59.8347   63.2914 C   0  0  0  0  0  0  0  0  0  0  0  0
  -51.1550   58.4972   62.9200 C   0  0  0  0  0  0  0  0  0  0  0  0
  -50.2564   58.6351   61.6774 C   0  0  0  0  0  0  0  0  0  0  0  0
  -50.6322   57.6866   60.5290 C   0  0  0  0  0  0  0  0  0  0  0  0
  -50.1943   58.1298   59.1292 C   0  0  0  0  0  0  0  0  0  0  0  0
  -48.9507   57.3830   58.5855 C   0  0  0  0  0  0  0  0  0  0  0  0
  -47.8976   58.3658   58.0348 C   0  0  0  0  0  0  0  0  0  0  0  0
  -47.3668   58.1026   56.6205 C   0  0  0  0  0  0  0  0  0  0  0  0
 46 47  1  0  0  0
 46 48  1  0  0  0
 46 45  1  0  0  0
 47 49  2  0  0  0
 47 51  1  0  0  0
 19 20  2  0  0  0
 37 38  1  0  0  0
 37 39  1  0  0  0
 37 40  1  0  0  0
 37 41  1  0  0  0
 48 50  1  0  0  0
 38 29  1  0  0  0
 45 44  1  0  0  0
 25 27  1  0  0  0
 25 35  1  0  0  0
 25 28  1  0  0  0
 21 20  1  0  0  0
 21 22  1  0  0  0
 44 42  1  0  0  0
  2  1  1  0  0  0
  2  4  1  0  0  0
  2  5  1  0  0  0
 26 27  2  0  0  0
 42 43  2  0  0  0
 29 31  1  0  0  0
 29 36  1  0  0  0
  3  4  2  0  0  0
 43  1  1  0  0  0
  6  9  2  0  0  0
  6 10  1  0  0  0
  1 20  1  0  0  0
 30 36  2  0  0  0
  7  8  1  0  0  0
  7  9  1  0  0  0
 22 24  1  0  0  0
 22 23  1  0  0  0
 11 12  1  0  0  0
 11 18  1  0  0  0
 24 27  1  0  0  0
  4 10  1  0  0  0
 51 52  1  0  0  0
 52 53  1  0  0  0
 53 54  1  0  0  0
 54 55  1  0  0  0
 55 56  1  0  0  0
 56 57  1  0  0  0
 57 58  1  0  0  0
 58 59  1  0  0  0
 59 60  1  0  0  0
 60 61  1  0  0  0
 61 62  1  0  0  0
 62 63  1  0  0  0
 63 64  1  0  0  0
 64 65  1  0  0  0
 31 32  1  0  0  0
 32 33  1  0  0  0
 33 34  1  0  0  0
 34 35  1  0  0  0
 35 36  1  0  0  0
  8 10  1  0  0  0
  9 17  1  0  0  0
 12 13  2  0  0  0
 12 17  1  0  0  0
 13 14  1  0  0  0
 14 15  2  0  0  0
 15 16  1  0  0  0
 16 17  2  0  0  0
M  END
> <minimizedAffinity>
-10.31178

> <CNNscore>
0.3019583523

> <CNNaffinity>
7.3962831497

> <CNN_VS>
2.2333695889

> <CNNaffinity_variance>
0.9612275958

$$$$
/media/chris/experiments/cd1a-new-docking/inputs/ligands/1xz0_ligand.pdb


 65 67  0  0  0  0  0  0  0  0999 V2000
  -37.3003   59.3831   63.7784 C   0  0  0  0  0  0  0  0  0  0  0  0
  -36.5397   60.4795   64.3812 N   0  0  0  0  0  0  0  0  0  0  0  0
  -37.4783   60.6814   66.4431 O   0  0  0  0  0  0  0  0  0  0  0  0
  -36.6626   61.0321   65.6006 C   0  0  0  0  0  0  0  0  0  0  0  0
  -35.8372   60.8680   63.8114 H   0  0  0  0  0  0  0  0  0  0  0  0
  -35.8703   63.2671   64.8539 N   0  0  0  0  0  0  0  0  0  0  0  0
  -33.6751   62.9988   65.1708 O   0  0  0  0  0  0  0  0  0  0  0  0
  -34.2697   62.0841   66.0908 C   0  0  0  0  0  0  0  0  0  0  0  0
  -34.7373   63.6590   64.4540 C   0  0  0  0  0  0  0  0  0  0  0  0
  -35.8054   62.2485   65.9192 C   0  0  0  0  0  0  0  0  0  0  0  0
  -35.9786   63.6893   61.8358 O   0  0  0  0  0  0  0  0  0  0  0  0
  -35.1497   64.6863   62.1683 C   0  0  0  0  0  0  0  0  0  0  0  0
  -34.9141   65.7242   61.2572 C   0  0  0  0  0  0  0  0  0  0  0  0
  -34.0411   66.7773   61.5787 C   0  0  0  0  0  0  0  0  0  0  0  0
  -33.4015   66.8096   62.8190 C   0  0  0  0  0  0  0  0  0  0  0  0
  -33.6383   65.7798   63.7340 C   0  0  0  0  0  0  0  0  0  0  0  0
  -34.5057   64.7187   63.4113 C   0  0  0  0  0  0  0  0  0  0  0  0
  -36.3986   63.6887   60.9982 H   0  0  0  0  0  0  0  0  0  0  0  0
  -36.6337   57.2630   64.6707 O   0  0  0  0  0  0  0  0  0  0  0  0
  -36.4175   58.1526   63.8643 C   0  0  0  0  0  0  0  0  0  0  0  0
  -35.2307   58.0448   63.0094 O   0  0  0  0  0  0  0  0  0  0  0  0
  -33.9316   58.4558   63.4757 C   0  0  0  0  0  0  0  0  0  0  0  0
  -33.7747   58.4568   64.9912 C   0  0  0  0  0  0  0  0  0  0  0  0
  -33.6238   59.8261   62.8910 C   0  0  0  0  0  0  0  0  0  0  0  0
  -31.7673   61.4007   63.1556 N   0  0  0  0  0  0  0  0  0  0  0  0
  -31.3951   59.2196   62.6868 O   0  0  0  0  0  0  0  0  0  0  0  0
  -32.1495   60.1466   62.8739 C   0  0  0  0  0  0  0  0  0  0  0  0
  -32.4722   62.0750   63.2886 H   0  0  0  0  0  0  0  0  0  0  0  0
  -30.4936   64.2419   62.7546 N   0  0  0  0  0  0  0  0  0  0  0  0
  -29.6907   63.5606   64.7438 O   0  0  0  0  0  0  0  0  0  0  0  0
  -31.3039   64.0424   61.5440 C   0  0  0  0  0  0  0  0  0  0  0  0
  -30.5444   63.1837   60.5152 C   0  0  0  0  0  0  0  0  0  0  0  0
  -29.2403   62.5803   61.0102 C   0  0  0  0  0  0  0  0  0  0  0  0
  -29.4452   61.5197   62.0951 C   0  0  0  0  0  0  0  0  0  0  0  0
  -30.3724   61.8388   63.2798 C   0  0  0  0  0  0  0  0  0  0  0  0
  -30.1742   63.2953   63.6517 C   0  0  0  0  0  0  0  0  0  0  0  0
  -30.7818   66.5169   64.2595 Si  0  0  0  0  0  0  0  0  0  0  0  0
  -30.0339   65.5022   62.9919 O   0  0  0  0  0  0  0  0  0  0  0  0
  -30.1257   67.7754   64.3067 H   0  0  0  0  0  0  0  0  0  0  0  0
  -30.6574   65.8707   65.5178 H   0  0  0  0  0  0  0  0  0  0  0  0
  -32.1565   66.7107   63.9609 H   0  0  0  0  0  0  0  0  0  0  0  0
  -38.4213   58.3875   61.6229 C   0  0  0  0  0  0  0  0  0  0  0  0
  -37.8984   59.6202   62.3704 C   0  0  0  0  0  0  0  0  0  0  0  0
  -38.6060   58.5237   60.1020 C   0  0  0  0  0  0  0  0  0  0  0  0
  -40.0219   58.2962   59.5338 C   0  0  0  0  0  0  0  0  0  0  0  0
  -40.9001   57.8916   60.6360 N   0  0  0  0  0  0  0  0  0  0  0  0
  -41.6470   58.6681   61.4648 C   0  0  0  0  0  0  0  0  0  0  0  0
  -40.9572   56.5053   60.8379 O   0  0  0  0  0  0  0  0  0  0  0  0
  -41.6633   59.8932   61.3468 O   0  0  0  0  0  0  0  0  0  0  0  0
  -41.5531   56.3107   61.5782 H   0  0  0  0  0  0  0  0  0  0  0  0
  -42.4743   57.9961   62.5656 C   0  0  0  0  0  0  0  0  0  0  0  0
  -43.1630   58.9725   63.5288 C   0  0  0  0  0  0  0  0  0  0  0  0
  -44.6510   58.6026   63.6821 C   0  0  0  0  0  0  0  0  0  0  0  0
  -45.4815   59.6806   64.4041 C   0  0  0  0  0  0  0  0  0  0  0  0
  -46.9847   59.6632   64.0695 C   0  0  0  0  0  0  0  0  0  0  0  0
  -47.8129   58.8308   65.0706 C   0  0  0  0  0  0  0  0  0  0  0  0
  -48.8605   59.6423   65.8678 C   0  0  0  0  0  0  0  0  0  0  0  0
  -49.7718   60.4991   64.9815 C   0  0  0  0  0  0  0  0  0  0  0  0
  -51.2733   60.2411   65.1420 C   0  0  0  0  0  0  0  0  0  0  0  0
  -52.0276   60.4773   63.8208 C   0  0  0  0  0  0  0  0  0  0  0  0
  -51.3826   59.7947   62.6051 C   0  0  0  0  0  0  0  0  0  0  0  0
  -51.1428   58.2872   62.7376 C   0  0  0  0  0  0  0  0  0  0  0  0
  -50.0812   57.7236   61.7603 C   0  0  0  0  0  0  0  0  0  0  0  0
  -50.6381   57.6072   60.3270 C   0  0  0  0  0  0  0  0  0  0  0  0
  -49.6527   57.8290   59.1732 C   0  0  0  0  0  0  0  0  0  0  0  0
 46 47  1  0  0  0
 46 48  1  0  0  0
 46 45  1  0  0  0
 47 49  2  0  0  0
 47 51  1  0  0  0
 19 20  2  0  0  0
 37 38  1  0  0  0
 37 39  1  0  0  0
 37 40  1  0  0  0
 37 41  1  0  0  0
 48 50  1  0  0  0
 38 29  1  0  0  0
 45 44  1  0  0  0
 25 27  1  0  0  0
 25 35  1  0  0  0
 25 28  1  0  0  0
 21 20  1  0  0  0
 21 22  1  0  0  0
 44 42  1  0  0  0
  2  1  1  0  0  0
  2  4  1  0  0  0
  2  5  1  0  0  0
 26 27  2  0  0  0
 42 43  2  0  0  0
 29 31  1  0  0  0
 29 36  1  0  0  0
  3  4  2  0  0  0
 43  1  1  0  0  0
  6  9  2  0  0  0
  6 10  1  0  0  0
  1 20  1  0  0  0
 30 36  2  0  0  0
  7  8  1  0  0  0
  7  9  1  0  0  0
 22 24  1  0  0  0
 22 23  1  0  0  0
 11 12  1  0  0  0
 11 18  1  0  0  0
 24 27  1  0  0  0
  4 10  1  0  0  0
 51 52  1  0  0  0
 52 53  1  0  0  0
 53 54  1  0  0  0
 54 55  1  0  0  0
 55 56  1  0  0  0
 56 57  1  0  0  0
 57 58  1  0  0  0
 58 59  1  0  0  0
 59 60  1  0  0  0
 60 61  1  0  0  0
 61 62  1  0  0  0
 62 63  1  0  0  0
 63 64  1  0  0  0
 64 65  1  0  0  0
 31 32  1  0  0  0
 32 33  1  0  0  0
 33 34  1  0  0  0
 34 35  1  0  0  0
 35 36  1  0  0  0
  8 10  1  0  0  0
  9 17  1  0  0  0
 12 13  2  0  0  0
 12 17  1  0  0  0
 13 14  1  0  0  0
 14 15  2  0  0  0
 15 16  1  0  0  0
 16 17  2  0  0  0
M  END
> <minimizedAffinity>
-9.28079

> <CNNscore>
0.2368137687

> <CNNaffinity>
6.9571409225

> <CNN_VS>
1.6475467682

> <CNNaffinity_variance>
0.3316966891

$$$$
/media/chris/experiments/cd1a-new-docking/inputs/ligands/1xz0_ligand.pdb


 65 67  0  0  0  0  0  0  0  0999 V2000
  -41.9907   59.0795   63.4247 C   0  0  0  0  0  0  0  0  0  0  0  0
  -40.8998   59.3296   64.3689 N   0  0  0  0  0  0  0  0  0  0  0  0
  -39.5868   60.8144   63.2535 O   0  0  0  0  0  0  0  0  0  0  0  0
  -39.8281   60.1309   64.2397 C   0  0  0  0  0  0  0  0  0  0  0  0
  -40.9598   58.8404   65.2211 H   0  0  0  0  0  0  0  0  0  0  0  0
  -37.8760   61.2664   65.2791 N   0  0  0  0  0  0  0  0  0  0  0  0
  -36.4769   59.5300   65.4173 O   0  0  0  0  0  0  0  0  0  0  0  0
  -37.7717   58.9298   65.4236 C   0  0  0  0  0  0  0  0  0  0  0  0
  -36.6510   60.9569   65.3103 C   0  0  0  0  0  0  0  0  0  0  0  0
  -38.7845   60.1059   65.3471 C   0  0  0  0  0  0  0  0  0  0  0  0
  -36.8486   63.7208   66.1580 O   0  0  0  0  0  0  0  0  0  0  0  0
  -35.6648   63.2577   65.7388 C   0  0  0  0  0  0  0  0  0  0  0  0
  -34.5509   64.1074   65.7341 C   0  0  0  0  0  0  0  0  0  0  0  0
  -33.2994   63.6481   65.2899 C   0  0  0  0  0  0  0  0  0  0  0  0
  -33.1455   62.3306   64.8547 C   0  0  0  0  0  0  0  0  0  0  0  0
  -34.2524   61.4772   64.8636 C   0  0  0  0  0  0  0  0  0  0  0  0
  -35.5096   61.9371   65.2999 C   0  0  0  0  0  0  0  0  0  0  0  0
  -36.9287   64.6084   66.4475 H   0  0  0  0  0  0  0  0  0  0  0  0
  -41.7975   56.7125   63.1156 O   0  0  0  0  0  0  0  0  0  0  0  0
  -42.4091   57.6357   63.6276 C   0  0  0  0  0  0  0  0  0  0  0  0
  -43.6165   57.3276   64.4010 O   0  0  0  0  0  0  0  0  0  0  0  0
  -43.7053   57.6340   65.8053 C   0  0  0  0  0  0  0  0  0  0  0  0
  -42.6360   56.9726   66.6659 C   0  0  0  0  0  0  0  0  0  0  0  0
  -45.1013   57.2700   66.2881 C   0  0  0  0  0  0  0  0  0  0  0  0
  -46.4468   59.0328   65.2498 N   0  0  0  0  0  0  0  0  0  0  0  0
  -46.3942   58.7689   67.4955 O   0  0  0  0  0  0  0  0  0  0  0  0
  -46.0245   58.4593   66.3860 C   0  0  0  0  0  0  0  0  0  0  0  0
  -46.0753   58.6970   64.4022 H   0  0  0  0  0  0  0  0  0  0  0  0
  -49.5849   58.9455   65.2329 N   0  0  0  0  0  0  0  0  0  0  0  0
  -49.0905   60.4656   66.8175 O   0  0  0  0  0  0  0  0  0  0  0  0
  -49.1975   57.9746   64.1989 C   0  0  0  0  0  0  0  0  0  0  0  0
  -48.8726   58.6898   62.8740 C   0  0  0  0  0  0  0  0  0  0  0  0
  -48.8349   60.2073   62.9481 C   0  0  0  0  0  0  0  0  0  0  0  0
  -47.6721   60.7368   63.7916 C   0  0  0  0  0  0  0  0  0  0  0  0
  -47.4238   60.1255   65.1808 C   0  0  0  0  0  0  0  0  0  0  0  0
  -48.7709   59.8403   65.8156 C   0  0  0  0  0  0  0  0  0  0  0  0
  -51.6336   60.3944   66.3407 Si  0  0  0  0  0  0  0  0  0  0  0  0
  -50.8839   58.9291   65.6429 O   0  0  0  0  0  0  0  0  0  0  0  0
  -52.9830   60.1173   66.6854 H   0  0  0  0  0  0  0  0  0  0  0  0
  -51.5949   61.4458   65.3870 H   0  0  0  0  0  0  0  0  0  0  0  0
  -50.9184   60.7839   67.5039 H   0  0  0  0  0  0  0  0  0  0  0  0
  -41.6880   58.2960   60.9370 C   0  0  0  0  0  0  0  0  0  0  0  0
  -41.7496   59.4529   61.9419 C   0  0  0  0  0  0  0  0  0  0  0  0
  -41.0316   58.5907   59.5776 C   0  0  0  0  0  0  0  0  0  0  0  0
  -39.7262   57.8413   59.2402 C   0  0  0  0  0  0  0  0  0  0  0  0
  -38.6432   58.4211   60.0407 N   0  0  0  0  0  0  0  0  0  0  0  0
  -38.1832   58.0407   61.2619 C   0  0  0  0  0  0  0  0  0  0  0  0
  -38.0134   59.5180   59.4356 O   0  0  0  0  0  0  0  0  0  0  0  0
  -38.6722   57.0798   61.8557 O   0  0  0  0  0  0  0  0  0  0  0  0
  -37.3115   59.8491   60.0174 H   0  0  0  0  0  0  0  0  0  0  0  0
  -37.0394   58.8331   61.9036 C   0  0  0  0  0  0  0  0  0  0  0  0
  -35.9787   57.9685   62.5984 C   0  0  0  0  0  0  0  0  0  0  0  0
  -34.6064   58.6671   62.5403 C   0  0  0  0  0  0  0  0  0  0  0  0
  -33.4878   57.8858   63.2554 C   0  0  0  0  0  0  0  0  0  0  0  0
  -32.2199   58.7081   63.5521 C   0  0  0  0  0  0  0  0  0  0  0  0
  -31.8710   59.7014   62.4240 C   0  0  0  0  0  0  0  0  0  0  0  0
  -30.3773   60.0964   62.3560 C   0  0  0  0  0  0  0  0  0  0  0  0
  -30.1200   61.3721   61.5457 C   0  0  0  0  0  0  0  0  0  0  0  0
  -31.3554   62.2362   61.2735 C   0  0  0  0  0  0  0  0  0  0  0  0
  -30.9938   63.7318   61.2225 C   0  0  0  0  0  0  0  0  0  0  0  0
  -31.7654   64.5937   62.2332 C   0  0  0  0  0  0  0  0  0  0  0  0
  -32.9969   65.3216   61.6842 C   0  0  0  0  0  0  0  0  0  0  0  0
  -34.2220   64.4051   61.4420 C   0  0  0  0  0  0  0  0  0  0  0  0
  -35.4703   64.9222   62.1854 C   0  0  0  0  0  0  0  0  0  0  0  0
  -36.3279   65.9712   61.4675 C   0  0  0  0  0  0  0  0  0  0  0  0
 46 47  1  0  0  0
 46 48  1  0  0  0
 46 45  1  0  0  0
 47 49  2  0  0  0
 47 51  1  0  0  0
 19 20  2  0  0  0
 37 38  1  0  0  0
 37 39  1  0  0  0
 37 40  1  0  0  0
 37 41  1  0  0  0
 48 50  1  0  0  0
 38 29  1  0  0  0
 45 44  1  0  0  0
 25 27  1  0  0  0
 25 35  1  0  0  0
 25 28  1  0  0  0
 21 20  1  0  0  0
 21 22  1  0  0  0
 44 42  1  0  0  0
  2  1  1  0  0  0
  2  4  1  0  0  0
  2  5  1  0  0  0
 26 27  2  0  0  0
 42 43  2  0  0  0
 29 31  1  0  0  0
 29 36  1  0  0  0
  3  4  2  0  0  0
 43  1  1  0  0  0
  6  9  2  0  0  0
  6 10  1  0  0  0
  1 20  1  0  0  0
 30 36  2  0  0  0
  7  8  1  0  0  0
  7  9  1  0  0  0
 22 24  1  0  0  0
 22 23  1  0  0  0
 11 12  1  0  0  0
 11 18  1  0  0  0
 24 27  1  0  0  0
  4 10  1  0  0  0
 51 52  1  0  0  0
 52 53  1  0  0  0
 53 54  1  0  0  0
 54 55  1  0  0  0
 55 56  1  0  0  0
 56 57  1  0  0  0
 57 58  1  0  0  0
 58 59  1  0  0  0
 59 60  1  0  0  0
 60 61  1  0  0  0
 61 62  1  0  0  0
 62 63  1  0  0  0
 63 64  1  0  0  0
 64 65  1  0  0  0
 31 32  1  0  0  0
 32 33  1  0  0  0
 33 34  1  0  0  0
 34 35  1  0  0  0
 35 36  1  0  0  0
  8 10  1  0  0  0
  9 17  1  0  0  0
 12 13  2  0  0  0
 12 17  1  0  0  0
 13 14  1  0  0  0
 14 15  2  0  0  0
 15 16  1  0  0  0
 16 17  2  0  0  0
M  END
> <minimizedAffinity>
-9.52446

> <CNNscore>
0.2303227633

> <CNNaffinity>
7.4023919106

> <CNN_VS>
1.7049393654

> <CNNaffinity_variance>
1.9284985065

$$$$
/media/chris/experiments/cd1a-new-docking/inputs/ligands/1xz0_ligand.pdb


 65 67  0  0  0  0  0  0  0  0999 V2000
  -42.4152   59.7189   63.9065 C   0  0  0  0  0  0  0  0  0  0  0  0
  -41.2298   59.7521   64.7655 N   0  0  0  0  0  0  0  0  0  0  0  0
  -39.6617   60.7270   63.4375 O   0  0  0  0  0  0  0  0  0  0  0  0
  -39.9989   60.2235   64.5009 C   0  0  0  0  0  0  0  0  0  0  0  0
  -41.3518   59.3748   65.6666 H   0  0  0  0  0  0  0  0  0  0  0  0
  -37.9390   61.1232   65.5629 N   0  0  0  0  0  0  0  0  0  0  0  0
  -36.6528   59.2991   65.4638 O   0  0  0  0  0  0  0  0  0  0  0  0
  -37.9831   58.7823   65.4664 C   0  0  0  0  0  0  0  0  0  0  0  0
  -36.7367   60.7374   65.5089 C   0  0  0  0  0  0  0  0  0  0  0  0
  -38.9186   60.0200   65.5533 C   0  0  0  0  0  0  0  0  0  0  0  0
  -36.1160   62.5577   67.6765 O   0  0  0  0  0  0  0  0  0  0  0  0
  -35.2803   62.4881   66.6332 C   0  0  0  0  0  0  0  0  0  0  0  0
  -34.1235   63.2783   66.6185 C   0  0  0  0  0  0  0  0  0  0  0  0
  -33.2351   63.2304   65.5308 C   0  0  0  0  0  0  0  0  0  0  0  0
  -33.4886   62.3841   64.4499 C   0  0  0  0  0  0  0  0  0  0  0  0
  -34.6380   61.5890   64.4628 C   0  0  0  0  0  0  0  0  0  0  0  0
  -35.5345   61.6413   65.5474 C   0  0  0  0  0  0  0  0  0  0  0  0
  -35.9253   63.1316   68.3922 H   0  0  0  0  0  0  0  0  0  0  0  0
  -42.6920   57.4928   64.7452 O   0  0  0  0  0  0  0  0  0  0  0  0
  -43.2259   58.5135   64.3433 C   0  0  0  0  0  0  0  0  0  0  0  0
  -44.6874   58.5344   64.2228 O   0  0  0  0  0  0  0  0  0  0  0  0
  -45.5250   58.9207   65.3287 C   0  0  0  0  0  0  0  0  0  0  0  0
  -46.1551   57.7558   66.0819 C   0  0  0  0  0  0  0  0  0  0  0  0
  -46.5873   59.8800   64.8133 C   0  0  0  0  0  0  0  0  0  0  0  0
  -48.2409   58.7216   63.4277 N   0  0  0  0  0  0  0  0  0  0  0  0
  -48.6299   59.1333   65.6173 O   0  0  0  0  0  0  0  0  0  0  0  0
  -47.9363   59.2294   64.6308 C   0  0  0  0  0  0  0  0  0  0  0  0
  -47.5980   58.8624   62.6955 H   0  0  0  0  0  0  0  0  0  0  0  0
  -50.0093   58.6902   60.8340 N   0  0  0  0  0  0  0  0  0  0  0  0
  -49.6560   56.5124   61.2791 O   0  0  0  0  0  0  0  0  0  0  0  0
  -49.8426   60.1203   61.1324 C   0  0  0  0  0  0  0  0  0  0  0  0
  -50.8405   60.5709   62.2158 C   0  0  0  0  0  0  0  0  0  0  0  0
  -51.6368   59.4536   62.8695 C   0  0  0  0  0  0  0  0  0  0  0  0
  -50.7716   58.5208   63.7210 C   0  0  0  0  0  0  0  0  0  0  0  0
  -49.4648   57.9706   63.1255 C   0  0  0  0  0  0  0  0  0  0  0  0
  -49.7058   57.6746   61.6582 C   0  0  0  0  0  0  0  0  0  0  0  0
  -49.4648   57.5889   58.3817 Si  0  0  0  0  0  0  0  0  0  0  0  0
  -50.5074   58.3668   59.6080 O   0  0  0  0  0  0  0  0  0  0  0  0
  -50.2166   57.3573   57.1994 H   0  0  0  0  0  0  0  0  0  0  0  0
  -48.9828   56.3521   58.8861 H   0  0  0  0  0  0  0  0  0  0  0  0
  -48.3670   58.4393   58.0854 H   0  0  0  0  0  0  0  0  0  0  0  0
  -41.9176   58.4698   61.6513 C   0  0  0  0  0  0  0  0  0  0  0  0
  -42.1894   59.7933   62.3769 C   0  0  0  0  0  0  0  0  0  0  0  0
  -41.2734   58.5612   60.2576 C   0  0  0  0  0  0  0  0  0  0  0  0
  -40.1181   57.5888   59.9424 C   0  0  0  0  0  0  0  0  0  0  0  0
  -38.8737   58.1722   60.4533 N   0  0  0  0  0  0  0  0  0  0  0  0
  -38.2587   57.9659   61.6478 C   0  0  0  0  0  0  0  0  0  0  0  0
  -38.2553   59.0616   59.5631 O   0  0  0  0  0  0  0  0  0  0  0  0
  -38.7286   57.1909   62.4807 O   0  0  0  0  0  0  0  0  0  0  0  0
  -37.4426   59.4074   59.9641 H   0  0  0  0  0  0  0  0  0  0  0  0
  -36.9614   58.7215   61.9545 C   0  0  0  0  0  0  0  0  0  0  0  0
  -35.8851   57.8790   62.6526 C   0  0  0  0  0  0  0  0  0  0  0  0
  -34.5247   58.5998   62.5869 C   0  0  0  0  0  0  0  0  0  0  0  0
  -33.5588   58.1944   63.7164 C   0  0  0  0  0  0  0  0  0  0  0  0
  -32.0660   58.3428   63.3678 C   0  0  0  0  0  0  0  0  0  0  0  0
  -31.7628   59.6210   62.5582 C   0  0  0  0  0  0  0  0  0  0  0  0
  -30.2829   60.0680   62.5949 C   0  0  0  0  0  0  0  0  0  0  0  0
  -29.9067   61.0263   61.4591 C   0  0  0  0  0  0  0  0  0  0  0  0
  -30.9669   62.0750   61.1080 C   0  0  0  0  0  0  0  0  0  0  0  0
  -30.4248   63.5042   61.2918 C   0  0  0  0  0  0  0  0  0  0  0  0
  -31.3048   64.3941   62.1826 C   0  0  0  0  0  0  0  0  0  0  0  0
  -32.1838   65.4108   61.4469 C   0  0  0  0  0  0  0  0  0  0  0  0
  -33.5912   65.6006   62.0658 C   0  0  0  0  0  0  0  0  0  0  0  0
  -34.5546   64.4767   61.6337 C   0  0  0  0  0  0  0  0  0  0  0  0
  -35.8798   64.9003   60.9888 C   0  0  0  0  0  0  0  0  0  0  0  0
 46 47  1  0  0  0
 46 48  1  0  0  0
 46 45  1  0  0  0
 47 49  2  0  0  0
 47 51  1  0  0  0
 19 20  2  0  0  0
 37 38  1  0  0  0
 37 39  1  0  0  0
 37 40  1  0  0  0
 37 41  1  0  0  0
 48 50  1  0  0  0
 38 29  1  0  0  0
 45 44  1  0  0  0
 25 27  1  0  0  0
 25 35  1  0  0  0
 25 28  1  0  0  0
 21 20  1  0  0  0
 21 22  1  0  0  0
 44 42  1  0  0  0
  2  1  1  0  0  0
  2  4  1  0  0  0
  2  5  1  0  0  0
 26 27  2  0  0  0
 42 43  2  0  0  0
 29 31  1  0  0  0
 29 36  1  0  0  0
  3  4  2  0  0  0
 43  1  1  0  0  0
  6  9  2  0  0  0
  6 10  1  0  0  0
  1 20  1  0  0  0
 30 36  2  0  0  0
  7  8  1  0  0  0
  7  9  1  0  0  0
 22 24  1  0  0  0
 22 23  1  0  0  0
 11 12  1  0  0  0
 11 18  1  0  0  0
 24 27  1  0  0  0
  4 10  1  0  0  0
 51 52  1  0  0  0
 52 53  1  0  0  0
 53 54  1  0  0  0
 54 55  1  0  0  0
 55 56  1  0  0  0
 56 57  1  0  0  0
 57 58  1  0  0  0
 58 59  1  0  0  0
 59 60  1  0  0  0
 60 61  1  0  0  0
 61 62  1  0  0  0
 62 63  1  0  0  0
 63 64  1  0  0  0
 64 65  1  0  0  0
 31 32  1  0  0  0
 32 33  1  0  0  0
 33 34  1  0  0  0
 34 35  1  0  0  0
 35 36  1  0  0  0
  8 10  1  0  0  0
  9 17  1  0  0  0
 12 13  2  0  0  0
 12 17  1  0  0  0
 13 14  1  0  0  0
 14 15  2  0  0  0
 15 16  1  0  0  0
 16 17  2  0  0  0
M  END
> <minimizedAffinity>
-9.54497

> <CNNscore>
0.2277202308

> <CNNaffinity>
7.4438414574

> <CNN_VS>
1.6951133013

> <CNNaffinity_variance>
1.0364007950

$$$$
/media/chris/experiments/cd1a-new-docking/inputs/ligands/1xz0_ligand.pdb


 65 67  0  0  0  0  0  0  0  0999 V2000
  -36.6331   60.7553   64.8445 C   0  0  0  0  0  0  0  0  0  0  0  0
  -35.6834   61.5694   65.6057 N   0  0  0  0  0  0  0  0  0  0  0  0
  -36.7398   63.5774   65.7623 O   0  0  0  0  0  0  0  0  0  0  0  0
  -35.7826   62.8517   65.9971 C   0  0  0  0  0  0  0  0  0  0  0  0
  -34.8525   61.1116   65.8688 H   0  0  0  0  0  0  0  0  0  0  0  0
  -34.0366   64.6197   65.9193 N   0  0  0  0  0  0  0  0  0  0  0  0
  -32.2310   63.3647   66.3148 O   0  0  0  0  0  0  0  0  0  0  0  0
  -33.2974   62.6330   66.9184 C   0  0  0  0  0  0  0  0  0  0  0  0
  -32.7905   64.5523   65.7195 C   0  0  0  0  0  0  0  0  0  0  0  0
  -34.5788   63.4802   66.6838 C   0  0  0  0  0  0  0  0  0  0  0  0
  -30.1429   65.3998   66.5377 O   0  0  0  0  0  0  0  0  0  0  0  0
  -30.6871   65.9489   65.4449 C   0  0  0  0  0  0  0  0  0  0  0  0
  -29.9646   66.9024   64.7158 C   0  0  0  0  0  0  0  0  0  0  0  0
  -30.5173   67.5004   63.5706 C   0  0  0  0  0  0  0  0  0  0  0  0
  -31.7951   67.1442   63.1360 C   0  0  0  0  0  0  0  0  0  0  0  0
  -32.5175   66.1887   63.8563 C   0  0  0  0  0  0  0  0  0  0  0  0
  -31.9697   65.5942   65.0092 C   0  0  0  0  0  0  0  0  0  0  0  0
  -29.2829   65.6526   66.8104 H   0  0  0  0  0  0  0  0  0  0  0  0
  -36.6488   61.7799   62.6799 O   0  0  0  0  0  0  0  0  0  0  0  0
  -36.2299   60.8786   63.3874 C   0  0  0  0  0  0  0  0  0  0  0  0
  -35.3685   59.8588   62.7798 O   0  0  0  0  0  0  0  0  0  0  0  0
  -34.9769   58.6789   63.5067 C   0  0  0  0  0  0  0  0  0  0  0  0
  -33.4910   58.3515   63.4277 C   0  0  0  0  0  0  0  0  0  0  0  0
  -35.8228   57.5125   63.0187 C   0  0  0  0  0  0  0  0  0  0  0  0
  -38.0266   58.3102   62.3093 N   0  0  0  0  0  0  0  0  0  0  0  0
  -37.7505   57.2263   64.2751 O   0  0  0  0  0  0  0  0  0  0  0  0
  -37.2992   57.7075   63.2611 C   0  0  0  0  0  0  0  0  0  0  0  0
  -37.5494   58.6655   61.5249 H   0  0  0  0  0  0  0  0  0  0  0  0
  -40.2294   57.4401   60.2488 N   0  0  0  0  0  0  0  0  0  0  0  0
  -40.9906   56.6651   62.2200 O   0  0  0  0  0  0  0  0  0  0  0  0
  -39.2350   58.1465   59.4278 C   0  0  0  0  0  0  0  0  0  0  0  0
  -39.4388   59.6707   59.5163 C   0  0  0  0  0  0  0  0  0  0  0  0
  -40.4637   60.1299   60.5403 C   0  0  0  0  0  0  0  0  0  0  0  0
  -40.0265   59.8676   61.9839 C   0  0  0  0  0  0  0  0  0  0  0  0
  -39.4837   58.4772   62.3544 C   0  0  0  0  0  0  0  0  0  0  0  0
  -40.2853   57.4416   61.5903 C   0  0  0  0  0  0  0  0  0  0  0  0
  -41.8815   55.2526   60.3412 Si  0  0  0  0  0  0  0  0  0  0  0  0
  -41.1726   56.7112   59.5891 O   0  0  0  0  0  0  0  0  0  0  0  0
  -42.8322   54.6784   59.4563 H   0  0  0  0  0  0  0  0  0  0  0  0
  -42.5222   55.6105   61.5568 H   0  0  0  0  0  0  0  0  0  0  0  0
  -40.8534   54.3101   60.6077 H   0  0  0  0  0  0  0  0  0  0  0  0
  -38.9182   59.8800   65.7966 C   0  0  0  0  0  0  0  0  0  0  0  0
  -38.1413   60.9999   65.0935 C   0  0  0  0  0  0  0  0  0  0  0  0
  -40.4502   59.9077   65.6632 C   0  0  0  0  0  0  0  0  0  0  0  0
  -41.1710   58.5597   65.4563 C   0  0  0  0  0  0  0  0  0  0  0  0
  -42.4744   58.8251   64.8393 N   0  0  0  0  0  0  0  0  0  0  0  0
  -43.5616   58.0139   64.7526 C   0  0  0  0  0  0  0  0  0  0  0  0
  -42.5841   60.1013   64.2691 O   0  0  0  0  0  0  0  0  0  0  0  0
  -43.5529   56.8830   65.2385 O   0  0  0  0  0  0  0  0  0  0  0  0
  -43.4670   60.2074   63.8816 H   0  0  0  0  0  0  0  0  0  0  0  0
  -44.8123   58.5245   64.0295 C   0  0  0  0  0  0  0  0  0  0  0  0
  -45.8652   59.1565   64.9501 C   0  0  0  0  0  0  0  0  0  0  0  0
  -46.9472   59.8617   64.1097 C   0  0  0  0  0  0  0  0  0  0  0  0
  -48.0531   60.5187   64.9572 C   0  0  0  0  0  0  0  0  0  0  0  0
  -48.8458   59.5420   65.8458 C   0  0  0  0  0  0  0  0  0  0  0  0
  -50.3724   59.6604   65.6545 C   0  0  0  0  0  0  0  0  0  0  0  0
  -50.8506   59.4972   64.1929 C   0  0  0  0  0  0  0  0  0  0  0  0
  -50.5805   58.1033   63.6147 C   0  0  0  0  0  0  0  0  0  0  0  0
  -49.7642   58.0781   62.3186 C   0  0  0  0  0  0  0  0  0  0  0  0
  -50.4566   57.2303   61.2359 C   0  0  0  0  0  0  0  0  0  0  0  0
  -49.7344   57.2415   59.8801 C   0  0  0  0  0  0  0  0  0  0  0  0
  -48.5772   56.2480   59.7339 C   0  0  0  0  0  0  0  0  0  0  0  0
  -47.4656   56.7055   58.7568 C   0  0  0  0  0  0  0  0  0  0  0  0
  -47.8609   57.9998   58.0173 C   0  0  0  0  0  0  0  0  0  0  0  0
  -47.4254   58.1299   56.5528 C   0  0  0  0  0  0  0  0  0  0  0  0
 46 47  1  0  0  0
 46 48  1  0  0  0
 46 45  1  0  0  0
 47 49  2  0  0  0
 47 51  1  0  0  0
 19 20  2  0  0  0
 37 38  1  0  0  0
 37 39  1  0  0  0
 37 40  1  0  0  0
 37 41  1  0  0  0
 48 50  1  0  0  0
 38 29  1  0  0  0
 45 44  1  0  0  0
 25 27  1  0  0  0
 25 35  1  0  0  0
 25 28  1  0  0  0
 21 20  1  0  0  0
 21 22  1  0  0  0
 44 42  1  0  0  0
  2  1  1  0  0  0
  2  4  1  0  0  0
  2  5  1  0  0  0
 26 27  2  0  0  0
 42 43  2  0  0  0
 29 31  1  0  0  0
 29 36  1  0  0  0
  3  4  2  0  0  0
 43  1  1  0  0  0
  6  9  2  0  0  0
  6 10  1  0  0  0
  1 20  1  0  0  0
 30 36  2  0  0  0
  7  8  1  0  0  0
  7  9  1  0  0  0
 22 24  1  0  0  0
 22 23  1  0  0  0
 11 12  1  0  0  0
 11 18  1  0  0  0
 24 27  1  0  0  0
  4 10  1  0  0  0
 51 52  1  0  0  0
 52 53  1  0  0  0
 53 54  1  0  0  0
 54 55  1  0  0  0
 55 56  1  0  0  0
 56 57  1  0  0  0
 57 58  1  0  0  0
 58 59  1  0  0  0
 59 60  1  0  0  0
 60 61  1  0  0  0
 61 62  1  0  0  0
 62 63  1  0  0  0
 63 64  1  0  0  0
 64 65  1  0  0  0
 31 32  1  0  0  0
 32 33  1  0  0  0
 33 34  1  0  0  0
 34 35  1  0  0  0
 35 36  1  0  0  0
  8 10  1  0  0  0
  9 17  1  0  0  0
 12 13  2  0  0  0
 12 17  1  0  0  0
 13 14  1  0  0  0
 14 15  2  0  0  0
 15 16  1  0  0  0
 16 17  2  0  0  0
M  END
> <minimizedAffinity>
-10.07015

> <CNNscore>
0.2207373977

> <CNNaffinity>
7.3060493469

> <CNN_VS>
1.6127183437

> <CNNaffinity_variance>
0.8622413874

$$$$
/media/chris/experiments/cd1a-new-docking/inputs/ligands/1xz0_ligand.pdb


 65 67  0  0  0  0  0  0  0  0999 V2000
  -40.8015   59.0224   64.5006 C   0  0  0  0  0  0  0  0  0  0  0  0
  -39.7353   58.6592   63.5650 N   0  0  0  0  0  0  0  0  0  0  0  0
  -40.8291   57.4336   61.9921 O   0  0  0  0  0  0  0  0  0  0  0  0
  -39.8034   57.9324   62.4361 C   0  0  0  0  0  0  0  0  0  0  0  0
  -38.8394   58.9958   63.7960 H   0  0  0  0  0  0  0  0  0  0  0  0
  -37.3618   57.5158   62.6494 N   0  0  0  0  0  0  0  0  0  0  0  0
  -36.6157   58.9161   61.0764 O   0  0  0  0  0  0  0  0  0  0  0  0
  -37.9439   58.6044   60.6575 C   0  0  0  0  0  0  0  0  0  0  0  0
  -36.3644   58.2138   62.3098 C   0  0  0  0  0  0  0  0  0  0  0  0
  -38.5009   57.6132   61.7167 C   0  0  0  0  0  0  0  0  0  0  0  0
  -36.1064   58.2804   65.1953 O   0  0  0  0  0  0  0  0  0  0  0  0
  -34.9958   58.2839   64.4481 C   0  0  0  0  0  0  0  0  0  0  0  0
  -33.7415   58.3028   65.0718 C   0  0  0  0  0  0  0  0  0  0  0  0
  -32.5609   58.3163   64.3098 C   0  0  0  0  0  0  0  0  0  0  0  0
  -32.6215   58.3009   62.9153 C   0  0  0  0  0  0  0  0  0  0  0  0
  -33.8704   58.2755   62.2884 C   0  0  0  0  0  0  0  0  0  0  0  0
  -35.0552   58.2707   63.0492 C   0  0  0  0  0  0  0  0  0  0  0  0
  -36.0423   58.2893   66.1301 H   0  0  0  0  0  0  0  0  0  0  0  0
  -40.8280   60.5553   66.3404 O   0  0  0  0  0  0  0  0  0  0  0  0
  -40.1595   59.8945   65.5627 C   0  0  0  0  0  0  0  0  0  0  0  0
  -38.6988   60.0101   65.6271 O   0  0  0  0  0  0  0  0  0  0  0  0
  -38.0157   61.1702   65.1158 C   0  0  0  0  0  0  0  0  0  0  0  0
  -37.5845   61.0593   63.6587 C   0  0  0  0  0  0  0  0  0  0  0  0
  -36.8273   61.4636   66.0192 C   0  0  0  0  0  0  0  0  0  0  0  0
  -34.8905   62.6702   65.1311 N   0  0  0  0  0  0  0  0  0  0  0  0
  -36.7428   63.7719   65.8171 O   0  0  0  0  0  0  0  0  0  0  0  0
  -36.1171   62.7474   65.6675 C   0  0  0  0  0  0  0  0  0  0  0  0
  -34.4777   61.7793   65.0593 H   0  0  0  0  0  0  0  0  0  0  0  0
  -33.8065   63.3085   62.2548 N   0  0  0  0  0  0  0  0  0  0  0  0
  -34.8529   65.2021   62.8755 O   0  0  0  0  0  0  0  0  0  0  0  0
  -33.3653   61.9279   62.5019 C   0  0  0  0  0  0  0  0  0  0  0  0
  -32.0800   61.9101   63.3506 C   0  0  0  0  0  0  0  0  0  0  0  0
  -31.6471   63.2590   63.9007 C   0  0  0  0  0  0  0  0  0  0  0  0
  -32.6132   63.8157   64.9498 C   0  0  0  0  0  0  0  0  0  0  0  0
  -34.1202   63.8200   64.6434 C   0  0  0  0  0  0  0  0  0  0  0  0
  -34.2996   64.1529   63.1751 C   0  0  0  0  0  0  0  0  0  0  0  0
  -35.1223   63.6761   59.8764 Si  0  0  0  0  0  0  0  0  0  0  0  0
  -33.7157   63.7687   60.9758 O   0  0  0  0  0  0  0  0  0  0  0  0
  -34.7708   64.2172   58.6114 H   0  0  0  0  0  0  0  0  0  0  0  0
  -36.2017   64.4179   60.4252 H   0  0  0  0  0  0  0  0  0  0  0  0
  -35.5118   62.3197   59.7192 H   0  0  0  0  0  0  0  0  0  0  0  0
  -43.1068   57.7676   64.5700 C   0  0  0  0  0  0  0  0  0  0  0  0
  -41.6641   57.8745   65.0788 C   0  0  0  0  0  0  0  0  0  0  0  0
  -44.0853   56.9431   65.4235 C   0  0  0  0  0  0  0  0  0  0  0  0
  -44.8757   57.6876   66.5191 C   0  0  0  0  0  0  0  0  0  0  0  0
  -46.2449   57.8955   66.0374 N   0  0  0  0  0  0  0  0  0  0  0  0
  -46.7844   58.9892   65.4371 C   0  0  0  0  0  0  0  0  0  0  0  0
  -47.0910   56.7955   66.2371 O   0  0  0  0  0  0  0  0  0  0  0  0
  -46.1068   59.9921   65.2132 O   0  0  0  0  0  0  0  0  0  0  0  0
  -47.9755   57.0020   65.8967 H   0  0  0  0  0  0  0  0  0  0  0  0
  -48.2647   58.9642   65.0420 C   0  0  0  0  0  0  0  0  0  0  0  0
  -49.2008   59.6590   66.0402 C   0  0  0  0  0  0  0  0  0  0  0  0
  -50.6666   59.3019   65.7268 C   0  0  0  0  0  0  0  0  0  0  0  0
  -51.4590   60.4594   65.0903 C   0  0  0  0  0  0  0  0  0  0  0  0
  -52.1197   60.1190   63.7414 C   0  0  0  0  0  0  0  0  0  0  0  0
  -51.3394   60.6773   62.5329 C   0  0  0  0  0  0  0  0  0  0  0  0
  -50.2258   59.7449   62.0019 C   0  0  0  0  0  0  0  0  0  0  0  0
  -50.5214   58.2564   62.2188 C   0  0  0  0  0  0  0  0  0  0  0  0
  -51.1518   57.5324   61.0249 C   0  0  0  0  0  0  0  0  0  0  0  0
  -50.2183   57.5512   59.8007 C   0  0  0  0  0  0  0  0  0  0  0  0
  -49.0727   56.5306   59.8757 C   0  0  0  0  0  0  0  0  0  0  0  0
  -47.7355   56.9859   59.2822 C   0  0  0  0  0  0  0  0  0  0  0  0
  -47.2243   56.1044   58.1154 C   0  0  0  0  0  0  0  0  0  0  0  0
  -47.2010   56.8850   56.7857 C   0  0  0  0  0  0  0  0  0  0  0  0
  -47.3100   58.4123   56.8688 C   0  0  0  0  0  0  0  0  0  0  0  0
 46 47  1  0  0  0
 46 48  1  0  0  0
 46 45  1  0  0  0
 47 49  2  0  0  0
 47 51  1  0  0  0
 19 20  2  0  0  0
 37 38  1  0  0  0
 37 39  1  0  0  0
 37 40  1  0  0  0
 37 41  1  0  0  0
 48 50  1  0  0  0
 38 29  1  0  0  0
 45 44  1  0  0  0
 25 27  1  0  0  0
 25 35  1  0  0  0
 25 28  1  0  0  0
 21 20  1  0  0  0
 21 22  1  0  0  0
 44 42  1  0  0  0
  2  1  1  0  0  0
  2  4  1  0  0  0
  2  5  1  0  0  0
 26 27  2  0  0  0
 42 43  2  0  0  0
 29 31  1  0  0  0
 29 36  1  0  0  0
  3  4  2  0  0  0
 43  1  1  0  0  0
  6  9  2  0  0  0
  6 10  1  0  0  0
  1 20  1  0  0  0
 30 36  2  0  0  0
  7  8  1  0  0  0
  7  9  1  0  0  0
 22 24  1  0  0  0
 22 23  1  0  0  0
 11 12  1  0  0  0
 11 18  1  0  0  0
 24 27  1  0  0  0
  4 10  1  0  0  0
 51 52  1  0  0  0
 52 53  1  0  0  0
 53 54  1  0  0  0
 54 55  1  0  0  0
 55 56  1  0  0  0
 56 57  1  0  0  0
 57 58  1  0  0  0
 58 59  1  0  0  0
 59 60  1  0  0  0
 60 61  1  0  0  0
 61 62  1  0  0  0
 62 63  1  0  0  0
 63 64  1  0  0  0
 64 65  1  0  0  0
 31 32  1  0  0  0
 32 33  1  0  0  0
 33 34  1  0  0  0
 34 35  1  0  0  0
 35 36  1  0  0  0
  8 10  1  0  0  0
  9 17  1  0  0  0
 12 13  2  0  0  0
 12 17  1  0  0  0
 13 14  1  0  0  0
 14 15  2  0  0  0
 15 16  1  0  0  0
 16 17  2  0  0  0
M  END
> <minimizedAffinity>
-10.37336

> <CNNscore>
0.2048299909

> <CNNaffinity>
7.0317931175

> <CNN_VS>
1.4403221607

> <CNNaffinity_variance>
0.6291562915

$$$$
/media/chris/experiments/cd1a-new-docking/inputs/ligands/1xz0_ligand.pdb


 65 67  0  0  0  0  0  0  0  0999 V2000
  -39.2392   60.0547   63.6925 C   0  0  0  0  0  0  0  0  0  0  0  0
  -38.3350   61.0604   64.2537 N   0  0  0  0  0  0  0  0  0  0  0  0
  -37.3372   59.9516   65.9706 O   0  0  0  0  0  0  0  0  0  0  0  0
  -37.4892   60.9600   65.2938 C   0  0  0  0  0  0  0  0  0  0  0  0
  -38.3485   61.9364   63.8046 H   0  0  0  0  0  0  0  0  0  0  0  0
  -36.5250   63.1469   64.6094 N   0  0  0  0  0  0  0  0  0  0  0  0
  -34.4957   62.9511   65.5232 O   0  0  0  0  0  0  0  0  0  0  0  0
  -35.3159   62.0980   66.3208 C   0  0  0  0  0  0  0  0  0  0  0  0
  -35.3261   63.5309   64.4975 C   0  0  0  0  0  0  0  0  0  0  0  0
  -36.7489   62.2156   65.7315 C   0  0  0  0  0  0  0  0  0  0  0  0
  -36.2944   63.7046   61.7718 O   0  0  0  0  0  0  0  0  0  0  0  0
  -35.3439   64.5569   62.1743 C   0  0  0  0  0  0  0  0  0  0  0  0
  -34.8526   65.5183   61.2816 C   0  0  0  0  0  0  0  0  0  0  0  0
  -33.8483   66.4182   61.6769 C   0  0  0  0  0  0  0  0  0  0  0  0
  -33.3312   66.3732   62.9727 C   0  0  0  0  0  0  0  0  0  0  0  0
  -33.8227   65.4200   63.8691 C   0  0  0  0  0  0  0  0  0  0  0  0
  -34.8228   64.5113   63.4732 C   0  0  0  0  0  0  0  0  0  0  0  0
  -36.6283   63.7538   60.8977 H   0  0  0  0  0  0  0  0  0  0  0  0
  -40.3503   60.4782   61.6138 O   0  0  0  0  0  0  0  0  0  0  0  0
  -39.2925   60.3137   62.1989 C   0  0  0  0  0  0  0  0  0  0  0  0
  -38.0551   60.3026   61.4117 O   0  0  0  0  0  0  0  0  0  0  0  0
  -37.5581   59.0904   60.8141 C   0  0  0  0  0  0  0  0  0  0  0  0
  -38.4394   58.5229   59.7083 C   0  0  0  0  0  0  0  0  0  0  0  0
  -37.3358   58.0677   61.9182 C   0  0  0  0  0  0  0  0  0  0  0  0
  -35.4756   59.5206   62.5698 N   0  0  0  0  0  0  0  0  0  0  0  0
  -36.1380   57.8047   63.8860 O   0  0  0  0  0  0  0  0  0  0  0  0
  -36.2256   58.4492   62.8660 C   0  0  0  0  0  0  0  0  0  0  0  0
  -35.6361   59.9673   61.7073 H   0  0  0  0  0  0  0  0  0  0  0  0
  -32.3855   59.8095   62.0975 N   0  0  0  0  0  0  0  0  0  0  0  0
  -33.0243   61.8536   62.7899 O   0  0  0  0  0  0  0  0  0  0  0  0
  -32.6671   58.4075   61.7554 C   0  0  0  0  0  0  0  0  0  0  0  0
  -32.7346   57.5393   63.0259 C   0  0  0  0  0  0  0  0  0  0  0  0
  -32.6872   58.3048   64.3380 C   0  0  0  0  0  0  0  0  0  0  0  0
  -33.9317   59.1644   64.5749 C   0  0  0  0  0  0  0  0  0  0  0  0
  -34.4326   60.0744   63.4408 C   0  0  0  0  0  0  0  0  0  0  0  0
  -33.2223   60.6477   62.7300 C   0  0  0  0  0  0  0  0  0  0  0  0
  -30.7058   60.3859   60.0071 Si  0  0  0  0  0  0  0  0  0  0  0  0
  -31.1703   60.3047   61.7315 O   0  0  0  0  0  0  0  0  0  0  0  0
  -29.4017   60.9363   59.8936 H   0  0  0  0  0  0  0  0  0  0  0  0
  -31.6287   61.2066   59.3064 H   0  0  0  0  0  0  0  0  0  0  0  0
  -30.7179   59.0792   59.4516 H   0  0  0  0  0  0  0  0  0  0  0  0
  -40.7508   58.9202   65.5152 C   0  0  0  0  0  0  0  0  0  0  0  0
  -40.6344   59.9064   64.3465 C   0  0  0  0  0  0  0  0  0  0  0  0
  -42.1655   58.4399   65.8807 C   0  0  0  0  0  0  0  0  0  0  0  0
  -43.1960   59.5107   66.2942 C   0  0  0  0  0  0  0  0  0  0  0  0
  -44.3715   59.3762   65.4282 N   0  0  0  0  0  0  0  0  0  0  0  0
  -45.6667   59.1484   65.7721 C   0  0  0  0  0  0  0  0  0  0  0  0
  -44.0884   59.5063   64.0612 O   0  0  0  0  0  0  0  0  0  0  0  0
  -46.0021   59.0349   66.9509 O   0  0  0  0  0  0  0  0  0  0  0  0
  -44.9071   59.4069   63.5506 H   0  0  0  0  0  0  0  0  0  0  0  0
  -46.7180   59.0265   64.6641 C   0  0  0  0  0  0  0  0  0  0  0  0
  -47.3557   60.3578   64.2437 C   0  0  0  0  0  0  0  0  0  0  0  0
  -48.6489   60.6010   65.0455 C   0  0  0  0  0  0  0  0  0  0  0  0
  -49.2435   59.3183   65.6572 C   0  0  0  0  0  0  0  0  0  0  0  0
  -50.7450   59.1131   65.3826 C   0  0  0  0  0  0  0  0  0  0  0  0
  -51.4751   60.4254   65.0275 C   0  0  0  0  0  0  0  0  0  0  0  0
  -52.1072   60.4464   63.6163 C   0  0  0  0  0  0  0  0  0  0  0  0
  -51.4278   59.4903   62.6292 C   0  0  0  0  0  0  0  0  0  0  0  0
  -50.3072   60.1063   61.7857 C   0  0  0  0  0  0  0  0  0  0  0  0
  -49.3458   59.0268   61.2557 C   0  0  0  0  0  0  0  0  0  0  0  0
  -49.1580   59.0546   59.7313 C   0  0  0  0  0  0  0  0  0  0  0  0
  -48.3915   57.8703   59.1332 C   0  0  0  0  0  0  0  0  0  0  0  0
  -48.9869   57.3308   57.8088 C   0  0  0  0  0  0  0  0  0  0  0  0
  -47.9280   57.2905   56.6884 C   0  0  0  0  0  0  0  0  0  0  0  0
  -46.9915   58.4986   56.5667 C   0  0  0  0  0  0  0  0  0  0  0  0
 46 47  1  0  0  0
 46 48  1  0  0  0
 46 45  1  0  0  0
 47 49  2  0  0  0
 47 51  1  0  0  0
 19 20  2  0  0  0
 37 38  1  0  0  0
 37 39  1  0  0  0
 37 40  1  0  0  0
 37 41  1  0  0  0
 48 50  1  0  0  0
 38 29  1  0  0  0
 45 44  1  0  0  0
 25 27  1  0  0  0
 25 35  1  0  0  0
 25 28  1  0  0  0
 21 20  1  0  0  0
 21 22  1  0  0  0
 44 42  1  0  0  0
  2  1  1  0  0  0
  2  4  1  0  0  0
  2  5  1  0  0  0
 26 27  2  0  0  0
 42 43  2  0  0  0
 29 31  1  0  0  0
 29 36  1  0  0  0
  3  4  2  0  0  0
 43  1  1  0  0  0
  6  9  2  0  0  0
  6 10  1  0  0  0
  1 20  1  0  0  0
 30 36  2  0  0  0
  7  8  1  0  0  0
  7  9  1  0  0  0
 22 24  1  0  0  0
 22 23  1  0  0  0
 11 12  1  0  0  0
 11 18  1  0  0  0
 24 27  1  0  0  0
  4 10  1  0  0  0
 51 52  1  0  0  0
 52 53  1  0  0  0
 53 54  1  0  0  0
 54 55  1  0  0  0
 55 56  1  0  0  0
 56 57  1  0  0  0
 57 58  1  0  0  0
 58 59  1  0  0  0
 59 60  1  0  0  0
 60 61  1  0  0  0
 61 62  1  0  0  0
 62 63  1  0  0  0
 63 64  1  0  0  0
 64 65  1  0  0  0
 31 32  1  0  0  0
 32 33  1  0  0  0
 33 34  1  0  0  0
 34 35  1  0  0  0
 35 36  1  0  0  0
  8 10  1  0  0  0
  9 17  1  0  0  0
 12 13  2  0  0  0
 12 17  1  0  0  0
 13 14  1  0  0  0
 14 15  2  0  0  0
 15 16  1  0  0  0
 16 17  2  0  0  0
M  END
> <minimizedAffinity>
-9.81921

> <CNNscore>
0.2001110911

> <CNNaffinity>
6.8891716003

> <CNN_VS>
1.3785996437

> <CNNaffinity_variance>
0.4108025134

$$$$
