/media/chris/experiments/cd1a-new-docking/inputs/ligands/1xz0_ligand.pdb


 65 67  0  0  0  0  0  0  0  0999 V2000
  -36.6493   61.5939   62.9659 C   0  0  0  0  0  0  0  0  0  0  0  0
  -35.3877   60.8983   63.2278 N   0  0  0  0  0  0  0  0  0  0  0  0
  -36.0385   58.7334   63.4785 O   0  0  0  0  0  0  0  0  0  0  0  0
  -35.1663   59.5918   63.4548 C   0  0  0  0  0  0  0  0  0  0  0  0
  -34.5861   61.4696   63.2394 H   0  0  0  0  0  0  0  0  0  0  0  0
  -32.7524   60.1861   63.4522 N   0  0  0  0  0  0  0  0  0  0  0  0
  -31.9191   58.3169   62.5557 O   0  0  0  0  0  0  0  0  0  0  0  0
  -33.1409   57.8937   63.1597 C   0  0  0  0  0  0  0  0  0  0  0  0
  -31.7835   59.7347   62.7778 C   0  0  0  0  0  0  0  0  0  0  0  0
  -33.7514   59.1631   63.8159 C   0  0  0  0  0  0  0  0  0  0  0  0
  -31.9726   62.2491   61.3498 O   0  0  0  0  0  0  0  0  0  0  0  0
  -30.7602   61.7607   61.6384 C   0  0  0  0  0  0  0  0  0  0  0  0
  -29.6170   62.4777   61.2615 C   0  0  0  0  0  0  0  0  0  0  0  0
  -28.3330   61.9818   61.5445 C   0  0  0  0  0  0  0  0  0  0  0  0
  -28.1779   60.7681   62.2164 C   0  0  0  0  0  0  0  0  0  0  0  0
  -29.3154   60.0522   62.6001 C   0  0  0  0  0  0  0  0  0  0  0  0
  -30.6032   60.5422   62.3102 C   0  0  0  0  0  0  0  0  0  0  0  0
  -32.0532   63.0668   60.8993 H   0  0  0  0  0  0  0  0  0  0  0  0
  -36.7020   63.6642   64.1687 O   0  0  0  0  0  0  0  0  0  0  0  0
  -36.3692   63.0727   63.1549 C   0  0  0  0  0  0  0  0  0  0  0  0
  -35.7434   63.8408   62.0735 O   0  0  0  0  0  0  0  0  0  0  0  0
  -35.5859   65.2694   62.1634 C   0  0  0  0  0  0  0  0  0  0  0  0
  -36.5225   66.0668   61.2641 C   0  0  0  0  0  0  0  0  0  0  0  0
  -34.1306   65.6102   61.8799 C   0  0  0  0  0  0  0  0  0  0  0  0
  -32.5066   66.2132   63.6106 N   0  0  0  0  0  0  0  0  0  0  0  0
  -34.0174   67.7138   62.8484 O   0  0  0  0  0  0  0  0  0  0  0  0
  -33.5502   66.5980   62.8616 C   0  0  0  0  0  0  0  0  0  0  0  0
  -32.0951   66.8846   64.2014 H   0  0  0  0  0  0  0  0  0  0  0  0
  -32.4053   64.0587   65.8916 N   0  0  0  0  0  0  0  0  0  0  0  0
  -33.1976   62.9313   64.1121 O   0  0  0  0  0  0  0  0  0  0  0  0
  -31.9073   65.2824   66.5371 C   0  0  0  0  0  0  0  0  0  0  0  0
  -30.4173   65.5015   66.2134 C   0  0  0  0  0  0  0  0  0  0  0  0
  -29.8313   64.5528   65.1808 C   0  0  0  0  0  0  0  0  0  0  0  0
  -30.4093   64.7629   63.7788 C   0  0  0  0  0  0  0  0  0  0  0  0
  -31.9347   64.8618   63.6116 C   0  0  0  0  0  0  0  0  0  0  0  0
  -32.5768   63.8799   64.5720 C   0  0  0  0  0  0  0  0  0  0  0  0
  -33.2758   63.3123   68.3833 Si  0  0  0  0  0  0  0  0  0  0  0  0
  -32.7307   63.0167   66.7066 O   0  0  0  0  0  0  0  0  0  0  0  0
  -33.5510   62.0718   69.0173 H   0  0  0  0  0  0  0  0  0  0  0  0
  -34.4531   64.1061   68.3654 H   0  0  0  0  0  0  0  0  0  0  0  0
  -32.2562   63.9938   69.0992 H   0  0  0  0  0  0  0  0  0  0  0  0
  -38.9724   60.3724   62.8928 C   0  0  0  0  0  0  0  0  0  0  0  0
  -37.9063   61.0991   63.7218 C   0  0  0  0  0  0  0  0  0  0  0  0
  -40.3783   60.2672   63.5075 C   0  0  0  0  0  0  0  0  0  0  0  0
  -40.8578   58.8702   63.9523 C   0  0  0  0  0  0  0  0  0  0  0  0
  -42.3044   58.7877   63.7284 N   0  0  0  0  0  0  0  0  0  0  0  0
  -43.3162   58.8601   64.6333 C   0  0  0  0  0  0  0  0  0  0  0  0
  -42.6624   58.6103   62.3846 O   0  0  0  0  0  0  0  0  0  0  0  0
  -43.0886   59.0279   65.8311 O   0  0  0  0  0  0  0  0  0  0  0  0
  -43.6286   58.5645   62.3107 H   0  0  0  0  0  0  0  0  0  0  0  0
  -44.7614   58.7230   64.1426 C   0  0  0  0  0  0  0  0  0  0  0  0
  -45.7078   59.8254   64.6372 C   0  0  0  0  0  0  0  0  0  0  0  0
  -47.1011   59.6496   64.0032 C   0  0  0  0  0  0  0  0  0  0  0  0
  -48.2294   59.4725   65.0371 C   0  0  0  0  0  0  0  0  0  0  0  0
  -49.2866   60.5924   65.0308 C   0  0  0  0  0  0  0  0  0  0  0  0
  -50.7323   60.0531   65.0485 C   0  0  0  0  0  0  0  0  0  0  0  0
  -51.6326   60.5933   63.9130 C   0  0  0  0  0  0  0  0  0  0  0  0
  -51.7081   59.6609   62.6985 C   0  0  0  0  0  0  0  0  0  0  0  0
  -51.0636   58.2841   62.8879 C   0  0  0  0  0  0  0  0  0  0  0  0
  -50.5588   57.7121   61.5505 C   0  0  0  0  0  0  0  0  0  0  0  0
  -49.3496   58.4609   60.9700 C   0  0  0  0  0  0  0  0  0  0  0  0
  -49.2848   58.5365   59.4410 C   0  0  0  0  0  0  0  0  0  0  0  0
  -48.6302   57.3031   58.7703 C   0  0  0  0  0  0  0  0  0  0  0  0
  -47.3839   57.6993   57.9531 C   0  0  0  0  0  0  0  0  0  0  0  0
  -47.6009   58.0702   56.4812 C   0  0  0  0  0  0  0  0  0  0  0  0
 46 47  1  0  0  0
 46 48  1  0  0  0
 46 45  1  0  0  0
 47 49  2  0  0  0
 47 51  1  0  0  0
 19 20  2  0  0  0
 37 38  1  0  0  0
 37 39  1  0  0  0
 37 40  1  0  0  0
 37 41  1  0  0  0
 48 50  1  0  0  0
 38 29  1  0  0  0
 45 44  1  0  0  0
 25 27  1  0  0  0
 25 35  1  0  0  0
 25 28  1  0  0  0
 21 20  1  0  0  0
 21 22  1  0  0  0
 44 42  1  0  0  0
  2  1  1  0  0  0
  2  4  1  0  0  0
  2  5  1  0  0  0
 26 27  2  0  0  0
 42 43  2  0  0  0
 29 31  1  0  0  0
 29 36  1  0  0  0
  3  4  2  0  0  0
 43  1  1  0  0  0
  6  9  2  0  0  0
  6 10  1  0  0  0
  1 20  1  0  0  0
 30 36  2  0  0  0
  7  8  1  0  0  0
  7  9  1  0  0  0
 22 24  1  0  0  0
 22 23  1  0  0  0
 11 12  1  0  0  0
 11 18  1  0  0  0
 24 27  1  0  0  0
  4 10  1  0  0  0
 51 52  1  0  0  0
 52 53  1  0  0  0
 53 54  1  0  0  0
 54 55  1  0  0  0
 55 56  1  0  0  0
 56 57  1  0  0  0
 57 58  1  0  0  0
 58 59  1  0  0  0
 59 60  1  0  0  0
 60 61  1  0  0  0
 61 62  1  0  0  0
 62 63  1  0  0  0
 63 64  1  0  0  0
 64 65  1  0  0  0
 31 32  1  0  0  0
 32 33  1  0  0  0
 33 34  1  0  0  0
 34 35  1  0  0  0
 35 36  1  0  0  0
  8 10  1  0  0  0
  9 17  1  0  0  0
 12 13  2  0  0  0
 12 17  1  0  0  0
 13 14  1  0  0  0
 14 15  2  0  0  0
 15 16  1  0  0  0
 16 17  2  0  0  0
M  END
> <minimizedAffinity>
-9.83960

> <CNNscore>
0.4340447187

> <CNNaffinity>
6.9170370102

> <CNN_VS>
3.0023033619

> <CNNaffinity_variance>
0.0484800711

$$$$
/media/chris/experiments/cd1a-new-docking/inputs/ligands/1xz0_ligand.pdb


 65 67  0  0  0  0  0  0  0  0999 V2000
  -37.6754   59.9590   65.1933 C   0  0  0  0  0  0  0  0  0  0  0  0
  -37.2821   61.3251   65.5443 N   0  0  0  0  0  0  0  0  0  0  0  0
  -36.4340   62.1313   63.5940 O   0  0  0  0  0  0  0  0  0  0  0  0
  -36.7198   62.2739   64.7755 C   0  0  0  0  0  0  0  0  0  0  0  0
  -37.4542   61.5864   66.4777 H   0  0  0  0  0  0  0  0  0  0  0  0
  -35.1049   64.1634   64.8225 N   0  0  0  0  0  0  0  0  0  0  0  0
  -34.6067   64.1612   67.0005 O   0  0  0  0  0  0  0  0  0  0  0  0
  -35.9094   63.5813   66.9451 C   0  0  0  0  0  0  0  0  0  0  0  0
  -34.2003   64.4664   65.6516 C   0  0  0  0  0  0  0  0  0  0  0  0
  -36.3086   63.5781   65.4434 C   0  0  0  0  0  0  0  0  0  0  0  0
  -33.7974   66.2590   63.4107 O   0  0  0  0  0  0  0  0  0  0  0  0
  -32.7621   65.9889   64.2151 C   0  0  0  0  0  0  0  0  0  0  0  0
  -31.5191   66.5866   63.9686 C   0  0  0  0  0  0  0  0  0  0  0  0
  -30.4146   66.3121   64.7926 C   0  0  0  0  0  0  0  0  0  0  0  0
  -30.5431   65.4445   65.8786 C   0  0  0  0  0  0  0  0  0  0  0  0
  -31.7826   64.8506   66.1324 C   0  0  0  0  0  0  0  0  0  0  0  0
  -32.8891   65.1170   65.3033 C   0  0  0  0  0  0  0  0  0  0  0  0
  -33.6888   66.8459   62.6884 H   0  0  0  0  0  0  0  0  0  0  0  0
  -36.5939   58.7050   63.4632 O   0  0  0  0  0  0  0  0  0  0  0  0
  -36.4785   59.3338   64.5023 C   0  0  0  0  0  0  0  0  0  0  0  0
  -35.1514   59.4205   65.1206 O   0  0  0  0  0  0  0  0  0  0  0  0
  -33.9982   58.8139   64.5076 C   0  0  0  0  0  0  0  0  0  0  0  0
  -32.9519   58.3064   65.4922 C   0  0  0  0  0  0  0  0  0  0  0  0
  -33.3943   59.8112   63.5304 C   0  0  0  0  0  0  0  0  0  0  0  0
  -32.3705   62.0340   63.4444 N   0  0  0  0  0  0  0  0  0  0  0  0
  -33.4987   61.3343   65.2755 O   0  0  0  0  0  0  0  0  0  0  0  0
  -33.0541   61.1356   64.1682 C   0  0  0  0  0  0  0  0  0  0  0  0
  -32.2090   62.9180   63.8465 H   0  0  0  0  0  0  0  0  0  0  0  0
  -29.4095   61.7287   62.4472 N   0  0  0  0  0  0  0  0  0  0  0  0
  -30.4684   59.9511   61.5619 O   0  0  0  0  0  0  0  0  0  0  0  0
  -29.3886   62.9613   63.2487 C   0  0  0  0  0  0  0  0  0  0  0  0
  -29.9010   64.1567   62.4234 C   0  0  0  0  0  0  0  0  0  0  0  0
  -30.4805   63.8052   61.0631 C   0  0  0  0  0  0  0  0  0  0  0  0
  -31.7842   63.0079   61.1557 C   0  0  0  0  0  0  0  0  0  0  0  0
  -31.8461   61.7922   62.0954 C   0  0  0  0  0  0  0  0  0  0  0  0
  -30.5089   61.0804   62.0306 C   0  0  0  0  0  0  0  0  0  0  0  0
  -28.1173   59.8006   60.9857 Si  0  0  0  0  0  0  0  0  0  0  0  0
  -28.2052   61.1916   62.1052 O   0  0  0  0  0  0  0  0  0  0  0  0
  -26.7592   59.4332   60.7928 H   0  0  0  0  0  0  0  0  0  0  0  0
  -28.6921   60.1601   59.7380 H   0  0  0  0  0  0  0  0  0  0  0  0
  -28.8308   58.7035   61.5369 H   0  0  0  0  0  0  0  0  0  0  0  0
  -40.2982   59.8454   65.2390 C   0  0  0  0  0  0  0  0  0  0  0  0
  -39.0036   59.7762   64.4197 C   0  0  0  0  0  0  0  0  0  0  0  0
  -41.5606   59.2473   64.5955 C   0  0  0  0  0  0  0  0  0  0  0  0
  -42.6964   58.7999   65.5385 C   0  0  0  0  0  0  0  0  0  0  0  0
  -43.9605   59.3324   65.0207 N   0  0  0  0  0  0  0  0  0  0  0  0
  -45.2046   59.2642   65.5641 C   0  0  0  0  0  0  0  0  0  0  0  0
  -43.8363   59.9997   63.7940 O   0  0  0  0  0  0  0  0  0  0  0  0
  -45.3981   58.7075   66.6447 O   0  0  0  0  0  0  0  0  0  0  0  0
  -44.7063   60.3239   63.5129 H   0  0  0  0  0  0  0  0  0  0  0  0
  -46.3804   59.8896   64.8062 C   0  0  0  0  0  0  0  0  0  0  0  0
  -47.0785   58.9414   63.8218 C   0  0  0  0  0  0  0  0  0  0  0  0
  -48.5057   58.6285   64.3111 C   0  0  0  0  0  0  0  0  0  0  0  0
  -48.8818   59.3558   65.6160 C   0  0  0  0  0  0  0  0  0  0  0  0
  -50.2464   60.0689   65.5825 C   0  0  0  0  0  0  0  0  0  0  0  0
  -50.4259   60.9631   64.3378 C   0  0  0  0  0  0  0  0  0  0  0  0
  -51.7639   60.7600   63.5893 C   0  0  0  0  0  0  0  0  0  0  0  0
  -51.9393   59.3448   63.0265 C   0  0  0  0  0  0  0  0  0  0  0  0
  -50.9479   58.9487   61.9278 C   0  0  0  0  0  0  0  0  0  0  0  0
  -51.2968   57.5752   61.3259 C   0  0  0  0  0  0  0  0  0  0  0  0
  -50.2238   57.0206   60.3768 C   0  0  0  0  0  0  0  0  0  0  0  0
  -49.4869   58.0598   59.5253 C   0  0  0  0  0  0  0  0  0  0  0  0
  -48.1631   57.5495   58.9036 C   0  0  0  0  0  0  0  0  0  0  0  0
  -48.2329   57.5300   57.3631 C   0  0  0  0  0  0  0  0  0  0  0  0
  -47.1358   58.2851   56.6033 C   0  0  0  0  0  0  0  0  0  0  0  0
 46 47  1  0  0  0
 46 48  1  0  0  0
 46 45  1  0  0  0
 47 49  2  0  0  0
 47 51  1  0  0  0
 19 20  2  0  0  0
 37 38  1  0  0  0
 37 39  1  0  0  0
 37 40  1  0  0  0
 37 41  1  0  0  0
 48 50  1  0  0  0
 38 29  1  0  0  0
 45 44  1  0  0  0
 25 27  1  0  0  0
 25 35  1  0  0  0
 25 28  1  0  0  0
 21 20  1  0  0  0
 21 22  1  0  0  0
 44 42  1  0  0  0
  2  1  1  0  0  0
  2  4  1  0  0  0
  2  5  1  0  0  0
 26 27  2  0  0  0
 42 43  2  0  0  0
 29 31  1  0  0  0
 29 36  1  0  0  0
  3  4  2  0  0  0
 43  1  1  0  0  0
  6  9  2  0  0  0
  6 10  1  0  0  0
  1 20  1  0  0  0
 30 36  2  0  0  0
  7  8  1  0  0  0
  7  9  1  0  0  0
 22 24  1  0  0  0
 22 23  1  0  0  0
 11 12  1  0  0  0
 11 18  1  0  0  0
 24 27  1  0  0  0
  4 10  1  0  0  0
 51 52  1  0  0  0
 52 53  1  0  0  0
 53 54  1  0  0  0
 54 55  1  0  0  0
 55 56  1  0  0  0
 56 57  1  0  0  0
 57 58  1  0  0  0
 58 59  1  0  0  0
 59 60  1  0  0  0
 60 61  1  0  0  0
 61 62  1  0  0  0
 62 63  1  0  0  0
 63 64  1  0  0  0
 64 65  1  0  0  0
 31 32  1  0  0  0
 32 33  1  0  0  0
 33 34  1  0  0  0
 34 35  1  0  0  0
 35 36  1  0  0  0
  8 10  1  0  0  0
  9 17  1  0  0  0
 12 13  2  0  0  0
 12 17  1  0  0  0
 13 14  1  0  0  0
 14 15  2  0  0  0
 15 16  1  0  0  0
 16 17  2  0  0  0
M  END
> <minimizedAffinity>
-9.45474

> <CNNscore>
0.3759633601

> <CNNaffinity>
6.7997436523

> <CNN_VS>
2.5564544201

> <CNNaffinity_variance>
0.1502016336

$$$$
/media/chris/experiments/cd1a-new-docking/inputs/ligands/1xz0_ligand.pdb


 65 67  0  0  0  0  0  0  0  0999 V2000
  -41.8976   58.1858   63.1219 C   0  0  0  0  0  0  0  0  0  0  0  0
  -40.9474   58.5574   64.1723 N   0  0  0  0  0  0  0  0  0  0  0  0
  -40.5389   60.7528   63.7407 O   0  0  0  0  0  0  0  0  0  0  0  0
  -40.3589   59.7428   64.4083 C   0  0  0  0  0  0  0  0  0  0  0  0
  -40.7046   57.8349   64.7954 H   0  0  0  0  0  0  0  0  0  0  0  0
  -38.5725   61.0855   65.4974 N   0  0  0  0  0  0  0  0  0  0  0  0
  -36.9490   59.5515   65.5545 O   0  0  0  0  0  0  0  0  0  0  0  0
  -38.1499   58.7808   65.5342 C   0  0  0  0  0  0  0  0  0  0  0  0
  -37.3165   60.9448   65.5135 C   0  0  0  0  0  0  0  0  0  0  0  0
  -39.3139   59.8100   65.5126 C   0  0  0  0  0  0  0  0  0  0  0  0
  -36.9658   62.8952   63.3993 O   0  0  0  0  0  0  0  0  0  0  0  0
  -36.2094   62.9931   64.4993 C   0  0  0  0  0  0  0  0  0  0  0  0
  -35.2826   64.0378   64.6119 C   0  0  0  0  0  0  0  0  0  0  0  0
  -34.4702   64.1569   65.7522 C   0  0  0  0  0  0  0  0  0  0  0  0
  -34.5826   63.2384   66.7974 C   0  0  0  0  0  0  0  0  0  0  0  0
  -35.5101   62.1981   66.6926 C   0  0  0  0  0  0  0  0  0  0  0  0
  -36.3194   62.0710   65.5473 C   0  0  0  0  0  0  0  0  0  0  0  0
  -36.8747   63.5241   62.7107 H   0  0  0  0  0  0  0  0  0  0  0  0
  -41.7473   59.2433   60.9784 O   0  0  0  0  0  0  0  0  0  0  0  0
  -41.2243   58.5109   61.8021 C   0  0  0  0  0  0  0  0  0  0  0  0
  -39.9426   57.8839   61.4628 O   0  0  0  0  0  0  0  0  0  0  0  0
  -38.9083   58.6160   60.7786 C   0  0  0  0  0  0  0  0  0  0  0  0
  -38.6973   58.2051   59.3266 C   0  0  0  0  0  0  0  0  0  0  0  0
  -37.6206   58.4872   61.5782 C   0  0  0  0  0  0  0  0  0  0  0  0
  -35.8683   59.8534   62.6076 N   0  0  0  0  0  0  0  0  0  0  0  0
  -37.8165   60.7725   61.9181 O   0  0  0  0  0  0  0  0  0  0  0  0
  -37.1042   59.8097   62.0889 C   0  0  0  0  0  0  0  0  0  0  0  0
  -35.5169   60.7320   62.8792 H   0  0  0  0  0  0  0  0  0  0  0  0
  -33.6500   59.3060   64.7603 N   0  0  0  0  0  0  0  0  0  0  0  0
  -34.9286   57.4547   64.8129 O   0  0  0  0  0  0  0  0  0  0  0  0
  -33.3146   60.6383   64.2362 C   0  0  0  0  0  0  0  0  0  0  0  0
  -32.5358   60.5229   62.9122 C   0  0  0  0  0  0  0  0  0  0  0  0
  -32.4379   59.1194   62.3374 C   0  0  0  0  0  0  0  0  0  0  0  0
  -33.7867   58.5705   61.8647 C   0  0  0  0  0  0  0  0  0  0  0  0
  -35.0030   58.6839   62.7989 C   0  0  0  0  0  0  0  0  0  0  0  0
  -34.5278   58.4463   64.2190 C   0  0  0  0  0  0  0  0  0  0  0  0
  -32.9809   57.1880   66.3696 Si  0  0  0  0  0  0  0  0  0  0  0  0
  -33.0204   58.9132   65.9028 O   0  0  0  0  0  0  0  0  0  0  0  0
  -32.2698   57.0440   67.5903 H   0  0  0  0  0  0  0  0  0  0  0  0
  -32.3332   56.4372   65.3532 H   0  0  0  0  0  0  0  0  0  0  0  0
  -34.3085   56.7122   66.5362 H   0  0  0  0  0  0  0  0  0  0  0  0
  -43.8701   59.0027   64.6503 C   0  0  0  0  0  0  0  0  0  0  0  0
  -43.3387   58.7394   63.2360 C   0  0  0  0  0  0  0  0  0  0  0  0
  -45.3950   59.1263   64.8078 C   0  0  0  0  0  0  0  0  0  0  0  0
  -46.0265   58.5532   66.0931 C   0  0  0  0  0  0  0  0  0  0  0  0
  -47.4511   58.3165   65.8395 N   0  0  0  0  0  0  0  0  0  0  0  0
  -48.4515   59.2204   65.6669 C   0  0  0  0  0  0  0  0  0  0  0  0
  -47.7984   56.9601   65.7702 O   0  0  0  0  0  0  0  0  0  0  0  0
  -48.2294   60.4306   65.7000 O   0  0  0  0  0  0  0  0  0  0  0  0
  -48.7501   56.8783   65.6011 H   0  0  0  0  0  0  0  0  0  0  0  0
  -49.8783   58.7122   65.4337 C   0  0  0  0  0  0  0  0  0  0  0  0
  -50.9779   59.6303   65.9844 C   0  0  0  0  0  0  0  0  0  0  0  0
  -51.5948   60.4602   64.8422 C   0  0  0  0  0  0  0  0  0  0  0  0
  -51.7121   59.6878   63.5145 C   0  0  0  0  0  0  0  0  0  0  0  0
  -51.1281   60.4207   62.2923 C   0  0  0  0  0  0  0  0  0  0  0  0
  -49.5854   60.4012   62.2614 C   0  0  0  0  0  0  0  0  0  0  0  0
  -48.9753   59.2939   61.3708 C   0  0  0  0  0  0  0  0  0  0  0  0
  -49.4482   59.3533   59.9138 C   0  0  0  0  0  0  0  0  0  0  0  0
  -50.1500   58.0921   59.4004 C   0  0  0  0  0  0  0  0  0  0  0  0
  -49.9038   56.8933   60.3347 C   0  0  0  0  0  0  0  0  0  0  0  0
  -48.8633   55.8948   59.8054 C   0  0  0  0  0  0  0  0  0  0  0  0
  -47.6761   56.5061   59.0541 C   0  0  0  0  0  0  0  0  0  0  0  0
  -47.5450   56.0381   57.5833 C   0  0  0  0  0  0  0  0  0  0  0  0
  -47.9199   57.1626   56.5969 C   0  0  0  0  0  0  0  0  0  0  0  0
  -47.1959   58.5047   56.7576 C   0  0  0  0  0  0  0  0  0  0  0  0
 46 47  1  0  0  0
 46 48  1  0  0  0
 46 45  1  0  0  0
 47 49  2  0  0  0
 47 51  1  0  0  0
 19 20  2  0  0  0
 37 38  1  0  0  0
 37 39  1  0  0  0
 37 40  1  0  0  0
 37 41  1  0  0  0
 48 50  1  0  0  0
 38 29  1  0  0  0
 45 44  1  0  0  0
 25 27  1  0  0  0
 25 35  1  0  0  0
 25 28  1  0  0  0
 21 20  1  0  0  0
 21 22  1  0  0  0
 44 42  1  0  0  0
  2  1  1  0  0  0
  2  4  1  0  0  0
  2  5  1  0  0  0
 26 27  2  0  0  0
 42 43  2  0  0  0
 29 31  1  0  0  0
 29 36  1  0  0  0
  3  4  2  0  0  0
 43  1  1  0  0  0
  6  9  2  0  0  0
  6 10  1  0  0  0
  1 20  1  0  0  0
 30 36  2  0  0  0
  7  8  1  0  0  0
  7  9  1  0  0  0
 22 24  1  0  0  0
 22 23  1  0  0  0
 11 12  1  0  0  0
 11 18  1  0  0  0
 24 27  1  0  0  0
  4 10  1  0  0  0
 51 52  1  0  0  0
 52 53  1  0  0  0
 53 54  1  0  0  0
 54 55  1  0  0  0
 55 56  1  0  0  0
 56 57  1  0  0  0
 57 58  1  0  0  0
 58 59  1  0  0  0
 59 60  1  0  0  0
 60 61  1  0  0  0
 61 62  1  0  0  0
 62 63  1  0  0  0
 63 64  1  0  0  0
 64 65  1  0  0  0
 31 32  1  0  0  0
 32 33  1  0  0  0
 33 34  1  0  0  0
 34 35  1  0  0  0
 35 36  1  0  0  0
  8 10  1  0  0  0
  9 17  1  0  0  0
 12 13  2  0  0  0
 12 17  1  0  0  0
 13 14  1  0  0  0
 14 15  2  0  0  0
 15 16  1  0  0  0
 16 17  2  0  0  0
M  END
> <minimizedAffinity>
-10.14140

> <CNNscore>
0.2944865823

> <CNNaffinity>
7.5057945251

> <CNN_VS>
2.2103557587

> <CNNaffinity_variance>
0.7571685910

$$$$
/media/chris/experiments/cd1a-new-docking/inputs/ligands/1xz0_ligand.pdb


 65 67  0  0  0  0  0  0  0  0999 V2000
  -36.4150   62.2410   63.1772 C   0  0  0  0  0  0  0  0  0  0  0  0
  -35.1803   61.4661   63.0390 N   0  0  0  0  0  0  0  0  0  0  0  0
  -35.1975   60.1406   64.8871 O   0  0  0  0  0  0  0  0  0  0  0  0
  -34.6728   60.5204   63.8486 C   0  0  0  0  0  0  0  0  0  0  0  0
  -34.6446   61.6665   62.2377 H   0  0  0  0  0  0  0  0  0  0  0  0
  -32.3243   61.0247   63.2079 N   0  0  0  0  0  0  0  0  0  0  0  0
  -32.1128   59.6292   61.4758 O   0  0  0  0  0  0  0  0  0  0  0  0
  -33.1283   59.0291   62.2791 C   0  0  0  0  0  0  0  0  0  0  0  0
  -31.7004   60.8496   62.1228 C   0  0  0  0  0  0  0  0  0  0  0  0
  -33.2987   59.9594   63.5120 C   0  0  0  0  0  0  0  0  0  0  0  0
  -32.1818   63.2298   60.5417 O   0  0  0  0  0  0  0  0  0  0  0  0
  -30.9201   62.9000   60.8434 C   0  0  0  0  0  0  0  0  0  0  0  0
  -29.8677   63.7149   60.4059 C   0  0  0  0  0  0  0  0  0  0  0  0
  -28.5341   63.3854   60.7014 C   0  0  0  0  0  0  0  0  0  0  0  0
  -28.2384   62.2426   61.4464 C   0  0  0  0  0  0  0  0  0  0  0  0
  -29.2851   61.4298   61.8905 C   0  0  0  0  0  0  0  0  0  0  0  0
  -30.6220   61.7526   61.5885 C   0  0  0  0  0  0  0  0  0  0  0  0
  -32.3573   64.0026   60.0417 H   0  0  0  0  0  0  0  0  0  0  0  0
  -35.3876   64.3957   63.3706 O   0  0  0  0  0  0  0  0  0  0  0  0
  -36.0398   63.5160   63.9083 C   0  0  0  0  0  0  0  0  0  0  0  0
  -36.4050   63.6826   65.3190 O   0  0  0  0  0  0  0  0  0  0  0  0
  -35.5586   63.1907   66.3751 C   0  0  0  0  0  0  0  0  0  0  0  0
  -36.2378   63.0909   67.7354 C   0  0  0  0  0  0  0  0  0  0  0  0
  -34.3183   64.0689   66.4440 C   0  0  0  0  0  0  0  0  0  0  0  0
  -31.8819   63.9562   66.2260 N   0  0  0  0  0  0  0  0  0  0  0  0
  -33.1141   62.0918   66.5740 O   0  0  0  0  0  0  0  0  0  0  0  0
  -33.0312   63.2839   66.3860 C   0  0  0  0  0  0  0  0  0  0  0  0
  -31.0431   63.4415   66.2534 H   0  0  0  0  0  0  0  0  0  0  0  0
  -31.1228   65.5783   63.6477 N   0  0  0  0  0  0  0  0  0  0  0  0
  -33.0260   66.5460   64.3594 O   0  0  0  0  0  0  0  0  0  0  0  0
  -30.0491   64.5808   63.7683 C   0  0  0  0  0  0  0  0  0  0  0  0
  -28.9868   65.0437   64.7832 C   0  0  0  0  0  0  0  0  0  0  0  0
  -29.3400   66.2977   65.5658 C   0  0  0  0  0  0  0  0  0  0  0  0
  -30.5114   66.0915   66.5299 C   0  0  0  0  0  0  0  0  0  0  0  0
  -31.7866   65.4049   66.0129 C   0  0  0  0  0  0  0  0  0  0  0  0
  -32.0298   65.8751   64.5922 C   0  0  0  0  0  0  0  0  0  0  0  0
  -32.2596   65.6515   61.1526 Si  0  0  0  0  0  0  0  0  0  0  0  0
  -31.2106   66.2547   62.4685 O   0  0  0  0  0  0  0  0  0  0  0  0
  -32.1749   66.5293   60.0396 H   0  0  0  0  0  0  0  0  0  0  0  0
  -33.6034   65.5926   61.6077 H   0  0  0  0  0  0  0  0  0  0  0  0
  -31.8338   64.3534   60.7651 H   0  0  0  0  0  0  0  0  0  0  0  0
  -38.4330   60.5948   62.8433 C   0  0  0  0  0  0  0  0  0  0  0  0
  -37.6455   61.5200   63.7790 C   0  0  0  0  0  0  0  0  0  0  0  0
  -39.8631   60.2261   63.2726 C   0  0  0  0  0  0  0  0  0  0  0  0
  -40.2836   58.7470   63.1516 C   0  0  0  0  0  0  0  0  0  0  0  0
  -41.7475   58.6881   63.0957 N   0  0  0  0  0  0  0  0  0  0  0  0
  -42.6210   58.2123   64.0222 C   0  0  0  0  0  0  0  0  0  0  0  0
  -42.2923   59.2020   61.9106 O   0  0  0  0  0  0  0  0  0  0  0  0
  -42.2260   57.7559   65.0948 O   0  0  0  0  0  0  0  0  0  0  0  0
  -43.2593   59.1316   61.9422 H   0  0  0  0  0  0  0  0  0  0  0  0
  -44.1214   58.2440   63.7122 C   0  0  0  0  0  0  0  0  0  0  0  0
  -44.8352   59.5278   64.1568 C   0  0  0  0  0  0  0  0  0  0  0  0
  -45.6448   59.2647   65.4412 C   0  0  0  0  0  0  0  0  0  0  0  0
  -47.1162   58.8938   65.1756 C   0  0  0  0  0  0  0  0  0  0  0  0
  -48.0627   60.0982   65.0165 C   0  0  0  0  0  0  0  0  0  0  0  0
  -49.0438   60.2507   66.1978 C   0  0  0  0  0  0  0  0  0  0  0  0
  -50.3560   59.4458   66.0501 C   0  0  0  0  0  0  0  0  0  0  0  0
  -50.7348   59.1587   64.5926 C   0  0  0  0  0  0  0  0  0  0  0  0
  -51.6624   60.1892   63.9411 C   0  0  0  0  0  0  0  0  0  0  0  0
  -51.2144   60.5188   62.5054 C   0  0  0  0  0  0  0  0  0  0  0  0
  -50.0716   59.6308   61.9904 C   0  0  0  0  0  0  0  0  0  0  0  0
  -50.4369   58.6659   60.8576 C   0  0  0  0  0  0  0  0  0  0  0  0
  -50.5565   57.1853   61.2970 C   0  0  0  0  0  0  0  0  0  0  0  0
  -49.6267   56.2737   60.4709 C   0  0  0  0  0  0  0  0  0  0  0  0
  -48.3706   56.9158   59.8699 C   0  0  0  0  0  0  0  0  0  0  0  0
 46 47  1  0  0  0
 46 48  1  0  0  0
 46 45  1  0  0  0
 47 49  2  0  0  0
 47 51  1  0  0  0
 19 20  2  0  0  0
 37 38  1  0  0  0
 37 39  1  0  0  0
 37 40  1  0  0  0
 37 41  1  0  0  0
 48 50  1  0  0  0
 38 29  1  0  0  0
 45 44  1  0  0  0
 25 27  1  0  0  0
 25 35  1  0  0  0
 25 28  1  0  0  0
 21 20  1  0  0  0
 21 22  1  0  0  0
 44 42  1  0  0  0
  2  1  1  0  0  0
  2  4  1  0  0  0
  2  5  1  0  0  0
 26 27  2  0  0  0
 42 43  2  0  0  0
 29 31  1  0  0  0
 29 36  1  0  0  0
  3  4  2  0  0  0
 43  1  1  0  0  0
  6  9  2  0  0  0
  6 10  1  0  0  0
  1 20  1  0  0  0
 30 36  2  0  0  0
  7  8  1  0  0  0
  7  9  1  0  0  0
 22 24  1  0  0  0
 22 23  1  0  0  0
 11 12  1  0  0  0
 11 18  1  0  0  0
 24 27  1  0  0  0
  4 10  1  0  0  0
 51 52  1  0  0  0
 52 53  1  0  0  0
 53 54  1  0  0  0
 54 55  1  0  0  0
 55 56  1  0  0  0
 56 57  1  0  0  0
 57 58  1  0  0  0
 58 59  1  0  0  0
 59 60  1  0  0  0
 60 61  1  0  0  0
 61 62  1  0  0  0
 62 63  1  0  0  0
 63 64  1  0  0  0
 64 65  1  0  0  0
 31 32  1  0  0  0
 32 33  1  0  0  0
 33 34  1  0  0  0
 34 35  1  0  0  0
 35 36  1  0  0  0
  8 10  1  0  0  0
  9 17  1  0  0  0
 12 13  2  0  0  0
 12 17  1  0  0  0
 13 14  1  0  0  0
 14 15  2  0  0  0
 15 16  1  0  0  0
 16 17  2  0  0  0
M  END
> <minimizedAffinity>
-9.09793

> <CNNscore>
0.2898259163

> <CNNaffinity>
6.7451295853

> <CNN_VS>
1.9549133778

> <CNNaffinity_variance>
0.0620853826

$$$$
/media/chris/experiments/cd1a-new-docking/inputs/ligands/1xz0_ligand.pdb


 65 67  0  0  0  0  0  0  0  0999 V2000
  -37.1518   60.2119   63.8635 C   0  0  0  0  0  0  0  0  0  0  0  0
  -35.8135   59.7307   63.5148 N   0  0  0  0  0  0  0  0  0  0  0  0
  -35.3970   58.1695   65.1155 O   0  0  0  0  0  0  0  0  0  0  0  0
  -35.0592   58.7971   64.1204 C   0  0  0  0  0  0  0  0  0  0  0  0
  -35.4077   60.1515   62.7227 H   0  0  0  0  0  0  0  0  0  0  0  0
  -32.9018   59.8487   63.4724 N   0  0  0  0  0  0  0  0  0  0  0  0
  -32.6085   58.8786   61.4812 O   0  0  0  0  0  0  0  0  0  0  0  0
  -33.4275   57.9546   62.1967 C   0  0  0  0  0  0  0  0  0  0  0  0
  -32.3576   60.0068   62.3427 C   0  0  0  0  0  0  0  0  0  0  0  0
  -33.6447   58.5806   63.6022 C   0  0  0  0  0  0  0  0  0  0  0  0
  -33.3757   62.6598   61.7753 O   0  0  0  0  0  0  0  0  0  0  0  0
  -32.0562   62.4462   61.7037 C   0  0  0  0  0  0  0  0  0  0  0  0
  -31.2000   63.5053   61.3747 C   0  0  0  0  0  0  0  0  0  0  0  0
  -29.8122   63.3047   61.2838 C   0  0  0  0  0  0  0  0  0  0  0  0
  -29.2640   62.0449   61.5310 C   0  0  0  0  0  0  0  0  0  0  0  0
  -30.1133   60.9866   61.8658 C   0  0  0  0  0  0  0  0  0  0  0  0
  -31.5052   61.1826   61.9490 C   0  0  0  0  0  0  0  0  0  0  0  0
  -33.7218   63.5142   61.6070 H   0  0  0  0  0  0  0  0  0  0  0  0
  -37.2959   61.7744   62.0543 O   0  0  0  0  0  0  0  0  0  0  0  0
  -37.7491   60.7755   62.5882 C   0  0  0  0  0  0  0  0  0  0  0  0
  -38.9436   60.1550   62.0055 O   0  0  0  0  0  0  0  0  0  0  0  0
  -38.8579   58.9391   61.2387 C   0  0  0  0  0  0  0  0  0  0  0  0
  -38.3406   59.1227   59.8174 C   0  0  0  0  0  0  0  0  0  0  0  0
  -40.2251   58.2720   61.2434 C   0  0  0  0  0  0  0  0  0  0  0  0
  -41.2866   57.5224   63.3188 N   0  0  0  0  0  0  0  0  0  0  0  0
  -39.7559   56.2400   62.2568 O   0  0  0  0  0  0  0  0  0  0  0  0
  -40.3906   57.2652   62.3548 C   0  0  0  0  0  0  0  0  0  0  0  0
  -41.4328   56.8308   64.0041 H   0  0  0  0  0  0  0  0  0  0  0  0
  -42.1167   59.1831   65.8503 N   0  0  0  0  0  0  0  0  0  0  0  0
  -41.2362   60.7162   64.4577 O   0  0  0  0  0  0  0  0  0  0  0  0
  -42.5073   57.8058   66.1858 C   0  0  0  0  0  0  0  0  0  0  0  0
  -43.8666   57.4550   65.5517 C   0  0  0  0  0  0  0  0  0  0  0  0
  -44.4208   58.4927   64.5896 C   0  0  0  0  0  0  0  0  0  0  0  0
  -43.5919   58.6252   63.3093 C   0  0  0  0  0  0  0  0  0  0  0  0
  -42.0645   58.7621   63.4244 C   0  0  0  0  0  0  0  0  0  0  0  0
  -41.7605   59.6250   64.6335 C   0  0  0  0  0  0  0  0  0  0  0  0
  -41.2413   61.6436   66.6886 Si  0  0  0  0  0  0  0  0  0  0  0  0
  -42.1063   60.0894   66.8673 O   0  0  0  0  0  0  0  0  0  0  0  0
  -41.3819   62.4034   67.8801 H   0  0  0  0  0  0  0  0  0  0  0  0
  -41.7901   62.3682   65.5977 H   0  0  0  0  0  0  0  0  0  0  0  0
  -39.8645   61.3939   66.4462 H   0  0  0  0  0  0  0  0  0  0  0  0
  -36.1500   62.1902   65.2695 C   0  0  0  0  0  0  0  0  0  0  0  0
  -37.2730   61.1634   65.0784 C   0  0  0  0  0  0  0  0  0  0  0  0
  -36.0205   62.8271   66.6634 C   0  0  0  0  0  0  0  0  0  0  0  0
  -35.2741   64.1732   66.7643 C   0  0  0  0  0  0  0  0  0  0  0  0
  -34.0929   64.1100   65.8980 N   0  0  0  0  0  0  0  0  0  0  0  0
  -32.9461   63.3994   66.0646 C   0  0  0  0  0  0  0  0  0  0  0  0
  -34.1901   64.9025   64.7456 O   0  0  0  0  0  0  0  0  0  0  0  0
  -32.7857   62.6692   67.0423 O   0  0  0  0  0  0  0  0  0  0  0  0
  -33.3783   64.8128   64.2221 H   0  0  0  0  0  0  0  0  0  0  0  0
  -31.8380   63.5222   65.0133 C   0  0  0  0  0  0  0  0  0  0  0  0
  -30.5128   64.0809   65.5491 C   0  0  0  0  0  0  0  0  0  0  0  0
  -30.6076   65.6112   65.7020 C   0  0  0  0  0  0  0  0  0  0  0  0
  -30.9858   66.3375   64.3972 C   0  0  0  0  0  0  0  0  0  0  0  0
  -29.8575   66.4063   63.3511 C   0  0  0  0  0  0  0  0  0  0  0  0
  -29.3546   67.8441   63.1044 C   0  0  0  0  0  0  0  0  0  0  0  0
  -28.6406   68.0504   61.7482 C   0  0  0  0  0  0  0  0  0  0  0  0
  -28.5258   66.7668   60.9179 C   0  0  0  0  0  0  0  0  0  0  0  0
  -29.1108   66.8460   59.5043 C   0  0  0  0  0  0  0  0  0  0  0  0
  -30.4634   67.5816   59.4973 C   0  0  0  0  0  0  0  0  0  0  0  0
  -31.6511   66.7051   59.9224 C   0  0  0  0  0  0  0  0  0  0  0  0
  -32.6756   67.3740   60.8447 C   0  0  0  0  0  0  0  0  0  0  0  0
  -33.4802   66.3852   61.7248 C   0  0  0  0  0  0  0  0  0  0  0  0
  -34.9943   66.6688   61.6538 C   0  0  0  0  0  0  0  0  0  0  0  0
  -35.9083   65.4987   61.2707 C   0  0  0  0  0  0  0  0  0  0  0  0
 46 47  1  0  0  0
 46 48  1  0  0  0
 46 45  1  0  0  0
 47 49  2  0  0  0
 47 51  1  0  0  0
 19 20  2  0  0  0
 37 38  1  0  0  0
 37 39  1  0  0  0
 37 40  1  0  0  0
 37 41  1  0  0  0
 48 50  1  0  0  0
 38 29  1  0  0  0
 45 44  1  0  0  0
 25 27  1  0  0  0
 25 35  1  0  0  0
 25 28  1  0  0  0
 21 20  1  0  0  0
 21 22  1  0  0  0
 44 42  1  0  0  0
  2  1  1  0  0  0
  2  4  1  0  0  0
  2  5  1  0  0  0
 26 27  2  0  0  0
 42 43  2  0  0  0
 29 31  1  0  0  0
 29 36  1  0  0  0
  3  4  2  0  0  0
 43  1  1  0  0  0
  6  9  2  0  0  0
  6 10  1  0  0  0
  1 20  1  0  0  0
 30 36  2  0  0  0
  7  8  1  0  0  0
  7  9  1  0  0  0
 22 24  1  0  0  0
 22 23  1  0  0  0
 11 12  1  0  0  0
 11 18  1  0  0  0
 24 27  1  0  0  0
  4 10  1  0  0  0
 51 52  1  0  0  0
 52 53  1  0  0  0
 53 54  1  0  0  0
 54 55  1  0  0  0
 55 56  1  0  0  0
 56 57  1  0  0  0
 57 58  1  0  0  0
 58 59  1  0  0  0
 59 60  1  0  0  0
 60 61  1  0  0  0
 61 62  1  0  0  0
 62 63  1  0  0  0
 63 64  1  0  0  0
 64 65  1  0  0  0
 31 32  1  0  0  0
 32 33  1  0  0  0
 33 34  1  0  0  0
 34 35  1  0  0  0
 35 36  1  0  0  0
  8 10  1  0  0  0
  9 17  1  0  0  0
 12 13  2  0  0  0
 12 17  1  0  0  0
 13 14  1  0  0  0
 14 15  2  0  0  0
 15 16  1  0  0  0
 16 17  2  0  0  0
M  END
> <minimizedAffinity>
-7.94728

> <CNNscore>
0.2795944214

> <CNNaffinity>
7.6965246201

> <CNN_VS>
2.1519052982

> <CNNaffinity_variance>
1.4154314995

$$$$
/media/chris/experiments/cd1a-new-docking/inputs/ligands/1xz0_ligand.pdb


 65 67  0  0  0  0  0  0  0  0999 V2000
  -41.4472   57.8309   62.8146 C   0  0  0  0  0  0  0  0  0  0  0  0
  -40.6310   58.3234   63.9260 N   0  0  0  0  0  0  0  0  0  0  0  0
  -40.6035   60.5719   63.5848 O   0  0  0  0  0  0  0  0  0  0  0  0
  -40.2773   59.5843   64.2300 C   0  0  0  0  0  0  0  0  0  0  0  0
  -40.2925   57.6314   64.5391 H   0  0  0  0  0  0  0  0  0  0  0  0
  -38.6650   61.1155   65.3418 N   0  0  0  0  0  0  0  0  0  0  0  0
  -36.9467   59.7104   65.5972 O   0  0  0  0  0  0  0  0  0  0  0  0
  -38.0873   58.8540   65.5505 C   0  0  0  0  0  0  0  0  0  0  0  0
  -37.4062   61.0682   65.4454 C   0  0  0  0  0  0  0  0  0  0  0  0
  -39.3157   59.7922   65.3911 C   0  0  0  0  0  0  0  0  0  0  0  0
  -36.2079   62.1733   67.8412 O   0  0  0  0  0  0  0  0  0  0  0  0
  -35.9317   62.7411   66.6609 C   0  0  0  0  0  0  0  0  0  0  0  0
  -35.0630   63.8390   66.6068 C   0  0  0  0  0  0  0  0  0  0  0  0
  -34.7647   64.4585   65.3814 C   0  0  0  0  0  0  0  0  0  0  0  0
  -35.3238   63.9808   64.1949 C   0  0  0  0  0  0  0  0  0  0  0  0
  -36.1861   62.8819   64.2429 C   0  0  0  0  0  0  0  0  0  0  0  0
  -36.4939   62.2644   65.4704 C   0  0  0  0  0  0  0  0  0  0  0  0
  -35.8199   62.5096   68.6250 H   0  0  0  0  0  0  0  0  0  0  0  0
  -41.2096   58.3607   60.4912 O   0  0  0  0  0  0  0  0  0  0  0  0
  -40.6577   58.1071   61.5492 C   0  0  0  0  0  0  0  0  0  0  0  0
  -39.1947   58.0049   61.5651 O   0  0  0  0  0  0  0  0  0  0  0  0
  -38.3649   59.0453   61.0148 C   0  0  0  0  0  0  0  0  0  0  0  0
  -37.8049   58.7421   59.6306 C   0  0  0  0  0  0  0  0  0  0  0  0
  -37.2492   59.3430   62.0052 C   0  0  0  0  0  0  0  0  0  0  0  0
  -35.2540   58.1558   62.7835 N   0  0  0  0  0  0  0  0  0  0  0  0
  -37.2787   57.1483   62.7526 O   0  0  0  0  0  0  0  0  0  0  0  0
  -36.5684   58.1004   62.5236 C   0  0  0  0  0  0  0  0  0  0  0  0
  -34.8323   57.3600   63.1812 H   0  0  0  0  0  0  0  0  0  0  0  0
  -32.1873   58.5786   63.3048 N   0  0  0  0  0  0  0  0  0  0  0  0
  -32.4686   59.2134   61.1640 O   0  0  0  0  0  0  0  0  0  0  0  0
  -32.6985   58.0713   64.5868 C   0  0  0  0  0  0  0  0  0  0  0  0
  -33.3397   59.2074   65.4058 C   0  0  0  0  0  0  0  0  0  0  0  0
  -33.4807   60.5332   64.6764 C   0  0  0  0  0  0  0  0  0  0  0  0
  -34.4867   60.4783   63.5236 C   0  0  0  0  0  0  0  0  0  0  0  0
  -34.4000   59.3189   62.5170 C   0  0  0  0  0  0  0  0  0  0  0  0
  -32.9343   59.0139   62.2775 C   0  0  0  0  0  0  0  0  0  0  0  0
  -30.0871   59.6463   61.9003 Si  0  0  0  0  0  0  0  0  0  0  0  0
  -30.8350   58.5996   63.1417 O   0  0  0  0  0  0  0  0  0  0  0  0
  -28.6766   59.4859   61.9331 H   0  0  0  0  0  0  0  0  0  0  0  0
  -30.4154   61.0024   62.1642 H   0  0  0  0  0  0  0  0  0  0  0  0
  -30.5753   59.2821   60.6175 H   0  0  0  0  0  0  0  0  0  0  0  0
  -43.5574   58.7792   64.0564 C   0  0  0  0  0  0  0  0  0  0  0  0
  -42.9182   58.3079   62.7444 C   0  0  0  0  0  0  0  0  0  0  0  0
  -45.0938   58.8359   64.0997 C   0  0  0  0  0  0  0  0  0  0  0  0
  -45.7584   59.0859   65.4690 C   0  0  0  0  0  0  0  0  0  0  0  0
  -47.0690   58.4287   65.4709 N   0  0  0  0  0  0  0  0  0  0  0  0
  -48.1685   58.7096   64.7226 C   0  0  0  0  0  0  0  0  0  0  0  0
  -47.1712   57.3667   66.3804 O   0  0  0  0  0  0  0  0  0  0  0  0
  -48.1586   59.6176   63.8917 O   0  0  0  0  0  0  0  0  0  0  0  0
  -48.0595   56.9807   66.3282 H   0  0  0  0  0  0  0  0  0  0  0  0
  -49.4391   57.8785   64.9301 C   0  0  0  0  0  0  0  0  0  0  0  0
  -50.4122   58.4535   65.9683 C   0  0  0  0  0  0  0  0  0  0  0  0
  -50.5303   59.9798   65.7937 C   0  0  0  0  0  0  0  0  0  0  0  0
  -51.6833   60.4053   64.8650 C   0  0  0  0  0  0  0  0  0  0  0  0
  -51.2374   61.1116   63.5710 C   0  0  0  0  0  0  0  0  0  0  0  0
  -51.3543   60.2099   62.3242 C   0  0  0  0  0  0  0  0  0  0  0  0
  -51.6615   58.7259   62.6320 C   0  0  0  0  0  0  0  0  0  0  0  0
  -51.4383   57.7956   61.4341 C   0  0  0  0  0  0  0  0  0  0  0  0
  -50.1363   56.9889   61.4640 C   0  0  0  0  0  0  0  0  0  0  0  0
  -49.0061   57.7200   60.7165 C   0  0  0  0  0  0  0  0  0  0  0  0
  -49.4737   58.4686   59.4592 C   0  0  0  0  0  0  0  0  0  0  0  0
  -49.2627   57.7350   58.1307 C   0  0  0  0  0  0  0  0  0  0  0  0
  -48.1963   56.6128   58.1861 C   0  0  0  0  0  0  0  0  0  0  0  0
  -46.9249   57.0023   57.4052 C   0  0  0  0  0  0  0  0  0  0  0  0
  -46.9761   58.2972   56.5856 C   0  0  0  0  0  0  0  0  0  0  0  0
 46 47  1  0  0  0
 46 48  1  0  0  0
 46 45  1  0  0  0
 47 49  2  0  0  0
 47 51  1  0  0  0
 19 20  2  0  0  0
 37 38  1  0  0  0
 37 39  1  0  0  0
 37 40  1  0  0  0
 37 41  1  0  0  0
 48 50  1  0  0  0
 38 29  1  0  0  0
 45 44  1  0  0  0
 25 27  1  0  0  0
 25 35  1  0  0  0
 25 28  1  0  0  0
 21 20  1  0  0  0
 21 22  1  0  0  0
 44 42  1  0  0  0
  2  1  1  0  0  0
  2  4  1  0  0  0
  2  5  1  0  0  0
 26 27  2  0  0  0
 42 43  2  0  0  0
 29 31  1  0  0  0
 29 36  1  0  0  0
  3  4  2  0  0  0
 43  1  1  0  0  0
  6  9  2  0  0  0
  6 10  1  0  0  0
  1 20  1  0  0  0
 30 36  2  0  0  0
  7  8  1  0  0  0
  7  9  1  0  0  0
 22 24  1  0  0  0
 22 23  1  0  0  0
 11 12  1  0  0  0
 11 18  1  0  0  0
 24 27  1  0  0  0
  4 10  1  0  0  0
 51 52  1  0  0  0
 52 53  1  0  0  0
 53 54  1  0  0  0
 54 55  1  0  0  0
 55 56  1  0  0  0
 56 57  1  0  0  0
 57 58  1  0  0  0
 58 59  1  0  0  0
 59 60  1  0  0  0
 60 61  1  0  0  0
 61 62  1  0  0  0
 62 63  1  0  0  0
 63 64  1  0  0  0
 64 65  1  0  0  0
 31 32  1  0  0  0
 32 33  1  0  0  0
 33 34  1  0  0  0
 34 35  1  0  0  0
 35 36  1  0  0  0
  8 10  1  0  0  0
  9 17  1  0  0  0
 12 13  2  0  0  0
 12 17  1  0  0  0
 13 14  1  0  0  0
 14 15  2  0  0  0
 15 16  1  0  0  0
 16 17  2  0  0  0
M  END
> <minimizedAffinity>
-9.83295

> <CNNscore>
0.2654506266

> <CNNaffinity>
7.5057744980

> <CNN_VS>
1.9924125671

> <CNNaffinity_variance>
0.5118997097

$$$$
/media/chris/experiments/cd1a-new-docking/inputs/ligands/1xz0_ligand.pdb


 65 67  0  0  0  0  0  0  0  0999 V2000
  -41.1695   59.2514   64.5434 C   0  0  0  0  0  0  0  0  0  0  0  0
  -40.1803   59.0620   63.4805 N   0  0  0  0  0  0  0  0  0  0  0  0
  -41.4416   58.3474   61.7279 O   0  0  0  0  0  0  0  0  0  0  0  0
  -40.3592   58.6475   62.2142 C   0  0  0  0  0  0  0  0  0  0  0  0
  -39.2502   59.2678   63.7291 H   0  0  0  0  0  0  0  0  0  0  0  0
  -37.9437   58.0615   62.1649 N   0  0  0  0  0  0  0  0  0  0  0  0
  -37.1883   59.7406   60.8992 O   0  0  0  0  0  0  0  0  0  0  0  0
  -38.5549   59.6050   60.5110 C   0  0  0  0  0  0  0  0  0  0  0  0
  -36.9204   58.7632   61.9244 C   0  0  0  0  0  0  0  0  0  0  0  0
  -39.1212   58.4304   61.3561 C   0  0  0  0  0  0  0  0  0  0  0  0
  -35.1873   60.9297   62.7606 O   0  0  0  0  0  0  0  0  0  0  0  0
  -34.7886   59.6686   62.9664 C   0  0  0  0  0  0  0  0  0  0  0  0
  -33.5589   59.4241   63.5917 C   0  0  0  0  0  0  0  0  0  0  0  0
  -33.1137   58.1095   63.8105 C   0  0  0  0  0  0  0  0  0  0  0  0
  -33.8979   57.0243   63.4156 C   0  0  0  0  0  0  0  0  0  0  0  0
  -35.1284   57.2629   62.7971 C   0  0  0  0  0  0  0  0  0  0  0  0
  -35.5732   58.5792   62.5685 C   0  0  0  0  0  0  0  0  0  0  0  0
  -34.6454   61.6431   63.0354 H   0  0  0  0  0  0  0  0  0  0  0  0
  -40.8960   61.1470   65.9813 O   0  0  0  0  0  0  0  0  0  0  0  0
  -40.4807   60.0549   65.6301 C   0  0  0  0  0  0  0  0  0  0  0  0
  -39.2446   59.5511   66.2376 O   0  0  0  0  0  0  0  0  0  0  0  0
  -38.0161   59.4821   65.4894 C   0  0  0  0  0  0  0  0  0  0  0  0
  -37.2680   58.1614   65.6221 C   0  0  0  0  0  0  0  0  0  0  0  0
  -37.1377   60.6542   65.9005 C   0  0  0  0  0  0  0  0  0  0  0  0
  -36.1089   62.6748   64.9760 N   0  0  0  0  0  0  0  0  0  0  0  0
  -37.7936   61.6198   63.8971 O   0  0  0  0  0  0  0  0  0  0  0  0
  -37.0515   61.7299   64.8461 C   0  0  0  0  0  0  0  0  0  0  0  0
  -36.0194   63.3346   64.2507 H   0  0  0  0  0  0  0  0  0  0  0  0
  -33.8787   64.8000   65.5803 N   0  0  0  0  0  0  0  0  0  0  0  0
  -35.0882   64.7251   67.4768 O   0  0  0  0  0  0  0  0  0  0  0  0
  -33.5913   64.3653   64.2054 C   0  0  0  0  0  0  0  0  0  0  0  0
  -32.8045   63.0410   64.2058 C   0  0  0  0  0  0  0  0  0  0  0  0
  -32.6528   62.3769   65.5644 C   0  0  0  0  0  0  0  0  0  0  0  0
  -33.9789   61.8621   66.1305 C   0  0  0  0  0  0  0  0  0  0  0  0
  -35.2015   62.7948   66.1229 C   0  0  0  0  0  0  0  0  0  0  0  0
  -34.7224   64.1991   66.4347 C   0  0  0  0  0  0  0  0  0  0  0  0
  -33.3483   66.4063   67.7395 Si  0  0  0  0  0  0  0  0  0  0  0  0
  -33.2388   65.9181   66.0232 O   0  0  0  0  0  0  0  0  0  0  0  0
  -32.5991   67.5954   67.9422 H   0  0  0  0  0  0  0  0  0  0  0  0
  -32.8258   65.3720   68.5602 H   0  0  0  0  0  0  0  0  0  0  0  0
  -34.7073   66.6393   68.0795 H   0  0  0  0  0  0  0  0  0  0  0  0
  -43.2948   57.7100   64.5022 C   0  0  0  0  0  0  0  0  0  0  0  0
  -41.8988   57.9920   65.0711 C   0  0  0  0  0  0  0  0  0  0  0  0
  -44.1913   56.7517   65.3041 C   0  0  0  0  0  0  0  0  0  0  0  0
  -44.9753   57.3397   66.4953 C   0  0  0  0  0  0  0  0  0  0  0  0
  -46.3705   57.5213   66.0829 N   0  0  0  0  0  0  0  0  0  0  0  0
  -46.9714   58.6214   65.5572 C   0  0  0  0  0  0  0  0  0  0  0  0
  -47.1705   56.3850   66.2680 O   0  0  0  0  0  0  0  0  0  0  0  0
  -46.3376   59.6561   65.3507 O   0  0  0  0  0  0  0  0  0  0  0  0
  -48.0756   56.5758   65.9757 H   0  0  0  0  0  0  0  0  0  0  0  0
  -48.4663   58.5628   65.2252 C   0  0  0  0  0  0  0  0  0  0  0  0
  -49.3125   59.6440   65.9110 C   0  0  0  0  0  0  0  0  0  0  0  0
  -50.8111   59.3588   65.6944 C   0  0  0  0  0  0  0  0  0  0  0  0
  -51.5848   60.5515   65.1011 C   0  0  0  0  0  0  0  0  0  0  0  0
  -52.0769   60.3423   63.6568 C   0  0  0  0  0  0  0  0  0  0  0  0
  -51.0188   60.7253   62.6008 C   0  0  0  0  0  0  0  0  0  0  0  0
  -50.3468   59.5217   61.8999 C   0  0  0  0  0  0  0  0  0  0  0  0
  -50.9906   58.1750   62.2493 C   0  0  0  0  0  0  0  0  0  0  0  0
  -51.2033   57.2238   61.0674 C   0  0  0  0  0  0  0  0  0  0  0  0
  -50.0206   56.2505   60.9107 C   0  0  0  0  0  0  0  0  0  0  0  0
  -48.9206   56.7546   59.9642 C   0  0  0  0  0  0  0  0  0  0  0  0
  -49.3948   57.6278   58.7977 C   0  0  0  0  0  0  0  0  0  0  0  0
  -48.7796   57.2479   57.4278 C   0  0  0  0  0  0  0  0  0  0  0  0
  -47.2783   57.5950   57.3667 C   0  0  0  0  0  0  0  0  0  0  0  0
  -46.8612   58.7351   56.4298 C   0  0  0  0  0  0  0  0  0  0  0  0
 46 47  1  0  0  0
 46 48  1  0  0  0
 46 45  1  0  0  0
 47 49  2  0  0  0
 47 51  1  0  0  0
 19 20  2  0  0  0
 37 38  1  0  0  0
 37 39  1  0  0  0
 37 40  1  0  0  0
 37 41  1  0  0  0
 48 50  1  0  0  0
 38 29  1  0  0  0
 45 44  1  0  0  0
 25 27  1  0  0  0
 25 35  1  0  0  0
 25 28  1  0  0  0
 21 20  1  0  0  0
 21 22  1  0  0  0
 44 42  1  0  0  0
  2  1  1  0  0  0
  2  4  1  0  0  0
  2  5  1  0  0  0
 26 27  2  0  0  0
 42 43  2  0  0  0
 29 31  1  0  0  0
 29 36  1  0  0  0
  3  4  2  0  0  0
 43  1  1  0  0  0
  6  9  2  0  0  0
  6 10  1  0  0  0
  1 20  1  0  0  0
 30 36  2  0  0  0
  7  8  1  0  0  0
  7  9  1  0  0  0
 22 24  1  0  0  0
 22 23  1  0  0  0
 11 12  1  0  0  0
 11 18  1  0  0  0
 24 27  1  0  0  0
  4 10  1  0  0  0
 51 52  1  0  0  0
 52 53  1  0  0  0
 53 54  1  0  0  0
 54 55  1  0  0  0
 55 56  1  0  0  0
 56 57  1  0  0  0
 57 58  1  0  0  0
 58 59  1  0  0  0
 59 60  1  0  0  0
 60 61  1  0  0  0
 61 62  1  0  0  0
 62 63  1  0  0  0
 63 64  1  0  0  0
 64 65  1  0  0  0
 31 32  1  0  0  0
 32 33  1  0  0  0
 33 34  1  0  0  0
 34 35  1  0  0  0
 35 36  1  0  0  0
  8 10  1  0  0  0
  9 17  1  0  0  0
 12 13  2  0  0  0
 12 17  1  0  0  0
 13 14  1  0  0  0
 14 15  2  0  0  0
 15 16  1  0  0  0
 16 17  2  0  0  0
M  END
> <minimizedAffinity>
-9.98702

> <CNNscore>
0.2615554631

> <CNNaffinity>
7.2881517410

> <CNN_VS>
1.9062559605

> <CNNaffinity_variance>
0.3805811405

$$$$
/media/chris/experiments/cd1a-new-docking/inputs/ligands/1xz0_ligand.pdb


 65 67  0  0  0  0  0  0  0  0999 V2000
  -37.1096   59.3460   64.8109 C   0  0  0  0  0  0  0  0  0  0  0  0
  -36.7346   60.6325   65.4012 N   0  0  0  0  0  0  0  0  0  0  0  0
  -37.1647   62.1099   63.7262 O   0  0  0  0  0  0  0  0  0  0  0  0
  -36.7799   61.8630   64.8616 C   0  0  0  0  0  0  0  0  0  0  0  0
  -36.4013   60.5902   66.3266 H   0  0  0  0  0  0  0  0  0  0  0  0
  -35.4715   63.9767   64.8344 N   0  0  0  0  0  0  0  0  0  0  0  0
  -34.0393   63.5387   66.4925 O   0  0  0  0  0  0  0  0  0  0  0  0
  -35.1758   62.7311   66.7971 C   0  0  0  0  0  0  0  0  0  0  0  0
  -34.3154   64.2471   65.2677 C   0  0  0  0  0  0  0  0  0  0  0  0
  -36.2122   63.0170   65.6753 C   0  0  0  0  0  0  0  0  0  0  0  0
  -31.7841   65.0541   66.4247 O   0  0  0  0  0  0  0  0  0  0  0  0
  -32.1420   65.5606   65.2384 C   0  0  0  0  0  0  0  0  0  0  0  0
  -31.2847   66.4507   64.5783 C   0  0  0  0  0  0  0  0  0  0  0  0
  -31.6416   67.0036   63.3367 C   0  0  0  0  0  0  0  0  0  0  0  0
  -32.8554   66.6646   62.7365 C   0  0  0  0  0  0  0  0  0  0  0  0
  -33.7113   65.7722   63.3880 C   0  0  0  0  0  0  0  0  0  0  0  0
  -33.3603   65.2234   64.6364 C   0  0  0  0  0  0  0  0  0  0  0  0
  -30.9637   65.2943   66.8084 H   0  0  0  0  0  0  0  0  0  0  0  0
  -36.1772   58.3277   62.8541 O   0  0  0  0  0  0  0  0  0  0  0  0
  -35.9769   58.9563   63.8803 C   0  0  0  0  0  0  0  0  0  0  0  0
  -34.5923   59.2771   64.2420 O   0  0  0  0  0  0  0  0  0  0  0  0
  -33.6589   59.7750   63.2650 C   0  0  0  0  0  0  0  0  0  0  0  0
  -32.5889   58.7747   62.8451 C   0  0  0  0  0  0  0  0  0  0  0  0
  -33.0341   61.0523   63.8060 C   0  0  0  0  0  0  0  0  0  0  0  0
  -31.6651   62.6007   62.4928 N   0  0  0  0  0  0  0  0  0  0  0  0
  -33.8984   62.4490   62.1694 O   0  0  0  0  0  0  0  0  0  0  0  0
  -32.8925   62.1322   62.7619 C   0  0  0  0  0  0  0  0  0  0  0  0
  -31.5757   63.2587   61.7660 H   0  0  0  0  0  0  0  0  0  0  0  0
  -29.0417   64.2210   63.0822 N   0  0  0  0  0  0  0  0  0  0  0  0
  -29.6148   63.3655   65.0834 O   0  0  0  0  0  0  0  0  0  0  0  0
  -29.2593   64.4105   61.6403 C   0  0  0  0  0  0  0  0  0  0  0  0
  -28.7362   63.1985   60.8465 C   0  0  0  0  0  0  0  0  0  0  0  0
  -28.2902   62.0147   61.6887 C   0  0  0  0  0  0  0  0  0  0  0  0
  -29.4477   61.3324   62.4228 C   0  0  0  0  0  0  0  0  0  0  0  0
  -30.4460   62.2017   63.2054 C   0  0  0  0  0  0  0  0  0  0  0  0
  -29.6729   63.3287   63.8620 C   0  0  0  0  0  0  0  0  0  0  0  0
  -28.1942   65.3315   65.4427 Si  0  0  0  0  0  0  0  0  0  0  0  0
  -28.1245   65.0302   63.6820 O   0  0  0  0  0  0  0  0  0  0  0  0
  -27.1357   66.2012   65.8164 H   0  0  0  0  0  0  0  0  0  0  0  0
  -28.0639   64.1009   66.1391 H   0  0  0  0  0  0  0  0  0  0  0  0
  -29.4384   65.9319   65.7712 H   0  0  0  0  0  0  0  0  0  0  0  0
  -39.6207   58.6034   65.0045 C   0  0  0  0  0  0  0  0  0  0  0  0
  -38.5105   59.2416   64.1605 C   0  0  0  0  0  0  0  0  0  0  0  0
  -40.8640   58.1008   64.2516 C   0  0  0  0  0  0  0  0  0  0  0  0
  -42.0119   57.5041   65.0916 C   0  0  0  0  0  0  0  0  0  0  0  0
  -43.1623   58.4091   65.0068 N   0  0  0  0  0  0  0  0  0  0  0  0
  -44.4048   58.2665   65.5395 C   0  0  0  0  0  0  0  0  0  0  0  0
  -42.9154   59.5747   64.2679 O   0  0  0  0  0  0  0  0  0  0  0  0
  -44.6998   57.2790   66.2124 O   0  0  0  0  0  0  0  0  0  0  0  0
  -43.7150   60.1237   64.2534 H   0  0  0  0  0  0  0  0  0  0  0  0
  -45.4502   59.3578   65.2862 C   0  0  0  0  0  0  0  0  0  0  0  0
  -46.8291   58.8316   64.8655 C   0  0  0  0  0  0  0  0  0  0  0  0
  -47.8394   59.0194   66.0137 C   0  0  0  0  0  0  0  0  0  0  0  0
  -49.3089   58.9761   65.5533 C   0  0  0  0  0  0  0  0  0  0  0  0
  -50.1021   60.2697   65.8167 C   0  0  0  0  0  0  0  0  0  0  0  0
  -51.4679   60.2929   65.0990 C   0  0  0  0  0  0  0  0  0  0  0  0
  -51.3822   60.4193   63.5601 C   0  0  0  0  0  0  0  0  0  0  0  0
  -51.9623   59.2112   62.8156 C   0  0  0  0  0  0  0  0  0  0  0  0
  -50.9418   58.1496   62.3931 C   0  0  0  0  0  0  0  0  0  0  0  0
  -51.3727   57.4424   61.0951 C   0  0  0  0  0  0  0  0  0  0  0  0
  -50.1988   56.9545   60.2327 C   0  0  0  0  0  0  0  0  0  0  0  0
  -49.6766   57.9520   59.1934 C   0  0  0  0  0  0  0  0  0  0  0  0
  -48.1408   57.9181   58.9948 C   0  0  0  0  0  0  0  0  0  0  0  0
  -47.7492   58.2923   57.5509 C   0  0  0  0  0  0  0  0  0  0  0  0
  -47.2556   57.1591   56.6435 C   0  0  0  0  0  0  0  0  0  0  0  0
 46 47  1  0  0  0
 46 48  1  0  0  0
 46 45  1  0  0  0
 47 49  2  0  0  0
 47 51  1  0  0  0
 19 20  2  0  0  0
 37 38  1  0  0  0
 37 39  1  0  0  0
 37 40  1  0  0  0
 37 41  1  0  0  0
 48 50  1  0  0  0
 38 29  1  0  0  0
 45 44  1  0  0  0
 25 27  1  0  0  0
 25 35  1  0  0  0
 25 28  1  0  0  0
 21 20  1  0  0  0
 21 22  1  0  0  0
 44 42  1  0  0  0
  2  1  1  0  0  0
  2  4  1  0  0  0
  2  5  1  0  0  0
 26 27  2  0  0  0
 42 43  2  0  0  0
 29 31  1  0  0  0
 29 36  1  0  0  0
  3  4  2  0  0  0
 43  1  1  0  0  0
  6  9  2  0  0  0
  6 10  1  0  0  0
  1 20  1  0  0  0
 30 36  2  0  0  0
  7  8  1  0  0  0
  7  9  1  0  0  0
 22 24  1  0  0  0
 22 23  1  0  0  0
 11 12  1  0  0  0
 11 18  1  0  0  0
 24 27  1  0  0  0
  4 10  1  0  0  0
 51 52  1  0  0  0
 52 53  1  0  0  0
 53 54  1  0  0  0
 54 55  1  0  0  0
 55 56  1  0  0  0
 56 57  1  0  0  0
 57 58  1  0  0  0
 58 59  1  0  0  0
 59 60  1  0  0  0
 60 61  1  0  0  0
 61 62  1  0  0  0
 62 63  1  0  0  0
 63 64  1  0  0  0
 64 65  1  0  0  0
 31 32  1  0  0  0
 32 33  1  0  0  0
 33 34  1  0  0  0
 34 35  1  0  0  0
 35 36  1  0  0  0
  8 10  1  0  0  0
  9 17  1  0  0  0
 12 13  2  0  0  0
 12 17  1  0  0  0
 13 14  1  0  0  0
 14 15  2  0  0  0
 15 16  1  0  0  0
 16 17  2  0  0  0
M  END
> <minimizedAffinity>
-9.83078

> <CNNscore>
0.2351270467

> <CNNaffinity>
6.5057687759

> <CNN_VS>
1.5296821594

> <CNNaffinity_variance>
0.0214789510

$$$$
/media/chris/experiments/cd1a-new-docking/inputs/ligands/1xz0_ligand.pdb


 65 67  0  0  0  0  0  0  0  0999 V2000
  -37.4400   60.1589   64.0014 C   0  0  0  0  0  0  0  0  0  0  0  0
  -36.1499   59.5021   63.7815 N   0  0  0  0  0  0  0  0  0  0  0  0
  -36.3004   57.6328   65.0684 O   0  0  0  0  0  0  0  0  0  0  0  0
  -35.6818   58.3506   64.2936 C   0  0  0  0  0  0  0  0  0  0  0  0
  -35.5370   59.9715   63.1705 H   0  0  0  0  0  0  0  0  0  0  0  0
  -33.3526   59.1396   63.9295 N   0  0  0  0  0  0  0  0  0  0  0  0
  -32.9057   58.0808   62.0135 O   0  0  0  0  0  0  0  0  0  0  0  0
  -33.9118   57.2747   62.6255 C   0  0  0  0  0  0  0  0  0  0  0  0
  -32.6476   59.2017   62.8824 C   0  0  0  0  0  0  0  0  0  0  0  0
  -34.2440   57.9649   63.9774 C   0  0  0  0  0  0  0  0  0  0  0  0
  -33.2568   62.0054   62.4761 O   0  0  0  0  0  0  0  0  0  0  0  0
  -31.9798   61.6079   62.4195 C   0  0  0  0  0  0  0  0  0  0  0  0
  -30.9707   62.5507   62.1832 C   0  0  0  0  0  0  0  0  0  0  0  0
  -29.6238   62.1573   62.1099 C   0  0  0  0  0  0  0  0  0  0  0  0
  -29.2697   60.8181   62.2820 C   0  0  0  0  0  0  0  0  0  0  0  0
  -30.2721   59.8746   62.5243 C   0  0  0  0  0  0  0  0  0  0  0  0
  -31.6236   60.2645   62.5896 C   0  0  0  0  0  0  0  0  0  0  0  0
  -33.4714   62.9100   62.3593 H   0  0  0  0  0  0  0  0  0  0  0  0
  -37.1915   61.6392   62.1354 O   0  0  0  0  0  0  0  0  0  0  0  0
  -37.8466   60.7593   62.6691 C   0  0  0  0  0  0  0  0  0  0  0  0
  -39.0923   60.3299   62.0251 O   0  0  0  0  0  0  0  0  0  0  0  0
  -39.1501   59.1303   61.2305 C   0  0  0  0  0  0  0  0  0  0  0  0
  -38.4594   59.2346   59.8764 C   0  0  0  0  0  0  0  0  0  0  0  0
  -40.6091   58.7292   61.0731 C   0  0  0  0  0  0  0  0  0  0  0  0
  -41.8761   59.5852   62.9857 N   0  0  0  0  0  0  0  0  0  0  0  0
  -41.9317   60.6314   60.9813 O   0  0  0  0  0  0  0  0  0  0  0  0
  -41.5667   59.7199   61.6878 C   0  0  0  0  0  0  0  0  0  0  0  0
  -42.4509   60.2731   63.3928 H   0  0  0  0  0  0  0  0  0  0  0  0
  -43.5073   57.6548   64.8479 N   0  0  0  0  0  0  0  0  0  0  0  0
  -42.2150   56.2730   63.6291 O   0  0  0  0  0  0  0  0  0  0  0  0
  -43.9801   58.9951   65.2251 C   0  0  0  0  0  0  0  0  0  0  0  0
  -42.9991   59.6625   66.2074 C   0  0  0  0  0  0  0  0  0  0  0  0
  -41.6972   58.9120   66.4345 C   0  0  0  0  0  0  0  0  0  0  0  0
  -40.8008   58.8792   65.1938 C   0  0  0  0  0  0  0  0  0  0  0  0
  -41.4184   58.4849   63.8418 C   0  0  0  0  0  0  0  0  0  0  0  0
  -42.4314   57.3847   64.0915 C   0  0  0  0  0  0  0  0  0  0  0  0
  -43.7689   54.9244   64.8531 Si  0  0  0  0  0  0  0  0  0  0  0  0
  -44.2318   56.5927   65.2984 O   0  0  0  0  0  0  0  0  0  0  0  0
  -44.6767   54.0071   65.4455 H   0  0  0  0  0  0  0  0  0  0  0  0
  -42.4545   54.6574   65.3193 H   0  0  0  0  0  0  0  0  0  0  0  0
  -43.8078   54.7835   63.4406 H   0  0  0  0  0  0  0  0  0  0  0  0
  -36.3158   62.0289   65.4622 C   0  0  0  0  0  0  0  0  0  0  0  0
  -37.5422   61.1505   65.1857 C   0  0  0  0  0  0  0  0  0  0  0  0
  -36.2274   62.6812   66.8522 C   0  0  0  0  0  0  0  0  0  0  0  0
  -35.5134   64.0446   66.9544 C   0  0  0  0  0  0  0  0  0  0  0  0
  -34.0846   63.8357   66.7002 N   0  0  0  0  0  0  0  0  0  0  0  0
  -33.3834   64.0225   65.5508 C   0  0  0  0  0  0  0  0  0  0  0  0
  -33.3691   63.3808   67.8167 O   0  0  0  0  0  0  0  0  0  0  0  0
  -33.9332   64.4321   64.5286 O   0  0  0  0  0  0  0  0  0  0  0  0
  -32.4362   63.2650   67.5776 H   0  0  0  0  0  0  0  0  0  0  0  0
  -31.8836   63.7085   65.5375 C   0  0  0  0  0  0  0  0  0  0  0  0
  -31.0104   64.8042   64.9110 C   0  0  0  0  0  0  0  0  0  0  0  0
  -29.5199   64.4465   65.0679 C   0  0  0  0  0  0  0  0  0  0  0  0
  -28.5921   65.2573   64.1433 C   0  0  0  0  0  0  0  0  0  0  0  0
  -29.0318   66.7151   63.9117 C   0  0  0  0  0  0  0  0  0  0  0  0
  -28.8661   67.1663   62.4454 C   0  0  0  0  0  0  0  0  0  0  0  0
  -28.7793   66.0087   61.4237 C   0  0  0  0  0  0  0  0  0  0  0  0
  -30.1149   65.6990   60.7378 C   0  0  0  0  0  0  0  0  0  0  0  0
  -30.7858   66.8876   60.0423 C   0  0  0  0  0  0  0  0  0  0  0  0
  -32.2662   67.0117   60.4467 C   0  0  0  0  0  0  0  0  0  0  0  0
  -32.7322   65.9372   61.4408 C   0  0  0  0  0  0  0  0  0  0  0  0
  -33.5403   64.7815   60.8415 C   0  0  0  0  0  0  0  0  0  0  0  0
  -35.0510   64.8178   61.1823 C   0  0  0  0  0  0  0  0  0  0  0  0
  -35.4943   66.2233   61.6364 C   0  0  0  0  0  0  0  0  0  0  0  0
  -36.8446   66.7326   61.1183 C   0  0  0  0  0  0  0  0  0  0  0  0
 46 47  1  0  0  0
 46 48  1  0  0  0
 46 45  1  0  0  0
 47 49  2  0  0  0
 47 51  1  0  0  0
 19 20  2  0  0  0
 37 38  1  0  0  0
 37 39  1  0  0  0
 37 40  1  0  0  0
 37 41  1  0  0  0
 48 50  1  0  0  0
 38 29  1  0  0  0
 45 44  1  0  0  0
 25 27  1  0  0  0
 25 35  1  0  0  0
 25 28  1  0  0  0
 21 20  1  0  0  0
 21 22  1  0  0  0
 44 42  1  0  0  0
  2  1  1  0  0  0
  2  4  1  0  0  0
  2  5  1  0  0  0
 26 27  2  0  0  0
 42 43  2  0  0  0
 29 31  1  0  0  0
 29 36  1  0  0  0
  3  4  2  0  0  0
 43  1  1  0  0  0
  6  9  2  0  0  0
  6 10  1  0  0  0
  1 20  1  0  0  0
 30 36  2  0  0  0
  7  8  1  0  0  0
  7  9  1  0  0  0
 22 24  1  0  0  0
 22 23  1  0  0  0
 11 12  1  0  0  0
 11 18  1  0  0  0
 24 27  1  0  0  0
  4 10  1  0  0  0
 51 52  1  0  0  0
 52 53  1  0  0  0
 53 54  1  0  0  0
 54 55  1  0  0  0
 55 56  1  0  0  0
 56 57  1  0  0  0
 57 58  1  0  0  0
 58 59  1  0  0  0
 59 60  1  0  0  0
 60 61  1  0  0  0
 61 62  1  0  0  0
 62 63  1  0  0  0
 63 64  1  0  0  0
 64 65  1  0  0  0
 31 32  1  0  0  0
 32 33  1  0  0  0
 33 34  1  0  0  0
 34 35  1  0  0  0
 35 36  1  0  0  0
  8 10  1  0  0  0
  9 17  1  0  0  0
 12 13  2  0  0  0
 12 17  1  0  0  0
 13 14  1  0  0  0
 14 15  2  0  0  0
 15 16  1  0  0  0
 16 17  2  0  0  0
M  END
> <minimizedAffinity>
-8.31074

> <CNNscore>
0.2224169075

> <CNNaffinity>
7.7533302307

> <CNN_VS>
1.7244716883

> <CNNaffinity_variance>
1.6779863834

$$$$
