/media/chris/experiments/cd1a-new-docking/inputs/ligands/4x6d_1_ligand.pdb


 21 20  0  0  0  0  0  0  0  0999 V2000
  -46.5780   58.3992   64.4825 C   0  0  0  0  0  0  0  0  0  0  0  0
  -48.0118   58.8058   64.2489 C   0  0  0  0  0  0  0  0  0  0  0  0
  -48.7796   58.1891   63.1584 C   0  0  0  0  0  0  0  0  0  0  0  0
  -50.2637   58.4499   63.0283 C   0  0  0  0  0  0  0  0  0  0  0  0
  -50.7420   58.0928   61.6216 C   0  0  0  0  0  0  0  0  0  0  0  0
  -49.8000   57.1406   60.8898 C   0  0  0  0  0  0  0  0  0  0  0  0
  -49.4442   57.6614   59.4946 C   0  0  0  0  0  0  0  0  0  0  0  0
  -48.0491   58.2867   59.3757 C   0  0  0  0  0  0  0  0  0  0  0  0
  -47.2433   57.6881   58.2152 C   0  0  0  0  0  0  0  0  0  0  0  0
  -48.1252   56.9579   57.1990 C   0  0  0  0  0  0  0  0  0  0  0  0
  -47.6637   55.5241   56.9112 C   0  0  0  0  0  0  0  0  0  0  0  0
  -46.4300   58.0702   65.9593 C   0  0  0  0  0  0  0  0  0  0  0  0
  -45.0192   57.6242   66.2995 C   0  0  0  0  0  0  0  0  0  0  0  0
  -44.0089   58.1898   65.3058 C   0  0  0  0  0  0  0  0  0  0  0  0
  -42.5913   57.8742   65.7618 C   0  0  0  0  0  0  0  0  0  0  0  0
  -42.1551   58.8151   66.8739 C   0  0  0  0  0  0  0  0  0  0  0  0
  -42.3160   60.2730   66.4554 C   0  0  0  0  0  0  0  0  0  0  0  0
  -40.9572   60.8653   66.1361 C   0  0  0  0  0  0  0  0  0  0  0  0
  -40.8241   62.1099   66.0148 O   0  0  0  0  0  0  0  0  0  0  0  0
  -39.9563   60.1178   65.9859 O   0  0  0  0  0  0  0  0  0  0  0  0
  -40.0472   59.1895   66.0747 H   0  0  0  0  0  0  0  0  0  0  0  0
 18 19  2  0  0  0
 18 17  1  0  0  0
 18 20  1  0  0  0
 17 16  1  0  0  0
 20 21  1  0  0  0
 16 15  1  0  0  0
 15 14  1  0  0  0
 14 13  1  0  0  0
 13 12  1  0  0  0
 12  1  1  0  0  0
  1  2  1  0  0  0
  2  3  1  0  0  0
  3  4  1  0  0  0
  4  5  1  0  0  0
  5  6  1  0  0  0
  6  7  1  0  0  0
  7  8  1  0  0  0
  8  9  1  0  0  0
  9 10  1  0  0  0
 10 11  1  0  0  0
M  END
> <minimizedAffinity>
-6.98473

> <CNNscore>
0.9308723807

> <CNNaffinity>
6.9974832535

> <CNN_VS>
6.5137639046

> <CNNaffinity_variance>
0.6012965441

$$$$
/media/chris/experiments/cd1a-new-docking/inputs/ligands/4x6d_1_ligand.pdb


 21 20  0  0  0  0  0  0  0  0999 V2000
  -47.6881   60.6417   65.3082 C   0  0  0  0  0  0  0  0  0  0  0  0
  -48.7983   60.0045   66.1065 C   0  0  0  0  0  0  0  0  0  0  0  0
  -49.9354   59.3835   65.4134 C   0  0  0  0  0  0  0  0  0  0  0  0
  -50.9561   60.2430   64.7014 C   0  0  0  0  0  0  0  0  0  0  0  0
  -51.1214   59.7790   63.2549 C   0  0  0  0  0  0  0  0  0  0  0  0
  -50.3076   58.5299   62.9273 C   0  0  0  0  0  0  0  0  0  0  0  0
  -50.6793   57.9585   61.5563 C   0  0  0  0  0  0  0  0  0  0  0  0
  -49.8107   58.4538   60.3938 C   0  0  0  0  0  0  0  0  0  0  0  0
  -48.6169   57.5273   60.1273 C   0  0  0  0  0  0  0  0  0  0  0  0
  -48.3732   57.2931   58.6342 C   0  0  0  0  0  0  0  0  0  0  0  0
  -47.2336   58.1450   58.0621 C   0  0  0  0  0  0  0  0  0  0  0  0
  -46.4287   59.8224   65.5401 C   0  0  0  0  0  0  0  0  0  0  0  0
  -45.1861   60.5488   65.0570 C   0  0  0  0  0  0  0  0  0  0  0  0
  -43.9323   59.7134   65.2979 C   0  0  0  0  0  0  0  0  0  0  0  0
  -43.6567   59.5992   66.7907 C   0  0  0  0  0  0  0  0  0  0  0  0
  -42.4388   60.4206   67.1837 C   0  0  0  0  0  0  0  0  0  0  0  0
  -41.1930   59.9458   66.4430 C   0  0  0  0  0  0  0  0  0  0  0  0
  -40.3599   61.1421   66.0262 C   0  0  0  0  0  0  0  0  0  0  0  0
  -39.1043   61.0782   66.0568 O   0  0  0  0  0  0  0  0  0  0  0  0
  -40.9169   62.2065   65.6519 O   0  0  0  0  0  0  0  0  0  0  0  0
  -41.8519   62.2620   65.6263 H   0  0  0  0  0  0  0  0  0  0  0  0
 18 19  2  0  0  0
 18 17  1  0  0  0
 18 20  1  0  0  0
 17 16  1  0  0  0
 20 21  1  0  0  0
 16 15  1  0  0  0
 15 14  1  0  0  0
 14 13  1  0  0  0
 13 12  1  0  0  0
 12  1  1  0  0  0
  1  2  1  0  0  0
  2  3  1  0  0  0
  3  4  1  0  0  0
  4  5  1  0  0  0
  5  6  1  0  0  0
  6  7  1  0  0  0
  7  8  1  0  0  0
  8  9  1  0  0  0
  9 10  1  0  0  0
 10 11  1  0  0  0
M  END
> <minimizedAffinity>
-7.37412

> <CNNscore>
0.9101445079

> <CNNaffinity>
6.6609129906

> <CNN_VS>
6.0623931885

> <CNNaffinity_variance>
0.4768691957

$$$$
/media/chris/experiments/cd1a-new-docking/inputs/ligands/4x6d_1_ligand.pdb


 21 20  0  0  0  0  0  0  0  0999 V2000
  -47.2437   58.3598   64.8035 C   0  0  0  0  0  0  0  0  0  0  0  0
  -48.5152   57.7131   65.2946 C   0  0  0  0  0  0  0  0  0  0  0  0
  -49.7361   58.5171   65.4422 C   0  0  0  0  0  0  0  0  0  0  0  0
  -49.7343   59.9821   65.0665 C   0  0  0  0  0  0  0  0  0  0  0  0
  -51.0232   60.3401   64.3275 C   0  0  0  0  0  0  0  0  0  0  0  0
  -51.1686   59.6207   62.9892 C   0  0  0  0  0  0  0  0  0  0  0  0
  -49.9875   59.9144   62.0602 C   0  0  0  0  0  0  0  0  0  0  0  0
  -49.2472   58.6740   61.5457 C   0  0  0  0  0  0  0  0  0  0  0  0
  -48.9265   58.7707   60.0483 C   0  0  0  0  0  0  0  0  0  0  0  0
  -47.9116   57.7189   59.5929 C   0  0  0  0  0  0  0  0  0  0  0  0
  -47.2723   58.0369   58.2358 C   0  0  0  0  0  0  0  0  0  0  0  0
  -46.2006   58.2092   65.8991 C   0  0  0  0  0  0  0  0  0  0  0  0
  -45.5949   59.5457   66.2891 C   0  0  0  0  0  0  0  0  0  0  0  0
  -44.9801   60.2445   65.0801 C   0  0  0  0  0  0  0  0  0  0  0  0
  -43.5743   59.7177   64.8282 C   0  0  0  0  0  0  0  0  0  0  0  0
  -42.7062   60.7772   64.1677 C   0  0  0  0  0  0  0  0  0  0  0  0
  -41.2388   60.3613   64.1632 C   0  0  0  0  0  0  0  0  0  0  0  0
  -40.4815   61.1498   65.2137 C   0  0  0  0  0  0  0  0  0  0  0  0
  -40.9669   62.2140   65.6756 O   0  0  0  0  0  0  0  0  0  0  0  0
  -39.3626   60.7490   65.6269 O   0  0  0  0  0  0  0  0  0  0  0  0
  -38.9942   59.9570   65.2878 H   0  0  0  0  0  0  0  0  0  0  0  0
 18 19  2  0  0  0
 18 17  1  0  0  0
 18 20  1  0  0  0
 17 16  1  0  0  0
 20 21  1  0  0  0
 16 15  1  0  0  0
 15 14  1  0  0  0
 14 13  1  0  0  0
 13 12  1  0  0  0
 12  1  1  0  0  0
  1  2  1  0  0  0
  2  3  1  0  0  0
  3  4  1  0  0  0
  4  5  1  0  0  0
  5  6  1  0  0  0
  6  7  1  0  0  0
  7  8  1  0  0  0
  8  9  1  0  0  0
  9 10  1  0  0  0
 10 11  1  0  0  0
M  END
> <minimizedAffinity>
-6.93476

> <CNNscore>
0.8346599340

> <CNNaffinity>
6.7419142723

> <CNN_VS>
5.6272058487

> <CNNaffinity_variance>
0.5322749615

$$$$
/media/chris/experiments/cd1a-new-docking/inputs/ligands/4x6d_1_ligand.pdb


 21 20  0  0  0  0  0  0  0  0999 V2000
  -44.0104   59.0429   65.1652 C   0  0  0  0  0  0  0  0  0  0  0  0
  -45.5090   59.2163   65.1726 C   0  0  0  0  0  0  0  0  0  0  0  0
  -46.3807   58.0652   64.9004 C   0  0  0  0  0  0  0  0  0  0  0  0
  -47.8844   58.2270   64.9158 C   0  0  0  0  0  0  0  0  0  0  0  0
  -48.3687   58.7959   63.5828 C   0  0  0  0  0  0  0  0  0  0  0  0
  -49.7990   58.3885   63.2392 C   0  0  0  0  0  0  0  0  0  0  0  0
  -49.9498   58.0610   61.7512 C   0  0  0  0  0  0  0  0  0  0  0  0
  -48.7844   58.5222   60.8677 C   0  0  0  0  0  0  0  0  0  0  0  0
  -48.8269   57.8834   59.4732 C   0  0  0  0  0  0  0  0  0  0  0  0
  -47.4477   57.4258   58.9914 C   0  0  0  0  0  0  0  0  0  0  0  0
  -47.0498   58.0172   57.6336 C   0  0  0  0  0  0  0  0  0  0  0  0
  -43.4588   59.7736   66.3788 C   0  0  0  0  0  0  0  0  0  0  0  0
  -41.9476   59.6580   66.4685 C   0  0  0  0  0  0  0  0  0  0  0  0
  -41.3207   59.5554   65.0813 C   0  0  0  0  0  0  0  0  0  0  0  0
  -40.2425   58.4807   65.0709 C   0  0  0  0  0  0  0  0  0  0  0  0
  -38.9013   59.0593   64.6481 C   0  0  0  0  0  0  0  0  0  0  0  0
  -38.6356   58.8064   63.1676 C   0  0  0  0  0  0  0  0  0  0  0  0
  -38.6544   60.1218   62.4137 C   0  0  0  0  0  0  0  0  0  0  0  0
  -39.7414   60.5902   61.9888 O   0  0  0  0  0  0  0  0  0  0  0  0
  -37.5849   60.7508   62.2040 O   0  0  0  0  0  0  0  0  0  0  0  0
  -36.7709   60.4085   62.5174 H   0  0  0  0  0  0  0  0  0  0  0  0
 18 19  2  0  0  0
 18 17  1  0  0  0
 18 20  1  0  0  0
 17 16  1  0  0  0
 20 21  1  0  0  0
 16 15  1  0  0  0
 15 14  1  0  0  0
 14 13  1  0  0  0
 13 12  1  0  0  0
 12  1  1  0  0  0
  1  2  1  0  0  0
  2  3  1  0  0  0
  3  4  1  0  0  0
  4  5  1  0  0  0
  5  6  1  0  0  0
  6  7  1  0  0  0
  7  8  1  0  0  0
  8  9  1  0  0  0
  9 10  1  0  0  0
 10 11  1  0  0  0
M  END
> <minimizedAffinity>
-6.39754

> <CNNscore>
0.7558135986

> <CNNaffinity>
6.6572418213

> <CNN_VS>
5.0316338539

> <CNNaffinity_variance>
0.6965446472

$$$$
/media/chris/experiments/cd1a-new-docking/inputs/ligands/4x6d_1_ligand.pdb


 21 20  0  0  0  0  0  0  0  0999 V2000
  -50.1070   58.8442   64.8578 C   0  0  0  0  0  0  0  0  0  0  0  0
  -48.6553   59.0285   65.2246 C   0  0  0  0  0  0  0  0  0  0  0  0
  -47.6485   58.0801   64.7287 C   0  0  0  0  0  0  0  0  0  0  0  0
  -47.0365   57.0600   65.6628 C   0  0  0  0  0  0  0  0  0  0  0  0
  -45.7135   57.5819   66.2220 C   0  0  0  0  0  0  0  0  0  0  0  0
  -44.6808   57.8845   65.1395 C   0  0  0  0  0  0  0  0  0  0  0  0
  -43.2523   57.6737   65.6487 C   0  0  0  0  0  0  0  0  0  0  0  0
  -42.2307   58.7021   65.1486 C   0  0  0  0  0  0  0  0  0  0  0  0
  -42.8968   59.8601   64.3938 C   0  0  0  0  0  0  0  0  0  0  0  0
  -41.8809   60.8354   63.7935 C   0  0  0  0  0  0  0  0  0  0  0  0
  -42.4216   61.6118   62.5866 C   0  0  0  0  0  0  0  0  0  0  0  0
  -50.1841   58.7134   63.3452 C   0  0  0  0  0  0  0  0  0  0  0  0
  -49.9879   60.0500   62.6525 C   0  0  0  0  0  0  0  0  0  0  0  0
  -49.4465   59.8623   61.2384 C   0  0  0  0  0  0  0  0  0  0  0  0
  -48.9750   58.4281   61.0432 C   0  0  0  0  0  0  0  0  0  0  0  0
  -48.2694   58.2644   59.7062 C   0  0  0  0  0  0  0  0  0  0  0  0
  -48.9191   57.1646   58.8726 C   0  0  0  0  0  0  0  0  0  0  0  0
  -47.9068   56.5991   57.8957 C   0  0  0  0  0  0  0  0  0  0  0  0
  -47.2280   57.3720   57.1723 O   0  0  0  0  0  0  0  0  0  0  0  0
  -47.7421   55.3555   57.7981 O   0  0  0  0  0  0  0  0  0  0  0  0
  -48.2440   54.7730   58.3336 H   0  0  0  0  0  0  0  0  0  0  0  0
 18 19  2  0  0  0
 18 17  1  0  0  0
 18 20  1  0  0  0
 17 16  1  0  0  0
 20 21  1  0  0  0
 16 15  1  0  0  0
 15 14  1  0  0  0
 14 13  1  0  0  0
 13 12  1  0  0  0
 12  1  1  0  0  0
  1  2  1  0  0  0
  2  3  1  0  0  0
  3  4  1  0  0  0
  4  5  1  0  0  0
  5  6  1  0  0  0
  6  7  1  0  0  0
  7  8  1  0  0  0
  8  9  1  0  0  0
  9 10  1  0  0  0
 10 11  1  0  0  0
M  END
> <minimizedAffinity>
-6.66402

> <CNNscore>
0.7311069965

> <CNNaffinity>
6.7756347656

> <CNN_VS>
4.9537138939

> <CNNaffinity_variance>
0.8856610060

$$$$
/media/chris/experiments/cd1a-new-docking/inputs/ligands/4x6d_1_ligand.pdb


 21 20  0  0  0  0  0  0  0  0999 V2000
  -43.8658   58.4074   64.6881 C   0  0  0  0  0  0  0  0  0  0  0  0
  -45.3008   57.9474   64.7595 C   0  0  0  0  0  0  0  0  0  0  0  0
  -46.2546   58.6554   65.6243 C   0  0  0  0  0  0  0  0  0  0  0  0
  -47.4607   59.3442   65.0256 C   0  0  0  0  0  0  0  0  0  0  0  0
  -48.5815   59.4416   66.0598 C   0  0  0  0  0  0  0  0  0  0  0  0
  -49.9598   59.1270   65.4843 C   0  0  0  0  0  0  0  0  0  0  0  0
  -50.5360   60.3201   64.7170 C   0  0  0  0  0  0  0  0  0  0  0  0
  -51.1736   59.9719   63.3666 C   0  0  0  0  0  0  0  0  0  0  0  0
  -50.2712   59.0681   62.5162 C   0  0  0  0  0  0  0  0  0  0  0  0
  -49.6327   59.8106   61.3395 C   0  0  0  0  0  0  0  0  0  0  0  0
  -48.7208   58.9242   60.4826 C   0  0  0  0  0  0  0  0  0  0  0  0
  -43.1896   58.0017   65.9877 C   0  0  0  0  0  0  0  0  0  0  0  0
  -41.9023   58.7729   66.2188 C   0  0  0  0  0  0  0  0  0  0  0  0
  -41.2570   59.1747   64.8959 C   0  0  0  0  0  0  0  0  0  0  0  0
  -39.8320   58.6441   64.8247 C   0  0  0  0  0  0  0  0  0  0  0  0
  -38.8622   59.7417   64.4159 C   0  0  0  0  0  0  0  0  0  0  0  0
  -39.2419   60.3350   63.0630 C   0  0  0  0  0  0  0  0  0  0  0  0
  -38.0205   60.3834   62.1659 C   0  0  0  0  0  0  0  0  0  0  0  0
  -36.8968   60.0358   62.6106 O   0  0  0  0  0  0  0  0  0  0  0  0
  -38.1209   60.7751   60.9744 O   0  0  0  0  0  0  0  0  0  0  0  0
  -38.9547   61.0357   60.6356 H   0  0  0  0  0  0  0  0  0  0  0  0
 18 19  2  0  0  0
 18 17  1  0  0  0
 18 20  1  0  0  0
 17 16  1  0  0  0
 20 21  1  0  0  0
 16 15  1  0  0  0
 15 14  1  0  0  0
 14 13  1  0  0  0
 13 12  1  0  0  0
 12  1  1  0  0  0
  1  2  1  0  0  0
  2  3  1  0  0  0
  3  4  1  0  0  0
  4  5  1  0  0  0
  5  6  1  0  0  0
  6  7  1  0  0  0
  7  8  1  0  0  0
  8  9  1  0  0  0
  9 10  1  0  0  0
 10 11  1  0  0  0
M  END
> <minimizedAffinity>
-6.39639

> <CNNscore>
0.6954087615

> <CNNaffinity>
6.3935117722

> <CNN_VS>
4.4461040497

> <CNNaffinity_variance>
0.4788155556

$$$$
/media/chris/experiments/cd1a-new-docking/inputs/ligands/4x6d_1_ligand.pdb


 21 20  0  0  0  0  0  0  0  0999 V2000
  -46.0991   59.5808   65.8062 C   0  0  0  0  0  0  0  0  0  0  0  0
  -46.7981   60.6337   64.9823 C   0  0  0  0  0  0  0  0  0  0  0  0
  -48.2556   60.7920   65.0801 C   0  0  0  0  0  0  0  0  0  0  0  0
  -49.0446   59.9834   66.0856 C   0  0  0  0  0  0  0  0  0  0  0  0
  -50.3744   59.5376   65.4790 C   0  0  0  0  0  0  0  0  0  0  0  0
  -50.9083   60.5036   64.4247 C   0  0  0  0  0  0  0  0  0  0  0  0
  -51.1070   59.8104   63.0741 C   0  0  0  0  0  0  0  0  0  0  0  0
  -50.4363   58.4371   62.9489 C   0  0  0  0  0  0  0  0  0  0  0  0
  -49.0630   58.5231   62.2698 C   0  0  0  0  0  0  0  0  0  0  0  0
  -49.0933   58.0484   60.8147 C   0  0  0  0  0  0  0  0  0  0  0  0
  -50.3971   57.3369   60.4331 C   0  0  0  0  0  0  0  0  0  0  0  0
  -45.8804   58.3705   64.9128 C   0  0  0  0  0  0  0  0  0  0  0  0
  -45.1871   57.2406   65.6529 C   0  0  0  0  0  0  0  0  0  0  0  0
  -43.7296   57.1127   65.2203 C   0  0  0  0  0  0  0  0  0  0  0  0
  -42.8231   57.8283   66.2121 C   0  0  0  0  0  0  0  0  0  0  0  0
  -42.0066   58.9093   65.5213 C   0  0  0  0  0  0  0  0  0  0  0  0
  -41.4087   59.8791   66.5354 C   0  0  0  0  0  0  0  0  0  0  0  0
  -40.7611   61.0419   65.8093 C   0  0  0  0  0  0  0  0  0  0  0  0
  -41.3816   61.6373   64.8916 O   0  0  0  0  0  0  0  0  0  0  0  0
  -39.5994   61.4162   66.1152 O   0  0  0  0  0  0  0  0  0  0  0  0
  -39.1305   60.9778   66.7979 H   0  0  0  0  0  0  0  0  0  0  0  0
 18 19  2  0  0  0
 18 17  1  0  0  0
 18 20  1  0  0  0
 17 16  1  0  0  0
 20 21  1  0  0  0
 16 15  1  0  0  0
 15 14  1  0  0  0
 14 13  1  0  0  0
 13 12  1  0  0  0
 12  1  1  0  0  0
  1  2  1  0  0  0
  2  3  1  0  0  0
  3  4  1  0  0  0
  4  5  1  0  0  0
  5  6  1  0  0  0
  6  7  1  0  0  0
  7  8  1  0  0  0
  8  9  1  0  0  0
  9 10  1  0  0  0
 10 11  1  0  0  0
M  END
> <minimizedAffinity>
-6.86053

> <CNNscore>
0.6402190328

> <CNNaffinity>
6.4014320374

> <CNN_VS>
4.0983185768

> <CNNaffinity_variance>
0.3777051568

$$$$
/media/chris/experiments/cd1a-new-docking/inputs/ligands/4x6d_1_ligand.pdb


 21 20  0  0  0  0  0  0  0  0999 V2000
  -44.2082   59.4467   66.3599 C   0  0  0  0  0  0  0  0  0  0  0  0
  -45.6984   59.4116   66.5923 C   0  0  0  0  0  0  0  0  0  0  0  0
  -46.6165   59.8247   65.5220 C   0  0  0  0  0  0  0  0  0  0  0  0
  -47.9044   59.0672   65.2877 C   0  0  0  0  0  0  0  0  0  0  0  0
  -49.0938   59.8721   65.8099 C   0  0  0  0  0  0  0  0  0  0  0  0
  -50.4376   59.3599   65.2984 C   0  0  0  0  0  0  0  0  0  0  0  0
  -51.1210   60.3833   64.3873 C   0  0  0  0  0  0  0  0  0  0  0  0
  -51.1757   59.9928   62.9054 C   0  0  0  0  0  0  0  0  0  0  0  0
  -49.8732   60.3324   62.1688 C   0  0  0  0  0  0  0  0  0  0  0  0
  -49.1735   59.0929   61.6053 C   0  0  0  0  0  0  0  0  0  0  0  0
  -50.0272   57.8216   61.6867 C   0  0  0  0  0  0  0  0  0  0  0  0
  -43.9708   60.1011   65.0085 C   0  0  0  0  0  0  0  0  0  0  0  0
  -42.5058   60.0611   64.6117 C   0  0  0  0  0  0  0  0  0  0  0  0
  -41.6431   60.8191   65.6162 C   0  0  0  0  0  0  0  0  0  0  0  0
  -40.4285   59.9852   65.9993 C   0  0  0  0  0  0  0  0  0  0  0  0
  -40.3052   58.7608   65.1059 C   0  0  0  0  0  0  0  0  0  0  0  0
  -39.1031   58.8785   64.1745 C   0  0  0  0  0  0  0  0  0  0  0  0
  -37.8227   58.7217   64.9713 C   0  0  0  0  0  0  0  0  0  0  0  0
  -37.1270   59.7307   65.2529 O   0  0  0  0  0  0  0  0  0  0  0  0
  -37.4450   57.5833   65.3518 O   0  0  0  0  0  0  0  0  0  0  0  0
  -37.9578   56.8265   65.1460 H   0  0  0  0  0  0  0  0  0  0  0  0
 18 19  2  0  0  0
 18 17  1  0  0  0
 18 20  1  0  0  0
 17 16  1  0  0  0
 20 21  1  0  0  0
 16 15  1  0  0  0
 15 14  1  0  0  0
 14 13  1  0  0  0
 13 12  1  0  0  0
 12  1  1  0  0  0
  1  2  1  0  0  0
  2  3  1  0  0  0
  3  4  1  0  0  0
  4  5  1  0  0  0
  5  6  1  0  0  0
  6  7  1  0  0  0
  7  8  1  0  0  0
  8  9  1  0  0  0
  9 10  1  0  0  0
 10 11  1  0  0  0
M  END
> <minimizedAffinity>
-6.25175

> <CNNscore>
0.5974701643

> <CNNaffinity>
6.1934409142

> <CNN_VS>
3.7003960609

> <CNNaffinity_variance>
0.2009431869

$$$$
/media/chris/experiments/cd1a-new-docking/inputs/ligands/4x6d_1_ligand.pdb


 21 20  0  0  0  0  0  0  0  0999 V2000
  -37.6283   58.7472   60.6432 C   0  0  0  0  0  0  0  0  0  0  0  0
  -37.0531   58.7578   59.2486 C   0  0  0  0  0  0  0  0  0  0  0  0
  -36.3962   57.5553   58.7182 C   0  0  0  0  0  0  0  0  0  0  0  0
  -35.4685   57.6554   57.5279 C   0  0  0  0  0  0  0  0  0  0  0  0
  -34.1473   56.9477   57.8261 C   0  0  0  0  0  0  0  0  0  0  0  0
  -33.5627   57.3143   59.1876 C   0  0  0  0  0  0  0  0  0  0  0  0
  -33.5842   56.1233   60.1494 C   0  0  0  0  0  0  0  0  0  0  0  0
  -33.3259   56.4760   61.6192 C   0  0  0  0  0  0  0  0  0  0  0  0
  -32.8658   57.9294   61.7935 C   0  0  0  0  0  0  0  0  0  0  0  0
  -32.5361   58.2737   63.2483 C   0  0  0  0  0  0  0  0  0  0  0  0
  -33.7716   58.3363   64.1545 C   0  0  0  0  0  0  0  0  0  0  0  0
  -36.6192   58.0607   61.5496 C   0  0  0  0  0  0  0  0  0  0  0  0
  -37.2511   57.6007   62.8512 C   0  0  0  0  0  0  0  0  0  0  0  0
  -38.2336   58.6398   63.3829 C   0  0  0  0  0  0  0  0  0  0  0  0
  -39.0541   58.0514   64.5222 C   0  0  0  0  0  0  0  0  0  0  0  0
  -40.3077   58.8751   64.7719 C   0  0  0  0  0  0  0  0  0  0  0  0
  -40.0864   59.8877   65.8909 C   0  0  0  0  0  0  0  0  0  0  0  0
  -40.3620   61.2867   65.3752 C   0  0  0  0  0  0  0  0  0  0  0  0
  -40.2769   61.5340   64.1451 O   0  0  0  0  0  0  0  0  0  0  0  0
  -40.6724   62.2094   66.1724 O   0  0  0  0  0  0  0  0  0  0  0  0
  -40.7379   62.0332   67.0904 H   0  0  0  0  0  0  0  0  0  0  0  0
 18 19  2  0  0  0
 18 17  1  0  0  0
 18 20  1  0  0  0
 17 16  1  0  0  0
 20 21  1  0  0  0
 16 15  1  0  0  0
 15 14  1  0  0  0
 14 13  1  0  0  0
 13 12  1  0  0  0
 12  1  1  0  0  0
  1  2  1  0  0  0
  2  3  1  0  0  0
  3  4  1  0  0  0
  4  5  1  0  0  0
  5  6  1  0  0  0
  6  7  1  0  0  0
  7  8  1  0  0  0
  8  9  1  0  0  0
  9 10  1  0  0  0
 10 11  1  0  0  0
M  END
> <minimizedAffinity>
-6.13096

> <CNNscore>
0.5880365372

> <CNNaffinity>
5.8563222885

> <CNN_VS>
3.4437315464

> <CNNaffinity_variance>
0.1330198497

$$$$
