/media/chris/experiments/cd1a-new-docking/inputs/ligands/4x6d_1_ligand.pdb


 21 20  0  0  0  0  0  0  0  0999 V2000
  -46.0325   58.0712   66.2007 C   0  0  0  0  0  0  0  0  0  0  0  0
  -47.4581   57.9583   65.7205 C   0  0  0  0  0  0  0  0  0  0  0  0
  -47.8122   58.4049   64.3662 C   0  0  0  0  0  0  0  0  0  0  0  0
  -49.2196   58.8655   64.0588 C   0  0  0  0  0  0  0  0  0  0  0  0
  -49.7515   58.1488   62.8183 C   0  0  0  0  0  0  0  0  0  0  0  0
  -48.7674   58.1556   61.6516 C   0  0  0  0  0  0  0  0  0  0  0  0
  -49.4188   58.6768   60.3678 C   0  0  0  0  0  0  0  0  0  0  0  0
  -49.3887   57.6997   59.1863 C   0  0  0  0  0  0  0  0  0  0  0  0
  -48.3299   56.6039   59.3680 C   0  0  0  0  0  0  0  0  0  0  0  0
  -47.1379   56.7726   58.4223 C   0  0  0  0  0  0  0  0  0  0  0  0
  -47.0782   58.1533   57.7578 C   0  0  0  0  0  0  0  0  0  0  0  0
  -45.6050   59.5200   66.0299 C   0  0  0  0  0  0  0  0  0  0  0  0
  -44.2891   59.6357   65.2815 C   0  0  0  0  0  0  0  0  0  0  0  0
  -43.6939   58.2593   64.9995 C   0  0  0  0  0  0  0  0  0  0  0  0
  -42.4282   58.0569   65.8209 C   0  0  0  0  0  0  0  0  0  0  0  0
  -41.8391   59.3912   66.2505 C   0  0  0  0  0  0  0  0  0  0  0  0
  -40.4666   59.6137   65.6235 C   0  0  0  0  0  0  0  0  0  0  0  0
  -40.2965   61.0793   65.2741 C   0  0  0  0  0  0  0  0  0  0  0  0
  -40.4449   61.9603   66.1592 O   0  0  0  0  0  0  0  0  0  0  0  0
  -40.0110   61.4245   64.0984 O   0  0  0  0  0  0  0  0  0  0  0  0
  -39.8989   60.7741   63.4333 H   0  0  0  0  0  0  0  0  0  0  0  0
 18 19  2  0  0  0
 18 17  1  0  0  0
 18 20  1  0  0  0
 17 16  1  0  0  0
 20 21  1  0  0  0
 16 15  1  0  0  0
 15 14  1  0  0  0
 14 13  1  0  0  0
 13 12  1  0  0  0
 12  1  1  0  0  0
  1  2  1  0  0  0
  2  3  1  0  0  0
  3  4  1  0  0  0
  4  5  1  0  0  0
  5  6  1  0  0  0
  6  7  1  0  0  0
  7  8  1  0  0  0
  8  9  1  0  0  0
  9 10  1  0  0  0
 10 11  1  0  0  0
M  END
> <minimizedAffinity>
-6.61552

> <CNNscore>
0.9421414733

> <CNNaffinity>
7.0701193810

> <CNN_VS>
6.6610527039

> <CNNaffinity_variance>
0.9127287865

$$$$
/media/chris/experiments/cd1a-new-docking/inputs/ligands/4x6d_1_ligand.pdb


 21 20  0  0  0  0  0  0  0  0999 V2000
  -47.4921   59.9372   64.6628 C   0  0  0  0  0  0  0  0  0  0  0  0
  -48.0830   58.6450   64.1561 C   0  0  0  0  0  0  0  0  0  0  0  0
  -49.5189   58.3814   64.3224 C   0  0  0  0  0  0  0  0  0  0  0  0
  -50.5401   59.3795   63.8241 C   0  0  0  0  0  0  0  0  0  0  0  0
  -50.5679   59.3895   62.2961 C   0  0  0  0  0  0  0  0  0  0  0  0
  -50.7779   58.0047   61.6895 C   0  0  0  0  0  0  0  0  0  0  0  0
  -50.0451   57.8578   60.3532 C   0  0  0  0  0  0  0  0  0  0  0  0
  -48.5149   57.8590   60.4528 C   0  0  0  0  0  0  0  0  0  0  0  0
  -47.8490   58.2696   59.1327 C   0  0  0  0  0  0  0  0  0  0  0  0
  -47.3023   57.0727   58.3502 C   0  0  0  0  0  0  0  0  0  0  0  0
  -47.6066   57.1365   56.8486 C   0  0  0  0  0  0  0  0  0  0  0  0
  -46.0924   59.6324   65.1717 C   0  0  0  0  0  0  0  0  0  0  0  0
  -45.7507   58.1594   65.0353 C   0  0  0  0  0  0  0  0  0  0  0  0
  -44.3610   57.9705   64.4344 C   0  0  0  0  0  0  0  0  0  0  0  0
  -43.5086   59.2067   64.6851 C   0  0  0  0  0  0  0  0  0  0  0  0
  -42.4140   58.9162   65.6998 C   0  0  0  0  0  0  0  0  0  0  0  0
  -41.1982   59.8073   65.4672 C   0  0  0  0  0  0  0  0  0  0  0  0
  -41.2849   61.0317   66.3575 C   0  0  0  0  0  0  0  0  0  0  0  0
  -40.5135   62.0064   66.1668 O   0  0  0  0  0  0  0  0  0  0  0  0
  -42.1236   61.0797   67.2941 O   0  0  0  0  0  0  0  0  0  0  0  0
  -42.7018   60.3574   67.4427 H   0  0  0  0  0  0  0  0  0  0  0  0
 18 19  2  0  0  0
 18 17  1  0  0  0
 18 20  1  0  0  0
 17 16  1  0  0  0
 20 21  1  0  0  0
 16 15  1  0  0  0
 15 14  1  0  0  0
 14 13  1  0  0  0
 13 12  1  0  0  0
 12  1  1  0  0  0
  1  2  1  0  0  0
  2  3  1  0  0  0
  3  4  1  0  0  0
  4  5  1  0  0  0
  5  6  1  0  0  0
  6  7  1  0  0  0
  7  8  1  0  0  0
  8  9  1  0  0  0
  9 10  1  0  0  0
 10 11  1  0  0  0
M  END
> <minimizedAffinity>
-6.94856

> <CNNscore>
0.8632940650

> <CNNaffinity>
6.9005365372

> <CNN_VS>
5.9571924210

> <CNNaffinity_variance>
0.4320620000

$$$$
/media/chris/experiments/cd1a-new-docking/inputs/ligands/4x6d_1_ligand.pdb


 21 20  0  0  0  0  0  0  0  0999 V2000
  -49.4739   59.5065   65.6106 C   0  0  0  0  0  0  0  0  0  0  0  0
  -50.1012   60.4888   64.6527 C   0  0  0  0  0  0  0  0  0  0  0  0
  -51.1746   60.0488   63.7510 C   0  0  0  0  0  0  0  0  0  0  0  0
  -50.8418   59.3237   62.4662 C   0  0  0  0  0  0  0  0  0  0  0  0
  -49.4343   59.6934   61.9996 C   0  0  0  0  0  0  0  0  0  0  0  0
  -49.1717   59.3362   60.5391 C   0  0  0  0  0  0  0  0  0  0  0  0
  -49.8077   57.9950   60.1638 C   0  0  0  0  0  0  0  0  0  0  0  0
  -48.9691   57.1249   59.2197 C   0  0  0  0  0  0  0  0  0  0  0  0
  -47.5200   57.6178   59.1122 C   0  0  0  0  0  0  0  0  0  0  0  0
  -47.1103   57.9365   57.6719 C   0  0  0  0  0  0  0  0  0  0  0  0
  -47.7266   56.9854   56.6388 C   0  0  0  0  0  0  0  0  0  0  0  0
  -48.2510   60.1755   66.2172 C   0  0  0  0  0  0  0  0  0  0  0  0
  -47.0882   59.2089   66.3535 C   0  0  0  0  0  0  0  0  0  0  0  0
  -46.8453   58.4534   65.0503 C   0  0  0  0  0  0  0  0  0  0  0  0
  -45.3643   58.1368   64.8957 C   0  0  0  0  0  0  0  0  0  0  0  0
  -44.5911   58.5275   66.1454 C   0  0  0  0  0  0  0  0  0  0  0  0
  -43.3082   57.7127   66.2754 C   0  0  0  0  0  0  0  0  0  0  0  0
  -42.1238   58.6467   66.4303 C   0  0  0  0  0  0  0  0  0  0  0  0
  -42.0694   59.4406   67.4040 O   0  0  0  0  0  0  0  0  0  0  0  0
  -41.1913   58.6377   65.5857 O   0  0  0  0  0  0  0  0  0  0  0  0
  -41.2245   58.0491   64.8574 H   0  0  0  0  0  0  0  0  0  0  0  0
 18 19  2  0  0  0
 18 17  1  0  0  0
 18 20  1  0  0  0
 17 16  1  0  0  0
 20 21  1  0  0  0
 16 15  1  0  0  0
 15 14  1  0  0  0
 14 13  1  0  0  0
 13 12  1  0  0  0
 12  1  1  0  0  0
  1  2  1  0  0  0
  2  3  1  0  0  0
  3  4  1  0  0  0
  4  5  1  0  0  0
  5  6  1  0  0  0
  6  7  1  0  0  0
  7  8  1  0  0  0
  8  9  1  0  0  0
  9 10  1  0  0  0
 10 11  1  0  0  0
M  END
> <minimizedAffinity>
-6.89328

> <CNNscore>
0.8404079676

> <CNNaffinity>
6.8165526390

> <CNN_VS>
5.7286853790

> <CNNaffinity_variance>
0.8010090590

$$$$
/media/chris/experiments/cd1a-new-docking/inputs/ligands/4x6d_1_ligand.pdb


 21 20  0  0  0  0  0  0  0  0999 V2000
  -47.7331   60.6272   64.8269 C   0  0  0  0  0  0  0  0  0  0  0  0
  -48.6980   60.2865   63.7184 C   0  0  0  0  0  0  0  0  0  0  0  0
  -49.1690   58.9042   63.5566 C   0  0  0  0  0  0  0  0  0  0  0  0
  -50.5152   58.6262   62.9257 C   0  0  0  0  0  0  0  0  0  0  0  0
  -50.3465   57.7535   61.6825 C   0  0  0  0  0  0  0  0  0  0  0  0
  -49.7354   58.5018   60.5009 C   0  0  0  0  0  0  0  0  0  0  0  0
  -48.4145   57.8688   60.0552 C   0  0  0  0  0  0  0  0  0  0  0  0
  -47.7730   58.5153   58.8215 C   0  0  0  0  0  0  0  0  0  0  0  0
  -46.8717   57.5363   58.0573 C   0  0  0  0  0  0  0  0  0  0  0  0
  -47.5197   57.0195   56.7702 C   0  0  0  0  0  0  0  0  0  0  0  0
  -47.5974   55.4896   56.6993 C   0  0  0  0  0  0  0  0  0  0  0  0
  -48.1400   59.8235   66.0515 C   0  0  0  0  0  0  0  0  0  0  0  0
  -46.9591   59.0925   66.6647 C   0  0  0  0  0  0  0  0  0  0  0  0
  -46.9829   57.6099   66.3047 C   0  0  0  0  0  0  0  0  0  0  0  0
  -45.5955   57.1516   65.8774 C   0  0  0  0  0  0  0  0  0  0  0  0
  -45.1148   57.9313   64.6636 C   0  0  0  0  0  0  0  0  0  0  0  0
  -43.6207   58.2244   64.7548 C   0  0  0  0  0  0  0  0  0  0  0  0
  -43.3824   59.7139   64.6008 C   0  0  0  0  0  0  0  0  0  0  0  0
  -44.2362   60.5363   65.0206 O   0  0  0  0  0  0  0  0  0  0  0  0
  -42.3338   60.1372   64.0491 O   0  0  0  0  0  0  0  0  0  0  0  0
  -41.6929   59.5307   63.7336 H   0  0  0  0  0  0  0  0  0  0  0  0
 18 19  2  0  0  0
 18 17  1  0  0  0
 18 20  1  0  0  0
 17 16  1  0  0  0
 20 21  1  0  0  0
 16 15  1  0  0  0
 15 14  1  0  0  0
 14 13  1  0  0  0
 13 12  1  0  0  0
 12  1  1  0  0  0
  1  2  1  0  0  0
  2  3  1  0  0  0
  3  4  1  0  0  0
  4  5  1  0  0  0
  5  6  1  0  0  0
  6  7  1  0  0  0
  7  8  1  0  0  0
  8  9  1  0  0  0
  9 10  1  0  0  0
 10 11  1  0  0  0
M  END
> <minimizedAffinity>
-6.81260

> <CNNscore>
0.7507640719

> <CNNaffinity>
6.5874314308

> <CNN_VS>
4.9456067085

> <CNNaffinity_variance>
0.4769481719

$$$$
/media/chris/experiments/cd1a-new-docking/inputs/ligands/4x6d_1_ligand.pdb


 21 20  0  0  0  0  0  0  0  0999 V2000
  -51.1042   59.8242   62.9095 C   0  0  0  0  0  0  0  0  0  0  0  0
  -50.9987   60.2094   64.3643 C   0  0  0  0  0  0  0  0  0  0  0  0
  -50.1948   59.3908   65.2822 C   0  0  0  0  0  0  0  0  0  0  0  0
  -48.9610   59.9694   65.9382 C   0  0  0  0  0  0  0  0  0  0  0  0
  -47.7890   59.9643   64.9574 C   0  0  0  0  0  0  0  0  0  0  0  0
  -47.1798   58.5794   64.7557 C   0  0  0  0  0  0  0  0  0  0  0  0
  -45.8313   58.4476   65.4685 C   0  0  0  0  0  0  0  0  0  0  0  0
  -44.7116   57.8301   64.6220 C   0  0  0  0  0  0  0  0  0  0  0  0
  -43.3186   58.1614   65.1738 C   0  0  0  0  0  0  0  0  0  0  0  0
  -43.3750   58.9955   66.4563 C   0  0  0  0  0  0  0  0  0  0  0  0
  -41.9910   59.3481   67.0147 C   0  0  0  0  0  0  0  0  0  0  0  0
  -50.5844   58.4021   62.7735 C   0  0  0  0  0  0  0  0  0  0  0  0
  -49.3102   58.3433   61.9502 C   0  0  0  0  0  0  0  0  0  0  0  0
  -49.5091   58.9884   60.5819 C   0  0  0  0  0  0  0  0  0  0  0  0
  -49.2908   57.9604   59.4805 C   0  0  0  0  0  0  0  0  0  0  0  0
  -47.8325   57.5346   59.4150 C   0  0  0  0  0  0  0  0  0  0  0  0
  -47.2810   57.6774   58.0002 C   0  0  0  0  0  0  0  0  0  0  0  0
  -47.7734   56.5285   57.1419 C   0  0  0  0  0  0  0  0  0  0  0  0
  -48.2018   56.7474   55.9799 O   0  0  0  0  0  0  0  0  0  0  0  0
  -47.7617   55.3514   57.5861 O   0  0  0  0  0  0  0  0  0  0  0  0
  -47.4441   55.1802   58.4509 H   0  0  0  0  0  0  0  0  0  0  0  0
 18 19  2  0  0  0
 18 17  1  0  0  0
 18 20  1  0  0  0
 17 16  1  0  0  0
 20 21  1  0  0  0
 16 15  1  0  0  0
 15 14  1  0  0  0
 14 13  1  0  0  0
 13 12  1  0  0  0
 12  1  1  0  0  0
  1  2  1  0  0  0
  2  3  1  0  0  0
  3  4  1  0  0  0
  4  5  1  0  0  0
  5  6  1  0  0  0
  6  7  1  0  0  0
  7  8  1  0  0  0
  8  9  1  0  0  0
  9 10  1  0  0  0
 10 11  1  0  0  0
M  END
> <minimizedAffinity>
-7.14900

> <CNNscore>
0.7467380166

> <CNNaffinity>
6.8629736900

> <CNN_VS>
5.1248435974

> <CNNaffinity_variance>
0.6432307959

$$$$
/media/chris/experiments/cd1a-new-docking/inputs/ligands/4x6d_1_ligand.pdb


 21 20  0  0  0  0  0  0  0  0999 V2000
  -48.1711   60.5271   66.1872 C   0  0  0  0  0  0  0  0  0  0  0  0
  -49.0660   59.3547   65.8702 C   0  0  0  0  0  0  0  0  0  0  0  0
  -50.4775   59.5815   65.5309 C   0  0  0  0  0  0  0  0  0  0  0  0
  -50.8560   60.6183   64.4969 C   0  0  0  0  0  0  0  0  0  0  0  0
  -51.1776   59.9431   63.1641 C   0  0  0  0  0  0  0  0  0  0  0  0
  -49.9543   59.7674   62.2684 C   0  0  0  0  0  0  0  0  0  0  0  0
  -49.5522   58.2951   62.1460 C   0  0  0  0  0  0  0  0  0  0  0  0
  -50.4375   57.4599   61.2131 C   0  0  0  0  0  0  0  0  0  0  0  0
  -49.6145   56.6764   60.1819 C   0  0  0  0  0  0  0  0  0  0  0  0
  -49.2275   57.5249   58.9678 C   0  0  0  0  0  0  0  0  0  0  0  0
  -47.7425   57.9064   58.9399 C   0  0  0  0  0  0  0  0  0  0  0  0
  -47.0949   60.5849   65.1150 C   0  0  0  0  0  0  0  0  0  0  0  0
  -46.2477   59.3251   65.0972 C   0  0  0  0  0  0  0  0  0  0  0  0
  -44.7598   59.6628   65.1101 C   0  0  0  0  0  0  0  0  0  0  0  0
  -44.2182   59.5923   66.5311 C   0  0  0  0  0  0  0  0  0  0  0  0
  -42.7099   59.3991   66.5295 C   0  0  0  0  0  0  0  0  0  0  0  0
  -41.9955   60.6453   67.0423 C   0  0  0  0  0  0  0  0  0  0  0  0
  -41.2248   61.2945   65.9093 C   0  0  0  0  0  0  0  0  0  0  0  0
  -40.1222   61.8553   66.1361 O   0  0  0  0  0  0  0  0  0  0  0  0
  -41.6835   61.2813   64.7377 O   0  0  0  0  0  0  0  0  0  0  0  0
  -42.5044   60.8656   64.5607 H   0  0  0  0  0  0  0  0  0  0  0  0
 18 19  2  0  0  0
 18 17  1  0  0  0
 18 20  1  0  0  0
 17 16  1  0  0  0
 20 21  1  0  0  0
 16 15  1  0  0  0
 15 14  1  0  0  0
 14 13  1  0  0  0
 13 12  1  0  0  0
 12  1  1  0  0  0
  1  2  1  0  0  0
  2  3  1  0  0  0
  3  4  1  0  0  0
  4  5  1  0  0  0
  5  6  1  0  0  0
  6  7  1  0  0  0
  7  8  1  0  0  0
  8  9  1  0  0  0
  9 10  1  0  0  0
 10 11  1  0  0  0
M  END
> <minimizedAffinity>
-7.06469

> <CNNscore>
0.7418596148

> <CNNaffinity>
6.4179368019

> <CNN_VS>
4.7612080574

> <CNNaffinity_variance>
0.3812801540

$$$$
/media/chris/experiments/cd1a-new-docking/inputs/ligands/4x6d_1_ligand.pdb


 21 20  0  0  0  0  0  0  0  0999 V2000
  -49.4605   59.1357   65.7684 C   0  0  0  0  0  0  0  0  0  0  0  0
  -50.1007   58.6388   64.4960 C   0  0  0  0  0  0  0  0  0  0  0  0
  -50.5048   59.5962   63.4572 C   0  0  0  0  0  0  0  0  0  0  0  0
  -50.2757   59.2782   61.9965 C   0  0  0  0  0  0  0  0  0  0  0  0
  -50.8066   57.8829   61.6695 C   0  0  0  0  0  0  0  0  0  0  0  0
  -50.2564   57.3216   60.3611 C   0  0  0  0  0  0  0  0  0  0  0  0
  -49.1157   58.1836   59.8135 C   0  0  0  0  0  0  0  0  0  0  0  0
  -47.8323   57.4159   59.4743 C   0  0  0  0  0  0  0  0  0  0  0  0
  -48.1234   55.9997   58.9602 C   0  0  0  0  0  0  0  0  0  0  0  0
  -47.5512   55.7501   57.5624 C   0  0  0  0  0  0  0  0  0  0  0  0
  -47.9808   56.8012   56.5318 C   0  0  0  0  0  0  0  0  0  0  0  0
  -48.7014   60.4092   65.4322 C   0  0  0  0  0  0  0  0  0  0  0  0
  -47.2916   60.3912   65.9953 C   0  0  0  0  0  0  0  0  0  0  0  0
  -46.2844   59.9394   64.9420 C   0  0  0  0  0  0  0  0  0  0  0  0
  -44.8720   60.3079   65.3746 C   0  0  0  0  0  0  0  0  0  0  0  0
  -43.8422   59.4462   64.6611 C   0  0  0  0  0  0  0  0  0  0  0  0
  -44.2794   57.9854   64.6225 C   0  0  0  0  0  0  0  0  0  0  0  0
  -44.1368   57.3732   66.0024 C   0  0  0  0  0  0  0  0  0  0  0  0
  -43.0239   57.3894   66.5879 O   0  0  0  0  0  0  0  0  0  0  0  0
  -45.1268   56.8417   66.5685 O   0  0  0  0  0  0  0  0  0  0  0  0
  -45.9593   56.8256   66.1387 H   0  0  0  0  0  0  0  0  0  0  0  0
 18 19  2  0  0  0
 18 17  1  0  0  0
 18 20  1  0  0  0
 17 16  1  0  0  0
 20 21  1  0  0  0
 16 15  1  0  0  0
 15 14  1  0  0  0
 14 13  1  0  0  0
 13 12  1  0  0  0
 12  1  1  0  0  0
  1  2  1  0  0  0
  2  3  1  0  0  0
  3  4  1  0  0  0
  4  5  1  0  0  0
  5  6  1  0  0  0
  6  7  1  0  0  0
  7  8  1  0  0  0
  8  9  1  0  0  0
  9 10  1  0  0  0
 10 11  1  0  0  0
M  END
> <minimizedAffinity>
-6.92337

> <CNNscore>
0.6689749956

> <CNNaffinity>
6.6338186264

> <CNN_VS>
4.4378585815

> <CNNaffinity_variance>
0.6147053838

$$$$
/media/chris/experiments/cd1a-new-docking/inputs/ligands/4x6d_1_ligand.pdb


 21 20  0  0  0  0  0  0  0  0999 V2000
  -41.6421   58.9580   65.3880 C   0  0  0  0  0  0  0  0  0  0  0  0
  -43.1128   59.0932   65.0807 C   0  0  0  0  0  0  0  0  0  0  0  0
  -44.0337   57.9966   65.4099 C   0  0  0  0  0  0  0  0  0  0  0  0
  -45.3206   58.2785   66.1525 C   0  0  0  0  0  0  0  0  0  0  0  0
  -46.2740   57.0906   66.0282 C   0  0  0  0  0  0  0  0  0  0  0  0
  -47.6087   57.4556   65.3839 C   0  0  0  0  0  0  0  0  0  0  0  0
  -47.8668   58.9638   65.4379 C   0  0  0  0  0  0  0  0  0  0  0  0
  -48.3718   59.5793   64.1273 C   0  0  0  0  0  0  0  0  0  0  0  0
  -48.8730   58.5144   63.1427 C   0  0  0  0  0  0  0  0  0  0  0  0
  -50.4008   58.4538   63.0663 C   0  0  0  0  0  0  0  0  0  0  0  0
  -51.0764   59.8108   63.2978 C   0  0  0  0  0  0  0  0  0  0  0  0
  -40.8798   59.7472   64.3358 C   0  0  0  0  0  0  0  0  0  0  0  0
  -39.3774   59.6240   64.5164 C   0  0  0  0  0  0  0  0  0  0  0  0
  -38.9515   58.1612   64.5990 C   0  0  0  0  0  0  0  0  0  0  0  0
  -37.7267   57.9215   63.7272 C   0  0  0  0  0  0  0  0  0  0  0  0
  -38.0723   58.0618   62.2530 C   0  0  0  0  0  0  0  0  0  0  0  0
  -37.1448   57.2146   61.3878 C   0  0  0  0  0  0  0  0  0  0  0  0
  -36.9310   57.8957   60.0501 C   0  0  0  0  0  0  0  0  0  0  0  0
  -36.0120   57.5079   59.2843 O   0  0  0  0  0  0  0  0  0  0  0  0
  -37.6663   58.8545   59.6992 O   0  0  0  0  0  0  0  0  0  0  0  0
  -38.3532   59.1494   60.2642 H   0  0  0  0  0  0  0  0  0  0  0  0
 18 19  2  0  0  0
 18 17  1  0  0  0
 18 20  1  0  0  0
 17 16  1  0  0  0
 20 21  1  0  0  0
 16 15  1  0  0  0
 15 14  1  0  0  0
 14 13  1  0  0  0
 13 12  1  0  0  0
 12  1  1  0  0  0
  1  2  1  0  0  0
  2  3  1  0  0  0
  3  4  1  0  0  0
  4  5  1  0  0  0
  5  6  1  0  0  0
  6  7  1  0  0  0
  7  8  1  0  0  0
  8  9  1  0  0  0
  9 10  1  0  0  0
 10 11  1  0  0  0
M  END
> <minimizedAffinity>
-6.35072

> <CNNscore>
0.6453703642

> <CNNaffinity>
6.2940473557

> <CNN_VS>
4.0619916916

> <CNNaffinity_variance>
0.9470094442

$$$$
/media/chris/experiments/cd1a-new-docking/inputs/ligands/4x6d_1_ligand.pdb


 21 20  0  0  0  0  0  0  0  0999 V2000
  -48.5976   58.4322   63.1680 C   0  0  0  0  0  0  0  0  0  0  0  0
  -47.9889   58.5643   64.5420 C   0  0  0  0  0  0  0  0  0  0  0  0
  -47.9905   57.4149   65.4573 C   0  0  0  0  0  0  0  0  0  0  0  0
  -46.6954   56.9191   66.0609 C   0  0  0  0  0  0  0  0  0  0  0  0
  -45.9096   58.0858   66.6582 C   0  0  0  0  0  0  0  0  0  0  0  0
  -44.5994   58.3654   65.9269 C   0  0  0  0  0  0  0  0  0  0  0  0
  -44.5834   59.7692   65.3160 C   0  0  0  0  0  0  0  0  0  0  0  0
  -43.1927   60.4036   65.1932 C   0  0  0  0  0  0  0  0  0  0  0  0
  -42.6894   60.4195   63.7436 C   0  0  0  0  0  0  0  0  0  0  0  0
  -42.6501   61.8293   63.1480 C   0  0  0  0  0  0  0  0  0  0  0  0
  -42.1255   61.8673   61.7075 C   0  0  0  0  0  0  0  0  0  0  0  0
  -50.1079   58.3958   63.3378 C   0  0  0  0  0  0  0  0  0  0  0  0
  -50.8262   58.3931   62.0002 C   0  0  0  0  0  0  0  0  0  0  0  0
  -49.8520   58.6399   60.8522 C   0  0  0  0  0  0  0  0  0  0  0  0
  -50.0447   57.5910   59.7659 C   0  0  0  0  0  0  0  0  0  0  0  0
  -48.9919   56.4989   59.8711 C   0  0  0  0  0  0  0  0  0  0  0  0
  -47.7071   56.9030   59.1553 C   0  0  0  0  0  0  0  0  0  0  0  0
  -47.7501   56.4213   57.7182 C   0  0  0  0  0  0  0  0  0  0  0  0
  -47.7808   57.2524   56.7748 O   0  0  0  0  0  0  0  0  0  0  0  0
  -47.7601   55.1901   57.4595 O   0  0  0  0  0  0  0  0  0  0  0  0
  -47.7375   54.5646   58.1569 H   0  0  0  0  0  0  0  0  0  0  0  0
 18 19  2  0  0  0
 18 17  1  0  0  0
 18 20  1  0  0  0
 17 16  1  0  0  0
 20 21  1  0  0  0
 16 15  1  0  0  0
 15 14  1  0  0  0
 14 13  1  0  0  0
 13 12  1  0  0  0
 12  1  1  0  0  0
  1  2  1  0  0  0
  2  3  1  0  0  0
  3  4  1  0  0  0
  4  5  1  0  0  0
  5  6  1  0  0  0
  6  7  1  0  0  0
  7  8  1  0  0  0
  8  9  1  0  0  0
  9 10  1  0  0  0
 10 11  1  0  0  0
M  END
> <minimizedAffinity>
-6.94358

> <CNNscore>
0.6395581961

> <CNNaffinity>
6.7250390053

> <CNN_VS>
4.3010540009

> <CNNaffinity_variance>
0.7294770479

$$$$
