/media/chris/experiments/cd1a-new-docking/inputs/ligands/4x6d_1_ligand.pdb


 21 20  0  0  0  0  0  0  0  0999 V2000
  -46.8985   58.5406   64.7560 C   0  0  0  0  0  0  0  0  0  0  0  0
  -48.1576   58.4410   63.9310 C   0  0  0  0  0  0  0  0  0  0  0  0
  -48.9495   59.6474   63.6548 C   0  0  0  0  0  0  0  0  0  0  0  0
  -49.8401   59.7119   62.4341 C   0  0  0  0  0  0  0  0  0  0  0  0
  -50.7225   58.4666   62.3568 C   0  0  0  0  0  0  0  0  0  0  0  0
  -50.6248   57.7426   61.0166 C   0  0  0  0  0  0  0  0  0  0  0  0
  -49.5963   58.4017   60.0937 C   0  0  0  0  0  0  0  0  0  0  0  0
  -49.0083   57.4789   59.0194 C   0  0  0  0  0  0  0  0  0  0  0  0
  -47.4884   57.6416   58.8850 C   0  0  0  0  0  0  0  0  0  0  0  0
  -47.0317   57.7368   57.4270 C   0  0  0  0  0  0  0  0  0  0  0  0
  -47.8753   56.8882   56.4678 C   0  0  0  0  0  0  0  0  0  0  0  0
  -46.8113   59.9617   65.2888 C   0  0  0  0  0  0  0  0  0  0  0  0
  -45.4413   60.5710   65.0497 C   0  0  0  0  0  0  0  0  0  0  0  0
  -44.3355   59.5451   65.2788 C   0  0  0  0  0  0  0  0  0  0  0  0
  -43.9197   59.5400   66.7432 C   0  0  0  0  0  0  0  0  0  0  0  0
  -42.5627   60.2014   66.9260 C   0  0  0  0  0  0  0  0  0  0  0  0
  -41.7207   60.0878   65.6595 C   0  0  0  0  0  0  0  0  0  0  0  0
  -41.1232   61.4396   65.3207 C   0  0  0  0  0  0  0  0  0  0  0  0
  -41.3496   61.9671   64.2017 O   0  0  0  0  0  0  0  0  0  0  0  0
  -40.3948   62.0402   66.1525 O   0  0  0  0  0  0  0  0  0  0  0  0
  -40.2215   61.6538   66.9883 H   0  0  0  0  0  0  0  0  0  0  0  0
 18 19  2  0  0  0
 18 17  1  0  0  0
 18 20  1  0  0  0
 17 16  1  0  0  0
 20 21  1  0  0  0
 16 15  1  0  0  0
 15 14  1  0  0  0
 14 13  1  0  0  0
 13 12  1  0  0  0
 12  1  1  0  0  0
  1  2  1  0  0  0
  2  3  1  0  0  0
  3  4  1  0  0  0
  4  5  1  0  0  0
  5  6  1  0  0  0
  6  7  1  0  0  0
  7  8  1  0  0  0
  8  9  1  0  0  0
  9 10  1  0  0  0
 10 11  1  0  0  0
M  END
> <minimizedAffinity>
-7.07849

> <CNNscore>
0.8855998516

> <CNNaffinity>
6.8674535751

> <CNN_VS>
6.0818157196

> <CNNaffinity_variance>
0.6875566840

$$$$
/media/chris/experiments/cd1a-new-docking/inputs/ligands/4x6d_1_ligand.pdb


 21 20  0  0  0  0  0  0  0  0999 V2000
  -47.2211   57.9614   64.9184 C   0  0  0  0  0  0  0  0  0  0  0  0
  -48.7103   57.9587   65.1597 C   0  0  0  0  0  0  0  0  0  0  0  0
  -49.3463   59.1035   65.8260 C   0  0  0  0  0  0  0  0  0  0  0  0
  -50.3508   59.9562   65.0835 C   0  0  0  0  0  0  0  0  0  0  0  0
  -49.6564   60.7486   63.9767 C   0  0  0  0  0  0  0  0  0  0  0  0
  -49.9969   60.2493   62.5751 C   0  0  0  0  0  0  0  0  0  0  0  0
  -51.0931   59.1809   62.6085 C   0  0  0  0  0  0  0  0  0  0  0  0
  -50.7861   57.9159   61.7979 C   0  0  0  0  0  0  0  0  0  0  0  0
  -49.3399   57.8932   61.2856 C   0  0  0  0  0  0  0  0  0  0  0  0
  -49.2527   57.6686   59.7739 C   0  0  0  0  0  0  0  0  0  0  0  0
  -47.8903   58.0461   59.1797 C   0  0  0  0  0  0  0  0  0  0  0  0
  -46.5942   56.9983   65.9137 C   0  0  0  0  0  0  0  0  0  0  0  0
  -45.2823   57.5294   66.4632 C   0  0  0  0  0  0  0  0  0  0  0  0
  -45.2364   59.0532   66.4008 C   0  0  0  0  0  0  0  0  0  0  0  0
  -43.9159   59.5141   65.7997 C   0  0  0  0  0  0  0  0  0  0  0  0
  -42.7705   59.3064   66.7781 C   0  0  0  0  0  0  0  0  0  0  0  0
  -42.1437   60.6370   67.1812 C   0  0  0  0  0  0  0  0  0  0  0  0
  -41.0494   61.0045   66.1978 C   0  0  0  0  0  0  0  0  0  0  0  0
  -40.3373   60.1057   65.6813 O   0  0  0  0  0  0  0  0  0  0  0  0
  -40.8432   62.2083   65.8955 O   0  0  0  0  0  0  0  0  0  0  0  0
  -41.3695   62.8837   66.2760 H   0  0  0  0  0  0  0  0  0  0  0  0
 18 19  2  0  0  0
 18 17  1  0  0  0
 18 20  1  0  0  0
 17 16  1  0  0  0
 20 21  1  0  0  0
 16 15  1  0  0  0
 15 14  1  0  0  0
 14 13  1  0  0  0
 13 12  1  0  0  0
 12  1  1  0  0  0
  1  2  1  0  0  0
  2  3  1  0  0  0
  3  4  1  0  0  0
  4  5  1  0  0  0
  5  6  1  0  0  0
  6  7  1  0  0  0
  7  8  1  0  0  0
  8  9  1  0  0  0
  9 10  1  0  0  0
 10 11  1  0  0  0
M  END
> <minimizedAffinity>
-6.77526

> <CNNscore>
0.8476468921

> <CNNaffinity>
6.6660079956

> <CNN_VS>
5.6504211426

> <CNNaffinity_variance>
0.4862732291

$$$$
/media/chris/experiments/cd1a-new-docking/inputs/ligands/4x6d_1_ligand.pdb


 21 20  0  0  0  0  0  0  0  0999 V2000
  -49.7521   60.0671   64.9214 C   0  0  0  0  0  0  0  0  0  0  0  0
  -51.0355   60.2329   64.1459 C   0  0  0  0  0  0  0  0  0  0  0  0
  -51.1765   59.6118   62.8217 C   0  0  0  0  0  0  0  0  0  0  0  0
  -49.9521   59.3121   61.9859 C   0  0  0  0  0  0  0  0  0  0  0  0
  -50.1118   57.9677   61.2771 C   0  0  0  0  0  0  0  0  0  0  0  0
  -49.7510   58.0226   59.7951 C   0  0  0  0  0  0  0  0  0  0  0  0
  -48.2914   58.4345   59.5853 C   0  0  0  0  0  0  0  0  0  0  0  0
  -47.3996   57.3547   58.9605 C   0  0  0  0  0  0  0  0  0  0  0  0
  -46.8778   57.7639   57.5768 C   0  0  0  0  0  0  0  0  0  0  0  0
  -47.5575   56.9974   56.4393 C   0  0  0  0  0  0  0  0  0  0  0  0
  -47.6267   55.4845   56.6805 C   0  0  0  0  0  0  0  0  0  0  0  0
  -49.7686   58.6798   65.5430 C   0  0  0  0  0  0  0  0  0  0  0  0
  -48.4620   57.9421   65.3114 C   0  0  0  0  0  0  0  0  0  0  0  0
  -47.4087   58.8654   64.7063 C   0  0  0  0  0  0  0  0  0  0  0  0
  -46.0261   58.2424   64.8395 C   0  0  0  0  0  0  0  0  0  0  0  0
  -44.9900   59.2914   65.2115 C   0  0  0  0  0  0  0  0  0  0  0  0
  -43.5938   58.8662   64.7691 C   0  0  0  0  0  0  0  0  0  0  0  0
  -42.7438   60.0950   64.5107 C   0  0  0  0  0  0  0  0  0  0  0  0
  -43.2087   61.0553   63.8449 O   0  0  0  0  0  0  0  0  0  0  0  0
  -41.5686   60.1611   64.9553 O   0  0  0  0  0  0  0  0  0  0  0  0
  -41.2150   59.4498   65.4523 H   0  0  0  0  0  0  0  0  0  0  0  0
 18 19  2  0  0  0
 18 17  1  0  0  0
 18 20  1  0  0  0
 17 16  1  0  0  0
 20 21  1  0  0  0
 16 15  1  0  0  0
 15 14  1  0  0  0
 14 13  1  0  0  0
 13 12  1  0  0  0
 12  1  1  0  0  0
  1  2  1  0  0  0
  2  3  1  0  0  0
  3  4  1  0  0  0
  4  5  1  0  0  0
  5  6  1  0  0  0
  6  7  1  0  0  0
  7  8  1  0  0  0
  8  9  1  0  0  0
  9 10  1  0  0  0
 10 11  1  0  0  0
M  END
> <minimizedAffinity>
-7.20597

> <CNNscore>
0.8313104510

> <CNNaffinity>
6.7933440208

> <CNN_VS>
5.6473779678

> <CNNaffinity_variance>
0.5023316145

$$$$
/media/chris/experiments/cd1a-new-docking/inputs/ligands/4x6d_1_ligand.pdb


 21 20  0  0  0  0  0  0  0  0999 V2000
  -45.4911   59.9941   65.3583 C   0  0  0  0  0  0  0  0  0  0  0  0
  -46.9412   60.0342   64.9445 C   0  0  0  0  0  0  0  0  0  0  0  0
  -47.6063   58.8066   64.4865 C   0  0  0  0  0  0  0  0  0  0  0  0
  -49.0380   58.8509   64.0009 C   0  0  0  0  0  0  0  0  0  0  0  0
  -49.1611   58.1430   62.6522 C   0  0  0  0  0  0  0  0  0  0  0  0
  -50.5917   58.1042   62.1217 C   0  0  0  0  0  0  0  0  0  0  0  0
  -50.6906   57.2943   60.8261 C   0  0  0  0  0  0  0  0  0  0  0  0
  -50.1186   57.9900   59.5850 C   0  0  0  0  0  0  0  0  0  0  0  0
  -48.8866   57.2630   59.0299 C   0  0  0  0  0  0  0  0  0  0  0  0
  -47.6988   58.2020   58.8047 C   0  0  0  0  0  0  0  0  0  0  0  0
  -46.8915   57.8713   57.5435 C   0  0  0  0  0  0  0  0  0  0  0  0
  -44.9199   58.6628   64.8975 C   0  0  0  0  0  0  0  0  0  0  0  0
  -43.4258   58.7478   64.6420 C   0  0  0  0  0  0  0  0  0  0  0  0
  -43.0400   60.1146   64.0843 C   0  0  0  0  0  0  0  0  0  0  0  0
  -41.5326   60.3096   64.1698 C   0  0  0  0  0  0  0  0  0  0  0  0
  -40.9256   59.4023   65.2284 C   0  0  0  0  0  0  0  0  0  0  0  0
  -39.4681   59.0850   64.9103 C   0  0  0  0  0  0  0  0  0  0  0  0
  -38.6227   60.3303   65.0940 C   0  0  0  0  0  0  0  0  0  0  0  0
  -38.6166   60.9317   66.1986 O   0  0  0  0  0  0  0  0  0  0  0  0
  -37.9263   60.7728   64.1441 O   0  0  0  0  0  0  0  0  0  0  0  0
  -37.9255   60.3303   63.3181 H   0  0  0  0  0  0  0  0  0  0  0  0
 18 19  2  0  0  0
 18 17  1  0  0  0
 18 20  1  0  0  0
 17 16  1  0  0  0
 20 21  1  0  0  0
 16 15  1  0  0  0
 15 14  1  0  0  0
 14 13  1  0  0  0
 13 12  1  0  0  0
 12  1  1  0  0  0
  1  2  1  0  0  0
  2  3  1  0  0  0
  3  4  1  0  0  0
  4  5  1  0  0  0
  5  6  1  0  0  0
  6  7  1  0  0  0
  7  8  1  0  0  0
  8  9  1  0  0  0
  9 10  1  0  0  0
 10 11  1  0  0  0
M  END
> <minimizedAffinity>
-6.86899

> <CNNscore>
0.8097301722

> <CNNaffinity>
6.6545586586

> <CNN_VS>
5.3883967400

> <CNNaffinity_variance>
0.5061988235

$$$$
/media/chris/experiments/cd1a-new-docking/inputs/ligands/4x6d_1_ligand.pdb


 21 20  0  0  0  0  0  0  0  0999 V2000
  -44.1039   56.9621   64.9876 C   0  0  0  0  0  0  0  0  0  0  0  0
  -45.2122   57.9222   64.6331 C   0  0  0  0  0  0  0  0  0  0  0  0
  -46.5584   57.7237   65.1877 C   0  0  0  0  0  0  0  0  0  0  0  0
  -47.0382   58.5698   66.3458 C   0  0  0  0  0  0  0  0  0  0  0  0
  -48.2798   59.3639   65.9419 C   0  0  0  0  0  0  0  0  0  0  0  0
  -49.4223   58.4822   65.4452 C   0  0  0  0  0  0  0  0  0  0  0  0
  -50.0722   59.0589   64.1845 C   0  0  0  0  0  0  0  0  0  0  0  0
  -49.7471   58.3060   62.8888 C   0  0  0  0  0  0  0  0  0  0  0  0
  -50.9897   58.0970   62.0131 C   0  0  0  0  0  0  0  0  0  0  0  0
  -50.6716   57.3803   60.6984 C   0  0  0  0  0  0  0  0  0  0  0  0
  -49.4427   57.9475   59.9774 C   0  0  0  0  0  0  0  0  0  0  0  0
  -43.3503   57.5491   66.1702 C   0  0  0  0  0  0  0  0  0  0  0  0
  -42.9794   59.0029   65.9377 C   0  0  0  0  0  0  0  0  0  0  0  0
  -41.8560   59.4403   66.8728 C   0  0  0  0  0  0  0  0  0  0  0  0
  -40.6012   59.7596   66.0720 C   0  0  0  0  0  0  0  0  0  0  0  0
  -40.3965   58.7483   64.9550 C   0  0  0  0  0  0  0  0  0  0  0  0
  -39.0194   58.9039   64.3182 C   0  0  0  0  0  0  0  0  0  0  0  0
  -38.9702   60.1898   63.5162 C   0  0  0  0  0  0  0  0  0  0  0  0
  -38.1509   61.0935   63.8223 O   0  0  0  0  0  0  0  0  0  0  0  0
  -39.7496   60.3639   62.5439 O   0  0  0  0  0  0  0  0  0  0  0  0
  -40.3628   59.6953   62.3095 H   0  0  0  0  0  0  0  0  0  0  0  0
 18 19  2  0  0  0
 18 17  1  0  0  0
 18 20  1  0  0  0
 17 16  1  0  0  0
 20 21  1  0  0  0
 16 15  1  0  0  0
 15 14  1  0  0  0
 14 13  1  0  0  0
 13 12  1  0  0  0
 12  1  1  0  0  0
  1  2  1  0  0  0
  2  3  1  0  0  0
  3  4  1  0  0  0
  4  5  1  0  0  0
  5  6  1  0  0  0
  6  7  1  0  0  0
  7  8  1  0  0  0
  8  9  1  0  0  0
  9 10  1  0  0  0
 10 11  1  0  0  0
M  END
> <minimizedAffinity>
-6.38084

> <CNNscore>
0.7896539569

> <CNNaffinity>
6.6255354881

> <CNN_VS>
5.2318801880

> <CNNaffinity_variance>
0.3267897964

$$$$
/media/chris/experiments/cd1a-new-docking/inputs/ligands/4x6d_1_ligand.pdb


 21 20  0  0  0  0  0  0  0  0999 V2000
  -48.9229   58.5566   62.9789 C   0  0  0  0  0  0  0  0  0  0  0  0
  -48.9371   58.2223   64.4499 C   0  0  0  0  0  0  0  0  0  0  0  0
  -48.5410   59.2376   65.4354 C   0  0  0  0  0  0  0  0  0  0  0  0
  -47.2137   59.9507   65.3039 C   0  0  0  0  0  0  0  0  0  0  0  0
  -46.0622   58.9659   65.5023 C   0  0  0  0  0  0  0  0  0  0  0  0
  -44.7553   59.6424   65.9072 C   0  0  0  0  0  0  0  0  0  0  0  0
  -43.6354   59.3499   64.9049 C   0  0  0  0  0  0  0  0  0  0  0  0
  -42.2224   59.3402   65.5008 C   0  0  0  0  0  0  0  0  0  0  0  0
  -42.0447   60.4092   66.5872 C   0  0  0  0  0  0  0  0  0  0  0  0
  -41.1230   61.5497   66.1478 C   0  0  0  0  0  0  0  0  0  0  0  0
  -40.8859   61.5921   64.6333 C   0  0  0  0  0  0  0  0  0  0  0  0
  -50.3433   58.4007   62.4600 C   0  0  0  0  0  0  0  0  0  0  0  0
  -50.3762   57.7315   61.0976 C   0  0  0  0  0  0  0  0  0  0  0  0
  -48.9730   57.3427   60.6417 C   0  0  0  0  0  0  0  0  0  0  0  0
  -48.5763   58.1531   59.4156 C   0  0  0  0  0  0  0  0  0  0  0  0
  -47.3795   57.5295   58.7148 C   0  0  0  0  0  0  0  0  0  0  0  0
  -47.6868   56.1050   58.2649 C   0  0  0  0  0  0  0  0  0  0  0  0
  -47.6649   56.0319   56.7505 C   0  0  0  0  0  0  0  0  0  0  0  0
  -48.0957   56.9950   56.0660 O   0  0  0  0  0  0  0  0  0  0  0  0
  -47.2208   55.0084   56.1689 O   0  0  0  0  0  0  0  0  0  0  0  0
  -46.8980   54.2868   56.6719 H   0  0  0  0  0  0  0  0  0  0  0  0
 18 19  2  0  0  0
 18 17  1  0  0  0
 18 20  1  0  0  0
 17 16  1  0  0  0
 20 21  1  0  0  0
 16 15  1  0  0  0
 15 14  1  0  0  0
 14 13  1  0  0  0
 13 12  1  0  0  0
 12  1  1  0  0  0
  1  2  1  0  0  0
  2  3  1  0  0  0
  3  4  1  0  0  0
  4  5  1  0  0  0
  5  6  1  0  0  0
  6  7  1  0  0  0
  7  8  1  0  0  0
  8  9  1  0  0  0
  9 10  1  0  0  0
 10 11  1  0  0  0
M  END
> <minimizedAffinity>
-6.76151

> <CNNscore>
0.7687186599

> <CNNaffinity>
6.7271728516

> <CNN_VS>
5.1713032722

> <CNNaffinity_variance>
0.8586024046

$$$$
/media/chris/experiments/cd1a-new-docking/inputs/ligands/4x6d_1_ligand.pdb


 21 20  0  0  0  0  0  0  0  0999 V2000
  -46.2895   60.6017   65.1498 C   0  0  0  0  0  0  0  0  0  0  0  0
  -47.6421   60.0043   64.8505 C   0  0  0  0  0  0  0  0  0  0  0  0
  -48.6719   59.9620   65.8977 C   0  0  0  0  0  0  0  0  0  0  0  0
  -50.0795   59.5197   65.5654 C   0  0  0  0  0  0  0  0  0  0  0  0
  -50.6979   60.4576   64.5294 C   0  0  0  0  0  0  0  0  0  0  0  0
  -51.1454   59.7393   63.2592 C   0  0  0  0  0  0  0  0  0  0  0  0
  -50.2239   60.0560   62.0783 C   0  0  0  0  0  0  0  0  0  0  0  0
  -49.2176   58.9522   61.7309 C   0  0  0  0  0  0  0  0  0  0  0  0
  -48.8016   58.9916   60.2545 C   0  0  0  0  0  0  0  0  0  0  0  0
  -49.2252   57.7360   59.4882 C   0  0  0  0  0  0  0  0  0  0  0  0
  -49.8784   56.6711   60.3776 C   0  0  0  0  0  0  0  0  0  0  0  0
  -45.2901   59.4586   65.2233 C   0  0  0  0  0  0  0  0  0  0  0  0
  -44.7898   59.2365   66.6394 C   0  0  0  0  0  0  0  0  0  0  0  0
  -43.4257   59.8870   66.8492 C   0  0  0  0  0  0  0  0  0  0  0  0
  -42.3311   58.8291   66.8272 C   0  0  0  0  0  0  0  0  0  0  0  0
  -41.5904   58.8399   65.4992 C   0  0  0  0  0  0  0  0  0  0  0  0
  -40.2424   59.5417   65.6273 C   0  0  0  0  0  0  0  0  0  0  0  0
  -40.3856   60.9984   65.2311 C   0  0  0  0  0  0  0  0  0  0  0  0
  -40.2844   61.9016   66.1004 O   0  0  0  0  0  0  0  0  0  0  0  0
  -40.6104   61.3134   64.0339 O   0  0  0  0  0  0  0  0  0  0  0  0
  -40.6870   60.6463   63.3805 H   0  0  0  0  0  0  0  0  0  0  0  0
 18 19  2  0  0  0
 18 17  1  0  0  0
 18 20  1  0  0  0
 17 16  1  0  0  0
 20 21  1  0  0  0
 16 15  1  0  0  0
 15 14  1  0  0  0
 14 13  1  0  0  0
 13 12  1  0  0  0
 12  1  1  0  0  0
  1  2  1  0  0  0
  2  3  1  0  0  0
  3  4  1  0  0  0
  4  5  1  0  0  0
  5  6  1  0  0  0
  6  7  1  0  0  0
  7  8  1  0  0  0
  8  9  1  0  0  0
  9 10  1  0  0  0
 10 11  1  0  0  0
M  END
> <minimizedAffinity>
-6.81909

> <CNNscore>
0.7583343387

> <CNNaffinity>
6.3638315201

> <CNN_VS>
4.8259119987

> <CNNaffinity_variance>
0.3549247086

$$$$
/media/chris/experiments/cd1a-new-docking/inputs/ligands/4x6d_1_ligand.pdb


 21 20  0  0  0  0  0  0  0  0999 V2000
  -47.1376   60.2540   65.8657 C   0  0  0  0  0  0  0  0  0  0  0  0
  -47.9743   61.0787   64.9193 C   0  0  0  0  0  0  0  0  0  0  0  0
  -49.2662   60.5637   64.4454 C   0  0  0  0  0  0  0  0  0  0  0  0
  -49.5173   60.3804   62.9652 C   0  0  0  0  0  0  0  0  0  0  0  0
  -50.7739   59.5399   62.7421 C   0  0  0  0  0  0  0  0  0  0  0  0
  -50.4721   58.0720   62.4525 C   0  0  0  0  0  0  0  0  0  0  0  0
  -50.6739   57.7366   60.9723 C   0  0  0  0  0  0  0  0  0  0  0  0
  -49.5712   56.8712   60.3505 C   0  0  0  0  0  0  0  0  0  0  0  0
  -49.1671   57.3630   58.9544 C   0  0  0  0  0  0  0  0  0  0  0  0
  -47.8615   58.1621   58.9651 C   0  0  0  0  0  0  0  0  0  0  0  0
  -47.0223   57.9747   57.6953 C   0  0  0  0  0  0  0  0  0  0  0  0
  -45.8526   59.8877   65.1406 C   0  0  0  0  0  0  0  0  0  0  0  0
  -45.8451   58.4331   64.7054 C   0  0  0  0  0  0  0  0  0  0  0  0
  -44.4240   57.8797   64.6607 C   0  0  0  0  0  0  0  0  0  0  0  0
  -43.4181   59.0209   64.6026 C   0  0  0  0  0  0  0  0  0  0  0  0
  -42.2685   58.7828   65.5690 C   0  0  0  0  0  0  0  0  0  0  0  0
  -41.1295   59.7664   65.3214 C   0  0  0  0  0  0  0  0  0  0  0  0
  -41.2757   60.9599   66.2453 C   0  0  0  0  0  0  0  0  0  0  0  0
  -42.1814   60.9753   67.1178 O   0  0  0  0  0  0  0  0  0  0  0  0
  -40.4971   61.9430   66.1433 O   0  0  0  0  0  0  0  0  0  0  0  0
  -39.8198   61.9390   65.4958 H   0  0  0  0  0  0  0  0  0  0  0  0
 18 19  2  0  0  0
 18 17  1  0  0  0
 18 20  1  0  0  0
 17 16  1  0  0  0
 20 21  1  0  0  0
 16 15  1  0  0  0
 15 14  1  0  0  0
 14 13  1  0  0  0
 13 12  1  0  0  0
 12  1  1  0  0  0
  1  2  1  0  0  0
  2  3  1  0  0  0
  3  4  1  0  0  0
  4  5  1  0  0  0
  5  6  1  0  0  0
  6  7  1  0  0  0
  7  8  1  0  0  0
  8  9  1  0  0  0
  9 10  1  0  0  0
 10 11  1  0  0  0
M  END
> <minimizedAffinity>
-7.07880

> <CNNscore>
0.7440467477

> <CNNaffinity>
6.4739837646

> <CNN_VS>
4.8169465065

> <CNNaffinity_variance>
0.3160616755

$$$$
/media/chris/experiments/cd1a-new-docking/inputs/ligands/4x6d_1_ligand.pdb


 21 20  0  0  0  0  0  0  0  0999 V2000
  -42.7534   59.6879   66.9867 C   0  0  0  0  0  0  0  0  0  0  0  0
  -42.7949   58.2436   66.5527 C   0  0  0  0  0  0  0  0  0  0  0  0
  -44.0548   57.6587   66.0739 C   0  0  0  0  0  0  0  0  0  0  0  0
  -45.3801   58.2531   66.4956 C   0  0  0  0  0  0  0  0  0  0  0  0
  -46.4773   57.1907   66.4416 C   0  0  0  0  0  0  0  0  0  0  0  0
  -47.6059   57.5402   65.4753 C   0  0  0  0  0  0  0  0  0  0  0  0
  -47.7411   59.0541   65.2907 C   0  0  0  0  0  0  0  0  0  0  0  0
  -48.5237   59.4848   64.0443 C   0  0  0  0  0  0  0  0  0  0  0  0
  -49.3464   60.7569   64.2880 C   0  0  0  0  0  0  0  0  0  0  0  0
  -50.8488   60.5337   64.0968 C   0  0  0  0  0  0  0  0  0  0  0  0
  -51.1778   59.4973   63.0155 C   0  0  0  0  0  0  0  0  0  0  0  0
  -41.3497   60.2064   66.7190 C   0  0  0  0  0  0  0  0  0  0  0  0
  -40.6709   59.4435   65.5954 C   0  0  0  0  0  0  0  0  0  0  0  0
  -40.4550   60.3357   64.3767 C   0  0  0  0  0  0  0  0  0  0  0  0
  -41.4854   61.4561   64.3575 C   0  0  0  0  0  0  0  0  0  0  0  0
  -41.4664   62.1903   63.0261 C   0  0  0  0  0  0  0  0  0  0  0  0
  -41.9283   61.2825   61.8910 C   0  0  0  0  0  0  0  0  0  0  0  0
  -40.8244   61.1527   60.8595 C   0  0  0  0  0  0  0  0  0  0  0  0
  -39.6450   60.9128   61.2243 O   0  0  0  0  0  0  0  0  0  0  0  0
  -41.0785   61.2881   59.6347 O   0  0  0  0  0  0  0  0  0  0  0  0
  -41.9547   61.4668   59.3550 H   0  0  0  0  0  0  0  0  0  0  0  0
 18 19  2  0  0  0
 18 17  1  0  0  0
 18 20  1  0  0  0
 17 16  1  0  0  0
 20 21  1  0  0  0
 16 15  1  0  0  0
 15 14  1  0  0  0
 14 13  1  0  0  0
 13 12  1  0  0  0
 12  1  1  0  0  0
  1  2  1  0  0  0
  2  3  1  0  0  0
  3  4  1  0  0  0
  4  5  1  0  0  0
  5  6  1  0  0  0
  6  7  1  0  0  0
  7  8  1  0  0  0
  8  9  1  0  0  0
  9 10  1  0  0  0
 10 11  1  0  0  0
M  END
> <minimizedAffinity>
-6.32830

> <CNNscore>
0.7349511981

> <CNNaffinity>
6.3383374214

> <CNN_VS>
4.6583685875

> <CNNaffinity_variance>
0.4752985537

$$$$
