/media/chris/experiments/cd1a-new-docking/inputs/ligands/4x6d_1_ligand.pdb


 21 20  0  0  0  0  0  0  0  0999 V2000
  -47.2281   58.5972   65.8203 C   0  0  0  0  0  0  0  0  0  0  0  0
  -48.4046   58.0899   65.0239 C   0  0  0  0  0  0  0  0  0  0  0  0
  -48.5420   58.4548   63.6072 C   0  0  0  0  0  0  0  0  0  0  0  0
  -49.8907   58.8507   63.0491 C   0  0  0  0  0  0  0  0  0  0  0  0
  -49.7404   60.0306   62.0897 C   0  0  0  0  0  0  0  0  0  0  0  0
  -49.3019   59.6141   60.6882 C   0  0  0  0  0  0  0  0  0  0  0  0
  -49.9896   58.3204   60.2438 C   0  0  0  0  0  0  0  0  0  0  0  0
  -49.2233   57.5113   59.1903 C   0  0  0  0  0  0  0  0  0  0  0  0
  -47.7728   57.9876   59.0368 C   0  0  0  0  0  0  0  0  0  0  0  0
  -47.2084   57.7199   57.6391 C   0  0  0  0  0  0  0  0  0  0  0  0
  -47.4812   56.2978   57.1342 C   0  0  0  0  0  0  0  0  0  0  0  0
  -45.9732   58.3277   65.0058 C   0  0  0  0  0  0  0  0  0  0  0  0
  -45.1493   57.1971   65.5958 C   0  0  0  0  0  0  0  0  0  0  0  0
  -43.6876   57.3021   65.1711 C   0  0  0  0  0  0  0  0  0  0  0  0
  -42.8419   57.8209   66.3256 C   0  0  0  0  0  0  0  0  0  0  0  0
  -41.6499   58.6140   65.8135 C   0  0  0  0  0  0  0  0  0  0  0  0
  -41.4823   59.9169   66.5887 C   0  0  0  0  0  0  0  0  0  0  0  0
  -40.9209   60.9871   65.6730 C   0  0  0  0  0  0  0  0  0  0  0  0
  -40.4382   62.0426   66.1576 O   0  0  0  0  0  0  0  0  0  0  0  0
  -40.9379   60.8300   64.4247 O   0  0  0  0  0  0  0  0  0  0  0  0
  -41.2957   60.0464   64.0560 H   0  0  0  0  0  0  0  0  0  0  0  0
 18 19  2  0  0  0
 18 17  1  0  0  0
 18 20  1  0  0  0
 17 16  1  0  0  0
 20 21  1  0  0  0
 16 15  1  0  0  0
 15 14  1  0  0  0
 14 13  1  0  0  0
 13 12  1  0  0  0
 12  1  1  0  0  0
  1  2  1  0  0  0
  2  3  1  0  0  0
  3  4  1  0  0  0
  4  5  1  0  0  0
  5  6  1  0  0  0
  6  7  1  0  0  0
  7  8  1  0  0  0
  8  9  1  0  0  0
  9 10  1  0  0  0
 10 11  1  0  0  0
M  END
> <minimizedAffinity>
-6.94688

> <CNNscore>
0.9366932511

> <CNNaffinity>
7.0313210487

> <CNN_VS>
6.5861911774

> <CNNaffinity_variance>
0.9824305773

$$$$
/media/chris/experiments/cd1a-new-docking/inputs/ligands/4x6d_1_ligand.pdb


 21 20  0  0  0  0  0  0  0  0999 V2000
  -47.6330   60.1232   65.3975 C   0  0  0  0  0  0  0  0  0  0  0  0
  -48.0703   58.6952   65.1843 C   0  0  0  0  0  0  0  0  0  0  0  0
  -49.4151   58.4109   64.6648 C   0  0  0  0  0  0  0  0  0  0  0  0
  -50.2301   59.5081   64.0175 C   0  0  0  0  0  0  0  0  0  0  0  0
  -50.9029   58.9882   62.7477 C   0  0  0  0  0  0  0  0  0  0  0  0
  -50.0901   57.9109   62.0345 C   0  0  0  0  0  0  0  0  0  0  0  0
  -50.7742   57.4503   60.7446 C   0  0  0  0  0  0  0  0  0  0  0  0
  -49.9940   57.7482   59.4585 C   0  0  0  0  0  0  0  0  0  0  0  0
  -48.5996   58.3200   59.7465 C   0  0  0  0  0  0  0  0  0  0  0  0
  -47.5755   57.9482   58.6709 C   0  0  0  0  0  0  0  0  0  0  0  0
  -48.1812   57.1704   57.4962 C   0  0  0  0  0  0  0  0  0  0  0  0
  -46.2051   60.0920   65.9180 C   0  0  0  0  0  0  0  0  0  0  0  0
  -45.2972   59.2639   65.0262 C   0  0  0  0  0  0  0  0  0  0  0  0
  -43.8286   59.4996   65.3661 C   0  0  0  0  0  0  0  0  0  0  0  0
  -43.6616   59.6909   66.8670 C   0  0  0  0  0  0  0  0  0  0  0  0
  -42.3215   60.3339   67.1879 C   0  0  0  0  0  0  0  0  0  0  0  0
  -41.2285   59.8215   66.2558 C   0  0  0  0  0  0  0  0  0  0  0  0
  -40.4092   60.9884   65.7398 C   0  0  0  0  0  0  0  0  0  0  0  0
  -40.6345   62.1523   66.1598 O   0  0  0  0  0  0  0  0  0  0  0  0
  -39.5035   60.8024   64.8864 O   0  0  0  0  0  0  0  0  0  0  0  0
  -39.3296   59.9383   64.5686 H   0  0  0  0  0  0  0  0  0  0  0  0
 18 19  2  0  0  0
 18 17  1  0  0  0
 18 20  1  0  0  0
 17 16  1  0  0  0
 20 21  1  0  0  0
 16 15  1  0  0  0
 15 14  1  0  0  0
 14 13  1  0  0  0
 13 12  1  0  0  0
 12  1  1  0  0  0
  1  2  1  0  0  0
  2  3  1  0  0  0
  3  4  1  0  0  0
  4  5  1  0  0  0
  5  6  1  0  0  0
  6  7  1  0  0  0
  7  8  1  0  0  0
  8  9  1  0  0  0
  9 10  1  0  0  0
 10 11  1  0  0  0
M  END
> <minimizedAffinity>
-7.05628

> <CNNscore>
0.9342589378

> <CNNaffinity>
7.0151214600

> <CNN_VS>
6.5539398193

> <CNNaffinity_variance>
0.9024780393

$$$$
/media/chris/experiments/cd1a-new-docking/inputs/ligands/4x6d_1_ligand.pdb


 21 20  0  0  0  0  0  0  0  0999 V2000
  -47.0363   58.2658   65.0741 C   0  0  0  0  0  0  0  0  0  0  0  0
  -47.0187   59.7613   64.8769 C   0  0  0  0  0  0  0  0  0  0  0  0
  -48.2298   60.5494   65.1433 C   0  0  0  0  0  0  0  0  0  0  0  0
  -49.0768   61.0566   63.9975 C   0  0  0  0  0  0  0  0  0  0  0  0
  -50.5284   60.6137   64.1765 C   0  0  0  0  0  0  0  0  0  0  0  0
  -51.0644   59.8162   62.9906 C   0  0  0  0  0  0  0  0  0  0  0  0
  -50.5276   58.3824   62.9867 C   0  0  0  0  0  0  0  0  0  0  0  0
  -49.6422   58.0281   61.7859 C   0  0  0  0  0  0  0  0  0  0  0  0
  -50.4677   57.6279   60.5559 C   0  0  0  0  0  0  0  0  0  0  0  0
  -49.6105   57.4618   59.2984 C   0  0  0  0  0  0  0  0  0  0  0  0
  -48.2440   58.1506   59.3974 C   0  0  0  0  0  0  0  0  0  0  0  0
  -45.6648   57.8549   65.5850 C   0  0  0  0  0  0  0  0  0  0  0  0
  -44.5978   57.9965   64.5140 C   0  0  0  0  0  0  0  0  0  0  0  0
  -43.3036   58.5554   65.0976 C   0  0  0  0  0  0  0  0  0  0  0  0
  -43.5912   59.3004   66.3936 C   0  0  0  0  0  0  0  0  0  0  0  0
  -42.4665   60.2681   66.7262 C   0  0  0  0  0  0  0  0  0  0  0  0
  -41.1302   59.7626   66.1922 C   0  0  0  0  0  0  0  0  0  0  0  0
  -40.1938   60.9340   65.9683 C   0  0  0  0  0  0  0  0  0  0  0  0
  -39.0100   60.7329   65.5942 O   0  0  0  0  0  0  0  0  0  0  0  0
  -40.5915   62.1123   66.1591 O   0  0  0  0  0  0  0  0  0  0  0  0
  -41.4720   62.2703   66.4378 H   0  0  0  0  0  0  0  0  0  0  0  0
 18 19  2  0  0  0
 18 17  1  0  0  0
 18 20  1  0  0  0
 17 16  1  0  0  0
 20 21  1  0  0  0
 16 15  1  0  0  0
 15 14  1  0  0  0
 14 13  1  0  0  0
 13 12  1  0  0  0
 12  1  1  0  0  0
  1  2  1  0  0  0
  2  3  1  0  0  0
  3  4  1  0  0  0
  4  5  1  0  0  0
  5  6  1  0  0  0
  6  7  1  0  0  0
  7  8  1  0  0  0
  8  9  1  0  0  0
  9 10  1  0  0  0
 10 11  1  0  0  0
M  END
> <minimizedAffinity>
-6.87628

> <CNNscore>
0.8737934828

> <CNNaffinity>
6.6783361435

> <CNN_VS>
5.8354864120

> <CNNaffinity_variance>
0.5688310862

$$$$
/media/chris/experiments/cd1a-new-docking/inputs/ligands/4x6d_1_ligand.pdb


 21 20  0  0  0  0  0  0  0  0999 V2000
  -46.2797   58.7796   65.0261 C   0  0  0  0  0  0  0  0  0  0  0  0
  -47.6251   58.2927   64.5479 C   0  0  0  0  0  0  0  0  0  0  0  0
  -48.6136   57.8024   65.5181 C   0  0  0  0  0  0  0  0  0  0  0  0
  -49.9789   58.4468   65.6074 C   0  0  0  0  0  0  0  0  0  0  0  0
  -49.9173   59.8883   65.1037 C   0  0  0  0  0  0  0  0  0  0  0  0
  -51.1053   60.2693   64.2243 C   0  0  0  0  0  0  0  0  0  0  0  0
  -50.9916   59.6554   62.8264 C   0  0  0  0  0  0  0  0  0  0  0  0
  -49.8342   60.1945   61.9771 C   0  0  0  0  0  0  0  0  0  0  0  0
  -49.3189   59.1542   60.9737 C   0  0  0  0  0  0  0  0  0  0  0  0
  -50.2943   57.9909   60.7762 C   0  0  0  0  0  0  0  0  0  0  0  0
  -49.6104   56.6904   60.3373 C   0  0  0  0  0  0  0  0  0  0  0  0
  -45.5456   57.5878   65.6191 C   0  0  0  0  0  0  0  0  0  0  0  0
  -44.2934   57.2469   64.8310 C   0  0  0  0  0  0  0  0  0  0  0  0
  -43.2358   58.3364   64.9806 C   0  0  0  0  0  0  0  0  0  0  0  0
  -42.7258   58.3791   66.4143 C   0  0  0  0  0  0  0  0  0  0  0  0
  -41.8170   59.5785   66.6331 C   0  0  0  0  0  0  0  0  0  0  0  0
  -40.6051   59.5261   65.7085 C   0  0  0  0  0  0  0  0  0  0  0  0
  -40.1602   60.9355   65.3696 C   0  0  0  0  0  0  0  0  0  0  0  0
  -40.3860   61.8783   66.1708 O   0  0  0  0  0  0  0  0  0  0  0  0
  -39.5678   61.1726   64.2853 O   0  0  0  0  0  0  0  0  0  0  0  0
  -39.3958   60.4756   63.6831 H   0  0  0  0  0  0  0  0  0  0  0  0
 18 19  2  0  0  0
 18 17  1  0  0  0
 18 20  1  0  0  0
 17 16  1  0  0  0
 20 21  1  0  0  0
 16 15  1  0  0  0
 15 14  1  0  0  0
 14 13  1  0  0  0
 13 12  1  0  0  0
 12  1  1  0  0  0
  1  2  1  0  0  0
  2  3  1  0  0  0
  3  4  1  0  0  0
  4  5  1  0  0  0
  5  6  1  0  0  0
  6  7  1  0  0  0
  7  8  1  0  0  0
  8  9  1  0  0  0
  9 10  1  0  0  0
 10 11  1  0  0  0
M  END
> <minimizedAffinity>
-6.95037

> <CNNscore>
0.8666980863

> <CNNaffinity>
6.6620230675

> <CNN_VS>
5.7739624977

> <CNNaffinity_variance>
0.3478398919

$$$$
/media/chris/experiments/cd1a-new-docking/inputs/ligands/4x6d_1_ligand.pdb


 21 20  0  0  0  0  0  0  0  0999 V2000
  -44.8449   58.3251   64.7714 C   0  0  0  0  0  0  0  0  0  0  0  0
  -46.0175   59.1310   65.2727 C   0  0  0  0  0  0  0  0  0  0  0  0
  -47.3882   58.6827   64.9913 C   0  0  0  0  0  0  0  0  0  0  0  0
  -48.1868   59.3240   63.8785 C   0  0  0  0  0  0  0  0  0  0  0  0
  -49.0700   58.2821   63.1931 C   0  0  0  0  0  0  0  0  0  0  0  0
  -49.9727   58.8749   62.1144 C   0  0  0  0  0  0  0  0  0  0  0  0
  -49.2122   59.1014   60.8050 C   0  0  0  0  0  0  0  0  0  0  0  0
  -48.2080   58.0003   60.4432 C   0  0  0  0  0  0  0  0  0  0  0  0
  -48.7887   56.9937   59.4412 C   0  0  0  0  0  0  0  0  0  0  0  0
  -48.4540   57.3461   57.9894 C   0  0  0  0  0  0  0  0  0  0  0  0
  -47.0072   57.8154   57.7946 C   0  0  0  0  0  0  0  0  0  0  0  0
  -43.5773   59.0161   65.2473 C   0  0  0  0  0  0  0  0  0  0  0  0
  -43.1493   60.1241   64.3016 C   0  0  0  0  0  0  0  0  0  0  0  0
  -41.6647   60.4386   64.4589 C   0  0  0  0  0  0  0  0  0  0  0  0
  -40.9762   59.3367   65.2521 C   0  0  0  0  0  0  0  0  0  0  0  0
  -39.7339   58.8406   64.5290 C   0  0  0  0  0  0  0  0  0  0  0  0
  -38.5589   59.7900   64.7400 C   0  0  0  0  0  0  0  0  0  0  0  0
  -38.1224   60.3659   63.4070 C   0  0  0  0  0  0  0  0  0  0  0  0
  -38.6671   59.9764   62.3425 O   0  0  0  0  0  0  0  0  0  0  0  0
  -37.2111   61.2320   63.3555 O   0  0  0  0  0  0  0  0  0  0  0  0
  -36.8004   61.5274   64.1442 H   0  0  0  0  0  0  0  0  0  0  0  0
 18 19  2  0  0  0
 18 17  1  0  0  0
 18 20  1  0  0  0
 17 16  1  0  0  0
 20 21  1  0  0  0
 16 15  1  0  0  0
 15 14  1  0  0  0
 14 13  1  0  0  0
 13 12  1  0  0  0
 12  1  1  0  0  0
  1  2  1  0  0  0
  2  3  1  0  0  0
  3  4  1  0  0  0
  4  5  1  0  0  0
  5  6  1  0  0  0
  6  7  1  0  0  0
  7  8  1  0  0  0
  8  9  1  0  0  0
  9 10  1  0  0  0
 10 11  1  0  0  0
M  END
> <minimizedAffinity>
-6.20836

> <CNNscore>
0.7763465047

> <CNNaffinity>
6.6533403397

> <CNN_VS>
5.1652975082

> <CNNaffinity_variance>
0.6846029162

$$$$
/media/chris/experiments/cd1a-new-docking/inputs/ligands/4x6d_1_ligand.pdb


 21 20  0  0  0  0  0  0  0  0999 V2000
  -46.5746   59.2973   66.8852 C   0  0  0  0  0  0  0  0  0  0  0  0
  -47.5055   59.4574   65.7088 C   0  0  0  0  0  0  0  0  0  0  0  0
  -48.4395   58.3775   65.3618 C   0  0  0  0  0  0  0  0  0  0  0  0
  -48.8902   58.1900   63.9303 C   0  0  0  0  0  0  0  0  0  0  0  0
  -50.3090   58.7276   63.7479 C   0  0  0  0  0  0  0  0  0  0  0  0
  -50.6766   58.9710   62.2866 C   0  0  0  0  0  0  0  0  0  0  0  0
  -50.8834   57.6556   61.5308 C   0  0  0  0  0  0  0  0  0  0  0  0
  -50.4136   57.6693   60.0712 C   0  0  0  0  0  0  0  0  0  0  0  0
  -49.1920   56.7682   59.8476 C   0  0  0  0  0  0  0  0  0  0  0  0
  -47.8796   57.5549   59.7966 C   0  0  0  0  0  0  0  0  0  0  0  0
  -47.5149   58.0404   58.3885 C   0  0  0  0  0  0  0  0  0  0  0  0
  -45.1515   59.3932   66.3595 C   0  0  0  0  0  0  0  0  0  0  0  0
  -45.0832   60.1629   65.0525 C   0  0  0  0  0  0  0  0  0  0  0  0
  -43.7544   60.9004   64.9174 C   0  0  0  0  0  0  0  0  0  0  0  0
  -42.8992   60.2476   63.8405 C   0  0  0  0  0  0  0  0  0  0  0  0
  -41.4938   60.8282   63.8352 C   0  0  0  0  0  0  0  0  0  0  0  0
  -40.8675   60.7647   65.2245 C   0  0  0  0  0  0  0  0  0  0  0  0
  -40.6946   59.3171   65.6409 C   0  0  0  0  0  0  0  0  0  0  0  0
  -39.8812   58.5775   65.0300 O   0  0  0  0  0  0  0  0  0  0  0  0
  -41.3651   58.8446   66.5950 O   0  0  0  0  0  0  0  0  0  0  0  0
  -41.9732   59.3892   67.0551 H   0  0  0  0  0  0  0  0  0  0  0  0
 18 19  2  0  0  0
 18 17  1  0  0  0
 18 20  1  0  0  0
 17 16  1  0  0  0
 20 21  1  0  0  0
 16 15  1  0  0  0
 15 14  1  0  0  0
 14 13  1  0  0  0
 13 12  1  0  0  0
 12  1  1  0  0  0
  1  2  1  0  0  0
  2  3  1  0  0  0
  3  4  1  0  0  0
  4  5  1  0  0  0
  5  6  1  0  0  0
  6  7  1  0  0  0
  7  8  1  0  0  0
  8  9  1  0  0  0
  9 10  1  0  0  0
 10 11  1  0  0  0
M  END
> <minimizedAffinity>
-6.30523

> <CNNscore>
0.6297750473

> <CNNaffinity>
6.4637680054

> <CNN_VS>
4.0707197189

> <CNNaffinity_variance>
0.4435968399

$$$$
/media/chris/experiments/cd1a-new-docking/inputs/ligands/4x6d_1_ligand.pdb


 21 20  0  0  0  0  0  0  0  0999 V2000
  -42.0746   58.9752   66.7865 C   0  0  0  0  0  0  0  0  0  0  0  0
  -43.3168   59.8257   66.6896 C   0  0  0  0  0  0  0  0  0  0  0  0
  -44.6350   59.1866   66.5773 C   0  0  0  0  0  0  0  0  0  0  0  0
  -45.5221   59.4727   65.3862 C   0  0  0  0  0  0  0  0  0  0  0  0
  -46.0582   58.1671   64.8003 C   0  0  0  0  0  0  0  0  0  0  0  0
  -47.2244   57.5855   65.5948 C   0  0  0  0  0  0  0  0  0  0  0  0
  -48.3967   58.5670   65.6754 C   0  0  0  0  0  0  0  0  0  0  0  0
  -49.3664   58.5129   64.4887 C   0  0  0  0  0  0  0  0  0  0  0  0
  -50.4594   59.5854   64.5848 C   0  0  0  0  0  0  0  0  0  0  0  0
  -51.1779   59.8170   63.2528 C   0  0  0  0  0  0  0  0  0  0  0  0
  -50.2210   60.0408   62.0756 C   0  0  0  0  0  0  0  0  0  0  0  0
  -41.5822   58.7205   65.3711 C   0  0  0  0  0  0  0  0  0  0  0  0
  -41.0574   59.9875   64.7194 C   0  0  0  0  0  0  0  0  0  0  0  0
  -39.6138   59.8114   64.2582 C   0  0  0  0  0  0  0  0  0  0  0  0
  -39.2010   58.3506   64.3724 C   0  0  0  0  0  0  0  0  0  0  0  0
  -38.2505   57.9643   63.2502 C   0  0  0  0  0  0  0  0  0  0  0  0
  -38.1901   59.0513   62.1821 C   0  0  0  0  0  0  0  0  0  0  0  0
  -37.6365   58.4719   60.8948 C   0  0  0  0  0  0  0  0  0  0  0  0
  -36.8163   57.5193   60.9330 O   0  0  0  0  0  0  0  0  0  0  0  0
  -37.9889   58.9416   59.7820 O   0  0  0  0  0  0  0  0  0  0  0  0
  -38.5997   59.6512   59.7452 H   0  0  0  0  0  0  0  0  0  0  0  0
 18 19  2  0  0  0
 18 17  1  0  0  0
 18 20  1  0  0  0
 17 16  1  0  0  0
 20 21  1  0  0  0
 16 15  1  0  0  0
 15 14  1  0  0  0
 14 13  1  0  0  0
 13 12  1  0  0  0
 12  1  1  0  0  0
  1  2  1  0  0  0
  2  3  1  0  0  0
  3  4  1  0  0  0
  4  5  1  0  0  0
  5  6  1  0  0  0
  6  7  1  0  0  0
  7  8  1  0  0  0
  8  9  1  0  0  0
  9 10  1  0  0  0
 10 11  1  0  0  0
M  END
> <minimizedAffinity>
-6.46728

> <CNNscore>
0.6168963909

> <CNNaffinity>
6.2907099724

> <CNN_VS>
3.8807163239

> <CNNaffinity_variance>
0.4449383616

$$$$
/media/chris/experiments/cd1a-new-docking/inputs/ligands/4x6d_1_ligand.pdb


 21 20  0  0  0  0  0  0  0  0999 V2000
  -47.4328   58.8872   66.2201 C   0  0  0  0  0  0  0  0  0  0  0  0
  -46.3230   57.9741   66.6788 C   0  0  0  0  0  0  0  0  0  0  0  0
  -45.6179   57.1311   65.7036 C   0  0  0  0  0  0  0  0  0  0  0  0
  -44.4979   57.7075   64.8664 C   0  0  0  0  0  0  0  0  0  0  0  0
  -43.1464   57.2075   65.3748 C   0  0  0  0  0  0  0  0  0  0  0  0
  -42.6310   57.9888   66.5806 C   0  0  0  0  0  0  0  0  0  0  0  0
  -42.1169   59.3733   66.1773 C   0  0  0  0  0  0  0  0  0  0  0  0
  -40.8679   59.3640   65.2877 C   0  0  0  0  0  0  0  0  0  0  0  0
  -41.0642   60.1833   64.0053 C   0  0  0  0  0  0  0  0  0  0  0  0
  -42.4777   60.7585   63.8830 C   0  0  0  0  0  0  0  0  0  0  0  0
  -42.5756   61.9296   62.8978 C   0  0  0  0  0  0  0  0  0  0  0  0
  -48.4910   58.0229   65.5538 C   0  0  0  0  0  0  0  0  0  0  0  0
  -49.8730   58.6435   65.6559 C   0  0  0  0  0  0  0  0  0  0  0  0
  -49.9211   59.9976   64.9545 C   0  0  0  0  0  0  0  0  0  0  0  0
  -51.1509   60.0823   64.0613 C   0  0  0  0  0  0  0  0  0  0  0  0
  -50.7792   59.8720   62.6020 C   0  0  0  0  0  0  0  0  0  0  0  0
  -50.8900   58.4015   62.2127 C   0  0  0  0  0  0  0  0  0  0  0  0
  -49.9897   58.1183   61.0259 C   0  0  0  0  0  0  0  0  0  0  0  0
  -50.4809   57.6961   59.9478 O   0  0  0  0  0  0  0  0  0  0  0  0
  -48.7474   58.2985   61.1119 O   0  0  0  0  0  0  0  0  0  0  0  0
  -48.3739   58.6129   61.9117 H   0  0  0  0  0  0  0  0  0  0  0  0
 18 19  2  0  0  0
 18 17  1  0  0  0
 18 20  1  0  0  0
 17 16  1  0  0  0
 20 21  1  0  0  0
 16 15  1  0  0  0
 15 14  1  0  0  0
 14 13  1  0  0  0
 13 12  1  0  0  0
 12  1  1  0  0  0
  1  2  1  0  0  0
  2  3  1  0  0  0
  3  4  1  0  0  0
  4  5  1  0  0  0
  5  6  1  0  0  0
  6  7  1  0  0  0
  7  8  1  0  0  0
  8  9  1  0  0  0
  9 10  1  0  0  0
 10 11  1  0  0  0
M  END
> <minimizedAffinity>
-6.60234

> <CNNscore>
0.5273452401

> <CNNaffinity>
6.2038655281

> <CNN_VS>
3.2715790272

> <CNNaffinity_variance>
0.7299262285

$$$$
/media/chris/experiments/cd1a-new-docking/inputs/ligands/4x6d_1_ligand.pdb


 21 20  0  0  0  0  0  0  0  0999 V2000
  -47.5527   59.1354   64.7566 C   0  0  0  0  0  0  0  0  0  0  0  0
  -48.6568   59.1005   65.7840 C   0  0  0  0  0  0  0  0  0  0  0  0
  -50.0504   58.9174   65.3556 C   0  0  0  0  0  0  0  0  0  0  0  0
  -50.7904   60.0423   64.6669 C   0  0  0  0  0  0  0  0  0  0  0  0
  -50.9613   59.7309   63.1806 C   0  0  0  0  0  0  0  0  0  0  0  0
  -49.9497   60.4533   62.2947 C   0  0  0  0  0  0  0  0  0  0  0  0
  -49.3103   59.5029   61.2789 C   0  0  0  0  0  0  0  0  0  0  0  0
  -49.3305   58.0225   61.6785 C   0  0  0  0  0  0  0  0  0  0  0  0
  -49.5935   57.1025   60.4790 C   0  0  0  0  0  0  0  0  0  0  0  0
  -48.9522   57.6180   59.1880 C   0  0  0  0  0  0  0  0  0  0  0  0
  -47.4681   57.2544   59.0578 C   0  0  0  0  0  0  0  0  0  0  0  0
  -46.7833   60.4313   64.9550 C   0  0  0  0  0  0  0  0  0  0  0  0
  -45.4357   60.1927   65.6125 C   0  0  0  0  0  0  0  0  0  0  0  0
  -44.9434   58.7713   65.3575 C   0  0  0  0  0  0  0  0  0  0  0  0
  -43.6903   58.7971   64.4935 C   0  0  0  0  0  0  0  0  0  0  0  0
  -43.0347   60.1687   64.5266 C   0  0  0  0  0  0  0  0  0  0  0  0
  -41.5956   60.0785   65.0239 C   0  0  0  0  0  0  0  0  0  0  0  0
  -41.3863   61.0589   66.1615 C   0  0  0  0  0  0  0  0  0  0  0  0
  -42.1500   61.0388   67.1605 O   0  0  0  0  0  0  0  0  0  0  0  0
  -40.4525   61.9008   66.1126 O   0  0  0  0  0  0  0  0  0  0  0  0
  -39.8792   61.9221   65.3717 H   0  0  0  0  0  0  0  0  0  0  0  0
 18 19  2  0  0  0
 18 17  1  0  0  0
 18 20  1  0  0  0
 17 16  1  0  0  0
 20 21  1  0  0  0
 16 15  1  0  0  0
 15 14  1  0  0  0
 14 13  1  0  0  0
 13 12  1  0  0  0
 12  1  1  0  0  0
  1  2  1  0  0  0
  2  3  1  0  0  0
  3  4  1  0  0  0
  4  5  1  0  0  0
  5  6  1  0  0  0
  6  7  1  0  0  0
  7  8  1  0  0  0
  8  9  1  0  0  0
  9 10  1  0  0  0
 10 11  1  0  0  0
M  END
> <minimizedAffinity>
-6.72231

> <CNNscore>
0.5142127275

> <CNNaffinity>
6.3415389061

> <CNN_VS>
3.2609000206

> <CNNaffinity_variance>
0.3271971643

$$$$
