/media/chris/experiments/cd1a-new-docking/inputs/ligands/4x6d_1_ligand.pdb


 21 20  0  0  0  0  0  0  0  0999 V2000
  -48.1079   60.5052   66.0406 C   0  0  0  0  0  0  0  0  0  0  0  0
  -48.7052   59.1567   65.7233 C   0  0  0  0  0  0  0  0  0  0  0  0
  -50.1373   59.0444   65.4146 C   0  0  0  0  0  0  0  0  0  0  0  0
  -50.8307   60.1216   64.6106 C   0  0  0  0  0  0  0  0  0  0  0  0
  -51.0189   59.6637   63.1647 C   0  0  0  0  0  0  0  0  0  0  0  0
  -49.8744   60.0847   62.2468 C   0  0  0  0  0  0  0  0  0  0  0  0
  -49.1010   58.8736   61.7185 C   0  0  0  0  0  0  0  0  0  0  0  0
  -49.7842   58.1230   60.5689 C   0  0  0  0  0  0  0  0  0  0  0  0
  -48.7725   57.4194   59.6547 C   0  0  0  0  0  0  0  0  0  0  0  0
  -47.7831   58.3934   59.0093 C   0  0  0  0  0  0  0  0  0  0  0  0
  -47.0655   57.8108   57.7857 C   0  0  0  0  0  0  0  0  0  0  0  0
  -46.9228   60.7113   65.1111 C   0  0  0  0  0  0  0  0  0  0  0  0
  -45.9014   59.5956   65.2428 C   0  0  0  0  0  0  0  0  0  0  0  0
  -44.4902   60.1566   65.3903 C   0  0  0  0  0  0  0  0  0  0  0  0
  -43.7715   59.4719   66.5446 C   0  0  0  0  0  0  0  0  0  0  0  0
  -42.5625   60.2799   66.9889 C   0  0  0  0  0  0  0  0  0  0  0  0
  -41.3317   59.9295   66.1589 C   0  0  0  0  0  0  0  0  0  0  0  0
  -40.4434   61.1506   66.0224 C   0  0  0  0  0  0  0  0  0  0  0  0
  -39.1935   61.0331   66.0965 O   0  0  0  0  0  0  0  0  0  0  0  0
  -40.9487   62.2882   65.8390 O   0  0  0  0  0  0  0  0  0  0  0  0
  -41.8790   62.3840   65.7826 H   0  0  0  0  0  0  0  0  0  0  0  0
 18 19  2  0  0  0
 18 17  1  0  0  0
 18 20  1  0  0  0
 17 16  1  0  0  0
 20 21  1  0  0  0
 16 15  1  0  0  0
 15 14  1  0  0  0
 14 13  1  0  0  0
 13 12  1  0  0  0
 12  1  1  0  0  0
  1  2  1  0  0  0
  2  3  1  0  0  0
  3  4  1  0  0  0
  4  5  1  0  0  0
  5  6  1  0  0  0
  6  7  1  0  0  0
  7  8  1  0  0  0
  8  9  1  0  0  0
  9 10  1  0  0  0
 10 11  1  0  0  0
M  END
> <minimizedAffinity>
-7.29053

> <CNNscore>
0.8857341409

> <CNNaffinity>
6.5843734741

> <CNN_VS>
5.8320045471

> <CNNaffinity_variance>
0.3246396184

$$$$
/media/chris/experiments/cd1a-new-docking/inputs/ligands/4x6d_1_ligand.pdb


 21 20  0  0  0  0  0  0  0  0999 V2000
  -45.0528   57.5116   64.9672 C   0  0  0  0  0  0  0  0  0  0  0  0
  -46.3245   58.3125   64.8359 C   0  0  0  0  0  0  0  0  0  0  0  0
  -47.4291   58.0927   65.7797 C   0  0  0  0  0  0  0  0  0  0  0  0
  -48.8548   58.0170   65.2805 C   0  0  0  0  0  0  0  0  0  0  0  0
  -48.9091   58.3310   63.7859 C   0  0  0  0  0  0  0  0  0  0  0  0
  -50.3293   58.5367   63.2658 C   0  0  0  0  0  0  0  0  0  0  0  0
  -50.3490   58.7496   61.7498 C   0  0  0  0  0  0  0  0  0  0  0  0
  -50.6381   57.4896   60.9250 C   0  0  0  0  0  0  0  0  0  0  0  0
  -49.3740   56.9319   60.2574 C   0  0  0  0  0  0  0  0  0  0  0  0
  -48.4059   58.0322   59.8149 C   0  0  0  0  0  0  0  0  0  0  0  0
  -47.4447   57.5877   58.7058 C   0  0  0  0  0  0  0  0  0  0  0  0
  -44.4851   57.7774   66.3521 C   0  0  0  0  0  0  0  0  0  0  0  0
  -43.7804   59.1203   66.4250 C   0  0  0  0  0  0  0  0  0  0  0  0
  -42.3174   58.9527   66.8247 C   0  0  0  0  0  0  0  0  0  0  0  0
  -41.4779   58.5983   65.6052 C   0  0  0  0  0  0  0  0  0  0  0  0
  -40.5304   59.7328   65.2484 C   0  0  0  0  0  0  0  0  0  0  0  0
  -39.1950   59.1957   64.7437 C   0  0  0  0  0  0  0  0  0  0  0  0
  -38.0581   59.9270   65.4306 C   0  0  0  0  0  0  0  0  0  0  0  0
  -36.8699   59.5561   65.2518 O   0  0  0  0  0  0  0  0  0  0  0  0
  -38.2946   60.9050   66.1862 O   0  0  0  0  0  0  0  0  0  0  0  0
  -39.1772   61.1874   66.3244 H   0  0  0  0  0  0  0  0  0  0  0  0
 18 19  2  0  0  0
 18 17  1  0  0  0
 18 20  1  0  0  0
 17 16  1  0  0  0
 20 21  1  0  0  0
 16 15  1  0  0  0
 15 14  1  0  0  0
 14 13  1  0  0  0
 13 12  1  0  0  0
 12  1  1  0  0  0
  1  2  1  0  0  0
  2  3  1  0  0  0
  3  4  1  0  0  0
  4  5  1  0  0  0
  5  6  1  0  0  0
  6  7  1  0  0  0
  7  8  1  0  0  0
  8  9  1  0  0  0
  9 10  1  0  0  0
 10 11  1  0  0  0
M  END
> <minimizedAffinity>
-6.61288

> <CNNscore>
0.8781893849

> <CNNaffinity>
6.8318367004

> <CNN_VS>
5.9996466637

> <CNNaffinity_variance>
0.6103671789

$$$$
/media/chris/experiments/cd1a-new-docking/inputs/ligands/4x6d_1_ligand.pdb


 21 20  0  0  0  0  0  0  0  0999 V2000
  -47.4114   57.5988   65.0391 C   0  0  0  0  0  0  0  0  0  0  0  0
  -48.8353   57.9235   65.4172 C   0  0  0  0  0  0  0  0  0  0  0  0
  -49.6074   58.8791   64.6112 C   0  0  0  0  0  0  0  0  0  0  0  0
  -49.4557   58.9049   63.1067 C   0  0  0  0  0  0  0  0  0  0  0  0
  -50.7729   58.5176   62.4356 C   0  0  0  0  0  0  0  0  0  0  0  0
  -50.5802   57.7795   61.1136 C   0  0  0  0  0  0  0  0  0  0  0  0
  -49.0973   57.5656   60.7985 C   0  0  0  0  0  0  0  0  0  0  0  0
  -48.6371   58.1274   59.4479 C   0  0  0  0  0  0  0  0  0  0  0  0
  -47.4089   57.3875   58.9012 C   0  0  0  0  0  0  0  0  0  0  0  0
  -47.0859   57.7689   57.4542 C   0  0  0  0  0  0  0  0  0  0  0  0
  -47.7500   56.8518   56.4200 C   0  0  0  0  0  0  0  0  0  0  0  0
  -46.6795   57.1999   66.3103 C   0  0  0  0  0  0  0  0  0  0  0  0
  -45.1807   57.4096   66.1882 C   0  0  0  0  0  0  0  0  0  0  0  0
  -44.7844   57.7201   64.7479 C   0  0  0  0  0  0  0  0  0  0  0  0
  -43.4745   58.4953   64.7198 C   0  0  0  0  0  0  0  0  0  0  0  0
  -43.7176   59.9821   64.9265 C   0  0  0  0  0  0  0  0  0  0  0  0
  -42.4145   60.7698   64.8372 C   0  0  0  0  0  0  0  0  0  0  0  0
  -42.2308   61.2946   63.4266 C   0  0  0  0  0  0  0  0  0  0  0  0
  -43.0163   62.1638   62.9694 O   0  0  0  0  0  0  0  0  0  0  0  0
  -41.2964   60.8625   62.7032 O   0  0  0  0  0  0  0  0  0  0  0  0
  -40.7069   60.2150   63.0367 H   0  0  0  0  0  0  0  0  0  0  0  0
 18 19  2  0  0  0
 18 17  1  0  0  0
 18 20  1  0  0  0
 17 16  1  0  0  0
 20 21  1  0  0  0
 16 15  1  0  0  0
 15 14  1  0  0  0
 14 13  1  0  0  0
 13 12  1  0  0  0
 12  1  1  0  0  0
  1  2  1  0  0  0
  2  3  1  0  0  0
  3  4  1  0  0  0
  4  5  1  0  0  0
  5  6  1  0  0  0
  6  7  1  0  0  0
  7  8  1  0  0  0
  8  9  1  0  0  0
  9 10  1  0  0  0
 10 11  1  0  0  0
M  END
> <minimizedAffinity>
-6.75670

> <CNNscore>
0.8479065299

> <CNNaffinity>
6.7548723221

> <CNN_VS>
5.7275004387

> <CNNaffinity_variance>
0.4795315266

$$$$
/media/chris/experiments/cd1a-new-docking/inputs/ligands/4x6d_1_ligand.pdb


 21 20  0  0  0  0  0  0  0  0999 V2000
  -45.3110   58.8017   65.3430 C   0  0  0  0  0  0  0  0  0  0  0  0
  -46.4480   59.6665   65.8280 C   0  0  0  0  0  0  0  0  0  0  0  0
  -47.1608   60.5369   64.8829 C   0  0  0  0  0  0  0  0  0  0  0  0
  -48.5689   60.1978   64.4472 C   0  0  0  0  0  0  0  0  0  0  0  0
  -48.5974   58.8280   63.7702 C   0  0  0  0  0  0  0  0  0  0  0  0
  -49.8261   58.6180   62.8893 C   0  0  0  0  0  0  0  0  0  0  0  0
  -49.7125   59.3879   61.5708 C   0  0  0  0  0  0  0  0  0  0  0  0
  -49.6444   58.5104   60.3150 C   0  0  0  0  0  0  0  0  0  0  0  0
  -48.2141   58.3840   59.7739 C   0  0  0  0  0  0  0  0  0  0  0  0
  -48.1492   57.6156   58.4513 C   0  0  0  0  0  0  0  0  0  0  0  0
  -46.9032   57.9408   57.6187 C   0  0  0  0  0  0  0  0  0  0  0  0
  -44.0315   59.6121   65.4730 C   0  0  0  0  0  0  0  0  0  0  0  0
  -43.5645   59.7022   66.9149 C   0  0  0  0  0  0  0  0  0  0  0  0
  -42.1423   59.1708   67.0666 C   0  0  0  0  0  0  0  0  0  0  0  0
  -41.6614   58.5761   65.7503 C   0  0  0  0  0  0  0  0  0  0  0  0
  -40.3251   59.1740   65.3390 C   0  0  0  0  0  0  0  0  0  0  0  0
  -40.5020   60.2024   64.2266 C   0  0  0  0  0  0  0  0  0  0  0  0
  -40.7295   61.5743   64.8311 C   0  0  0  0  0  0  0  0  0  0  0  0
  -41.3563   62.4524   64.1850 O   0  0  0  0  0  0  0  0  0  0  0  0
  -40.2903   61.8452   65.9786 O   0  0  0  0  0  0  0  0  0  0  0  0
  -39.8224   61.1962   66.4663 H   0  0  0  0  0  0  0  0  0  0  0  0
 18 19  2  0  0  0
 18 17  1  0  0  0
 18 20  1  0  0  0
 17 16  1  0  0  0
 20 21  1  0  0  0
 16 15  1  0  0  0
 15 14  1  0  0  0
 14 13  1  0  0  0
 13 12  1  0  0  0
 12  1  1  0  0  0
  1  2  1  0  0  0
  2  3  1  0  0  0
  3  4  1  0  0  0
  4  5  1  0  0  0
  5  6  1  0  0  0
  6  7  1  0  0  0
  7  8  1  0  0  0
  8  9  1  0  0  0
  9 10  1  0  0  0
 10 11  1  0  0  0
M  END
> <minimizedAffinity>
-6.68873

> <CNNscore>
0.8432801962

> <CNNaffinity>
6.6275954247

> <CNN_VS>
5.5889201164

> <CNNaffinity_variance>
0.4652507305

$$$$
/media/chris/experiments/cd1a-new-docking/inputs/ligands/4x6d_1_ligand.pdb


 21 20  0  0  0  0  0  0  0  0999 V2000
  -48.0940   60.8333   64.8948 C   0  0  0  0  0  0  0  0  0  0  0  0
  -48.8712   59.8650   64.0379 C   0  0  0  0  0  0  0  0  0  0  0  0
  -50.3229   60.0285   63.8805 C   0  0  0  0  0  0  0  0  0  0  0  0
  -51.0417   59.3796   62.7188 C   0  0  0  0  0  0  0  0  0  0  0  0
  -50.3788   58.0493   62.3632 C   0  0  0  0  0  0  0  0  0  0  0  0
  -50.7730   57.5309   60.9828 C   0  0  0  0  0  0  0  0  0  0  0  0
  -49.5871   56.8810   60.2650 C   0  0  0  0  0  0  0  0  0  0  0  0
  -48.4651   57.8478   59.8671 C   0  0  0  0  0  0  0  0  0  0  0  0
  -47.4171   57.1796   58.9673 C   0  0  0  0  0  0  0  0  0  0  0  0
  -47.3432   57.8138   57.5759 C   0  0  0  0  0  0  0  0  0  0  0  0
  -47.6510   56.8295   56.4410 C   0  0  0  0  0  0  0  0  0  0  0  0
  -48.0333   60.2551   66.2994 C   0  0  0  0  0  0  0  0  0  0  0  0
  -46.6415   59.7561   66.6447 C   0  0  0  0  0  0  0  0  0  0  0  0
  -46.6449   58.2525   66.9034 C   0  0  0  0  0  0  0  0  0  0  0  0
  -46.4720   57.4946   65.5945 C   0  0  0  0  0  0  0  0  0  0  0  0
  -45.0511   56.9726   65.4514 C   0  0  0  0  0  0  0  0  0  0  0  0
  -44.2826   57.7538   64.3904 C   0  0  0  0  0  0  0  0  0  0  0  0
  -43.4404   58.8251   65.0552 C   0  0  0  0  0  0  0  0  0  0  0  0
  -42.7769   58.5552   66.0889 O   0  0  0  0  0  0  0  0  0  0  0  0
  -43.4027   59.9903   64.5818 O   0  0  0  0  0  0  0  0  0  0  0  0
  -43.8942   60.1992   63.8120 H   0  0  0  0  0  0  0  0  0  0  0  0
 18 19  2  0  0  0
 18 17  1  0  0  0
 18 20  1  0  0  0
 17 16  1  0  0  0
 20 21  1  0  0  0
 16 15  1  0  0  0
 15 14  1  0  0  0
 14 13  1  0  0  0
 13 12  1  0  0  0
 12  1  1  0  0  0
  1  2  1  0  0  0
  2  3  1  0  0  0
  3  4  1  0  0  0
  4  5  1  0  0  0
  5  6  1  0  0  0
  6  7  1  0  0  0
  7  8  1  0  0  0
  8  9  1  0  0  0
  9 10  1  0  0  0
 10 11  1  0  0  0
M  END
> <minimizedAffinity>
-6.96485

> <CNNscore>
0.7536518574

> <CNNaffinity>
6.5556893349

> <CNN_VS>
4.9407072067

> <CNNaffinity_variance>
0.4994100928

$$$$
/media/chris/experiments/cd1a-new-docking/inputs/ligands/4x6d_1_ligand.pdb


 21 20  0  0  0  0  0  0  0  0999 V2000
  -50.9330   60.0203   64.0456 C   0  0  0  0  0  0  0  0  0  0  0  0
  -49.9916   59.2318   64.9218 C   0  0  0  0  0  0  0  0  0  0  0  0
  -49.1642   59.9258   65.9183 C   0  0  0  0  0  0  0  0  0  0  0  0
  -47.7623   59.4422   66.2153 C   0  0  0  0  0  0  0  0  0  0  0  0
  -46.7559   60.1481   65.3075 C   0  0  0  0  0  0  0  0  0  0  0  0
  -45.4221   59.4135   65.2024 C   0  0  0  0  0  0  0  0  0  0  0  0
  -44.2467   60.3899   65.1083 C   0  0  0  0  0  0  0  0  0  0  0  0
  -43.0673   59.9001   64.2593 C   0  0  0  0  0  0  0  0  0  0  0  0
  -42.1103   61.0398   63.8854 C   0  0  0  0  0  0  0  0  0  0  0  0
  -42.5920   61.8414   62.6733 C   0  0  0  0  0  0  0  0  0  0  0  0
  -41.7881   61.5595   61.3983 C   0  0  0  0  0  0  0  0  0  0  0  0
  -50.7060   59.5729   62.6106 C   0  0  0  0  0  0  0  0  0  0  0  0
  -49.2282   59.4489   62.2850 C   0  0  0  0  0  0  0  0  0  0  0  0
  -48.9547   58.2134   61.4324 C   0  0  0  0  0  0  0  0  0  0  0  0
  -48.5950   58.6257   60.0118 C   0  0  0  0  0  0  0  0  0  0  0  0
  -48.7752   57.4649   59.0462 C   0  0  0  0  0  0  0  0  0  0  0  0
  -47.5512   57.2991   58.1514 C   0  0  0  0  0  0  0  0  0  0  0  0
  -47.8865   56.3804   56.9927 C   0  0  0  0  0  0  0  0  0  0  0  0
  -47.8470   55.1326   57.1449 O   0  0  0  0  0  0  0  0  0  0  0  0
  -48.2016   56.8579   55.8721 O   0  0  0  0  0  0  0  0  0  0  0  0
  -48.2334   57.7865   55.7508 H   0  0  0  0  0  0  0  0  0  0  0  0
 18 19  2  0  0  0
 18 17  1  0  0  0
 18 20  1  0  0  0
 17 16  1  0  0  0
 20 21  1  0  0  0
 16 15  1  0  0  0
 15 14  1  0  0  0
 14 13  1  0  0  0
 13 12  1  0  0  0
 12  1  1  0  0  0
  1  2  1  0  0  0
  2  3  1  0  0  0
  3  4  1  0  0  0
  4  5  1  0  0  0
  5  6  1  0  0  0
  6  7  1  0  0  0
  7  8  1  0  0  0
  8  9  1  0  0  0
  9 10  1  0  0  0
 10 11  1  0  0  0
M  END
> <minimizedAffinity>
-7.28018

> <CNNscore>
0.7403750420

> <CNNaffinity>
6.6559476852

> <CNN_VS>
4.9278974533

> <CNNaffinity_variance>
0.6294136047

$$$$
/media/chris/experiments/cd1a-new-docking/inputs/ligands/4x6d_1_ligand.pdb


 21 20  0  0  0  0  0  0  0  0999 V2000
  -45.5743   59.4873   65.5529 C   0  0  0  0  0  0  0  0  0  0  0  0
  -46.7671   60.3439   65.8984 C   0  0  0  0  0  0  0  0  0  0  0  0
  -47.6010   60.9047   64.8265 C   0  0  0  0  0  0  0  0  0  0  0  0
  -48.9034   60.2369   64.4452 C   0  0  0  0  0  0  0  0  0  0  0  0
  -48.6315   58.8831   63.7905 C   0  0  0  0  0  0  0  0  0  0  0  0
  -49.7516   58.4305   62.8575 C   0  0  0  0  0  0  0  0  0  0  0  0
  -49.7025   59.1700   61.5179 C   0  0  0  0  0  0  0  0  0  0  0  0
  -49.5957   58.2647   60.2847 C   0  0  0  0  0  0  0  0  0  0  0  0
  -48.1834   58.2677   59.6848 C   0  0  0  0  0  0  0  0  0  0  0  0
  -48.1126   57.5429   58.3381 C   0  0  0  0  0  0  0  0  0  0  0  0
  -46.7930   57.7727   57.5916 C   0  0  0  0  0  0  0  0  0  0  0  0
  -44.5201   60.3955   64.9409 C   0  0  0  0  0  0  0  0  0  0  0  0
  -43.1378   60.1144   65.5026 C   0  0  0  0  0  0  0  0  0  0  0  0
  -42.0770   60.1714   64.4074 C   0  0  0  0  0  0  0  0  0  0  0  0
  -42.3499   61.3421   63.4733 C   0  0  0  0  0  0  0  0  0  0  0  0
  -41.4288   61.2996   62.2642 C   0  0  0  0  0  0  0  0  0  0  0  0
  -40.1275   60.5734   62.5896 C   0  0  0  0  0  0  0  0  0  0  0  0
  -39.1765   60.6783   61.4134 C   0  0  0  0  0  0  0  0  0  0  0  0
  -37.9336   60.6442   61.6019 O   0  0  0  0  0  0  0  0  0  0  0  0
  -39.6222   60.8043   60.2435 O   0  0  0  0  0  0  0  0  0  0  0  0
  -40.5469   60.8305   60.0948 H   0  0  0  0  0  0  0  0  0  0  0  0
 18 19  2  0  0  0
 18 17  1  0  0  0
 18 20  1  0  0  0
 17 16  1  0  0  0
 20 21  1  0  0  0
 16 15  1  0  0  0
 15 14  1  0  0  0
 14 13  1  0  0  0
 13 12  1  0  0  0
 12  1  1  0  0  0
  1  2  1  0  0  0
  2  3  1  0  0  0
  3  4  1  0  0  0
  4  5  1  0  0  0
  5  6  1  0  0  0
  6  7  1  0  0  0
  7  8  1  0  0  0
  8  9  1  0  0  0
  9 10  1  0  0  0
 10 11  1  0  0  0
M  END
> <minimizedAffinity>
-6.75779

> <CNNscore>
0.7357553244

> <CNNaffinity>
6.5786690712

> <CNN_VS>
4.8402910233

> <CNNaffinity_variance>
0.5562697649

$$$$
/media/chris/experiments/cd1a-new-docking/inputs/ligands/4x6d_1_ligand.pdb


 21 20  0  0  0  0  0  0  0  0999 V2000
  -45.6318   59.8486   65.2496 C   0  0  0  0  0  0  0  0  0  0  0  0
  -46.9039   60.6588   65.2182 C   0  0  0  0  0  0  0  0  0  0  0  0
  -47.9818   60.3670   66.1732 C   0  0  0  0  0  0  0  0  0  0  0  0
  -49.3829   60.0845   65.6785 C   0  0  0  0  0  0  0  0  0  0  0  0
  -49.5475   58.5951   65.3787 C   0  0  0  0  0  0  0  0  0  0  0  0
  -50.0724   58.3192   63.9722 C   0  0  0  0  0  0  0  0  0  0  0  0
  -50.3290   59.6171   63.2017 C   0  0  0  0  0  0  0  0  0  0  0  0
  -49.5241   59.7677   61.9051 C   0  0  0  0  0  0  0  0  0  0  0  0
  -48.6334   58.5486   61.6316 C   0  0  0  0  0  0  0  0  0  0  0  0
  -48.7025   58.0821   60.1750 C   0  0  0  0  0  0  0  0  0  0  0  0
  -50.1332   57.8323   59.6829 C   0  0  0  0  0  0  0  0  0  0  0  0
  -45.6744   58.9772   66.4945 C   0  0  0  0  0  0  0  0  0  0  0  0
  -44.9495   57.6595   66.2862 C   0  0  0  0  0  0  0  0  0  0  0  0
  -43.5964   57.8761   65.6153 C   0  0  0  0  0  0  0  0  0  0  0  0
  -42.5198   58.1040   66.6673 C   0  0  0  0  0  0  0  0  0  0  0  0
  -42.0178   59.5388   66.6302 C   0  0  0  0  0  0  0  0  0  0  0  0
  -40.8327   59.6823   65.6808 C   0  0  0  0  0  0  0  0  0  0  0  0
  -40.1260   60.9982   65.9415 C   0  0  0  0  0  0  0  0  0  0  0  0
  -40.7854   62.0673   66.0027 O   0  0  0  0  0  0  0  0  0  0  0  0
  -38.8774   61.0310   66.0937 O   0  0  0  0  0  0  0  0  0  0  0  0
  -38.3792   60.2388   66.0496 H   0  0  0  0  0  0  0  0  0  0  0  0
 18 19  2  0  0  0
 18 17  1  0  0  0
 18 20  1  0  0  0
 17 16  1  0  0  0
 20 21  1  0  0  0
 16 15  1  0  0  0
 15 14  1  0  0  0
 14 13  1  0  0  0
 13 12  1  0  0  0
 12  1  1  0  0  0
  1  2  1  0  0  0
  2  3  1  0  0  0
  3  4  1  0  0  0
  4  5  1  0  0  0
  5  6  1  0  0  0
  6  7  1  0  0  0
  7  8  1  0  0  0
  8  9  1  0  0  0
  9 10  1  0  0  0
 10 11  1  0  0  0
M  END
> <minimizedAffinity>
-6.64178

> <CNNscore>
0.7318286896

> <CNNaffinity>
6.4994497299

> <CNN_VS>
4.7564835548

> <CNNaffinity_variance>
0.4318038821

$$$$
/media/chris/experiments/cd1a-new-docking/inputs/ligands/4x6d_1_ligand.pdb


 21 20  0  0  0  0  0  0  0  0999 V2000
  -51.1747   59.7454   62.8693 C   0  0  0  0  0  0  0  0  0  0  0  0
  -50.8062   60.2346   64.2480 C   0  0  0  0  0  0  0  0  0  0  0  0
  -50.2036   59.3088   65.2168 C   0  0  0  0  0  0  0  0  0  0  0  0
  -48.8119   59.5637   65.7512 C   0  0  0  0  0  0  0  0  0  0  0  0
  -47.8692   59.9453   64.6105 C   0  0  0  0  0  0  0  0  0  0  0  0
  -46.6078   60.6608   65.0865 C   0  0  0  0  0  0  0  0  0  0  0  0
  -45.4571   59.6786   65.3209 C   0  0  0  0  0  0  0  0  0  0  0  0
  -44.0624   60.3153   65.3570 C   0  0  0  0  0  0  0  0  0  0  0  0
  -43.1684   59.6904   66.4362 C   0  0  0  0  0  0  0  0  0  0  0  0
  -42.2311   58.6167   65.8772 C   0  0  0  0  0  0  0  0  0  0  0  0
  -42.8893   57.2370   65.7562 C   0  0  0  0  0  0  0  0  0  0  0  0
  -50.5886   58.3524   62.7058 C   0  0  0  0  0  0  0  0  0  0  0  0
  -50.3534   58.0066   61.2462 C   0  0  0  0  0  0  0  0  0  0  0  0
  -48.8632   57.9857   60.9192 C   0  0  0  0  0  0  0  0  0  0  0  0
  -48.6544   58.1025   59.4158 C   0  0  0  0  0  0  0  0  0  0  0  0
  -47.4009   57.3597   58.9812 C   0  0  0  0  0  0  0  0  0  0  0  0
  -47.0606   57.6604   57.5250 C   0  0  0  0  0  0  0  0  0  0  0  0
  -47.6352   56.5778   56.6324 C   0  0  0  0  0  0  0  0  0  0  0  0
  -47.5519   55.3698   56.9720 O   0  0  0  0  0  0  0  0  0  0  0  0
  -48.1941   56.8785   55.5460 O   0  0  0  0  0  0  0  0  0  0  0  0
  -48.2602   57.7763   55.2860 H   0  0  0  0  0  0  0  0  0  0  0  0
 18 19  2  0  0  0
 18 17  1  0  0  0
 18 20  1  0  0  0
 17 16  1  0  0  0
 20 21  1  0  0  0
 16 15  1  0  0  0
 15 14  1  0  0  0
 14 13  1  0  0  0
 13 12  1  0  0  0
 12  1  1  0  0  0
  1  2  1  0  0  0
  2  3  1  0  0  0
  3  4  1  0  0  0
  4  5  1  0  0  0
  5  6  1  0  0  0
  6  7  1  0  0  0
  7  8  1  0  0  0
  8  9  1  0  0  0
  9 10  1  0  0  0
 10 11  1  0  0  0
M  END
> <minimizedAffinity>
-7.39857

> <CNNscore>
0.7232422829

> <CNNaffinity>
6.7606964111

> <CNN_VS>
4.8896217346

> <CNNaffinity_variance>
0.5569441915

$$$$
