/media/chris/experiments/cd1a-new-docking/inputs/ligands/4x6d_1_ligand.pdb


 21 20  0  0  0  0  0  0  0  0999 V2000
  -47.3971   58.5897   64.5403 C   0  0  0  0  0  0  0  0  0  0  0  0
  -48.6798   58.1559   65.2055 C   0  0  0  0  0  0  0  0  0  0  0  0
  -49.7003   59.1552   65.5502 C   0  0  0  0  0  0  0  0  0  0  0  0
  -49.9983   60.2980   64.6053 C   0  0  0  0  0  0  0  0  0  0  0  0
  -51.0872   59.8931   63.6125 C   0  0  0  0  0  0  0  0  0  0  0  0
  -50.5338   59.4490   62.2611 C   0  0  0  0  0  0  0  0  0  0  0  0
  -50.8749   57.9860   61.9656 C   0  0  0  0  0  0  0  0  0  0  0  0
  -50.4841   57.5028   60.5637 C   0  0  0  0  0  0  0  0  0  0  0  0
  -49.0061   57.7703   60.2500 C   0  0  0  0  0  0  0  0  0  0  0  0
  -48.6276   57.3846   58.8176 C   0  0  0  0  0  0  0  0  0  0  0  0
  -47.3830   58.1151   58.2990 C   0  0  0  0  0  0  0  0  0  0  0  0
  -46.2493   58.1857   65.4515 C   0  0  0  0  0  0  0  0  0  0  0  0
  -44.9000   58.4079   64.7919 C   0  0  0  0  0  0  0  0  0  0  0  0
  -44.2414   59.6856   65.3033 C   0  0  0  0  0  0  0  0  0  0  0  0
  -43.8261   59.5159   66.7580 C   0  0  0  0  0  0  0  0  0  0  0  0
  -42.5618   60.3054   67.0586 C   0  0  0  0  0  0  0  0  0  0  0  0
  -41.4748   60.0157   66.0286 C   0  0  0  0  0  0  0  0  0  0  0  0
  -40.5143   61.1868   65.9570 C   0  0  0  0  0  0  0  0  0  0  0  0
  -40.9446   62.3414   65.7051 O   0  0  0  0  0  0  0  0  0  0  0  0
  -39.2823   61.0122   66.1439 O   0  0  0  0  0  0  0  0  0  0  0  0
  -38.9540   60.1550   66.3321 H   0  0  0  0  0  0  0  0  0  0  0  0
 18 19  2  0  0  0
 18 17  1  0  0  0
 18 20  1  0  0  0
 17 16  1  0  0  0
 20 21  1  0  0  0
 16 15  1  0  0  0
 15 14  1  0  0  0
 14 13  1  0  0  0
 13 12  1  0  0  0
 12  1  1  0  0  0
  1  2  1  0  0  0
  2  3  1  0  0  0
  3  4  1  0  0  0
  4  5  1  0  0  0
  5  6  1  0  0  0
  6  7  1  0  0  0
  7  8  1  0  0  0
  8  9  1  0  0  0
  9 10  1  0  0  0
 10 11  1  0  0  0
M  END
> <minimizedAffinity>
-7.09392

> <CNNscore>
0.9332432151

> <CNNaffinity>
6.9424924850

> <CNN_VS>
6.4790339470

> <CNNaffinity_variance>
0.5807443857

$$$$
/media/chris/experiments/cd1a-new-docking/inputs/ligands/4x6d_1_ligand.pdb


 21 20  0  0  0  0  0  0  0  0999 V2000
  -47.2380   56.9696   65.5737 C   0  0  0  0  0  0  0  0  0  0  0  0
  -48.3641   57.9167   65.2409 C   0  0  0  0  0  0  0  0  0  0  0  0
  -48.2063   58.8871   64.1489 C   0  0  0  0  0  0  0  0  0  0  0  0
  -48.6545   58.5374   62.7474 C   0  0  0  0  0  0  0  0  0  0  0  0
  -50.1328   58.1502   62.7462 C   0  0  0  0  0  0  0  0  0  0  0  0
  -50.6490   57.7522   61.3660 C   0  0  0  0  0  0  0  0  0  0  0  0
  -49.6203   56.9172   60.5987 C   0  0  0  0  0  0  0  0  0  0  0  0
  -49.2970   57.4277   59.1893 C   0  0  0  0  0  0  0  0  0  0  0  0
  -47.9617   58.1820   59.1387 C   0  0  0  0  0  0  0  0  0  0  0  0
  -47.0228   57.6478   58.0539 C   0  0  0  0  0  0  0  0  0  0  0  0
  -47.7538   57.1988   56.7829 C   0  0  0  0  0  0  0  0  0  0  0  0
  -46.0320   57.8101   65.9613 C   0  0  0  0  0  0  0  0  0  0  0  0
  -44.8628   57.5879   65.0186 C   0  0  0  0  0  0  0  0  0  0  0  0
  -43.8371   58.7108   65.1402 C   0  0  0  0  0  0  0  0  0  0  0  0
  -43.3602   58.8322   66.5808 C   0  0  0  0  0  0  0  0  0  0  0  0
  -42.2527   59.8670   66.7021 C   0  0  0  0  0  0  0  0  0  0  0  0
  -41.3382   59.8392   65.4817 C   0  0  0  0  0  0  0  0  0  0  0  0
  -40.8225   61.2366   65.1982 C   0  0  0  0  0  0  0  0  0  0  0  0
  -40.3758   61.9466   66.1352 O   0  0  0  0  0  0  0  0  0  0  0  0
  -40.8418   61.6970   64.0274 O   0  0  0  0  0  0  0  0  0  0  0  0
  -41.1731   61.1742   63.3238 H   0  0  0  0  0  0  0  0  0  0  0  0
 18 19  2  0  0  0
 18 17  1  0  0  0
 18 20  1  0  0  0
 17 16  1  0  0  0
 20 21  1  0  0  0
 16 15  1  0  0  0
 15 14  1  0  0  0
 14 13  1  0  0  0
 13 12  1  0  0  0
 12  1  1  0  0  0
  1  2  1  0  0  0
  2  3  1  0  0  0
  3  4  1  0  0  0
  4  5  1  0  0  0
  5  6  1  0  0  0
  6  7  1  0  0  0
  7  8  1  0  0  0
  8  9  1  0  0  0
  9 10  1  0  0  0
 10 11  1  0  0  0
M  END
> <minimizedAffinity>
-6.84874

> <CNNscore>
0.9313788414

> <CNNaffinity>
7.0364251137

> <CNN_VS>
6.5535774231

> <CNNaffinity_variance>
0.8489937782

$$$$
/media/chris/experiments/cd1a-new-docking/inputs/ligands/4x6d_1_ligand.pdb


 21 20  0  0  0  0  0  0  0  0999 V2000
  -46.7279   58.1853   65.0150 C   0  0  0  0  0  0  0  0  0  0  0  0
  -48.1400   58.0340   65.5239 C   0  0  0  0  0  0  0  0  0  0  0  0
  -49.2487   57.8786   64.5723 C   0  0  0  0  0  0  0  0  0  0  0  0
  -49.7881   59.0793   63.8274 C   0  0  0  0  0  0  0  0  0  0  0  0
  -49.5531   58.9194   62.3259 C   0  0  0  0  0  0  0  0  0  0  0  0
  -50.2998   57.7323   61.7234 C   0  0  0  0  0  0  0  0  0  0  0  0
  -49.9205   57.5137   60.2562 C   0  0  0  0  0  0  0  0  0  0  0  0
  -48.7506   58.3707   59.7577 C   0  0  0  0  0  0  0  0  0  0  0  0
  -47.5981   57.5167   59.2128 C   0  0  0  0  0  0  0  0  0  0  0  0
  -47.0885   58.0096   57.8560 C   0  0  0  0  0  0  0  0  0  0  0  0
  -47.5612   57.1485   56.6785 C   0  0  0  0  0  0  0  0  0  0  0  0
  -46.3541   59.6542   65.1310 C   0  0  0  0  0  0  0  0  0  0  0  0
  -45.0709   59.8495   65.9187 C   0  0  0  0  0  0  0  0  0  0  0  0
  -44.0570   58.7553   65.5987 C   0  0  0  0  0  0  0  0  0  0  0  0
  -43.2196   59.1528   64.3911 C   0  0  0  0  0  0  0  0  0  0  0  0
  -43.0823   60.6643   64.2978 C   0  0  0  0  0  0  0  0  0  0  0  0
  -41.9010   61.0557   63.4159 C   0  0  0  0  0  0  0  0  0  0  0  0
  -40.7419   61.5040   64.2846 C   0  0  0  0  0  0  0  0  0  0  0  0
  -40.9451   62.2670   65.2634 O   0  0  0  0  0  0  0  0  0  0  0  0
  -39.5706   61.1208   64.0308 O   0  0  0  0  0  0  0  0  0  0  0  0
  -39.4111   60.5522   63.3033 H   0  0  0  0  0  0  0  0  0  0  0  0
 18 19  2  0  0  0
 18 17  1  0  0  0
 18 20  1  0  0  0
 17 16  1  0  0  0
 20 21  1  0  0  0
 16 15  1  0  0  0
 15 14  1  0  0  0
 14 13  1  0  0  0
 13 12  1  0  0  0
 12  1  1  0  0  0
  1  2  1  0  0  0
  2  3  1  0  0  0
  3  4  1  0  0  0
  4  5  1  0  0  0
  5  6  1  0  0  0
  6  7  1  0  0  0
  7  8  1  0  0  0
  8  9  1  0  0  0
  9 10  1  0  0  0
 10 11  1  0  0  0
M  END
> <minimizedAffinity>
-6.64119

> <CNNscore>
0.9031016827

> <CNNaffinity>
7.0545043945

> <CNN_VS>
6.3709349632

> <CNNaffinity_variance>
0.5558750033

$$$$
/media/chris/experiments/cd1a-new-docking/inputs/ligands/4x6d_1_ligand.pdb


 21 20  0  0  0  0  0  0  0  0999 V2000
  -48.2789   60.5831   65.1811 C   0  0  0  0  0  0  0  0  0  0  0  0
  -49.5107   59.7672   65.4860 C   0  0  0  0  0  0  0  0  0  0  0  0
  -50.8201   60.2008   64.9798 C   0  0  0  0  0  0  0  0  0  0  0  0
  -51.1778   60.0042   63.5234 C   0  0  0  0  0  0  0  0  0  0  0  0
  -50.6049   58.6831   63.0119 C   0  0  0  0  0  0  0  0  0  0  0  0
  -50.0552   58.7762   61.5910 C   0  0  0  0  0  0  0  0  0  0  0  0
  -50.5432   57.6149   60.7207 C   0  0  0  0  0  0  0  0  0  0  0  0
  -50.0544   57.6479   59.2676 C   0  0  0  0  0  0  0  0  0  0  0  0
  -48.6602   57.0266   59.1113 C   0  0  0  0  0  0  0  0  0  0  0  0
  -48.0895   57.2040   57.7019 C   0  0  0  0  0  0  0  0  0  0  0  0
  -46.8846   58.1511   57.6475 C   0  0  0  0  0  0  0  0  0  0  0  0
  -47.0681   59.7290   65.5212 C   0  0  0  0  0  0  0  0  0  0  0  0
  -47.4428   58.5364   66.3827 C   0  0  0  0  0  0  0  0  0  0  0  0
  -46.2209   57.6776   66.6946 C   0  0  0  0  0  0  0  0  0  0  0  0
  -45.6237   57.1274   65.4070 C   0  0  0  0  0  0  0  0  0  0  0  0
  -44.1087   57.2569   65.4109 C   0  0  0  0  0  0  0  0  0  0  0  0
  -43.6589   58.4740   64.6091 C   0  0  0  0  0  0  0  0  0  0  0  0
  -42.3477   58.9951   65.1645 C   0  0  0  0  0  0  0  0  0  0  0  0
  -41.8712   58.5064   66.2208 O   0  0  0  0  0  0  0  0  0  0  0  0
  -41.7306   59.9209   64.5770 O   0  0  0  0  0  0  0  0  0  0  0  0
  -42.0791   60.2902   63.7895 H   0  0  0  0  0  0  0  0  0  0  0  0
 18 19  2  0  0  0
 18 17  1  0  0  0
 18 20  1  0  0  0
 17 16  1  0  0  0
 20 21  1  0  0  0
 16 15  1  0  0  0
 15 14  1  0  0  0
 14 13  1  0  0  0
 13 12  1  0  0  0
 12  1  1  0  0  0
  1  2  1  0  0  0
  2  3  1  0  0  0
  3  4  1  0  0  0
  4  5  1  0  0  0
  5  6  1  0  0  0
  6  7  1  0  0  0
  7  8  1  0  0  0
  8  9  1  0  0  0
  9 10  1  0  0  0
 10 11  1  0  0  0
M  END
> <minimizedAffinity>
-6.77442

> <CNNscore>
0.8633849621

> <CNNaffinity>
6.8135099411

> <CNN_VS>
5.8826818466

> <CNNaffinity_variance>
0.7490186095

$$$$
/media/chris/experiments/cd1a-new-docking/inputs/ligands/4x6d_1_ligand.pdb


 21 20  0  0  0  0  0  0  0  0999 V2000
  -48.0747   58.5429   64.9602 C   0  0  0  0  0  0  0  0  0  0  0  0
  -49.5298   58.3263   64.6259 C   0  0  0  0  0  0  0  0  0  0  0  0
  -50.3885   59.4769   64.3132 C   0  0  0  0  0  0  0  0  0  0  0  0
  -50.7635   59.7813   62.8800 C   0  0  0  0  0  0  0  0  0  0  0  0
  -49.5888   60.4350   62.1534 C   0  0  0  0  0  0  0  0  0  0  0  0
  -49.3968   59.9150   60.7312 C   0  0  0  0  0  0  0  0  0  0  0  0
  -48.7175   58.5429   60.7197 C   0  0  0  0  0  0  0  0  0  0  0  0
  -48.6815   57.8524   59.3509 C   0  0  0  0  0  0  0  0  0  0  0  0
  -47.2598   57.4392   58.9480 C   0  0  0  0  0  0  0  0  0  0  0  0
  -46.9497   57.7453   57.4804 C   0  0  0  0  0  0  0  0  0  0  0  0
  -47.7994   56.9324   56.4961 C   0  0  0  0  0  0  0  0  0  0  0  0
  -47.8954   60.0155   65.2923 C   0  0  0  0  0  0  0  0  0  0  0  0
  -46.4815   60.4900   65.0079 C   0  0  0  0  0  0  0  0  0  0  0  0
  -45.4508   59.5084   65.5576 C   0  0  0  0  0  0  0  0  0  0  0  0
  -44.0540   60.1062   65.4624 C   0  0  0  0  0  0  0  0  0  0  0  0
  -43.1567   59.5712   66.5673 C   0  0  0  0  0  0  0  0  0  0  0  0
  -42.2719   60.6740   67.1394 C   0  0  0  0  0  0  0  0  0  0  0  0
  -41.1151   60.9413   66.1962 C   0  0  0  0  0  0  0  0  0  0  0  0
  -40.4625   59.9823   65.7104 O   0  0  0  0  0  0  0  0  0  0  0  0
  -40.7973   62.1214   65.8969 O   0  0  0  0  0  0  0  0  0  0  0  0
  -41.2787   62.8413   66.2548 H   0  0  0  0  0  0  0  0  0  0  0  0
 18 19  2  0  0  0
 18 17  1  0  0  0
 18 20  1  0  0  0
 17 16  1  0  0  0
 20 21  1  0  0  0
 16 15  1  0  0  0
 15 14  1  0  0  0
 14 13  1  0  0  0
 13 12  1  0  0  0
 12  1  1  0  0  0
  1  2  1  0  0  0
  2  3  1  0  0  0
  3  4  1  0  0  0
  4  5  1  0  0  0
  5  6  1  0  0  0
  6  7  1  0  0  0
  7  8  1  0  0  0
  8  9  1  0  0  0
  9 10  1  0  0  0
 10 11  1  0  0  0
M  END
> <minimizedAffinity>
-7.21434

> <CNNscore>
0.8407621384

> <CNNaffinity>
6.6317534447

> <CNN_VS>
5.5757269859

> <CNNaffinity_variance>
0.4520033300

$$$$
/media/chris/experiments/cd1a-new-docking/inputs/ligands/4x6d_1_ligand.pdb


 21 20  0  0  0  0  0  0  0  0999 V2000
  -45.8572   58.0464   64.9936 C   0  0  0  0  0  0  0  0  0  0  0  0
  -46.8932   57.5704   65.9815 C   0  0  0  0  0  0  0  0  0  0  0  0
  -48.2549   57.2624   65.5235 C   0  0  0  0  0  0  0  0  0  0  0  0
  -49.3231   58.3331   65.5329 C   0  0  0  0  0  0  0  0  0  0  0  0
  -49.3453   59.0697   64.1942 C   0  0  0  0  0  0  0  0  0  0  0  0
  -50.7568   59.3534   63.6873 C   0  0  0  0  0  0  0  0  0  0  0  0
  -50.7363   60.1140   62.3587 C   0  0  0  0  0  0  0  0  0  0  0  0
  -49.4178   60.0195   61.5815 C   0  0  0  0  0  0  0  0  0  0  0  0
  -49.4911   58.9982   60.4386 C   0  0  0  0  0  0  0  0  0  0  0  0
  -48.2653   58.0825   60.3859 C   0  0  0  0  0  0  0  0  0  0  0  0
  -47.9947   57.5071   58.9904 C   0  0  0  0  0  0  0  0  0  0  0  0
  -45.4989   59.4777   65.3596 C   0  0  0  0  0  0  0  0  0  0  0  0
  -44.3137   59.5382   66.3065 C   0  0  0  0  0  0  0  0  0  0  0  0
  -43.5369   58.2251   66.3002 C   0  0  0  0  0  0  0  0  0  0  0  0
  -42.0431   58.4986   66.4057 C   0  0  0  0  0  0  0  0  0  0  0  0
  -41.6146   59.5696   65.4150 C   0  0  0  0  0  0  0  0  0  0  0  0
  -40.7282   60.6148   66.0844 C   0  0  0  0  0  0  0  0  0  0  0  0
  -39.2727   60.3241   65.7743 C   0  0  0  0  0  0  0  0  0  0  0  0
  -38.3742   61.1107   66.1685 O   0  0  0  0  0  0  0  0  0  0  0  0
  -38.9541   59.2989   65.1181 O   0  0  0  0  0  0  0  0  0  0  0  0
  -39.6177   58.7079   64.8209 H   0  0  0  0  0  0  0  0  0  0  0  0
 18 19  2  0  0  0
 18 17  1  0  0  0
 18 20  1  0  0  0
 17 16  1  0  0  0
 20 21  1  0  0  0
 16 15  1  0  0  0
 15 14  1  0  0  0
 14 13  1  0  0  0
 13 12  1  0  0  0
 12  1  1  0  0  0
  1  2  1  0  0  0
  2  3  1  0  0  0
  3  4  1  0  0  0
  4  5  1  0  0  0
  5  6  1  0  0  0
  6  7  1  0  0  0
  7  8  1  0  0  0
  8  9  1  0  0  0
  9 10  1  0  0  0
 10 11  1  0  0  0
M  END
> <minimizedAffinity>
-6.26012

> <CNNscore>
0.8102870584

> <CNNaffinity>
6.7098302841

> <CNN_VS>
5.4368886948

> <CNNaffinity_variance>
0.6511679292

$$$$
/media/chris/experiments/cd1a-new-docking/inputs/ligands/4x6d_1_ligand.pdb


 21 20  0  0  0  0  0  0  0  0999 V2000
  -50.0239   60.0461   65.0732 C   0  0  0  0  0  0  0  0  0  0  0  0
  -50.2642   58.8984   64.1241 C   0  0  0  0  0  0  0  0  0  0  0  0
  -49.4938   58.8064   62.8763 C   0  0  0  0  0  0  0  0  0  0  0  0
  -50.1801   58.9903   61.5411 C   0  0  0  0  0  0  0  0  0  0  0  0
  -50.4918   57.6315   60.9152 C   0  0  0  0  0  0  0  0  0  0  0  0
  -49.7768   57.4035   59.5861 C   0  0  0  0  0  0  0  0  0  0  0  0
  -48.4641   58.1879   59.5103 C   0  0  0  0  0  0  0  0  0  0  0  0
  -47.2772   57.4054   58.9355 C   0  0  0  0  0  0  0  0  0  0  0  0
  -47.0139   57.7510   57.4639 C   0  0  0  0  0  0  0  0  0  0  0  0
  -47.8615   56.9158   56.5007 C   0  0  0  0  0  0  0  0  0  0  0  0
  -47.5950   55.4092   56.6045 C   0  0  0  0  0  0  0  0  0  0  0  0
  -48.7888   59.7109   65.8938 C   0  0  0  0  0  0  0  0  0  0  0  0
  -47.7242   60.7868   65.7765 C   0  0  0  0  0  0  0  0  0  0  0  0
  -46.3833   60.1907   65.3585 C   0  0  0  0  0  0  0  0  0  0  0  0
  -46.5683   58.7491   64.9059 C   0  0  0  0  0  0  0  0  0  0  0  0
  -45.2502   57.9922   64.9476 C   0  0  0  0  0  0  0  0  0  0  0  0
  -44.6282   58.0476   66.3391 C   0  0  0  0  0  0  0  0  0  0  0  0
  -43.1350   57.8028   66.2411 C   0  0  0  0  0  0  0  0  0  0  0  0
  -42.6893   56.9278   65.4554 O   0  0  0  0  0  0  0  0  0  0  0  0
  -42.3331   58.4681   66.9463 O   0  0  0  0  0  0  0  0  0  0  0  0
  -42.6574   59.1218   67.5341 H   0  0  0  0  0  0  0  0  0  0  0  0
 18 19  2  0  0  0
 18 17  1  0  0  0
 18 20  1  0  0  0
 17 16  1  0  0  0
 20 21  1  0  0  0
 16 15  1  0  0  0
 15 14  1  0  0  0
 14 13  1  0  0  0
 13 12  1  0  0  0
 12  1  1  0  0  0
  1  2  1  0  0  0
  2  3  1  0  0  0
  3  4  1  0  0  0
  4  5  1  0  0  0
  5  6  1  0  0  0
  6  7  1  0  0  0
  7  8  1  0  0  0
  8  9  1  0  0  0
  9 10  1  0  0  0
 10 11  1  0  0  0
M  END
> <minimizedAffinity>
-7.02042

> <CNNscore>
0.7695983648

> <CNNaffinity>
6.7013444901

> <CNN_VS>
5.1573438644

> <CNNaffinity_variance>
0.5446252227

$$$$
/media/chris/experiments/cd1a-new-docking/inputs/ligands/4x6d_1_ligand.pdb


 21 20  0  0  0  0  0  0  0  0999 V2000
  -46.5193   57.9126   65.0869 C   0  0  0  0  0  0  0  0  0  0  0  0
  -47.4763   58.8232   64.3582 C   0  0  0  0  0  0  0  0  0  0  0  0
  -48.8779   58.9095   64.7906 C   0  0  0  0  0  0  0  0  0  0  0  0
  -49.9959   58.6057   63.8184 C   0  0  0  0  0  0  0  0  0  0  0  0
  -49.4236   58.0878   62.4995 C   0  0  0  0  0  0  0  0  0  0  0  0
  -50.4979   57.7513   61.4688 C   0  0  0  0  0  0  0  0  0  0  0  0
  -49.9373   57.7691   60.0441 C   0  0  0  0  0  0  0  0  0  0  0  0
  -48.4273   57.5222   59.9418 C   0  0  0  0  0  0  0  0  0  0  0  0
  -47.7610   58.4313   58.9007 C   0  0  0  0  0  0  0  0  0  0  0  0
  -46.8626   57.6589   57.9313 C   0  0  0  0  0  0  0  0  0  0  0  0
  -47.6207   57.0724   56.7343 C   0  0  0  0  0  0  0  0  0  0  0  0
  -45.1093   58.3934   64.7842 C   0  0  0  0  0  0  0  0  0  0  0  0
  -44.9549   59.8828   65.0350 C   0  0  0  0  0  0  0  0  0  0  0  0
  -43.4832   60.2807   65.0962 C   0  0  0  0  0  0  0  0  0  0  0  0
  -42.8787   60.2715   63.6991 C   0  0  0  0  0  0  0  0  0  0  0  0
  -42.2085   61.6004   63.3874 C   0  0  0  0  0  0  0  0  0  0  0  0
  -42.3197   61.9376   61.9041 C   0  0  0  0  0  0  0  0  0  0  0  0
  -41.1427   61.3427   61.1556 C   0  0  0  0  0  0  0  0  0  0  0  0
  -40.2012   60.8004   61.7889 O   0  0  0  0  0  0  0  0  0  0  0  0
  -41.0971   61.3911   59.8992 O   0  0  0  0  0  0  0  0  0  0  0  0
  -41.7947   61.7935   59.4202 H   0  0  0  0  0  0  0  0  0  0  0  0
 18 19  2  0  0  0
 18 17  1  0  0  0
 18 20  1  0  0  0
 17 16  1  0  0  0
 20 21  1  0  0  0
 16 15  1  0  0  0
 15 14  1  0  0  0
 14 13  1  0  0  0
 13 12  1  0  0  0
 12  1  1  0  0  0
  1  2  1  0  0  0
  2  3  1  0  0  0
  3  4  1  0  0  0
  4  5  1  0  0  0
  5  6  1  0  0  0
  6  7  1  0  0  0
  7  8  1  0  0  0
  8  9  1  0  0  0
  9 10  1  0  0  0
 10 11  1  0  0  0
M  END
> <minimizedAffinity>
-7.11384

> <CNNscore>
0.7581394315

> <CNNaffinity>
6.6878271103

> <CNN_VS>
5.0703053474

> <CNNaffinity_variance>
0.3627962768

$$$$
/media/chris/experiments/cd1a-new-docking/inputs/ligands/4x6d_1_ligand.pdb


 21 20  0  0  0  0  0  0  0  0999 V2000
  -49.7642   59.6528   62.0487 C   0  0  0  0  0  0  0  0  0  0  0  0
  -50.0033   60.5964   63.2012 C   0  0  0  0  0  0  0  0  0  0  0  0
  -50.7561   60.1397   64.3776 C   0  0  0  0  0  0  0  0  0  0  0  0
  -50.0250   59.6780   65.6185 C   0  0  0  0  0  0  0  0  0  0  0  0
  -49.7563   58.1754   65.5457 C   0  0  0  0  0  0  0  0  0  0  0  0
  -48.2717   57.8263   65.6081 C   0  0  0  0  0  0  0  0  0  0  0  0
  -47.3929   59.0538   65.3528 C   0  0  0  0  0  0  0  0  0  0  0  0
  -46.4471   59.4206   66.5029 C   0  0  0  0  0  0  0  0  0  0  0  0
  -44.9716   59.2713   66.1093 C   0  0  0  0  0  0  0  0  0  0  0  0
  -44.7830   58.4672   64.8203 C   0  0  0  0  0  0  0  0  0  0  0  0
  -44.2390   57.0534   65.0585 C   0  0  0  0  0  0  0  0  0  0  0  0
  -50.8247   58.5659   62.1190 C   0  0  0  0  0  0  0  0  0  0  0  0
  -50.6714   57.5545   60.9972 C   0  0  0  0  0  0  0  0  0  0  0  0
  -49.2039   57.3618   60.6269 C   0  0  0  0  0  0  0  0  0  0  0  0
  -48.9921   57.6595   59.1491 C   0  0  0  0  0  0  0  0  0  0  0  0
  -47.5944   57.2553   58.7073 C   0  0  0  0  0  0  0  0  0  0  0  0
  -47.4017   57.4873   57.2122 C   0  0  0  0  0  0  0  0  0  0  0  0
  -47.9244   56.2925   56.4386 C   0  0  0  0  0  0  0  0  0  0  0  0
  -47.2132   55.2632   56.3109 O   0  0  0  0  0  0  0  0  0  0  0  0
  -49.0686   56.3234   55.9162 O   0  0  0  0  0  0  0  0  0  0  0  0
  -49.6046   57.0867   56.0069 H   0  0  0  0  0  0  0  0  0  0  0  0
 18 19  2  0  0  0
 18 17  1  0  0  0
 18 20  1  0  0  0
 17 16  1  0  0  0
 20 21  1  0  0  0
 16 15  1  0  0  0
 15 14  1  0  0  0
 14 13  1  0  0  0
 13 12  1  0  0  0
 12  1  1  0  0  0
  1  2  1  0  0  0
  2  3  1  0  0  0
  3  4  1  0  0  0
  4  5  1  0  0  0
  5  6  1  0  0  0
  6  7  1  0  0  0
  7  8  1  0  0  0
  8  9  1  0  0  0
  9 10  1  0  0  0
 10 11  1  0  0  0
M  END
> <minimizedAffinity>
-7.21260

> <CNNscore>
0.6836933494

> <CNNaffinity>
6.7291731834

> <CNN_VS>
4.6006908417

> <CNNaffinity_variance>
0.3676241636

$$$$
