/media/chris/experiments/cd1a-new-docking/inputs/ligands/4x6d_1_ligand.pdb


 21 20  0  0  0  0  0  0  0  0999 V2000
  -46.7846   58.3635   64.6465 C   0  0  0  0  0  0  0  0  0  0  0  0
  -48.2602   58.5558   64.8943 C   0  0  0  0  0  0  0  0  0  0  0  0
  -49.1395   58.9726   63.7933 C   0  0  0  0  0  0  0  0  0  0  0  0
  -49.3019   58.0942   62.5729 C   0  0  0  0  0  0  0  0  0  0  0  0
  -49.1415   58.9235   61.2993 C   0  0  0  0  0  0  0  0  0  0  0  0
  -49.5971   58.1883   60.0416 C   0  0  0  0  0  0  0  0  0  0  0  0
  -49.2287   56.7032   60.0923 C   0  0  0  0  0  0  0  0  0  0  0  0
  -48.2578   56.2415   58.9987 C   0  0  0  0  0  0  0  0  0  0  0  0
  -47.1221   57.2477   58.7703 C   0  0  0  0  0  0  0  0  0  0  0  0
  -47.0854   57.7808   57.3358 C   0  0  0  0  0  0  0  0  0  0  0  0
  -47.7037   56.8200   56.3129 C   0  0  0  0  0  0  0  0  0  0  0  0
  -46.1845   57.7555   65.9040 C   0  0  0  0  0  0  0  0  0  0  0  0
  -45.4294   58.7862   66.7242 C   0  0  0  0  0  0  0  0  0  0  0  0
  -44.2173   59.3144   65.9628 C   0  0  0  0  0  0  0  0  0  0  0  0
  -42.9773   58.5100   66.3274 C   0  0  0  0  0  0  0  0  0  0  0  0
  -41.8508   59.4235   66.7842 C   0  0  0  0  0  0  0  0  0  0  0  0
  -40.9113   59.7575   65.6300 C   0  0  0  0  0  0  0  0  0  0  0  0
  -40.1886   61.0585   65.9200 C   0  0  0  0  0  0  0  0  0  0  0  0
  -40.8348   62.1340   66.0047 O   0  0  0  0  0  0  0  0  0  0  0  0
  -38.9398   61.0726   66.0733 O   0  0  0  0  0  0  0  0  0  0  0  0
  -38.4513   60.2753   66.0117 H   0  0  0  0  0  0  0  0  0  0  0  0
 18 19  2  0  0  0
 18 17  1  0  0  0
 18 20  1  0  0  0
 17 16  1  0  0  0
 20 21  1  0  0  0
 16 15  1  0  0  0
 15 14  1  0  0  0
 14 13  1  0  0  0
 13 12  1  0  0  0
 12  1  1  0  0  0
  1  2  1  0  0  0
  2  3  1  0  0  0
  3  4  1  0  0  0
  4  5  1  0  0  0
  5  6  1  0  0  0
  6  7  1  0  0  0
  7  8  1  0  0  0
  8  9  1  0  0  0
  9 10  1  0  0  0
 10 11  1  0  0  0
M  END
> <minimizedAffinity>
-6.94618

> <CNNscore>
0.9577686787

> <CNNaffinity>
7.0129613876

> <CNN_VS>
6.7167949677

> <CNNaffinity_variance>
0.8621857762

$$$$
/media/chris/experiments/cd1a-new-docking/inputs/ligands/4x6d_1_ligand.pdb


 21 20  0  0  0  0  0  0  0  0999 V2000
  -47.6955   59.8084   66.3471 C   0  0  0  0  0  0  0  0  0  0  0  0
  -48.3083   58.8358   65.3702 C   0  0  0  0  0  0  0  0  0  0  0  0
  -49.7665   58.7957   65.1939 C   0  0  0  0  0  0  0  0  0  0  0  0
  -50.5301   60.0596   64.8670 C   0  0  0  0  0  0  0  0  0  0  0  0
  -51.1773   59.9445   63.4874 C   0  0  0  0  0  0  0  0  0  0  0  0
  -50.1645   59.9504   62.3456 C   0  0  0  0  0  0  0  0  0  0  0  0
  -50.2521   58.6719   61.5078 C   0  0  0  0  0  0  0  0  0  0  0  0
  -48.9005   58.0839   61.0848 C   0  0  0  0  0  0  0  0  0  0  0  0
  -48.7617   57.9902   59.5595 C   0  0  0  0  0  0  0  0  0  0  0  0
  -47.3388   57.6394   59.1168 C   0  0  0  0  0  0  0  0  0  0  0  0
  -47.0854   57.8916   57.6255 C   0  0  0  0  0  0  0  0  0  0  0  0
  -46.2025   59.5267   66.3982 C   0  0  0  0  0  0  0  0  0  0  0  0
  -45.4699   60.1505   65.2238 C   0  0  0  0  0  0  0  0  0  0  0  0
  -43.9601   60.1271   65.4420 C   0  0  0  0  0  0  0  0  0  0  0  0
  -43.6408   59.6413   66.8489 C   0  0  0  0  0  0  0  0  0  0  0  0
  -42.2677   60.1215   67.2920 C   0  0  0  0  0  0  0  0  0  0  0  0
  -41.2222   59.8715   66.2099 C   0  0  0  0  0  0  0  0  0  0  0  0
  -40.3528   61.1029   66.0459 C   0  0  0  0  0  0  0  0  0  0  0  0
  -40.8798   62.2217   65.8181 O   0  0  0  0  0  0  0  0  0  0  0  0
  -39.1006   61.0141   66.1317 O   0  0  0  0  0  0  0  0  0  0  0  0
  -38.7003   60.1840   66.3012 H   0  0  0  0  0  0  0  0  0  0  0  0
 18 19  2  0  0  0
 18 17  1  0  0  0
 18 20  1  0  0  0
 17 16  1  0  0  0
 20 21  1  0  0  0
 16 15  1  0  0  0
 15 14  1  0  0  0
 14 13  1  0  0  0
 13 12  1  0  0  0
 12  1  1  0  0  0
  1  2  1  0  0  0
  2  3  1  0  0  0
  3  4  1  0  0  0
  4  5  1  0  0  0
  5  6  1  0  0  0
  6  7  1  0  0  0
  7  8  1  0  0  0
  8  9  1  0  0  0
  9 10  1  0  0  0
 10 11  1  0  0  0
M  END
> <minimizedAffinity>
-7.26189

> <CNNscore>
0.9417006373

> <CNNaffinity>
6.8249025345

> <CNN_VS>
6.4270153046

> <CNNaffinity_variance>
0.4597913623

$$$$
/media/chris/experiments/cd1a-new-docking/inputs/ligands/4x6d_1_ligand.pdb


 21 20  0  0  0  0  0  0  0  0999 V2000
  -45.6624   60.3017   65.2049 C   0  0  0  0  0  0  0  0  0  0  0  0
  -47.0657   60.7642   64.9005 C   0  0  0  0  0  0  0  0  0  0  0  0
  -48.2086   59.9008   65.2281 C   0  0  0  0  0  0  0  0  0  0  0  0
  -49.0575   59.3086   64.1254 C   0  0  0  0  0  0  0  0  0  0  0  0
  -49.2189   60.3130   62.9850 C   0  0  0  0  0  0  0  0  0  0  0  0
  -49.9054   59.7226   61.7562 C   0  0  0  0  0  0  0  0  0  0  0  0
  -50.7299   58.4827   62.1125 C   0  0  0  0  0  0  0  0  0  0  0  0
  -50.8414   57.4390   60.9946 C   0  0  0  0  0  0  0  0  0  0  0  0
  -50.2661   57.9490   59.6667 C   0  0  0  0  0  0  0  0  0  0  0  0
  -49.1276   57.0711   59.1407 C   0  0  0  0  0  0  0  0  0  0  0  0
  -47.7340   57.6378   59.4386 C   0  0  0  0  0  0  0  0  0  0  0  0
  -45.7652   58.9559   65.9042 C   0  0  0  0  0  0  0  0  0  0  0  0
  -44.9754   57.8811   65.1788 C   0  0  0  0  0  0  0  0  0  0  0  0
  -43.5665   58.3634   64.8468 C   0  0  0  0  0  0  0  0  0  0  0  0
  -42.6369   58.1204   66.0275 C   0  0  0  0  0  0  0  0  0  0  0  0
  -41.4515   59.0721   65.9918 C   0  0  0  0  0  0  0  0  0  0  0  0
  -41.9022   60.5186   66.1672 C   0  0  0  0  0  0  0  0  0  0  0  0
  -40.7861   61.4555   65.7479 C   0  0  0  0  0  0  0  0  0  0  0  0
  -41.0254   62.4133   64.9689 O   0  0  0  0  0  0  0  0  0  0  0  0
  -39.6144   61.2795   66.1713 O   0  0  0  0  0  0  0  0  0  0  0  0
  -39.4280   60.5681   66.7520 H   0  0  0  0  0  0  0  0  0  0  0  0
 18 19  2  0  0  0
 18 17  1  0  0  0
 18 20  1  0  0  0
 17 16  1  0  0  0
 20 21  1  0  0  0
 16 15  1  0  0  0
 15 14  1  0  0  0
 14 13  1  0  0  0
 13 12  1  0  0  0
 12  1  1  0  0  0
  1  2  1  0  0  0
  2  3  1  0  0  0
  3  4  1  0  0  0
  4  5  1  0  0  0
  5  6  1  0  0  0
  6  7  1  0  0  0
  7  8  1  0  0  0
  8  9  1  0  0  0
  9 10  1  0  0  0
 10 11  1  0  0  0
M  END
> <minimizedAffinity>
-6.78703

> <CNNscore>
0.8199008107

> <CNNaffinity>
6.6936621666

> <CNN_VS>
5.4881391525

> <CNNaffinity_variance>
0.6257267594

$$$$
/media/chris/experiments/cd1a-new-docking/inputs/ligands/4x6d_1_ligand.pdb


 21 20  0  0  0  0  0  0  0  0999 V2000
  -48.3017   58.5898   65.8539 C   0  0  0  0  0  0  0  0  0  0  0  0
  -49.6951   58.5167   65.2805 C   0  0  0  0  0  0  0  0  0  0  0  0
  -50.4851   59.7448   65.1170 C   0  0  0  0  0  0  0  0  0  0  0  0
  -51.0543   60.1108   63.7644 C   0  0  0  0  0  0  0  0  0  0  0  0
  -50.7677   59.0021   62.7525 C   0  0  0  0  0  0  0  0  0  0  0  0
  -49.8767   59.4559   61.5993 C   0  0  0  0  0  0  0  0  0  0  0  0
  -48.9580   58.3290   61.1197 C   0  0  0  0  0  0  0  0  0  0  0  0
  -48.2113   58.6179   59.8118 C   0  0  0  0  0  0  0  0  0  0  0  0
  -48.5366   57.5900   58.7200 C   0  0  0  0  0  0  0  0  0  0  0  0
  -47.4609   57.5230   57.6330 C   0  0  0  0  0  0  0  0  0  0  0  0
  -47.9374   56.8391   56.3457 C   0  0  0  0  0  0  0  0  0  0  0  0
  -47.3858   59.1248   64.7649 C   0  0  0  0  0  0  0  0  0  0  0  0
  -46.7836   60.4665   65.1426 C   0  0  0  0  0  0  0  0  0  0  0  0
  -45.2628   60.4400   65.0232 C   0  0  0  0  0  0  0  0  0  0  0  0
  -44.6605   59.6386   66.1688 C   0  0  0  0  0  0  0  0  0  0  0  0
  -43.1516   59.5242   66.0186 C   0  0  0  0  0  0  0  0  0  0  0  0
  -42.4338   60.5692   66.8666 C   0  0  0  0  0  0  0  0  0  0  0  0
  -41.1027   60.9171   66.2293 C   0  0  0  0  0  0  0  0  0  0  0  0
  -40.2752   60.0091   65.9607 O   0  0  0  0  0  0  0  0  0  0  0  0
  -40.8149   62.1141   65.9693 O   0  0  0  0  0  0  0  0  0  0  0  0
  -41.4262   62.7964   66.1665 H   0  0  0  0  0  0  0  0  0  0  0  0
 18 19  2  0  0  0
 18 17  1  0  0  0
 18 20  1  0  0  0
 17 16  1  0  0  0
 20 21  1  0  0  0
 16 15  1  0  0  0
 15 14  1  0  0  0
 14 13  1  0  0  0
 13 12  1  0  0  0
 12  1  1  0  0  0
  1  2  1  0  0  0
  2  3  1  0  0  0
  3  4  1  0  0  0
  4  5  1  0  0  0
  5  6  1  0  0  0
  6  7  1  0  0  0
  7  8  1  0  0  0
  8  9  1  0  0  0
  9 10  1  0  0  0
 10 11  1  0  0  0
M  END
> <minimizedAffinity>
-7.16211

> <CNNscore>
0.7859681249

> <CNNaffinity>
6.6161956787

> <CNN_VS>
5.2001190186

> <CNNaffinity_variance>
0.5791754723

$$$$
/media/chris/experiments/cd1a-new-docking/inputs/ligands/4x6d_1_ligand.pdb


 21 20  0  0  0  0  0  0  0  0999 V2000
  -44.4179   57.1710   65.1316 C   0  0  0  0  0  0  0  0  0  0  0  0
  -45.4014   57.5268   66.2187 C   0  0  0  0  0  0  0  0  0  0  0  0
  -46.8427   57.3639   65.9843 C   0  0  0  0  0  0  0  0  0  0  0  0
  -47.7010   58.5633   65.6491 C   0  0  0  0  0  0  0  0  0  0  0  0
  -48.4207   58.3433   64.3190 C   0  0  0  0  0  0  0  0  0  0  0  0
  -49.7430   59.0992   64.2185 C   0  0  0  0  0  0  0  0  0  0  0  0
  -50.5498   58.6629   62.9926 C   0  0  0  0  0  0  0  0  0  0  0  0
  -49.8226   57.6931   62.0533 C   0  0  0  0  0  0  0  0  0  0  0  0
  -50.5653   57.5087   60.7233 C   0  0  0  0  0  0  0  0  0  0  0  0
  -49.8165   58.1249   59.5388 C   0  0  0  0  0  0  0  0  0  0  0  0
  -48.3118   57.8290   59.5488 C   0  0  0  0  0  0  0  0  0  0  0  0
  -43.9896   58.4657   64.4597 C   0  0  0  0  0  0  0  0  0  0  0  0
  -42.6223   58.9231   64.9358 C   0  0  0  0  0  0  0  0  0  0  0  0
  -42.6637   60.3698   65.4189 C   0  0  0  0  0  0  0  0  0  0  0  0
  -42.7131   61.3189   64.2297 C   0  0  0  0  0  0  0  0  0  0  0  0
  -41.6105   60.9996   63.2325 C   0  0  0  0  0  0  0  0  0  0  0  0
  -42.0059   61.4227   61.8214 C   0  0  0  0  0  0  0  0  0  0  0  0
  -40.8503   61.1751   60.8715 C   0  0  0  0  0  0  0  0  0  0  0  0
  -39.7609   60.7226   61.3075 O   0  0  0  0  0  0  0  0  0  0  0  0
  -40.9707   61.4239   59.6440 O   0  0  0  0  0  0  0  0  0  0  0  0
  -41.7792   61.7612   59.3115 H   0  0  0  0  0  0  0  0  0  0  0  0
 18 19  2  0  0  0
 18 17  1  0  0  0
 18 20  1  0  0  0
 17 16  1  0  0  0
 20 21  1  0  0  0
 16 15  1  0  0  0
 15 14  1  0  0  0
 14 13  1  0  0  0
 13 12  1  0  0  0
 12  1  1  0  0  0
  1  2  1  0  0  0
  2  3  1  0  0  0
  3  4  1  0  0  0
  4  5  1  0  0  0
  5  6  1  0  0  0
  6  7  1  0  0  0
  7  8  1  0  0  0
  8  9  1  0  0  0
  9 10  1  0  0  0
 10 11  1  0  0  0
M  END
> <minimizedAffinity>
-6.61954

> <CNNscore>
0.7782214880

> <CNNaffinity>
6.5920867920

> <CNN_VS>
5.1301035881

> <CNNaffinity_variance>
0.4860325456

$$$$
/media/chris/experiments/cd1a-new-docking/inputs/ligands/4x6d_1_ligand.pdb


 21 20  0  0  0  0  0  0  0  0999 V2000
  -46.1606   59.6070   65.1305 C   0  0  0  0  0  0  0  0  0  0  0  0
  -47.2019   60.6372   65.4914 C   0  0  0  0  0  0  0  0  0  0  0  0
  -47.9682   61.3065   64.4313 C   0  0  0  0  0  0  0  0  0  0  0  0
  -49.2864   60.7307   63.9640 C   0  0  0  0  0  0  0  0  0  0  0  0
  -49.1174   60.0616   62.6005 C   0  0  0  0  0  0  0  0  0  0  0  0
  -49.2801   58.5448   62.6506 C   0  0  0  0  0  0  0  0  0  0  0  0
  -50.7038   58.1182   62.2829 C   0  0  0  0  0  0  0  0  0  0  0  0
  -50.8550   57.5154   60.8810 C   0  0  0  0  0  0  0  0  0  0  0  0
  -49.5653   56.8372   60.4002 C   0  0  0  0  0  0  0  0  0  0  0  0
  -49.1288   57.3153   59.0129 C   0  0  0  0  0  0  0  0  0  0  0  0
  -47.8280   58.1273   59.0299 C   0  0  0  0  0  0  0  0  0  0  0  0
  -44.7979   60.2047   65.4415 C   0  0  0  0  0  0  0  0  0  0  0  0
  -43.6688   59.2631   65.0625 C   0  0  0  0  0  0  0  0  0  0  0  0
  -42.6804   59.0982   66.2131 C   0  0  0  0  0  0  0  0  0  0  0  0
  -42.2510   60.4621   66.7354 C   0  0  0  0  0  0  0  0  0  0  0  0
  -40.9529   60.9107   66.0829 C   0  0  0  0  0  0  0  0  0  0  0  0
  -40.1358   59.7148   65.6048 C   0  0  0  0  0  0  0  0  0  0  0  0
  -38.6568   60.0191   65.7426 C   0  0  0  0  0  0  0  0  0  0  0  0
  -38.2807   61.1282   66.2009 O   0  0  0  0  0  0  0  0  0  0  0  0
  -37.7968   59.1685   65.3961 O   0  0  0  0  0  0  0  0  0  0  0  0
  -38.0691   58.3398   65.0537 H   0  0  0  0  0  0  0  0  0  0  0  0
 18 19  2  0  0  0
 18 17  1  0  0  0
 18 20  1  0  0  0
 17 16  1  0  0  0
 20 21  1  0  0  0
 16 15  1  0  0  0
 15 14  1  0  0  0
 14 13  1  0  0  0
 13 12  1  0  0  0
 12  1  1  0  0  0
  1  2  1  0  0  0
  2  3  1  0  0  0
  3  4  1  0  0  0
  4  5  1  0  0  0
  5  6  1  0  0  0
  6  7  1  0  0  0
  7  8  1  0  0  0
  8  9  1  0  0  0
  9 10  1  0  0  0
 10 11  1  0  0  0
M  END
> <minimizedAffinity>
-6.74870

> <CNNscore>
0.7572072148

> <CNNaffinity>
6.3559412956

> <CNN_VS>
4.8127646446

> <CNNaffinity_variance>
0.6503430605

$$$$
/media/chris/experiments/cd1a-new-docking/inputs/ligands/4x6d_1_ligand.pdb


 21 20  0  0  0  0  0  0  0  0999 V2000
  -47.9854   60.7464   64.7307 C   0  0  0  0  0  0  0  0  0  0  0  0
  -49.0833   60.9634   63.7192 C   0  0  0  0  0  0  0  0  0  0  0  0
  -50.4115   60.3760   63.9426 C   0  0  0  0  0  0  0  0  0  0  0  0
  -51.1166   59.6387   62.8261 C   0  0  0  0  0  0  0  0  0  0  0  0
  -50.5703   58.2167   62.7037 C   0  0  0  0  0  0  0  0  0  0  0  0
  -50.5551   57.6998   61.2677 C   0  0  0  0  0  0  0  0  0  0  0  0
  -49.6350   58.5384   60.3765 C   0  0  0  0  0  0  0  0  0  0  0  0
  -49.1024   57.8127   59.1350 C   0  0  0  0  0  0  0  0  0  0  0  0
  -47.5792   57.9385   58.9997 C   0  0  0  0  0  0  0  0  0  0  0  0
  -47.1019   57.8007   57.5517 C   0  0  0  0  0  0  0  0  0  0  0  0
  -48.0150   56.9195   56.6906 C   0  0  0  0  0  0  0  0  0  0  0  0
  -48.2708   59.4335   65.4419 C   0  0  0  0  0  0  0  0  0  0  0  0
  -47.5589   58.2669   64.7805 C   0  0  0  0  0  0  0  0  0  0  0  0
  -47.3244   57.1316   65.7724 C   0  0  0  0  0  0  0  0  0  0  0  0
  -45.8881   57.1632   66.2760 C   0  0  0  0  0  0  0  0  0  0  0  0
  -44.9068   57.2450   65.1173 C   0  0  0  0  0  0  0  0  0  0  0  0
  -43.5694   57.8226   65.5692 C   0  0  0  0  0  0  0  0  0  0  0  0
  -43.3793   59.2013   64.9672 C   0  0  0  0  0  0  0  0  0  0  0  0
  -44.3377   60.0150   64.9388 O   0  0  0  0  0  0  0  0  0  0  0  0
  -42.2657   59.5390   64.4889 O   0  0  0  0  0  0  0  0  0  0  0  0
  -41.5467   58.9383   64.5063 H   0  0  0  0  0  0  0  0  0  0  0  0
 18 19  2  0  0  0
 18 17  1  0  0  0
 18 20  1  0  0  0
 17 16  1  0  0  0
 20 21  1  0  0  0
 16 15  1  0  0  0
 15 14  1  0  0  0
 14 13  1  0  0  0
 13 12  1  0  0  0
 12  1  1  0  0  0
  1  2  1  0  0  0
  2  3  1  0  0  0
  3  4  1  0  0  0
  4  5  1  0  0  0
  5  6  1  0  0  0
  6  7  1  0  0  0
  7  8  1  0  0  0
  8  9  1  0  0  0
  9 10  1  0  0  0
 10 11  1  0  0  0
M  END
> <minimizedAffinity>
-6.93047

> <CNNscore>
0.7331224680

> <CNNaffinity>
6.5672049522

> <CNN_VS>
4.8145656586

> <CNNaffinity_variance>
0.4491342902

$$$$
/media/chris/experiments/cd1a-new-docking/inputs/ligands/4x6d_1_ligand.pdb


 21 20  0  0  0  0  0  0  0  0999 V2000
  -51.0887   59.8410   63.0293 C   0  0  0  0  0  0  0  0  0  0  0  0
  -50.8662   60.2301   64.4698 C   0  0  0  0  0  0  0  0  0  0  0  0
  -50.0925   59.3491   65.3553 C   0  0  0  0  0  0  0  0  0  0  0  0
  -48.8422   59.8598   66.0361 C   0  0  0  0  0  0  0  0  0  0  0  0
  -47.8237   60.3210   64.9942 C   0  0  0  0  0  0  0  0  0  0  0  0
  -46.4146   59.7968   65.2577 C   0  0  0  0  0  0  0  0  0  0  0  0
  -46.3161   58.2908   64.9999 C   0  0  0  0  0  0  0  0  0  0  0  0
  -45.0027   57.8311   64.3555 C   0  0  0  0  0  0  0  0  0  0  0  0
  -43.9843   57.3491   65.3970 C   0  0  0  0  0  0  0  0  0  0  0  0
  -42.7082   58.1947   65.4102 C   0  0  0  0  0  0  0  0  0  0  0  0
  -42.3341   58.7111   66.8049 C   0  0  0  0  0  0  0  0  0  0  0  0
  -50.5488   58.4316   62.8471 C   0  0  0  0  0  0  0  0  0  0  0  0
  -49.3223   58.4084   61.9525 C   0  0  0  0  0  0  0  0  0  0  0  0
  -49.4651   57.3631   60.8502 C   0  0  0  0  0  0  0  0  0  0  0  0
  -49.2635   58.0081   59.4862 C   0  0  0  0  0  0  0  0  0  0  0  0
  -47.8196   57.8737   59.0286 C   0  0  0  0  0  0  0  0  0  0  0  0
  -47.7436   57.4776   57.5577 C   0  0  0  0  0  0  0  0  0  0  0  0
  -47.5423   55.9792   57.4422 C   0  0  0  0  0  0  0  0  0  0  0  0
  -47.4895   55.4350   56.3097 O   0  0  0  0  0  0  0  0  0  0  0  0
  -47.4316   55.2702   58.4757 O   0  0  0  0  0  0  0  0  0  0  0  0
  -47.4700   55.6682   59.3232 H   0  0  0  0  0  0  0  0  0  0  0  0
 18 19  2  0  0  0
 18 17  1  0  0  0
 18 20  1  0  0  0
 17 16  1  0  0  0
 20 21  1  0  0  0
 16 15  1  0  0  0
 15 14  1  0  0  0
 14 13  1  0  0  0
 13 12  1  0  0  0
 12  1  1  0  0  0
  1  2  1  0  0  0
  2  3  1  0  0  0
  3  4  1  0  0  0
  4  5  1  0  0  0
  5  6  1  0  0  0
  6  7  1  0  0  0
  7  8  1  0  0  0
  8  9  1  0  0  0
  9 10  1  0  0  0
 10 11  1  0  0  0
M  END
> <minimizedAffinity>
-7.23787

> <CNNscore>
0.6966464520

> <CNNaffinity>
6.7991166115

> <CNN_VS>
4.7365803719

> <CNNaffinity_variance>
0.5047758818

$$$$
/media/chris/experiments/cd1a-new-docking/inputs/ligands/4x6d_1_ligand.pdb


 21 20  0  0  0  0  0  0  0  0999 V2000
  -44.1268   58.3419   64.8104 C   0  0  0  0  0  0  0  0  0  0  0  0
  -45.2402   59.3247   65.0753 C   0  0  0  0  0  0  0  0  0  0  0  0
  -46.6385   58.9166   64.8830 C   0  0  0  0  0  0  0  0  0  0  0  0
  -47.5922   58.8860   66.0564 C   0  0  0  0  0  0  0  0  0  0  0  0
  -48.8727   58.1427   65.6780 C   0  0  0  0  0  0  0  0  0  0  0  0
  -49.2442   58.2960   64.2055 C   0  0  0  0  0  0  0  0  0  0  0  0
  -50.4490   59.2227   64.0217 C   0  0  0  0  0  0  0  0  0  0  0  0
  -51.0308   59.2509   62.6031 C   0  0  0  0  0  0  0  0  0  0  0  0
  -50.7148   57.9685   61.8221 C   0  0  0  0  0  0  0  0  0  0  0  0
  -50.0074   58.2460   60.4931 C   0  0  0  0  0  0  0  0  0  0  0  0
  -48.4950   57.9975   60.5447 C   0  0  0  0  0  0  0  0  0  0  0  0
  -42.8142   59.1047   64.8892 C   0  0  0  0  0  0  0  0  0  0  0  0
  -42.9657   60.5391   64.4152 C   0  0  0  0  0  0  0  0  0  0  0  0
  -41.9867   60.8522   63.2876 C   0  0  0  0  0  0  0  0  0  0  0  0
  -40.5855   61.0493   63.8490 C   0  0  0  0  0  0  0  0  0  0  0  0
  -39.6310   59.9941   63.3128 C   0  0  0  0  0  0  0  0  0  0  0  0
  -38.4593   60.6357   62.5766 C   0  0  0  0  0  0  0  0  0  0  0  0
  -38.5828   60.3682   61.0892 C   0  0  0  0  0  0  0  0  0  0  0  0
  -39.5898   60.7763   60.4561 O   0  0  0  0  0  0  0  0  0  0  0  0
  -37.6833   59.7337   60.4797 O   0  0  0  0  0  0  0  0  0  0  0  0
  -36.9300   59.4262   60.9444 H   0  0  0  0  0  0  0  0  0  0  0  0
 18 19  2  0  0  0
 18 17  1  0  0  0
 18 20  1  0  0  0
 17 16  1  0  0  0
 20 21  1  0  0  0
 16 15  1  0  0  0
 15 14  1  0  0  0
 14 13  1  0  0  0
 13 12  1  0  0  0
 12  1  1  0  0  0
  1  2  1  0  0  0
  2  3  1  0  0  0
  3  4  1  0  0  0
  4  5  1  0  0  0
  5  6  1  0  0  0
  6  7  1  0  0  0
  7  8  1  0  0  0
  8  9  1  0  0  0
  9 10  1  0  0  0
 10 11  1  0  0  0
M  END
> <minimizedAffinity>
-6.43545

> <CNNscore>
0.6891872287

> <CNNaffinity>
6.4843583107

> <CNN_VS>
4.4689369202

> <CNNaffinity_variance>
1.0248283148

$$$$
