/media/chris/experiments/cd1a-new-docking/inputs/ligands/4x6d_1_ligand.pdb


 21 20  0  0  0  0  0  0  0  0999 V2000
  -48.1415   58.3769   64.6328 C   0  0  0  0  0  0  0  0  0  0  0  0
  -49.6453   58.4333   64.7386 C   0  0  0  0  0  0  0  0  0  0  0  0
  -50.4179   59.2287   63.7745 C   0  0  0  0  0  0  0  0  0  0  0  0
  -50.7670   58.6553   62.4192 C   0  0  0  0  0  0  0  0  0  0  0  0
  -49.7818   59.1558   61.3636 C   0  0  0  0  0  0  0  0  0  0  0  0
  -48.8328   58.0698   60.8639 C   0  0  0  0  0  0  0  0  0  0  0  0
  -48.0905   58.5087   59.5987 C   0  0  0  0  0  0  0  0  0  0  0  0
  -47.4335   57.3706   58.8085 C   0  0  0  0  0  0  0  0  0  0  0  0
  -47.0627   57.7953   57.3815 C   0  0  0  0  0  0  0  0  0  0  0  0
  -47.6925   56.8953   56.3152 C   0  0  0  0  0  0  0  0  0  0  0  0
  -47.6603   55.4059   56.6790 C   0  0  0  0  0  0  0  0  0  0  0  0
  -47.5887   58.2252   66.0408 C   0  0  0  0  0  0  0  0  0  0  0  0
  -46.1163   57.8547   66.0322 C   0  0  0  0  0  0  0  0  0  0  0  0
  -45.2766   58.9215   66.7284 C   0  0  0  0  0  0  0  0  0  0  0  0
  -44.4467   59.6857   65.7063 C   0  0  0  0  0  0  0  0  0  0  0  0
  -42.9619   59.4281   65.9089 C   0  0  0  0  0  0  0  0  0  0  0  0
  -42.2923   60.6005   66.6184 C   0  0  0  0  0  0  0  0  0  0  0  0
  -40.9369   60.8687   65.9937 C   0  0  0  0  0  0  0  0  0  0  0  0
  -40.3865   61.9903   66.1376 O   0  0  0  0  0  0  0  0  0  0  0  0
  -40.3563   59.9751   65.3245 O   0  0  0  0  0  0  0  0  0  0  0  0
  -40.7600   59.1369   65.2128 H   0  0  0  0  0  0  0  0  0  0  0  0
 18 19  2  0  0  0
 18 17  1  0  0  0
 18 20  1  0  0  0
 17 16  1  0  0  0
 20 21  1  0  0  0
 16 15  1  0  0  0
 15 14  1  0  0  0
 14 13  1  0  0  0
 13 12  1  0  0  0
 12  1  1  0  0  0
  1  2  1  0  0  0
  2  3  1  0  0  0
  3  4  1  0  0  0
  4  5  1  0  0  0
  5  6  1  0  0  0
  6  7  1  0  0  0
  7  8  1  0  0  0
  8  9  1  0  0  0
  9 10  1  0  0  0
 10 11  1  0  0  0
M  END
> <minimizedAffinity>
-7.16064

> <CNNscore>
0.9619345069

> <CNNaffinity>
7.1201043129

> <CNN_VS>
6.8490738869

> <CNNaffinity_variance>
0.8556361198

$$$$
/media/chris/experiments/cd1a-new-docking/inputs/ligands/4x6d_1_ligand.pdb


 21 20  0  0  0  0  0  0  0  0999 V2000
  -47.7015   60.4558   65.6476 C   0  0  0  0  0  0  0  0  0  0  0  0
  -48.8393   59.5288   65.9968 C   0  0  0  0  0  0  0  0  0  0  0  0
  -50.1760   59.7658   65.4348 C   0  0  0  0  0  0  0  0  0  0  0  0
  -50.3366   60.5641   64.1602 C   0  0  0  0  0  0  0  0  0  0  0  0
  -51.1778   59.7844   63.1503 C   0  0  0  0  0  0  0  0  0  0  0  0
  -50.5281   58.4754   62.7096 C   0  0  0  0  0  0  0  0  0  0  0  0
  -49.0937   58.6948   62.2211 C   0  0  0  0  0  0  0  0  0  0  0  0
  -48.9646   59.0383   60.7322 C   0  0  0  0  0  0  0  0  0  0  0  0
  -48.2334   57.9419   59.9463 C   0  0  0  0  0  0  0  0  0  0  0  0
  -47.6685   58.4463   58.6158 C   0  0  0  0  0  0  0  0  0  0  0  0
  -46.9792   57.3513   57.7927 C   0  0  0  0  0  0  0  0  0  0  0  0
  -46.4218   59.8309   66.1795 C   0  0  0  0  0  0  0  0  0  0  0  0
  -45.4741   59.4442   65.0581 C   0  0  0  0  0  0  0  0  0  0  0  0
  -44.0520   59.9107   65.3546 C   0  0  0  0  0  0  0  0  0  0  0  0
  -43.7310   59.7110   66.8293 C   0  0  0  0  0  0  0  0  0  0  0  0
  -42.4116   60.3734   67.1935 C   0  0  0  0  0  0  0  0  0  0  0  0
  -41.2788   59.8664   66.3070 C   0  0  0  0  0  0  0  0  0  0  0  0
  -40.3029   60.9937   66.0311 C   0  0  0  0  0  0  0  0  0  0  0  0
  -40.6710   62.1903   66.1499 O   0  0  0  0  0  0  0  0  0  0  0  0
  -39.1220   60.7412   65.6777 O   0  0  0  0  0  0  0  0  0  0  0  0
  -38.8401   59.8522   65.5869 H   0  0  0  0  0  0  0  0  0  0  0  0
 18 19  2  0  0  0
 18 17  1  0  0  0
 18 20  1  0  0  0
 17 16  1  0  0  0
 20 21  1  0  0  0
 16 15  1  0  0  0
 15 14  1  0  0  0
 14 13  1  0  0  0
 13 12  1  0  0  0
 12  1  1  0  0  0
  1  2  1  0  0  0
  2  3  1  0  0  0
  3  4  1  0  0  0
  4  5  1  0  0  0
  5  6  1  0  0  0
  6  7  1  0  0  0
  7  8  1  0  0  0
  8  9  1  0  0  0
  9 10  1  0  0  0
 10 11  1  0  0  0
M  END
> <minimizedAffinity>
-7.15549

> <CNNscore>
0.9021098614

> <CNNaffinity>
6.6997957230

> <CNN_VS>
6.0439519882

> <CNNaffinity_variance>
0.4661931992

$$$$
/media/chris/experiments/cd1a-new-docking/inputs/ligands/4x6d_1_ligand.pdb


 21 20  0  0  0  0  0  0  0  0999 V2000
  -48.5650   58.9150   65.7486 C   0  0  0  0  0  0  0  0  0  0  0  0
  -50.0190   59.0326   65.3639 C   0  0  0  0  0  0  0  0  0  0  0  0
  -50.4346   60.0292   64.3674 C   0  0  0  0  0  0  0  0  0  0  0  0
  -51.0549   59.5878   63.0605 C   0  0  0  0  0  0  0  0  0  0  0  0
  -50.5122   58.2184   62.6535 C   0  0  0  0  0  0  0  0  0  0  0  0
  -51.1721   57.6597   61.3957 C   0  0  0  0  0  0  0  0  0  0  0  0
  -50.1588   56.9445   60.4980 C   0  0  0  0  0  0  0  0  0  0  0  0
  -49.6739   57.7612   59.2940 C   0  0  0  0  0  0  0  0  0  0  0  0
  -48.2257   58.2387   59.4637 C   0  0  0  0  0  0  0  0  0  0  0  0
  -47.2167   57.3236   58.7649 C   0  0  0  0  0  0  0  0  0  0  0  0
  -46.8094   57.8180   57.3715 C   0  0  0  0  0  0  0  0  0  0  0  0
  -47.7545   59.6801   64.7148 C   0  0  0  0  0  0  0  0  0  0  0  0
  -46.5944   60.4277   65.3477 C   0  0  0  0  0  0  0  0  0  0  0  0
  -45.4800   59.4691   65.7566 C   0  0  0  0  0  0  0  0  0  0  0  0
  -44.1215   60.0750   65.4324 C   0  0  0  0  0  0  0  0  0  0  0  0
  -43.0564   59.5672   66.3913 C   0  0  0  0  0  0  0  0  0  0  0  0
  -42.2255   60.7180   66.9495 C   0  0  0  0  0  0  0  0  0  0  0  0
  -40.9902   60.9182   66.0931 C   0  0  0  0  0  0  0  0  0  0  0  0
  -40.5847   59.9927   65.3443 O   0  0  0  0  0  0  0  0  0  0  0  0
  -40.3607   62.0070   66.1286 O   0  0  0  0  0  0  0  0  0  0  0  0
  -40.6566   62.7013   66.6840 H   0  0  0  0  0  0  0  0  0  0  0  0
 18 19  2  0  0  0
 18 17  1  0  0  0
 18 20  1  0  0  0
 17 16  1  0  0  0
 20 21  1  0  0  0
 16 15  1  0  0  0
 15 14  1  0  0  0
 14 13  1  0  0  0
 13 12  1  0  0  0
 12  1  1  0  0  0
  1  2  1  0  0  0
  2  3  1  0  0  0
  3  4  1  0  0  0
  4  5  1  0  0  0
  5  6  1  0  0  0
  6  7  1  0  0  0
  7  8  1  0  0  0
  8  9  1  0  0  0
  9 10  1  0  0  0
 10 11  1  0  0  0
M  END
> <minimizedAffinity>
-7.39229

> <CNNscore>
0.9006652832

> <CNNaffinity>
6.8868966103

> <CNN_VS>
6.2027888298

> <CNNaffinity_variance>
0.8084621429

$$$$
/media/chris/experiments/cd1a-new-docking/inputs/ligands/4x6d_1_ligand.pdb


 21 20  0  0  0  0  0  0  0  0999 V2000
  -44.8061   57.6557   66.2681 C   0  0  0  0  0  0  0  0  0  0  0  0
  -46.2488   58.0373   66.0475 C   0  0  0  0  0  0  0  0  0  0  0  0
  -46.7925   59.2449   66.6839 C   0  0  0  0  0  0  0  0  0  0  0  0
  -48.1600   59.7615   66.2957 C   0  0  0  0  0  0  0  0  0  0  0  0
  -48.8892   58.7317   65.4337 C   0  0  0  0  0  0  0  0  0  0  0  0
  -50.3954   58.9675   65.3599 C   0  0  0  0  0  0  0  0  0  0  0  0
  -50.7247   60.2979   64.6774 C   0  0  0  0  0  0  0  0  0  0  0  0
  -51.1106   60.1858   63.1975 C   0  0  0  0  0  0  0  0  0  0  0  0
  -51.1394   58.7294   62.7153 C   0  0  0  0  0  0  0  0  0  0  0  0
  -50.0734   58.4372   61.6561 C   0  0  0  0  0  0  0  0  0  0  0  0
  -50.5817   57.5585   60.5068 C   0  0  0  0  0  0  0  0  0  0  0  0
  -44.0688   57.8742   64.9567 C   0  0  0  0  0  0  0  0  0  0  0  0
  -43.5031   59.2795   64.8547 C   0  0  0  0  0  0  0  0  0  0  0  0
  -43.0442   59.7879   66.2181 C   0  0  0  0  0  0  0  0  0  0  0  0
  -41.5731   59.4597   66.4325 C   0  0  0  0  0  0  0  0  0  0  0  0
  -40.7273   59.9724   65.2776 C   0  0  0  0  0  0  0  0  0  0  0  0
  -39.8606   58.8608   64.6951 C   0  0  0  0  0  0  0  0  0  0  0  0
  -38.7775   59.4627   63.8211 C   0  0  0  0  0  0  0  0  0  0  0  0
  -38.2906   58.7974   62.8714 O   0  0  0  0  0  0  0  0  0  0  0  0
  -38.3555   60.6274   64.0417 O   0  0  0  0  0  0  0  0  0  0  0  0
  -38.7133   61.1294   64.7474 H   0  0  0  0  0  0  0  0  0  0  0  0
 18 19  2  0  0  0
 18 17  1  0  0  0
 18 20  1  0  0  0
 17 16  1  0  0  0
 20 21  1  0  0  0
 16 15  1  0  0  0
 15 14  1  0  0  0
 14 13  1  0  0  0
 13 12  1  0  0  0
 12  1  1  0  0  0
  1  2  1  0  0  0
  2  3  1  0  0  0
  3  4  1  0  0  0
  4  5  1  0  0  0
  5  6  1  0  0  0
  6  7  1  0  0  0
  7  8  1  0  0  0
  8  9  1  0  0  0
  9 10  1  0  0  0
 10 11  1  0  0  0
M  END
> <minimizedAffinity>
-6.18704

> <CNNscore>
0.8355919123

> <CNNaffinity>
6.5621423721

> <CNN_VS>
5.4832730293

> <CNNaffinity_variance>
0.2610355020

$$$$
/media/chris/experiments/cd1a-new-docking/inputs/ligands/4x6d_1_ligand.pdb


 21 20  0  0  0  0  0  0  0  0999 V2000
  -45.2856   58.4825   65.0675 C   0  0  0  0  0  0  0  0  0  0  0  0
  -46.7361   58.3421   64.6774 C   0  0  0  0  0  0  0  0  0  0  0  0
  -47.5991   59.5302   64.6266 C   0  0  0  0  0  0  0  0  0  0  0  0
  -48.8081   59.5560   63.7183 C   0  0  0  0  0  0  0  0  0  0  0  0
  -48.9533   58.2188   62.9930 C   0  0  0  0  0  0  0  0  0  0  0  0
  -50.2097   58.1358   62.1304 C   0  0  0  0  0  0  0  0  0  0  0  0
  -49.8727   57.8041   60.6742 C   0  0  0  0  0  0  0  0  0  0  0  0
  -48.7788   58.6787   60.0497 C   0  0  0  0  0  0  0  0  0  0  0  0
  -47.8200   57.8663   59.1694 C   0  0  0  0  0  0  0  0  0  0  0  0
  -48.5233   57.2147   57.9759 C   0  0  0  0  0  0  0  0  0  0  0  0
  -47.5964   56.9791   56.7772 C   0  0  0  0  0  0  0  0  0  0  0  0
  -45.0051   59.9638   65.2626 C   0  0  0  0  0  0  0  0  0  0  0  0
  -43.5193   60.2432   65.4025 C   0  0  0  0  0  0  0  0  0  0  0  0
  -43.0272   59.9115   66.8081 C   0  0  0  0  0  0  0  0  0  0  0  0
  -41.8686   58.9263   66.7395 C   0  0  0  0  0  0  0  0  0  0  0  0
  -41.4502   58.6778   65.2989 C   0  0  0  0  0  0  0  0  0  0  0  0
  -40.0017   59.0957   65.0673 C   0  0  0  0  0  0  0  0  0  0  0  0
  -39.9639   60.4009   64.2965 C   0  0  0  0  0  0  0  0  0  0  0  0
  -39.6764   60.4026   63.0722 O   0  0  0  0  0  0  0  0  0  0  0  0
  -40.2147   61.4896   64.8753 O   0  0  0  0  0  0  0  0  0  0  0  0
  -40.4297   61.4966   65.7873 H   0  0  0  0  0  0  0  0  0  0  0  0
 18 19  2  0  0  0
 18 17  1  0  0  0
 18 20  1  0  0  0
 17 16  1  0  0  0
 20 21  1  0  0  0
 16 15  1  0  0  0
 15 14  1  0  0  0
 14 13  1  0  0  0
 13 12  1  0  0  0
 12  1  1  0  0  0
  1  2  1  0  0  0
  2  3  1  0  0  0
  3  4  1  0  0  0
  4  5  1  0  0  0
  5  6  1  0  0  0
  6  7  1  0  0  0
  7  8  1  0  0  0
  8  9  1  0  0  0
  9 10  1  0  0  0
 10 11  1  0  0  0
M  END
> <minimizedAffinity>
-6.61496

> <CNNscore>
0.8031790853

> <CNNaffinity>
6.6663908958

> <CNN_VS>
5.3543057442

> <CNNaffinity_variance>
0.3066010773

$$$$
/media/chris/experiments/cd1a-new-docking/inputs/ligands/4x6d_1_ligand.pdb


 21 20  0  0  0  0  0  0  0  0999 V2000
  -49.9616   58.5749   63.8135 C   0  0  0  0  0  0  0  0  0  0  0  0
  -48.5761   59.1520   63.6612 C   0  0  0  0  0  0  0  0  0  0  0  0
  -47.4394   58.5172   64.3422 C   0  0  0  0  0  0  0  0  0  0  0  0
  -46.5002   59.3448   65.1910 C   0  0  0  0  0  0  0  0  0  0  0  0
  -45.6476   58.4362   66.0759 C   0  0  0  0  0  0  0  0  0  0  0  0
  -45.3032   57.1042   65.4149 C   0  0  0  0  0  0  0  0  0  0  0  0
  -43.7985   56.9716   65.1649 C   0  0  0  0  0  0  0  0  0  0  0  0
  -42.9079   57.6424   66.2177 C   0  0  0  0  0  0  0  0  0  0  0  0
  -41.8638   58.5721   65.5854 C   0  0  0  0  0  0  0  0  0  0  0  0
  -42.3268   60.0303   65.5324 C   0  0  0  0  0  0  0  0  0  0  0  0
  -42.9289   60.4293   64.1797 C   0  0  0  0  0  0  0  0  0  0  0  0
  -50.6665   58.7164   62.4741 C   0  0  0  0  0  0  0  0  0  0  0  0
  -49.7638   59.3393   61.4242 C   0  0  0  0  0  0  0  0  0  0  0  0
  -49.6644   58.4513   60.1875 C   0  0  0  0  0  0  0  0  0  0  0  0
  -48.2125   58.0740   59.9278 C   0  0  0  0  0  0  0  0  0  0  0  0
  -48.1204   56.8597   59.0173 C   0  0  0  0  0  0  0  0  0  0  0  0
  -47.3261   57.1783   57.7548 C   0  0  0  0  0  0  0  0  0  0  0  0
  -47.7810   56.2761   56.6242 C   0  0  0  0  0  0  0  0  0  0  0  0
  -47.7066   55.0265   56.7451 O   0  0  0  0  0  0  0  0  0  0  0  0
  -48.2308   56.7695   55.5577 O   0  0  0  0  0  0  0  0  0  0  0  0
  -48.2893   57.6995   55.4600 H   0  0  0  0  0  0  0  0  0  0  0  0
 18 19  2  0  0  0
 18 17  1  0  0  0
 18 20  1  0  0  0
 17 16  1  0  0  0
 20 21  1  0  0  0
 16 15  1  0  0  0
 15 14  1  0  0  0
 14 13  1  0  0  0
 13 12  1  0  0  0
 12  1  1  0  0  0
  1  2  1  0  0  0
  2  3  1  0  0  0
  3  4  1  0  0  0
  4  5  1  0  0  0
  5  6  1  0  0  0
  6  7  1  0  0  0
  7  8  1  0  0  0
  8  9  1  0  0  0
  9 10  1  0  0  0
 10 11  1  0  0  0
M  END
> <minimizedAffinity>
-6.98872

> <CNNscore>
0.6940183640

> <CNNaffinity>
6.6669340134

> <CNN_VS>
4.6269745827

> <CNNaffinity_variance>
0.3482482731

$$$$
/media/chris/experiments/cd1a-new-docking/inputs/ligands/4x6d_1_ligand.pdb


 21 20  0  0  0  0  0  0  0  0999 V2000
  -47.6480   58.0114   65.3153 C   0  0  0  0  0  0  0  0  0  0  0  0
  -47.3331   59.2941   64.5863 C   0  0  0  0  0  0  0  0  0  0  0  0
  -48.0244   60.5363   64.9577 C   0  0  0  0  0  0  0  0  0  0  0  0
  -49.3526   60.8879   64.3256 C   0  0  0  0  0  0  0  0  0  0  0  0
  -49.3241   60.5797   62.8290 C   0  0  0  0  0  0  0  0  0  0  0  0
  -50.4153   59.6049   62.3948 C   0  0  0  0  0  0  0  0  0  0  0  0
  -49.8237   58.2922   61.8742 C   0  0  0  0  0  0  0  0  0  0  0  0
  -50.6617   57.5877   60.8005 C   0  0  0  0  0  0  0  0  0  0  0  0
  -49.8744   57.3704   59.5016 C   0  0  0  0  0  0  0  0  0  0  0  0
  -48.3605   57.3404   59.7271 C   0  0  0  0  0  0  0  0  0  0  0  0
  -47.5777   58.1917   58.7200 C   0  0  0  0  0  0  0  0  0  0  0  0
  -46.3450   57.4794   65.8898 C   0  0  0  0  0  0  0  0  0  0  0  0
  -45.4540   58.5984   66.3988 C   0  0  0  0  0  0  0  0  0  0  0  0
  -43.9789   58.2413   66.2422 C   0  0  0  0  0  0  0  0  0  0  0  0
  -43.1785   59.4763   65.8527 C   0  0  0  0  0  0  0  0  0  0  0  0
  -43.1018   59.6206   64.3410 C   0  0  0  0  0  0  0  0  0  0  0  0
  -43.1150   61.0887   63.9275 C   0  0  0  0  0  0  0  0  0  0  0  0
  -42.1241   61.3109   62.8015 C   0  0  0  0  0  0  0  0  0  0  0  0
  -42.4512   61.9961   61.7990 O   0  0  0  0  0  0  0  0  0  0  0  0
  -40.9717   60.8089   62.8593 O   0  0  0  0  0  0  0  0  0  0  0  0
  -40.7205   60.2972   63.6029 H   0  0  0  0  0  0  0  0  0  0  0  0
 18 19  2  0  0  0
 18 17  1  0  0  0
 18 20  1  0  0  0
 17 16  1  0  0  0
 20 21  1  0  0  0
 16 15  1  0  0  0
 15 14  1  0  0  0
 14 13  1  0  0  0
 13 12  1  0  0  0
 12  1  1  0  0  0
  1  2  1  0  0  0
  2  3  1  0  0  0
  3  4  1  0  0  0
  4  5  1  0  0  0
  5  6  1  0  0  0
  6  7  1  0  0  0
  7  8  1  0  0  0
  8  9  1  0  0  0
  9 10  1  0  0  0
 10 11  1  0  0  0
M  END
> <minimizedAffinity>
-6.29752

> <CNNscore>
0.6826578975

> <CNNaffinity>
6.4225816727

> <CNN_VS>
4.3844261169

> <CNNaffinity_variance>
0.5409412384

$$$$
/media/chris/experiments/cd1a-new-docking/inputs/ligands/4x6d_1_ligand.pdb


 21 20  0  0  0  0  0  0  0  0999 V2000
  -48.2184   59.9729   66.4796 C   0  0  0  0  0  0  0  0  0  0  0  0
  -49.5615   59.7208   65.8406 C   0  0  0  0  0  0  0  0  0  0  0  0
  -49.9551   60.4737   64.6417 C   0  0  0  0  0  0  0  0  0  0  0  0
  -51.1728   60.0588   63.8464 C   0  0  0  0  0  0  0  0  0  0  0  0
  -50.7610   59.6072   62.4457 C   0  0  0  0  0  0  0  0  0  0  0  0
  -49.4568   58.8145   62.4286 C   0  0  0  0  0  0  0  0  0  0  0  0
  -49.4616   57.7453   61.3327 C   0  0  0  0  0  0  0  0  0  0  0  0
  -48.3237   57.8630   60.3114 C   0  0  0  0  0  0  0  0  0  0  0  0
  -48.3108   56.6909   59.3214 C   0  0  0  0  0  0  0  0  0  0  0  0
  -48.1661   57.1478   57.8675 C   0  0  0  0  0  0  0  0  0  0  0  0
  -46.9401   58.0373   57.6278 C   0  0  0  0  0  0  0  0  0  0  0  0
  -47.2072   60.1626   65.3605 C   0  0  0  0  0  0  0  0  0  0  0  0
  -45.9449   59.3528   65.5971 C   0  0  0  0  0  0  0  0  0  0  0  0
  -45.8800   58.1495   64.6613 C   0  0  0  0  0  0  0  0  0  0  0  0
  -45.1140   57.0118   65.3220 C   0  0  0  0  0  0  0  0  0  0  0  0
  -44.1269   57.5444   66.3486 C   0  0  0  0  0  0  0  0  0  0  0  0
  -42.7020   57.5208   65.8050 C   0  0  0  0  0  0  0  0  0  0  0  0
  -42.1993   58.9405   65.6289 C   0  0  0  0  0  0  0  0  0  0  0  0
  -41.4964   59.4766   66.5234 O   0  0  0  0  0  0  0  0  0  0  0  0
  -42.4846   59.5927   64.5914 O   0  0  0  0  0  0  0  0  0  0  0  0
  -43.0078   59.2002   63.9204 H   0  0  0  0  0  0  0  0  0  0  0  0
 18 19  2  0  0  0
 18 17  1  0  0  0
 18 20  1  0  0  0
 17 16  1  0  0  0
 20 21  1  0  0  0
 16 15  1  0  0  0
 15 14  1  0  0  0
 14 13  1  0  0  0
 13 12  1  0  0  0
 12  1  1  0  0  0
  1  2  1  0  0  0
  2  3  1  0  0  0
  3  4  1  0  0  0
  4  5  1  0  0  0
  5  6  1  0  0  0
  6  7  1  0  0  0
  7  8  1  0  0  0
  8  9  1  0  0  0
  9 10  1  0  0  0
 10 11  1  0  0  0
M  END
> <minimizedAffinity>
-6.53755

> <CNNscore>
0.6769397855

> <CNNaffinity>
6.6421537399

> <CNN_VS>
4.4963378906

> <CNNaffinity_variance>
0.8037422299

$$$$
/media/chris/experiments/cd1a-new-docking/inputs/ligands/4x6d_1_ligand.pdb


 21 20  0  0  0  0  0  0  0  0999 V2000
  -43.6807   59.5682   64.8498 C   0  0  0  0  0  0  0  0  0  0  0  0
  -43.8545   58.0696   64.8577 C   0  0  0  0  0  0  0  0  0  0  0  0
  -44.4190   57.4041   66.0398 C   0  0  0  0  0  0  0  0  0  0  0  0
  -45.8125   57.7486   66.5161 C   0  0  0  0  0  0  0  0  0  0  0  0
  -46.8564   57.0423   65.6519 C   0  0  0  0  0  0  0  0  0  0  0  0
  -48.2078   57.7518   65.6411 C   0  0  0  0  0  0  0  0  0  0  0  0
  -48.5219   58.3449   64.2650 C   0  0  0  0  0  0  0  0  0  0  0  0
  -49.9999   58.6777   64.0278 C   0  0  0  0  0  0  0  0  0  0  0  0
  -50.3835   58.5854   62.5451 C   0  0  0  0  0  0  0  0  0  0  0  0
  -49.5997   59.5673   61.6704 C   0  0  0  0  0  0  0  0  0  0  0  0
  -48.8081   58.8851   60.5481 C   0  0  0  0  0  0  0  0  0  0  0  0
  -42.2318   59.8593   64.4935 C   0  0  0  0  0  0  0  0  0  0  0  0
  -41.2772   58.9034   65.1862 C   0  0  0  0  0  0  0  0  0  0  0  0
  -39.8248   59.2698   64.8959 C   0  0  0  0  0  0  0  0  0  0  0  0
  -39.1387   58.1384   64.1430 C   0  0  0  0  0  0  0  0  0  0  0  0
  -38.2474   58.6823   63.0377 C   0  0  0  0  0  0  0  0  0  0  0  0
  -38.7170   60.0595   62.5804 C   0  0  0  0  0  0  0  0  0  0  0  0
  -38.7050   60.1262   61.0656 C   0  0  0  0  0  0  0  0  0  0  0  0
  -37.8390   59.4893   60.4128 O   0  0  0  0  0  0  0  0  0  0  0  0
  -39.5561   60.8208   60.4522 O   0  0  0  0  0  0  0  0  0  0  0  0
  -40.2045   61.2981   60.9315 H   0  0  0  0  0  0  0  0  0  0  0  0
 18 19  2  0  0  0
 18 17  1  0  0  0
 18 20  1  0  0  0
 17 16  1  0  0  0
 20 21  1  0  0  0
 16 15  1  0  0  0
 15 14  1  0  0  0
 14 13  1  0  0  0
 13 12  1  0  0  0
 12  1  1  0  0  0
  1  2  1  0  0  0
  2  3  1  0  0  0
  3  4  1  0  0  0
  4  5  1  0  0  0
  5  6  1  0  0  0
  6  7  1  0  0  0
  7  8  1  0  0  0
  8  9  1  0  0  0
  9 10  1  0  0  0
 10 11  1  0  0  0
M  END
> <minimizedAffinity>
-6.44870

> <CNNscore>
0.6618010402

> <CNNaffinity>
6.4661431313

> <CNN_VS>
4.2793002129

> <CNNaffinity_variance>
0.7246883512

$$$$
