/media/chris/experiments/cd1a-new-docking/inputs/ligands/4x6d_1_ligand.pdb


 21 20  0  0  0  0  0  0  0  0999 V2000
  -46.9009   57.7729   65.5143 C   0  0  0  0  0  0  0  0  0  0  0  0
  -48.3708   57.9149   65.2063 C   0  0  0  0  0  0  0  0  0  0  0  0
  -48.7994   58.3915   63.8841 C   0  0  0  0  0  0  0  0  0  0  0  0
  -49.7940   59.5250   63.7677 C   0  0  0  0  0  0  0  0  0  0  0  0
  -50.6952   59.3150   62.5516 C   0  0  0  0  0  0  0  0  0  0  0  0
  -50.6525   57.8882   62.0108 C   0  0  0  0  0  0  0  0  0  0  0  0
  -50.2693   57.8584   60.5288 C   0  0  0  0  0  0  0  0  0  0  0  0
  -48.9662   58.5896   60.1843 C   0  0  0  0  0  0  0  0  0  0  0  0
  -47.9429   57.6641   59.5130 C   0  0  0  0  0  0  0  0  0  0  0  0
  -47.3358   58.2749   58.2473 C   0  0  0  0  0  0  0  0  0  0  0  0
  -47.1991   57.2741   57.0934 C   0  0  0  0  0  0  0  0  0  0  0  0
  -46.6133   58.5919   66.7623 C   0  0  0  0  0  0  0  0  0  0  0  0
  -45.2212   59.1973   66.7317 C   0  0  0  0  0  0  0  0  0  0  0  0
  -44.9826   59.9621   65.4333 C   0  0  0  0  0  0  0  0  0  0  0  0
  -43.4891   60.0961   65.1702 C   0  0  0  0  0  0  0  0  0  0  0  0
  -42.7269   60.3263   66.4656 C   0  0  0  0  0  0  0  0  0  0  0  0
  -41.2743   59.8795   66.3356 C   0  0  0  0  0  0  0  0  0  0  0  0
  -40.4311   61.0287   65.8185 C   0  0  0  0  0  0  0  0  0  0  0  0
  -40.6864   62.2080   66.1727 O   0  0  0  0  0  0  0  0  0  0  0  0
  -39.4751   60.8122   65.0296 O   0  0  0  0  0  0  0  0  0  0  0  0
  -39.2785   59.9364   64.7609 H   0  0  0  0  0  0  0  0  0  0  0  0
 18 19  2  0  0  0
 18 17  1  0  0  0
 18 20  1  0  0  0
 17 16  1  0  0  0
 20 21  1  0  0  0
 16 15  1  0  0  0
 15 14  1  0  0  0
 14 13  1  0  0  0
 13 12  1  0  0  0
 12  1  1  0  0  0
  1  2  1  0  0  0
  2  3  1  0  0  0
  3  4  1  0  0  0
  4  5  1  0  0  0
  5  6  1  0  0  0
  6  7  1  0  0  0
  7  8  1  0  0  0
  8  9  1  0  0  0
  9 10  1  0  0  0
 10 11  1  0  0  0
M  END
> <minimizedAffinity>
-7.03849

> <CNNscore>
0.9463363290

> <CNNaffinity>
7.1052207947

> <CNN_VS>
6.7239284515

> <CNNaffinity_variance>
0.8589315414

$$$$
/media/chris/experiments/cd1a-new-docking/inputs/ligands/4x6d_1_ligand.pdb


 21 20  0  0  0  0  0  0  0  0999 V2000
  -46.1467   58.4096   64.8013 C   0  0  0  0  0  0  0  0  0  0  0  0
  -47.6045   58.6217   64.4762 C   0  0  0  0  0  0  0  0  0  0  0  0
  -48.6371   58.1991   65.4322 C   0  0  0  0  0  0  0  0  0  0  0  0
  -50.0560   58.7046   65.2950 C   0  0  0  0  0  0  0  0  0  0  0  0
  -50.0985   59.9142   64.3621 C   0  0  0  0  0  0  0  0  0  0  0  0
  -51.1039   59.7607   63.2239 C   0  0  0  0  0  0  0  0  0  0  0  0
  -50.8184   58.5126   62.3843 C   0  0  0  0  0  0  0  0  0  0  0  0
  -49.6752   58.6625   61.3733 C   0  0  0  0  0  0  0  0  0  0  0  0
  -49.9844   57.9653   60.0419 C   0  0  0  0  0  0  0  0  0  0  0  0
  -48.7831   57.1969   59.4850 C   0  0  0  0  0  0  0  0  0  0  0  0
  -47.7093   58.1054   58.8742 C   0  0  0  0  0  0  0  0  0  0  0  0
  -45.7094   59.5483   65.7086 C   0  0  0  0  0  0  0  0  0  0  0  0
  -44.8183   59.0605   66.8370 C   0  0  0  0  0  0  0  0  0  0  0  0
  -43.4860   59.8039   66.8462 C   0  0  0  0  0  0  0  0  0  0  0  0
  -42.3323   58.8141   66.7631 C   0  0  0  0  0  0  0  0  0  0  0  0
  -41.5427   59.0054   65.4779 C   0  0  0  0  0  0  0  0  0  0  0  0
  -41.7886   60.3878   64.8821 C   0  0  0  0  0  0  0  0  0  0  0  0
  -40.5603   61.2546   65.0796 C   0  0  0  0  0  0  0  0  0  0  0  0
  -40.4595   61.9831   66.0998 O   0  0  0  0  0  0  0  0  0  0  0  0
  -39.6373   61.2552   64.2245 O   0  0  0  0  0  0  0  0  0  0  0  0
  -39.7050   60.7153   63.4617 H   0  0  0  0  0  0  0  0  0  0  0  0
 18 19  2  0  0  0
 18 17  1  0  0  0
 18 20  1  0  0  0
 17 16  1  0  0  0
 20 21  1  0  0  0
 16 15  1  0  0  0
 15 14  1  0  0  0
 14 13  1  0  0  0
 13 12  1  0  0  0
 12  1  1  0  0  0
  1  2  1  0  0  0
  2  3  1  0  0  0
  3  4  1  0  0  0
  4  5  1  0  0  0
  5  6  1  0  0  0
  6  7  1  0  0  0
  7  8  1  0  0  0
  8  9  1  0  0  0
  9 10  1  0  0  0
 10 11  1  0  0  0
M  END
> <minimizedAffinity>
-6.87946

> <CNNscore>
0.9147981405

> <CNNaffinity>
6.9372777939

> <CNN_VS>
6.3462090492

> <CNNaffinity_variance>
0.6425446272

$$$$
/media/chris/experiments/cd1a-new-docking/inputs/ligands/4x6d_1_ligand.pdb


 21 20  0  0  0  0  0  0  0  0999 V2000
  -47.0771   58.2457   64.7932 C   0  0  0  0  0  0  0  0  0  0  0  0
  -48.5634   58.3412   64.5532 C   0  0  0  0  0  0  0  0  0  0  0  0
  -49.2398   59.6415   64.6561 C   0  0  0  0  0  0  0  0  0  0  0  0
  -50.6999   59.7730   64.2843 C   0  0  0  0  0  0  0  0  0  0  0  0
  -50.8525   59.8703   62.7669 C   0  0  0  0  0  0  0  0  0  0  0  0
  -49.6635   60.5419   62.0848 C   0  0  0  0  0  0  0  0  0  0  0  0
  -49.3666   59.9122   60.7211 C   0  0  0  0  0  0  0  0  0  0  0  0
  -48.8655   58.4639   60.7744 C   0  0  0  0  0  0  0  0  0  0  0  0
  -48.7602   57.8358   59.3784 C   0  0  0  0  0  0  0  0  0  0  0  0
  -47.3187   57.4956   58.9915 C   0  0  0  0  0  0  0  0  0  0  0  0
  -46.9491   57.9379   57.5704 C   0  0  0  0  0  0  0  0  0  0  0  0
  -46.6191   59.5775   65.3657 C   0  0  0  0  0  0  0  0  0  0  0  0
  -45.7167   59.3926   66.5726 C   0  0  0  0  0  0  0  0  0  0  0  0
  -44.2478   59.5453   66.1895 C   0  0  0  0  0  0  0  0  0  0  0  0
  -44.1195   60.3845   64.9258 C   0  0  0  0  0  0  0  0  0  0  0  0
  -42.8153   60.0852   64.2038 C   0  0  0  0  0  0  0  0  0  0  0  0
  -42.1578   61.3670   63.7024 C   0  0  0  0  0  0  0  0  0  0  0  0
  -40.8801   61.6223   64.4778 C   0  0  0  0  0  0  0  0  0  0  0  0
  -39.7703   61.2794   63.9958 O   0  0  0  0  0  0  0  0  0  0  0  0
  -40.9207   62.1734   65.6082 O   0  0  0  0  0  0  0  0  0  0  0  0
  -41.7437   62.4317   65.9742 H   0  0  0  0  0  0  0  0  0  0  0  0
 18 19  2  0  0  0
 18 17  1  0  0  0
 18 20  1  0  0  0
 17 16  1  0  0  0
 20 21  1  0  0  0
 16 15  1  0  0  0
 15 14  1  0  0  0
 14 13  1  0  0  0
 13 12  1  0  0  0
 12  1  1  0  0  0
  1  2  1  0  0  0
  2  3  1  0  0  0
  3  4  1  0  0  0
  4  5  1  0  0  0
  5  6  1  0  0  0
  6  7  1  0  0  0
  7  8  1  0  0  0
  8  9  1  0  0  0
  9 10  1  0  0  0
 10 11  1  0  0  0
M  END
> <minimizedAffinity>
-6.98845

> <CNNscore>
0.9025940895

> <CNNaffinity>
6.9414377213

> <CNN_VS>
6.2653007507

> <CNNaffinity_variance>
0.4305385649

$$$$
/media/chris/experiments/cd1a-new-docking/inputs/ligands/4x6d_1_ligand.pdb


 21 20  0  0  0  0  0  0  0  0999 V2000
  -43.9481   57.7346   64.7188 C   0  0  0  0  0  0  0  0  0  0  0  0
  -45.4078   58.0036   64.9882 C   0  0  0  0  0  0  0  0  0  0  0  0
  -46.1965   57.0442   65.7734 C   0  0  0  0  0  0  0  0  0  0  0  0
  -47.7071   57.0578   65.6996 C   0  0  0  0  0  0  0  0  0  0  0  0
  -48.1858   58.2573   64.8826 C   0  0  0  0  0  0  0  0  0  0  0  0
  -49.6917   58.4876   64.9785 C   0  0  0  0  0  0  0  0  0  0  0  0
  -50.2355   59.1870   63.7297 C   0  0  0  0  0  0  0  0  0  0  0  0
  -49.2031   60.0102   62.9500 C   0  0  0  0  0  0  0  0  0  0  0  0
  -49.6280   60.2426   61.4940 C   0  0  0  0  0  0  0  0  0  0  0  0
  -49.0329   59.2098   60.5335 C   0  0  0  0  0  0  0  0  0  0  0  0
  -49.9982   58.0680   60.1926 C   0  0  0  0  0  0  0  0  0  0  0  0
  -43.2170   57.7997   66.0500 C   0  0  0  0  0  0  0  0  0  0  0  0
  -43.2962   59.1832   66.6704 C   0  0  0  0  0  0  0  0  0  0  0  0
  -41.9247   59.6515   67.1473 C   0  0  0  0  0  0  0  0  0  0  0  0
  -41.5687   60.9810   66.4967 C   0  0  0  0  0  0  0  0  0  0  0  0
  -40.6200   60.7773   65.3260 C   0  0  0  0  0  0  0  0  0  0  0  0
  -39.7154   59.5708   65.5550 C   0  0  0  0  0  0  0  0  0  0  0  0
  -38.2800   60.0321   65.7155 C   0  0  0  0  0  0  0  0  0  0  0  0
  -38.0234   61.0867   66.3507 O   0  0  0  0  0  0  0  0  0  0  0  0
  -37.3376   59.3677   65.2117 O   0  0  0  0  0  0  0  0  0  0  0  0
  -37.5206   58.5810   64.7369 H   0  0  0  0  0  0  0  0  0  0  0  0
 18 19  2  0  0  0
 18 17  1  0  0  0
 18 20  1  0  0  0
 17 16  1  0  0  0
 20 21  1  0  0  0
 16 15  1  0  0  0
 15 14  1  0  0  0
 14 13  1  0  0  0
 13 12  1  0  0  0
 12  1  1  0  0  0
  1  2  1  0  0  0
  2  3  1  0  0  0
  3  4  1  0  0  0
  4  5  1  0  0  0
  5  6  1  0  0  0
  6  7  1  0  0  0
  7  8  1  0  0  0
  8  9  1  0  0  0
  9 10  1  0  0  0
 10 11  1  0  0  0
M  END
> <minimizedAffinity>
-6.46624

> <CNNscore>
0.8072115779

> <CNNaffinity>
6.5716772079

> <CNN_VS>
5.3047337532

> <CNNaffinity_variance>
0.4524313509

$$$$
/media/chris/experiments/cd1a-new-docking/inputs/ligands/4x6d_1_ligand.pdb


 21 20  0  0  0  0  0  0  0  0999 V2000
  -50.2781   58.5381   63.4267 C   0  0  0  0  0  0  0  0  0  0  0  0
  -50.1706   59.9148   64.0342 C   0  0  0  0  0  0  0  0  0  0  0  0
  -48.9500   60.7088   63.8375 C   0  0  0  0  0  0  0  0  0  0  0  0
  -47.9912   60.9306   64.9860 C   0  0  0  0  0  0  0  0  0  0  0  0
  -46.8977   59.8631   64.9756 C   0  0  0  0  0  0  0  0  0  0  0  0
  -46.4227   59.4753   66.3734 C   0  0  0  0  0  0  0  0  0  0  0  0
  -45.8181   58.0688   66.3931 C   0  0  0  0  0  0  0  0  0  0  0  0
  -45.1157   57.6500   65.0959 C   0  0  0  0  0  0  0  0  0  0  0  0
  -43.6780   57.1745   65.3433 C   0  0  0  0  0  0  0  0  0  0  0  0
  -42.6733   58.3288   65.3839 C   0  0  0  0  0  0  0  0  0  0  0  0
  -42.2958   58.7578   66.8070 C   0  0  0  0  0  0  0  0  0  0  0  0
  -49.7262   58.6173   62.0124 C   0  0  0  0  0  0  0  0  0  0  0  0
  -50.5396   57.7801   61.0415 C   0  0  0  0  0  0  0  0  0  0  0  0
  -49.7697   57.5356   59.7472 C   0  0  0  0  0  0  0  0  0  0  0  0
  -48.2991   57.8800   59.9384 C   0  0  0  0  0  0  0  0  0  0  0  0
  -47.5700   57.9129   58.6046 C   0  0  0  0  0  0  0  0  0  0  0  0
  -47.0659   56.5258   58.2192 C   0  0  0  0  0  0  0  0  0  0  0  0
  -47.7318   56.0802   56.9319 C   0  0  0  0  0  0  0  0  0  0  0  0
  -48.5971   56.8098   56.3836 O   0  0  0  0  0  0  0  0  0  0  0  0
  -47.4280   54.9781   56.4063 O   0  0  0  0  0  0  0  0  0  0  0  0
  -46.7844   54.4288   56.8087 H   0  0  0  0  0  0  0  0  0  0  0  0
 18 19  2  0  0  0
 18 17  1  0  0  0
 18 20  1  0  0  0
 17 16  1  0  0  0
 20 21  1  0  0  0
 16 15  1  0  0  0
 15 14  1  0  0  0
 14 13  1  0  0  0
 13 12  1  0  0  0
 12  1  1  0  0  0
  1  2  1  0  0  0
  2  3  1  0  0  0
  3  4  1  0  0  0
  4  5  1  0  0  0
  5  6  1  0  0  0
  6  7  1  0  0  0
  7  8  1  0  0  0
  8  9  1  0  0  0
  9 10  1  0  0  0
 10 11  1  0  0  0
M  END
> <minimizedAffinity>
-7.03817

> <CNNscore>
0.8009212613

> <CNNaffinity>
6.9025793076

> <CNN_VS>
5.5284223557

> <CNNaffinity_variance>
0.7005448937

$$$$
/media/chris/experiments/cd1a-new-docking/inputs/ligands/4x6d_1_ligand.pdb


 21 20  0  0  0  0  0  0  0  0999 V2000
  -46.1284   57.4574   66.1860 C   0  0  0  0  0  0  0  0  0  0  0  0
  -47.3701   58.3134   66.1502 C   0  0  0  0  0  0  0  0  0  0  0  0
  -48.4618   57.9817   65.2243 C   0  0  0  0  0  0  0  0  0  0  0  0
  -49.9016   58.1930   65.6362 C   0  0  0  0  0  0  0  0  0  0  0  0
  -50.2107   59.6865   65.7313 C   0  0  0  0  0  0  0  0  0  0  0  0
  -49.9657   60.4358   64.4241 C   0  0  0  0  0  0  0  0  0  0  0  0
  -51.0752   60.1669   63.4039 C   0  0  0  0  0  0  0  0  0  0  0  0
  -50.5882   59.9207   61.9708 C   0  0  0  0  0  0  0  0  0  0  0  0
  -49.2944   59.0967   61.9323 C   0  0  0  0  0  0  0  0  0  0  0  0
  -49.5321   57.6441   61.5116 C   0  0  0  0  0  0  0  0  0  0  0  0
  -50.9679   57.3719   61.0468 C   0  0  0  0  0  0  0  0  0  0  0  0
  -45.3196   57.7713   64.9377 C   0  0  0  0  0  0  0  0  0  0  0  0
  -43.9321   57.1575   64.9951 C   0  0  0  0  0  0  0  0  0  0  0  0
  -42.8902   58.1911   65.4120 C   0  0  0  0  0  0  0  0  0  0  0  0
  -43.2579   59.5601   64.8567 C   0  0  0  0  0  0  0  0  0  0  0  0
  -42.0304   60.2748   64.3140 C   0  0  0  0  0  0  0  0  0  0  0  0
  -40.7714   59.8515   65.0638 C   0  0  0  0  0  0  0  0  0  0  0  0
  -40.1525   61.0572   65.7438 C   0  0  0  0  0  0  0  0  0  0  0  0
  -38.9599   61.0148   66.1405 O   0  0  0  0  0  0  0  0  0  0  0  0
  -40.8271   62.1046   65.9200 O   0  0  0  0  0  0  0  0  0  0  0  0
  -41.7163   62.1440   65.6273 H   0  0  0  0  0  0  0  0  0  0  0  0
 18 19  2  0  0  0
 18 17  1  0  0  0
 18 20  1  0  0  0
 17 16  1  0  0  0
 20 21  1  0  0  0
 16 15  1  0  0  0
 15 14  1  0  0  0
 14 13  1  0  0  0
 13 12  1  0  0  0
 12  1  1  0  0  0
  1  2  1  0  0  0
  2  3  1  0  0  0
  3  4  1  0  0  0
  4  5  1  0  0  0
  5  6  1  0  0  0
  6  7  1  0  0  0
  7  8  1  0  0  0
  8  9  1  0  0  0
  9 10  1  0  0  0
 10 11  1  0  0  0
M  END
> <minimizedAffinity>
-6.60823

> <CNNscore>
0.7929718494

> <CNNaffinity>
6.5319604874

> <CNN_VS>
5.1796607971

> <CNNaffinity_variance>
0.4128911495

$$$$
/media/chris/experiments/cd1a-new-docking/inputs/ligands/4x6d_1_ligand.pdb


 21 20  0  0  0  0  0  0  0  0999 V2000
  -49.0340   58.3718   63.1320 C   0  0  0  0  0  0  0  0  0  0  0  0
  -48.7933   59.7228   63.7588 C   0  0  0  0  0  0  0  0  0  0  0  0
  -49.2896   60.0004   65.1136 C   0  0  0  0  0  0  0  0  0  0  0  0
  -48.3179   60.2058   66.2543 C   0  0  0  0  0  0  0  0  0  0  0  0
  -46.9126   60.4636   65.7121 C   0  0  0  0  0  0  0  0  0  0  0  0
  -45.9423   59.3179   65.9873 C   0  0  0  0  0  0  0  0  0  0  0  0
  -44.4852   59.7741   65.8747 C   0  0  0  0  0  0  0  0  0  0  0  0
  -44.1521   60.5619   64.6020 C   0  0  0  0  0  0  0  0  0  0  0  0
  -42.7444   60.2478   64.0782 C   0  0  0  0  0  0  0  0  0  0  0  0
  -42.0243   61.4874   63.5412 C   0  0  0  0  0  0  0  0  0  0  0  0
  -42.2189   61.7000   62.0350 C   0  0  0  0  0  0  0  0  0  0  0  0
  -50.4457   58.3735   62.5679 C   0  0  0  0  0  0  0  0  0  0  0  0
  -50.4799   57.8841   61.1311 C   0  0  0  0  0  0  0  0  0  0  0  0
  -49.4113   58.5747   60.2892 C   0  0  0  0  0  0  0  0  0  0  0  0
  -48.5247   57.5380   59.6132 C   0  0  0  0  0  0  0  0  0  0  0  0
  -47.6899   58.1712   58.5114 C   0  0  0  0  0  0  0  0  0  0  0  0
  -46.8807   57.1185   57.7609 C   0  0  0  0  0  0  0  0  0  0  0  0
  -47.8164   56.2162   56.9803 C   0  0  0  0  0  0  0  0  0  0  0  0
  -47.5966   54.9793   56.9208 O   0  0  0  0  0  0  0  0  0  0  0  0
  -48.8144   56.6973   56.3839 O   0  0  0  0  0  0  0  0  0  0  0  0
  -48.9849   57.6177   56.4233 H   0  0  0  0  0  0  0  0  0  0  0  0
 18 19  2  0  0  0
 18 17  1  0  0  0
 18 20  1  0  0  0
 17 16  1  0  0  0
 20 21  1  0  0  0
 16 15  1  0  0  0
 15 14  1  0  0  0
 14 13  1  0  0  0
 13 12  1  0  0  0
 12  1  1  0  0  0
  1  2  1  0  0  0
  2  3  1  0  0  0
  3  4  1  0  0  0
  4  5  1  0  0  0
  5  6  1  0  0  0
  6  7  1  0  0  0
  7  8  1  0  0  0
  8  9  1  0  0  0
  9 10  1  0  0  0
 10 11  1  0  0  0
M  END
> <minimizedAffinity>
-6.92720

> <CNNscore>
0.7238224149

> <CNNaffinity>
6.7021913528

> <CNN_VS>
4.8511962891

> <CNNaffinity_variance>
0.4614291191

$$$$
/media/chris/experiments/cd1a-new-docking/inputs/ligands/4x6d_1_ligand.pdb


 21 20  0  0  0  0  0  0  0  0999 V2000
  -45.2352   59.3492   66.7792 C   0  0  0  0  0  0  0  0  0  0  0  0
  -46.1379   59.2285   65.5765 C   0  0  0  0  0  0  0  0  0  0  0  0
  -46.9272   58.0060   65.3729 C   0  0  0  0  0  0  0  0  0  0  0  0
  -48.4383   58.0596   65.4066 C   0  0  0  0  0  0  0  0  0  0  0  0
  -48.9119   59.4972   65.6171 C   0  0  0  0  0  0  0  0  0  0  0  0
  -50.4292   59.6472   65.5438 C   0  0  0  0  0  0  0  0  0  0  0  0
  -50.8550   60.4844   64.3348 C   0  0  0  0  0  0  0  0  0  0  0  0
  -51.1772   59.6767   63.0717 C   0  0  0  0  0  0  0  0  0  0  0  0
  -49.9701   59.5670   62.1308 C   0  0  0  0  0  0  0  0  0  0  0  0
  -49.5743   58.1160   61.8453 C   0  0  0  0  0  0  0  0  0  0  0  0
  -50.4955   57.4210   60.8353 C   0  0  0  0  0  0  0  0  0  0  0  0
  -43.8168   59.5471   66.2693 C   0  0  0  0  0  0  0  0  0  0  0  0
  -43.7844   60.3795   64.9999 C   0  0  0  0  0  0  0  0  0  0  0  0
  -42.4409   60.2465   64.2892 C   0  0  0  0  0  0  0  0  0  0  0  0
  -42.4749   60.9878   62.9599 C   0  0  0  0  0  0  0  0  0  0  0  0
  -41.0905   61.4897   62.5811 C   0  0  0  0  0  0  0  0  0  0  0  0
  -40.0365   60.4077   62.7930 C   0  0  0  0  0  0  0  0  0  0  0  0
  -38.9442   60.5480   61.7507 C   0  0  0  0  0  0  0  0  0  0  0  0
  -37.7353   60.5206   62.0959 O   0  0  0  0  0  0  0  0  0  0  0  0
  -39.2383   60.6973   60.5364 O   0  0  0  0  0  0  0  0  0  0  0  0
  -40.1367   60.7188   60.2712 H   0  0  0  0  0  0  0  0  0  0  0  0
 18 19  2  0  0  0
 18 17  1  0  0  0
 18 20  1  0  0  0
 17 16  1  0  0  0
 20 21  1  0  0  0
 16 15  1  0  0  0
 15 14  1  0  0  0
 14 13  1  0  0  0
 13 12  1  0  0  0
 12  1  1  0  0  0
  1  2  1  0  0  0
  2  3  1  0  0  0
  3  4  1  0  0  0
  4  5  1  0  0  0
  5  6  1  0  0  0
  6  7  1  0  0  0
  7  8  1  0  0  0
  8  9  1  0  0  0
  9 10  1  0  0  0
 10 11  1  0  0  0
M  END
> <minimizedAffinity>
-6.56831

> <CNNscore>
0.6889954209

> <CNNaffinity>
6.3563141823

> <CNN_VS>
4.3794713020

> <CNNaffinity_variance>
0.4000302851

$$$$
/media/chris/experiments/cd1a-new-docking/inputs/ligands/4x6d_1_ligand.pdb


 21 20  0  0  0  0  0  0  0  0999 V2000
  -39.2549   60.6259   61.1303 C   0  0  0  0  0  0  0  0  0  0  0  0
  -38.1877   59.6137   61.4655 C   0  0  0  0  0  0  0  0  0  0  0  0
  -38.4034   58.6571   62.5598 C   0  0  0  0  0  0  0  0  0  0  0  0
  -37.2318   57.9224   63.1723 C   0  0  0  0  0  0  0  0  0  0  0  0
  -35.9163   58.4777   62.6279 C   0  0  0  0  0  0  0  0  0  0  0  0
  -34.8289   57.4160   62.4848 C   0  0  0  0  0  0  0  0  0  0  0  0
  -34.3891   57.2527   61.0274 C   0  0  0  0  0  0  0  0  0  0  0  0
  -34.8047   55.9301   60.3721 C   0  0  0  0  0  0  0  0  0  0  0  0
  -35.2609   56.1216   58.9197 C   0  0  0  0  0  0  0  0  0  0  0  0
  -34.4018   57.1358   58.1600 C   0  0  0  0  0  0  0  0  0  0  0  0
  -33.1275   56.5275   57.5619 C   0  0  0  0  0  0  0  0  0  0  0  0
  -40.2111   60.6911   62.3103 C   0  0  0  0  0  0  0  0  0  0  0  0
  -41.5045   61.4001   61.9501 C   0  0  0  0  0  0  0  0  0  0  0  0
  -42.4701   61.4165   63.1312 C   0  0  0  0  0  0  0  0  0  0  0  0
  -42.4349   60.0783   63.8563 C   0  0  0  0  0  0  0  0  0  0  0  0
  -42.5554   60.2706   65.3597 C   0  0  0  0  0  0  0  0  0  0  0  0
  -41.2617   59.8833   66.0689 C   0  0  0  0  0  0  0  0  0  0  0  0
  -40.2551   61.0106   65.9463 C   0  0  0  0  0  0  0  0  0  0  0  0
  -40.6203   62.2030   66.1087 O   0  0  0  0  0  0  0  0  0  0  0  0
  -39.0512   60.7627   65.6773 O   0  0  0  0  0  0  0  0  0  0  0  0
  -38.7713   59.8769   65.5548 H   0  0  0  0  0  0  0  0  0  0  0  0
 18 19  2  0  0  0
 18 17  1  0  0  0
 18 20  1  0  0  0
 17 16  1  0  0  0
 20 21  1  0  0  0
 16 15  1  0  0  0
 15 14  1  0  0  0
 14 13  1  0  0  0
 13 12  1  0  0  0
 12  1  1  0  0  0
  1  2  1  0  0  0
  2  3  1  0  0  0
  3  4  1  0  0  0
  4  5  1  0  0  0
  5  6  1  0  0  0
  6  7  1  0  0  0
  7  8  1  0  0  0
  8  9  1  0  0  0
  9 10  1  0  0  0
 10 11  1  0  0  0
M  END
> <minimizedAffinity>
-6.32239

> <CNNscore>
0.6683445573

> <CNNaffinity>
5.8441634178

> <CNN_VS>
3.9059147835

> <CNNaffinity_variance>
0.1022544280

$$$$
