/media/chris/experiments/cd1a-new-docking/inputs/ligands/4x6d_1_ligand.pdb


 21 20  0  0  0  0  0  0  0  0999 V2000
  -46.3503   58.7300   65.1950 C   0  0  0  0  0  0  0  0  0  0  0  0
  -47.5443   58.0440   65.8111 C   0  0  0  0  0  0  0  0  0  0  0  0
  -48.8248   58.0155   65.0910 C   0  0  0  0  0  0  0  0  0  0  0  0
  -48.9612   58.7025   63.7505 C   0  0  0  0  0  0  0  0  0  0  0  0
  -50.4145   58.6599   63.2799 C   0  0  0  0  0  0  0  0  0  0  0  0
  -50.5690   58.1459   61.8510 C   0  0  0  0  0  0  0  0  0  0  0  0
  -49.2563   58.2489   61.0699 C   0  0  0  0  0  0  0  0  0  0  0  0
  -49.2754   57.5885   59.6861 C   0  0  0  0  0  0  0  0  0  0  0  0
  -48.1172   58.0665   58.8003 C   0  0  0  0  0  0  0  0  0  0  0  0
  -46.9965   57.0303   58.6839 C   0  0  0  0  0  0  0  0  0  0  0  0
  -47.4131   55.7652   57.9238 C   0  0  0  0  0  0  0  0  0  0  0  0
  -45.1070   57.9858   65.6544 C   0  0  0  0  0  0  0  0  0  0  0  0
  -43.9692   58.1184   64.6578 C   0  0  0  0  0  0  0  0  0  0  0  0
  -43.0253   59.2516   65.0484 C   0  0  0  0  0  0  0  0  0  0  0  0
  -42.8790   60.2338   63.8944 C   0  0  0  0  0  0  0  0  0  0  0  0
  -41.4622   60.7808   63.8216 C   0  0  0  0  0  0  0  0  0  0  0  0
  -40.5374   60.0414   64.7831 C   0  0  0  0  0  0  0  0  0  0  0  0
  -39.9031   61.0295   65.7427 C   0  0  0  0  0  0  0  0  0  0  0  0
  -38.7006   60.8935   66.0850 O   0  0  0  0  0  0  0  0  0  0  0  0
  -40.5744   61.9875   66.2059 O   0  0  0  0  0  0  0  0  0  0  0  0
  -41.4709   62.0956   65.9557 H   0  0  0  0  0  0  0  0  0  0  0  0
 18 19  2  0  0  0
 18 17  1  0  0  0
 18 20  1  0  0  0
 17 16  1  0  0  0
 20 21  1  0  0  0
 16 15  1  0  0  0
 15 14  1  0  0  0
 14 13  1  0  0  0
 13 12  1  0  0  0
 12  1  1  0  0  0
  1  2  1  0  0  0
  2  3  1  0  0  0
  3  4  1  0  0  0
  4  5  1  0  0  0
  5  6  1  0  0  0
  6  7  1  0  0  0
  7  8  1  0  0  0
  8  9  1  0  0  0
  9 10  1  0  0  0
 10 11  1  0  0  0
M  END
> <minimizedAffinity>
-6.65099

> <CNNscore>
0.9465387464

> <CNNaffinity>
7.2171821594

> <CNN_VS>
6.8313426971

> <CNNaffinity_variance>
1.0449645519

$$$$
/media/chris/experiments/cd1a-new-docking/inputs/ligands/4x6d_1_ligand.pdb


 21 20  0  0  0  0  0  0  0  0999 V2000
  -47.7809   60.6971   65.2865 C   0  0  0  0  0  0  0  0  0  0  0  0
  -48.3713   59.3398   65.5782 C   0  0  0  0  0  0  0  0  0  0  0  0
  -49.5969   58.9112   64.8904 C   0  0  0  0  0  0  0  0  0  0  0  0
  -50.7250   59.8919   64.6606 C   0  0  0  0  0  0  0  0  0  0  0  0
  -51.0398   59.9957   63.1688 C   0  0  0  0  0  0  0  0  0  0  0  0
  -50.2091   59.0447   62.3113 C   0  0  0  0  0  0  0  0  0  0  0  0
  -51.0551   57.8889   61.7705 C   0  0  0  0  0  0  0  0  0  0  0  0
  -50.3941   57.0735   60.6525 C   0  0  0  0  0  0  0  0  0  0  0  0
  -49.9872   57.9494   59.4601 C   0  0  0  0  0  0  0  0  0  0  0  0
  -48.8562   57.3324   58.6333 C   0  0  0  0  0  0  0  0  0  0  0  0
  -47.5462   58.1264   58.7049 C   0  0  0  0  0  0  0  0  0  0  0  0
  -46.2829   60.5151   65.1029 C   0  0  0  0  0  0  0  0  0  0  0  0
  -45.7796   59.2554   65.7848 C   0  0  0  0  0  0  0  0  0  0  0  0
  -44.6473   59.5713   66.7574 C   0  0  0  0  0  0  0  0  0  0  0  0
  -43.4392   60.1051   66.0005 C   0  0  0  0  0  0  0  0  0  0  0  0
  -42.2010   60.1063   66.8831 C   0  0  0  0  0  0  0  0  0  0  0  0
  -40.9687   59.6618   66.1019 C   0  0  0  0  0  0  0  0  0  0  0  0
  -40.0868   60.8612   65.8139 C   0  0  0  0  0  0  0  0  0  0  0  0
  -40.4601   62.0141   66.1502 O   0  0  0  0  0  0  0  0  0  0  0  0
  -38.9802   60.7131   65.2338 O   0  0  0  0  0  0  0  0  0  0  0  0
  -38.6950   59.8574   64.9801 H   0  0  0  0  0  0  0  0  0  0  0  0
 18 19  2  0  0  0
 18 17  1  0  0  0
 18 20  1  0  0  0
 17 16  1  0  0  0
 20 21  1  0  0  0
 16 15  1  0  0  0
 15 14  1  0  0  0
 14 13  1  0  0  0
 13 12  1  0  0  0
 12  1  1  0  0  0
  1  2  1  0  0  0
  2  3  1  0  0  0
  3  4  1  0  0  0
  4  5  1  0  0  0
  5  6  1  0  0  0
  6  7  1  0  0  0
  7  8  1  0  0  0
  8  9  1  0  0  0
  9 10  1  0  0  0
 10 11  1  0  0  0
M  END
> <minimizedAffinity>
-7.13286

> <CNNscore>
0.9274073839

> <CNNaffinity>
6.8436164856

> <CNN_VS>
6.3468203545

> <CNNaffinity_variance>
0.5612734556

$$$$
/media/chris/experiments/cd1a-new-docking/inputs/ligands/4x6d_1_ligand.pdb


 21 20  0  0  0  0  0  0  0  0999 V2000
  -47.1990   59.8749   66.3312 C   0  0  0  0  0  0  0  0  0  0  0  0
  -47.0998   60.5797   65.0011 C   0  0  0  0  0  0  0  0  0  0  0  0
  -48.2206   61.3999   64.5215 C   0  0  0  0  0  0  0  0  0  0  0  0
  -49.1644   60.8610   63.4698 C   0  0  0  0  0  0  0  0  0  0  0  0
  -50.1262   59.8489   64.0910 C   0  0  0  0  0  0  0  0  0  0  0  0
  -50.0982   58.4892   63.3981 C   0  0  0  0  0  0  0  0  0  0  0  0
  -50.7141   58.5572   61.9981 C   0  0  0  0  0  0  0  0  0  0  0  0
  -50.0527   57.6458   60.9572 C   0  0  0  0  0  0  0  0  0  0  0  0
  -48.7455   58.2393   60.4152 C   0  0  0  0  0  0  0  0  0  0  0  0
  -48.0465   57.3135   59.4164 C   0  0  0  0  0  0  0  0  0  0  0  0
  -47.3093   58.0656   58.3017 C   0  0  0  0  0  0  0  0  0  0  0  0
  -46.1819   58.7451   66.3279 C   0  0  0  0  0  0  0  0  0  0  0  0
  -45.1504   58.9174   65.2271 C   0  0  0  0  0  0  0  0  0  0  0  0
  -43.7361   58.7136   65.7618 C   0  0  0  0  0  0  0  0  0  0  0  0
  -43.3935   59.8035   66.7679 C   0  0  0  0  0  0  0  0  0  0  0  0
  -41.9378   59.7098   67.1970 C   0  0  0  0  0  0  0  0  0  0  0  0
  -41.0102   59.6586   65.9872 C   0  0  0  0  0  0  0  0  0  0  0  0
  -40.1841   60.9285   65.9233 C   0  0  0  0  0  0  0  0  0  0  0  0
  -38.9397   60.8638   65.7534 O   0  0  0  0  0  0  0  0  0  0  0  0
  -40.7350   62.0532   66.0439 O   0  0  0  0  0  0  0  0  0  0  0  0
  -41.6617   62.1097   66.1707 H   0  0  0  0  0  0  0  0  0  0  0  0
 18 19  2  0  0  0
 18 17  1  0  0  0
 18 20  1  0  0  0
 17 16  1  0  0  0
 20 21  1  0  0  0
 16 15  1  0  0  0
 15 14  1  0  0  0
 14 13  1  0  0  0
 13 12  1  0  0  0
 12  1  1  0  0  0
  1  2  1  0  0  0
  2  3  1  0  0  0
  3  4  1  0  0  0
  4  5  1  0  0  0
  5  6  1  0  0  0
  6  7  1  0  0  0
  7  8  1  0  0  0
  8  9  1  0  0  0
  9 10  1  0  0  0
 10 11  1  0  0  0
M  END
> <minimizedAffinity>
-6.91147

> <CNNscore>
0.9045763612

> <CNNaffinity>
6.7158226967

> <CNN_VS>
6.0749745369

> <CNNaffinity_variance>
0.6123770475

$$$$
/media/chris/experiments/cd1a-new-docking/inputs/ligands/4x6d_1_ligand.pdb


 21 20  0  0  0  0  0  0  0  0999 V2000
  -46.0470   59.4845   65.3034 C   0  0  0  0  0  0  0  0  0  0  0  0
  -47.4664   59.5191   64.7937 C   0  0  0  0  0  0  0  0  0  0  0  0
  -48.3136   58.3238   64.9044 C   0  0  0  0  0  0  0  0  0  0  0  0
  -49.8019   58.4627   65.1353 C   0  0  0  0  0  0  0  0  0  0  0  0
  -50.3011   59.7958   64.5797 C   0  0  0  0  0  0  0  0  0  0  0  0
  -50.9374   59.6709   63.1979 C   0  0  0  0  0  0  0  0  0  0  0  0
  -50.0267   60.2363   62.1048 C   0  0  0  0  0  0  0  0  0  0  0  0
  -49.1486   59.1982   61.3956 C   0  0  0  0  0  0  0  0  0  0  0  0
  -49.9574   57.9843   60.9191 C   0  0  0  0  0  0  0  0  0  0  0  0
  -49.4398   57.4125   59.5968 C   0  0  0  0  0  0  0  0  0  0  0  0
  -48.0666   57.9617   59.1916 C   0  0  0  0  0  0  0  0  0  0  0  0
  -45.5938   58.0335   65.2985 C   0  0  0  0  0  0  0  0  0  0  0  0
  -44.3160   57.8439   64.5005 C   0  0  0  0  0  0  0  0  0  0  0  0
  -43.1243   57.5975   65.4209 C   0  0  0  0  0  0  0  0  0  0  0  0
  -42.1359   58.7508   65.3194 C   0  0  0  0  0  0  0  0  0  0  0  0
  -41.8288   59.3268   66.6928 C   0  0  0  0  0  0  0  0  0  0  0  0
  -41.9132   60.8497   66.6816 C   0  0  0  0  0  0  0  0  0  0  0  0
  -40.7728   61.4181   65.8596 C   0  0  0  0  0  0  0  0  0  0  0  0
  -41.0152   62.1076   64.8361 O   0  0  0  0  0  0  0  0  0  0  0  0
  -39.5788   61.2012   66.1918 O   0  0  0  0  0  0  0  0  0  0  0  0
  -39.3901   60.6885   66.9531 H   0  0  0  0  0  0  0  0  0  0  0  0
 18 19  2  0  0  0
 18 17  1  0  0  0
 18 20  1  0  0  0
 17 16  1  0  0  0
 20 21  1  0  0  0
 16 15  1  0  0  0
 15 14  1  0  0  0
 14 13  1  0  0  0
 13 12  1  0  0  0
 12  1  1  0  0  0
  1  2  1  0  0  0
  2  3  1  0  0  0
  3  4  1  0  0  0
  4  5  1  0  0  0
  5  6  1  0  0  0
  6  7  1  0  0  0
  7  8  1  0  0  0
  8  9  1  0  0  0
  9 10  1  0  0  0
 10 11  1  0  0  0
M  END
> <minimizedAffinity>
-6.82030

> <CNNscore>
0.8489263058

> <CNNaffinity>
6.8042168617

> <CNN_VS>
5.7762784958

> <CNNaffinity_variance>
0.5223627687

$$$$
/media/chris/experiments/cd1a-new-docking/inputs/ligands/4x6d_1_ligand.pdb


 21 20  0  0  0  0  0  0  0  0999 V2000
  -44.5006   59.2745   66.5948 C   0  0  0  0  0  0  0  0  0  0  0  0
  -45.5018   59.2540   65.4665 C   0  0  0  0  0  0  0  0  0  0  0  0
  -46.2018   58.0064   65.1311 C   0  0  0  0  0  0  0  0  0  0  0  0
  -47.7066   57.9930   64.9811 C   0  0  0  0  0  0  0  0  0  0  0  0
  -48.3191   59.2031   65.6852 C   0  0  0  0  0  0  0  0  0  0  0  0
  -49.8325   59.2977   65.5115 C   0  0  0  0  0  0  0  0  0  0  0  0
  -50.2176   60.3884   64.5084 C   0  0  0  0  0  0  0  0  0  0  0  0
  -51.1765   59.9365   63.4002 C   0  0  0  0  0  0  0  0  0  0  0  0
  -50.5466   58.8773   62.4859 C   0  0  0  0  0  0  0  0  0  0  0  0
  -49.2386   59.3513   61.8474 C   0  0  0  0  0  0  0  0  0  0  0  0
  -49.4135   60.5705   60.9337 C   0  0  0  0  0  0  0  0  0  0  0  0
  -43.3096   60.0999   66.1353 C   0  0  0  0  0  0  0  0  0  0  0  0
  -42.9825   59.8535   64.6732 C   0  0  0  0  0  0  0  0  0  0  0  0
  -41.4851   59.9903   64.4141 C   0  0  0  0  0  0  0  0  0  0  0  0
  -40.7159   58.9562   65.2243 C   0  0  0  0  0  0  0  0  0  0  0  0
  -39.4596   58.5146   64.4903 C   0  0  0  0  0  0  0  0  0  0  0  0
  -38.2136   58.7644   65.3340 C   0  0  0  0  0  0  0  0  0  0  0  0
  -37.8658   60.2401   65.3062 C   0  0  0  0  0  0  0  0  0  0  0  0
  -37.8715   60.9098   66.3707 O   0  0  0  0  0  0  0  0  0  0  0  0
  -37.5741   60.8051   64.2205 O   0  0  0  0  0  0  0  0  0  0  0  0
  -37.5676   60.3129   63.4232 H   0  0  0  0  0  0  0  0  0  0  0  0
 18 19  2  0  0  0
 18 17  1  0  0  0
 18 20  1  0  0  0
 17 16  1  0  0  0
 20 21  1  0  0  0
 16 15  1  0  0  0
 15 14  1  0  0  0
 14 13  1  0  0  0
 13 12  1  0  0  0
 12  1  1  0  0  0
  1  2  1  0  0  0
  2  3  1  0  0  0
  3  4  1  0  0  0
  4  5  1  0  0  0
  5  6  1  0  0  0
  6  7  1  0  0  0
  7  8  1  0  0  0
  8  9  1  0  0  0
  9 10  1  0  0  0
 10 11  1  0  0  0
M  END
> <minimizedAffinity>
-6.53814

> <CNNscore>
0.7312926650

> <CNNaffinity>
6.4103417397

> <CNN_VS>
4.6878356934

> <CNNaffinity_variance>
0.3470236659

$$$$
/media/chris/experiments/cd1a-new-docking/inputs/ligands/4x6d_1_ligand.pdb


 21 20  0  0  0  0  0  0  0  0999 V2000
  -42.1177   59.2819   66.9372 C   0  0  0  0  0  0  0  0  0  0  0  0
  -43.4780   59.8349   66.5913 C   0  0  0  0  0  0  0  0  0  0  0  0
  -44.4147   59.0305   65.7948 C   0  0  0  0  0  0  0  0  0  0  0  0
  -44.9378   57.7165   66.3305 C   0  0  0  0  0  0  0  0  0  0  0  0
  -46.3614   57.8899   66.8585 C   0  0  0  0  0  0  0  0  0  0  0  0
  -47.2771   58.6299   65.8871 C   0  0  0  0  0  0  0  0  0  0  0  0
  -48.4120   57.7320   65.3873 C   0  0  0  0  0  0  0  0  0  0  0  0
  -49.8175   58.3282   65.5312 C   0  0  0  0  0  0  0  0  0  0  0  0
  -49.8171   59.8551   65.3798 C   0  0  0  0  0  0  0  0  0  0  0  0
  -51.0456   60.3741   64.6283 C   0  0  0  0  0  0  0  0  0  0  0  0
  -51.1718   59.8132   63.2066 C   0  0  0  0  0  0  0  0  0  0  0  0
  -41.4852   58.7822   65.6484 C   0  0  0  0  0  0  0  0  0  0  0  0
  -40.1892   59.5093   65.3367 C   0  0  0  0  0  0  0  0  0  0  0  0
  -39.3990   58.7840   64.2516 C   0  0  0  0  0  0  0  0  0  0  0  0
  -38.1353   58.1740   64.8421 C   0  0  0  0  0  0  0  0  0  0  0  0
  -37.1355   57.8294   63.7495 C   0  0  0  0  0  0  0  0  0  0  0  0
  -37.8392   57.5795   62.4195 C   0  0  0  0  0  0  0  0  0  0  0  0
  -37.0024   58.1402   61.2860 C   0  0  0  0  0  0  0  0  0  0  0  0
  -37.5424   58.8335   60.3863 O   0  0  0  0  0  0  0  0  0  0  0  0
  -35.7660   57.9132   61.2348 O   0  0  0  0  0  0  0  0  0  0  0  0
  -35.3563   57.3976   61.9014 H   0  0  0  0  0  0  0  0  0  0  0  0
 18 19  2  0  0  0
 18 17  1  0  0  0
 18 20  1  0  0  0
 17 16  1  0  0  0
 20 21  1  0  0  0
 16 15  1  0  0  0
 15 14  1  0  0  0
 14 13  1  0  0  0
 13 12  1  0  0  0
 12  1  1  0  0  0
  1  2  1  0  0  0
  2  3  1  0  0  0
  3  4  1  0  0  0
  4  5  1  0  0  0
  5  6  1  0  0  0
  6  7  1  0  0  0
  7  8  1  0  0  0
  8  9  1  0  0  0
  9 10  1  0  0  0
 10 11  1  0  0  0
M  END
> <minimizedAffinity>
-6.53441

> <CNNscore>
0.6974950433

> <CNNaffinity>
6.2636418343

> <CNN_VS>
4.3688592911

> <CNNaffinity_variance>
0.4020256996

$$$$
/media/chris/experiments/cd1a-new-docking/inputs/ligands/4x6d_1_ligand.pdb


 21 20  0  0  0  0  0  0  0  0999 V2000
  -44.9375   60.1763   65.1212 C   0  0  0  0  0  0  0  0  0  0  0  0
  -46.3919   60.5598   65.2367 C   0  0  0  0  0  0  0  0  0  0  0  0
  -47.2645   59.8471   66.1799 C   0  0  0  0  0  0  0  0  0  0  0  0
  -48.7631   59.8402   65.9760 C   0  0  0  0  0  0  0  0  0  0  0  0
  -49.1254   60.5839   64.6912 C   0  0  0  0  0  0  0  0  0  0  0  0
  -50.6182   60.5464   64.3752 C   0  0  0  0  0  0  0  0  0  0  0  0
  -50.8916   59.8836   63.0225 C   0  0  0  0  0  0  0  0  0  0  0  0
  -50.4939   58.4050   62.9363 C   0  0  0  0  0  0  0  0  0  0  0  0
  -50.0923   57.9954   61.5131 C   0  0  0  0  0  0  0  0  0  0  0  0
  -49.1569   59.0091   60.8489 C   0  0  0  0  0  0  0  0  0  0  0  0
  -48.2803   58.3989   59.7485 C   0  0  0  0  0  0  0  0  0  0  0  0
  -44.5630   59.4146   66.3823 C   0  0  0  0  0  0  0  0  0  0  0  0
  -43.3094   59.9758   67.0294 C   0  0  0  0  0  0  0  0  0  0  0  0
  -42.1721   58.9592   66.9983 C   0  0  0  0  0  0  0  0  0  0  0  0
  -41.9425   58.4725   65.5743 C   0  0  0  0  0  0  0  0  0  0  0  0
  -41.0270   59.4206   64.8160 C   0  0  0  0  0  0  0  0  0  0  0  0
  -39.5899   59.3146   65.3163 C   0  0  0  0  0  0  0  0  0  0  0  0
  -39.1690   60.6300   65.9423 C   0  0  0  0  0  0  0  0  0  0  0  0
  -39.9989   61.5678   66.0581 O   0  0  0  0  0  0  0  0  0  0  0  0
  -37.9885   60.7944   66.3453 O   0  0  0  0  0  0  0  0  0  0  0  0
  -37.3643   60.1004   66.2626 H   0  0  0  0  0  0  0  0  0  0  0  0
 18 19  2  0  0  0
 18 17  1  0  0  0
 18 20  1  0  0  0
 17 16  1  0  0  0
 20 21  1  0  0  0
 16 15  1  0  0  0
 15 14  1  0  0  0
 14 13  1  0  0  0
 13 12  1  0  0  0
 12  1  1  0  0  0
  1  2  1  0  0  0
  2  3  1  0  0  0
  3  4  1  0  0  0
  4  5  1  0  0  0
  5  6  1  0  0  0
  6  7  1  0  0  0
  7  8  1  0  0  0
  8  9  1  0  0  0
  9 10  1  0  0  0
 10 11  1  0  0  0
M  END
> <minimizedAffinity>
-6.93656

> <CNNscore>
0.6366761923

> <CNNaffinity>
6.2171092033

> <CNN_VS>
3.9582853317

> <CNNaffinity_variance>
0.2673305273

$$$$
/media/chris/experiments/cd1a-new-docking/inputs/ligands/4x6d_1_ligand.pdb


 21 20  0  0  0  0  0  0  0  0999 V2000
  -44.1701   57.0154   64.7985 C   0  0  0  0  0  0  0  0  0  0  0  0
  -45.5252   57.3100   65.3923 C   0  0  0  0  0  0  0  0  0  0  0  0
  -46.1381   58.6313   65.1989 C   0  0  0  0  0  0  0  0  0  0  0  0
  -47.4896   58.7546   64.5313 C   0  0  0  0  0  0  0  0  0  0  0  0
  -48.4862   57.7899   65.1727 C   0  0  0  0  0  0  0  0  0  0  0  0
  -49.8006   58.4578   65.5678 C   0  0  0  0  0  0  0  0  0  0  0  0
  -49.8580   59.9127   65.0946 C   0  0  0  0  0  0  0  0  0  0  0  0
  -51.0780   60.2638   64.2344 C   0  0  0  0  0  0  0  0  0  0  0  0
  -51.0183   59.6063   62.8493 C   0  0  0  0  0  0  0  0  0  0  0  0
  -49.9139   60.1914   61.9653 C   0  0  0  0  0  0  0  0  0  0  0  0
  -49.1574   59.1321   61.1546 C   0  0  0  0  0  0  0  0  0  0  0  0
  -43.1218   57.5014   65.7863 C   0  0  0  0  0  0  0  0  0  0  0  0
  -42.2962   58.6418   65.2178 C   0  0  0  0  0  0  0  0  0  0  0  0
  -41.4712   59.3200   66.3074 C   0  0  0  0  0  0  0  0  0  0  0  0
  -40.1732   59.8598   65.7232 C   0  0  0  0  0  0  0  0  0  0  0  0
  -39.9133   59.2763   64.3433 C   0  0  0  0  0  0  0  0  0  0  0  0
  -39.5307   60.3672   63.3483 C   0  0  0  0  0  0  0  0  0  0  0  0
  -38.5758   59.8029   62.3143 C   0  0  0  0  0  0  0  0  0  0  0  0
  -38.3954   58.5609   62.2335 O   0  0  0  0  0  0  0  0  0  0  0  0
  -37.9552   60.5709   61.5346 O   0  0  0  0  0  0  0  0  0  0  0  0
  -38.0843   61.4974   61.5885 H   0  0  0  0  0  0  0  0  0  0  0  0
 18 19  2  0  0  0
 18 17  1  0  0  0
 18 20  1  0  0  0
 17 16  1  0  0  0
 20 21  1  0  0  0
 16 15  1  0  0  0
 15 14  1  0  0  0
 14 13  1  0  0  0
 13 12  1  0  0  0
 12  1  1  0  0  0
  1  2  1  0  0  0
  2  3  1  0  0  0
  3  4  1  0  0  0
  4  5  1  0  0  0
  5  6  1  0  0  0
  6  7  1  0  0  0
  7  8  1  0  0  0
  8  9  1  0  0  0
  9 10  1  0  0  0
 10 11  1  0  0  0
M  END
> <minimizedAffinity>
-6.54790

> <CNNscore>
0.5674335957

> <CNNaffinity>
6.2429380417

> <CNN_VS>
3.5424528122

> <CNNaffinity_variance>
0.2559375167

$$$$
/media/chris/experiments/cd1a-new-docking/inputs/ligands/4x6d_1_ligand.pdb


 21 20  0  0  0  0  0  0  0  0999 V2000
  -39.4467   59.3326   63.9553 C   0  0  0  0  0  0  0  0  0  0  0  0
  -40.2886   59.8786   65.0818 C   0  0  0  0  0  0  0  0  0  0  0  0
  -41.3189   59.0342   65.7018 C   0  0  0  0  0  0  0  0  0  0  0  0
  -42.0382   59.5002   66.9480 C   0  0  0  0  0  0  0  0  0  0  0  0
  -43.5437   59.5685   66.6951 C   0  0  0  0  0  0  0  0  0  0  0  0
  -43.8958   59.9334   65.2555 C   0  0  0  0  0  0  0  0  0  0  0  0
  -45.3541   60.3818   65.1282 C   0  0  0  0  0  0  0  0  0  0  0  0
  -46.3728   59.4686   65.8210 C   0  0  0  0  0  0  0  0  0  0  0  0
  -46.7393   58.2522   64.9604 C   0  0  0  0  0  0  0  0  0  0  0  0
  -47.9787   57.5163   65.4760 C   0  0  0  0  0  0  0  0  0  0  0  0
  -49.2226   58.4085   65.5677 C   0  0  0  0  0  0  0  0  0  0  0  0
  -38.6521   58.1589   64.5047 C   0  0  0  0  0  0  0  0  0  0  0  0
  -37.4630   57.8203   63.6233 C   0  0  0  0  0  0  0  0  0  0  0  0
  -37.8708   57.7434   62.1551 C   0  0  0  0  0  0  0  0  0  0  0  0
  -36.7928   57.0338   61.3478 C   0  0  0  0  0  0  0  0  0  0  0  0
  -36.6399   57.6635   59.9722 C   0  0  0  0  0  0  0  0  0  0  0  0
  -35.8406   56.7593   59.0395 C   0  0  0  0  0  0  0  0  0  0  0  0
  -34.9647   57.6049   58.1356 C   0  0  0  0  0  0  0  0  0  0  0  0
  -33.8012   57.2237   57.8481 O   0  0  0  0  0  0  0  0  0  0  0  0
  -35.3923   58.6933   57.6714 O   0  0  0  0  0  0  0  0  0  0  0  0
  -36.2580   58.9841   57.8810 H   0  0  0  0  0  0  0  0  0  0  0  0
 18 19  2  0  0  0
 18 17  1  0  0  0
 18 20  1  0  0  0
 17 16  1  0  0  0
 20 21  1  0  0  0
 16 15  1  0  0  0
 15 14  1  0  0  0
 14 13  1  0  0  0
 13 12  1  0  0  0
 12  1  1  0  0  0
  1  2  1  0  0  0
  2  3  1  0  0  0
  3  4  1  0  0  0
  4  5  1  0  0  0
  5  6  1  0  0  0
  6  7  1  0  0  0
  7  8  1  0  0  0
  8  9  1  0  0  0
  9 10  1  0  0  0
 10 11  1  0  0  0
M  END
> <minimizedAffinity>
-6.72943

> <CNNscore>
0.5651531816

> <CNNaffinity>
5.7654099464

> <CNN_VS>
3.2583398819

> <CNNaffinity_variance>
0.1986339390

$$$$
