/media/chris/experiments/cd1a-new-docking/inputs/ligands/4x6d_1_ligand.pdb


 21 20  0  0  0  0  0  0  0  0999 V2000
  -48.1349   58.2287   65.1169 C   0  0  0  0  0  0  0  0  0  0  0  0
  -49.6011   58.3664   65.4445 C   0  0  0  0  0  0  0  0  0  0  0  0
  -50.2671   59.6669   65.2893 C   0  0  0  0  0  0  0  0  0  0  0  0
  -50.7923   60.0980   63.9381 C   0  0  0  0  0  0  0  0  0  0  0  0
  -49.6496   60.6222   63.0693 C   0  0  0  0  0  0  0  0  0  0  0  0
  -49.6664   60.0602   61.6503 C   0  0  0  0  0  0  0  0  0  0  0  0
  -49.5019   58.5380   61.6450 C   0  0  0  0  0  0  0  0  0  0  0  0
  -50.4227   57.7928   60.6712 C   0  0  0  0  0  0  0  0  0  0  0  0
  -49.7224   57.4692   59.3449 C   0  0  0  0  0  0  0  0  0  0  0  0
  -48.2016   57.3689   59.4894 C   0  0  0  0  0  0  0  0  0  0  0  0
  -47.4350   58.1731   58.4323 C   0  0  0  0  0  0  0  0  0  0  0  0
  -47.3673   59.1415   66.0595 C   0  0  0  0  0  0  0  0  0  0  0  0
  -46.1087   59.6912   65.4124 C   0  0  0  0  0  0  0  0  0  0  0  0
  -44.8567   59.1267   66.0771 C   0  0  0  0  0  0  0  0  0  0  0  0
  -43.6996   60.1054   65.9331 C   0  0  0  0  0  0  0  0  0  0  0  0
  -43.3426   60.3147   64.4699 C   0  0  0  0  0  0  0  0  0  0  0  0
  -41.8327   60.2652   64.2599 C   0  0  0  0  0  0  0  0  0  0  0  0
  -41.2198   61.5975   64.6455 C   0  0  0  0  0  0  0  0  0  0  0  0
  -41.4846   62.6305   63.9788 O   0  0  0  0  0  0  0  0  0  0  0  0
  -40.4403   61.6784   65.6298 O   0  0  0  0  0  0  0  0  0  0  0  0
  -40.2381   60.9133   66.1316 H   0  0  0  0  0  0  0  0  0  0  0  0
 18 19  2  0  0  0
 18 17  1  0  0  0
 18 20  1  0  0  0
 17 16  1  0  0  0
 20 21  1  0  0  0
 16 15  1  0  0  0
 15 14  1  0  0  0
 14 13  1  0  0  0
 13 12  1  0  0  0
 12  1  1  0  0  0
  1  2  1  0  0  0
  2  3  1  0  0  0
  3  4  1  0  0  0
  4  5  1  0  0  0
  5  6  1  0  0  0
  6  7  1  0  0  0
  7  8  1  0  0  0
  8  9  1  0  0  0
  9 10  1  0  0  0
 10 11  1  0  0  0
M  END
> <minimizedAffinity>
-6.78200

> <CNNscore>
0.8711574078

> <CNNaffinity>
6.6905260086

> <CNN_VS>
5.8285012245

> <CNNaffinity_variance>
0.5312957168

$$$$
/media/chris/experiments/cd1a-new-docking/inputs/ligands/4x6d_1_ligand.pdb


 21 20  0  0  0  0  0  0  0  0999 V2000
  -45.6576   57.3701   65.3268 C   0  0  0  0  0  0  0  0  0  0  0  0
  -47.0367   57.9686   65.4526 C   0  0  0  0  0  0  0  0  0  0  0  0
  -47.7555   58.4110   64.2498 C   0  0  0  0  0  0  0  0  0  0  0  0
  -49.2528   58.6204   64.2903 C   0  0  0  0  0  0  0  0  0  0  0  0
  -49.6371   59.8502   63.4686 C   0  0  0  0  0  0  0  0  0  0  0  0
  -50.1128   59.5073   62.0593 C   0  0  0  0  0  0  0  0  0  0  0  0
  -50.9605   58.2324   62.0454 C   0  0  0  0  0  0  0  0  0  0  0  0
  -50.8829   57.4200   60.7471 C   0  0  0  0  0  0  0  0  0  0  0  0
  -49.5207   56.7355   60.5730 C   0  0  0  0  0  0  0  0  0  0  0  0
  -48.8928   57.0098   59.2039 C   0  0  0  0  0  0  0  0  0  0  0  0
  -47.9963   58.2538   59.1834 C   0  0  0  0  0  0  0  0  0  0  0  0
  -44.8290   57.8797   66.4951 C   0  0  0  0  0  0  0  0  0  0  0  0
  -44.0034   59.0954   66.1136 C   0  0  0  0  0  0  0  0  0  0  0  0
  -42.9912   58.7532   65.0243 C   0  0  0  0  0  0  0  0  0  0  0  0
  -42.0240   59.9116   64.8243 C   0  0  0  0  0  0  0  0  0  0  0  0
  -40.5970   59.4893   65.1364 C   0  0  0  0  0  0  0  0  0  0  0  0
  -39.8462   60.5926   65.8750 C   0  0  0  0  0  0  0  0  0  0  0  0
  -38.3707   60.2493   65.9420 C   0  0  0  0  0  0  0  0  0  0  0  0
  -37.9690   59.1162   65.5727 O   0  0  0  0  0  0  0  0  0  0  0  0
  -37.5401   61.0915   66.3707 O   0  0  0  0  0  0  0  0  0  0  0  0
  -37.8315   61.9379   66.6477 H   0  0  0  0  0  0  0  0  0  0  0  0
 18 19  2  0  0  0
 18 17  1  0  0  0
 18 20  1  0  0  0
 17 16  1  0  0  0
 20 21  1  0  0  0
 16 15  1  0  0  0
 15 14  1  0  0  0
 14 13  1  0  0  0
 13 12  1  0  0  0
 12  1  1  0  0  0
  1  2  1  0  0  0
  2  3  1  0  0  0
  3  4  1  0  0  0
  4  5  1  0  0  0
  5  6  1  0  0  0
  6  7  1  0  0  0
  7  8  1  0  0  0
  8  9  1  0  0  0
  9 10  1  0  0  0
 10 11  1  0  0  0
M  END
> <minimizedAffinity>
-6.35862

> <CNNscore>
0.8251075149

> <CNNaffinity>
6.7258200645

> <CNN_VS>
5.5495247841

> <CNNaffinity_variance>
1.0325622559

$$$$
/media/chris/experiments/cd1a-new-docking/inputs/ligands/4x6d_1_ligand.pdb


 21 20  0  0  0  0  0  0  0  0999 V2000
  -45.7406   59.7712   65.3792 C   0  0  0  0  0  0  0  0  0  0  0  0
  -45.8908   58.3205   64.9933 C   0  0  0  0  0  0  0  0  0  0  0  0
  -47.0265   57.5406   65.5042 C   0  0  0  0  0  0  0  0  0  0  0  0
  -48.4098   58.1502   65.5524 C   0  0  0  0  0  0  0  0  0  0  0  0
  -48.9267   58.4013   64.1364 C   0  0  0  0  0  0  0  0  0  0  0  0
  -50.3295   59.0020   64.1060 C   0  0  0  0  0  0  0  0  0  0  0  0
  -50.6962   59.5069   62.7079 C   0  0  0  0  0  0  0  0  0  0  0  0
  -49.5573   60.2047   61.9545 C   0  0  0  0  0  0  0  0  0  0  0  0
  -49.2742   59.5491   60.5964 C   0  0  0  0  0  0  0  0  0  0  0  0
  -50.0270   58.2291   60.4098 C   0  0  0  0  0  0  0  0  0  0  0  0
  -49.6077   57.4618   59.1500 C   0  0  0  0  0  0  0  0  0  0  0  0
  -44.2529   60.0796   65.4314 C   0  0  0  0  0  0  0  0  0  0  0  0
  -43.6580   59.7614   66.7914 C   0  0  0  0  0  0  0  0  0  0  0  0
  -42.1353   59.8543   66.7612 C   0  0  0  0  0  0  0  0  0  0  0  0
  -41.5557   58.7061   65.9468 C   0  0  0  0  0  0  0  0  0  0  0  0
  -40.6926   59.2274   64.8087 C   0  0  0  0  0  0  0  0  0  0  0  0
  -39.2157   58.9455   65.0653 C   0  0  0  0  0  0  0  0  0  0  0  0
  -38.4661   60.2542   65.2227 C   0  0  0  0  0  0  0  0  0  0  0  0
  -38.7354   61.0245   66.1797 O   0  0  0  0  0  0  0  0  0  0  0  0
  -37.5747   60.5806   64.3969 O   0  0  0  0  0  0  0  0  0  0  0  0
  -37.3683   60.0121   63.6812 H   0  0  0  0  0  0  0  0  0  0  0  0
 18 19  2  0  0  0
 18 17  1  0  0  0
 18 20  1  0  0  0
 17 16  1  0  0  0
 20 21  1  0  0  0
 16 15  1  0  0  0
 15 14  1  0  0  0
 14 13  1  0  0  0
 13 12  1  0  0  0
 12  1  1  0  0  0
  1  2  1  0  0  0
  2  3  1  0  0  0
  3  4  1  0  0  0
  4  5  1  0  0  0
  5  6  1  0  0  0
  6  7  1  0  0  0
  7  8  1  0  0  0
  8  9  1  0  0  0
  9 10  1  0  0  0
 10 11  1  0  0  0
M  END
> <minimizedAffinity>
-6.60724

> <CNNscore>
0.8114357591

> <CNNaffinity>
6.6052350998

> <CNN_VS>
5.3597240448

> <CNNaffinity_variance>
0.4129826427

$$$$
/media/chris/experiments/cd1a-new-docking/inputs/ligands/4x6d_1_ligand.pdb


 21 20  0  0  0  0  0  0  0  0999 V2000
  -47.5061   58.6474   64.3101 C   0  0  0  0  0  0  0  0  0  0  0  0
  -48.5604   57.9833   65.1605 C   0  0  0  0  0  0  0  0  0  0  0  0
  -49.9703   58.3701   65.0137 C   0  0  0  0  0  0  0  0  0  0  0  0
  -50.4404   59.7298   65.4801 C   0  0  0  0  0  0  0  0  0  0  0  0
  -50.7502   60.6228   64.2793 C   0  0  0  0  0  0  0  0  0  0  0  0
  -50.7993   59.8589   62.9587 C   0  0  0  0  0  0  0  0  0  0  0  0
  -49.7693   60.3935   61.9599 C   0  0  0  0  0  0  0  0  0  0  0  0
  -49.5122   59.4865   60.7505 C   0  0  0  0  0  0  0  0  0  0  0  0
  -49.9940   58.0497   60.9913 C   0  0  0  0  0  0  0  0  0  0  0  0
  -49.1541   57.0120   60.2420 C   0  0  0  0  0  0  0  0  0  0  0  0
  -47.9193   57.6086   59.5556 C   0  0  0  0  0  0  0  0  0  0  0  0
  -46.1875   58.5560   65.0610 C   0  0  0  0  0  0  0  0  0  0  0  0
  -45.7046   59.9197   65.5216 C   0  0  0  0  0  0  0  0  0  0  0  0
  -44.1818   60.0067   65.4808 C   0  0  0  0  0  0  0  0  0  0  0  0
  -43.5939   59.5367   66.8040 C   0  0  0  0  0  0  0  0  0  0  0  0
  -42.3081   60.2828   67.1239 C   0  0  0  0  0  0  0  0  0  0  0  0
  -41.1622   59.8091   66.2357 C   0  0  0  0  0  0  0  0  0  0  0  0
  -40.2361   60.9713   65.9340 C   0  0  0  0  0  0  0  0  0  0  0  0
  -40.6077   62.1504   66.1645 O   0  0  0  0  0  0  0  0  0  0  0  0
  -39.0940   60.7655   65.4480 O   0  0  0  0  0  0  0  0  0  0  0  0
  -38.8098   59.8899   65.2735 H   0  0  0  0  0  0  0  0  0  0  0  0
 18 19  2  0  0  0
 18 17  1  0  0  0
 18 20  1  0  0  0
 17 16  1  0  0  0
 20 21  1  0  0  0
 16 15  1  0  0  0
 15 14  1  0  0  0
 14 13  1  0  0  0
 13 12  1  0  0  0
 12  1  1  0  0  0
  1  2  1  0  0  0
  2  3  1  0  0  0
  3  4  1  0  0  0
  4  5  1  0  0  0
  5  6  1  0  0  0
  6  7  1  0  0  0
  7  8  1  0  0  0
  8  9  1  0  0  0
  9 10  1  0  0  0
 10 11  1  0  0  0
M  END
> <minimizedAffinity>
-7.04705

> <CNNscore>
0.8039957881

> <CNNaffinity>
6.4835791588

> <CNN_VS>
5.2127704620

> <CNNaffinity_variance>
0.2652956545

$$$$
/media/chris/experiments/cd1a-new-docking/inputs/ligands/4x6d_1_ligand.pdb


 21 20  0  0  0  0  0  0  0  0999 V2000
  -46.5374   56.9956   65.8690 C   0  0  0  0  0  0  0  0  0  0  0  0
  -47.0624   58.0012   64.8745 C   0  0  0  0  0  0  0  0  0  0  0  0
  -47.2080   59.4102   65.2650 C   0  0  0  0  0  0  0  0  0  0  0  0
  -48.3549   59.8410   66.1518 C   0  0  0  0  0  0  0  0  0  0  0  0
  -49.6298   59.0901   65.7695 C   0  0  0  0  0  0  0  0  0  0  0  0
  -50.7803   60.0160   65.3837 C   0  0  0  0  0  0  0  0  0  0  0  0
  -50.6258   60.5411   63.9538 C   0  0  0  0  0  0  0  0  0  0  0  0
  -50.8659   59.4993   62.8544 C   0  0  0  0  0  0  0  0  0  0  0  0
  -49.7741   59.5326   61.7768 C   0  0  0  0  0  0  0  0  0  0  0  0
  -49.5982   58.1844   61.0729 C   0  0  0  0  0  0  0  0  0  0  0  0
  -50.9073   57.3996   60.9244 C   0  0  0  0  0  0  0  0  0  0  0  0
  -45.2202   57.5296   66.4083 C   0  0  0  0  0  0  0  0  0  0  0  0
  -44.1206   57.4799   65.3626 C   0  0  0  0  0  0  0  0  0  0  0  0
  -43.3339   58.7868   65.3290 C   0  0  0  0  0  0  0  0  0  0  0  0
  -43.5062   59.5367   66.6426 C   0  0  0  0  0  0  0  0  0  0  0  0
  -42.1619   59.9863   67.1930 C   0  0  0  0  0  0  0  0  0  0  0  0
  -41.0546   59.7979   66.1611 C   0  0  0  0  0  0  0  0  0  0  0  0
  -40.2512   61.0777   66.0350 C   0  0  0  0  0  0  0  0  0  0  0  0
  -38.9944   61.0383   66.0541 O   0  0  0  0  0  0  0  0  0  0  0  0
  -40.8344   62.1862   65.9153 O   0  0  0  0  0  0  0  0  0  0  0  0
  -41.7705   62.2238   65.9002 H   0  0  0  0  0  0  0  0  0  0  0  0
 18 19  2  0  0  0
 18 17  1  0  0  0
 18 20  1  0  0  0
 17 16  1  0  0  0
 20 21  1  0  0  0
 16 15  1  0  0  0
 15 14  1  0  0  0
 14 13  1  0  0  0
 13 12  1  0  0  0
 12  1  1  0  0  0
  1  2  1  0  0  0
  2  3  1  0  0  0
  3  4  1  0  0  0
  4  5  1  0  0  0
  5  6  1  0  0  0
  6  7  1  0  0  0
  7  8  1  0  0  0
  8  9  1  0  0  0
  9 10  1  0  0  0
 10 11  1  0  0  0
M  END
> <minimizedAffinity>
-6.78639

> <CNNscore>
0.7913604379

> <CNNaffinity>
6.5043306351

> <CNN_VS>
5.1472697258

> <CNNaffinity_variance>
0.3929515481

$$$$
/media/chris/experiments/cd1a-new-docking/inputs/ligands/4x6d_1_ligand.pdb


 21 20  0  0  0  0  0  0  0  0999 V2000
  -45.9214   57.3137   65.5079 C   0  0  0  0  0  0  0  0  0  0  0  0
  -47.2723   57.9590   65.6937 C   0  0  0  0  0  0  0  0  0  0  0  0
  -47.9699   58.5429   64.5398 C   0  0  0  0  0  0  0  0  0  0  0  0
  -49.3642   58.0816   64.1784 C   0  0  0  0  0  0  0  0  0  0  0  0
  -50.2485   59.2823   63.8443 C   0  0  0  0  0  0  0  0  0  0  0  0
  -50.7208   59.2960   62.3929 C   0  0  0  0  0  0  0  0  0  0  0  0
  -51.0467   57.8860   61.8931 C   0  0  0  0  0  0  0  0  0  0  0  0
  -50.5972   57.5905   60.4571 C   0  0  0  0  0  0  0  0  0  0  0  0
  -49.4101   56.6193   60.4102 C   0  0  0  0  0  0  0  0  0  0  0  0
  -48.1429   57.2631   59.8415 C   0  0  0  0  0  0  0  0  0  0  0  0
  -48.2681   58.7779   59.6379 C   0  0  0  0  0  0  0  0  0  0  0  0
  -44.9744   57.9335   66.5228 C   0  0  0  0  0  0  0  0  0  0  0  0
  -44.3418   59.2101   65.9984 C   0  0  0  0  0  0  0  0  0  0  0  0
  -43.2609   58.9046   64.9658 C   0  0  0  0  0  0  0  0  0  0  0  0
  -42.3784   60.1267   64.7528 C   0  0  0  0  0  0  0  0  0  0  0  0
  -42.6764   60.7869   63.4159 C   0  0  0  0  0  0  0  0  0  0  0  0
  -41.3890   61.1398   62.6780 C   0  0  0  0  0  0  0  0  0  0  0  0
  -41.7238   61.7624   61.3366 C   0  0  0  0  0  0  0  0  0  0  0  0
  -41.2290   61.2909   60.2809 O   0  0  0  0  0  0  0  0  0  0  0  0
  -42.4934   62.7556   61.2701 O   0  0  0  0  0  0  0  0  0  0  0  0
  -42.8661   63.1127   62.0521 H   0  0  0  0  0  0  0  0  0  0  0  0
 18 19  2  0  0  0
 18 17  1  0  0  0
 18 20  1  0  0  0
 17 16  1  0  0  0
 20 21  1  0  0  0
 16 15  1  0  0  0
 15 14  1  0  0  0
 14 13  1  0  0  0
 13 12  1  0  0  0
 12  1  1  0  0  0
  1  2  1  0  0  0
  2  3  1  0  0  0
  3  4  1  0  0  0
  4  5  1  0  0  0
  5  6  1  0  0  0
  6  7  1  0  0  0
  7  8  1  0  0  0
  8  9  1  0  0  0
  9 10  1  0  0  0
 10 11  1  0  0  0
M  END
> <minimizedAffinity>
-6.50191

> <CNNscore>
0.6661169529

> <CNNaffinity>
6.4589691162

> <CNN_VS>
4.3024287224

> <CNNaffinity_variance>
0.6466589570

$$$$
/media/chris/experiments/cd1a-new-docking/inputs/ligands/4x6d_1_ligand.pdb


 21 20  0  0  0  0  0  0  0  0999 V2000
  -44.5644   59.3059   64.9562 C   0  0  0  0  0  0  0  0  0  0  0  0
  -45.6293   60.3507   65.1802 C   0  0  0  0  0  0  0  0  0  0  0  0
  -47.0465   59.9627   65.1840 C   0  0  0  0  0  0  0  0  0  0  0  0
  -47.4987   58.7197   64.4507 C   0  0  0  0  0  0  0  0  0  0  0  0
  -48.9383   58.3756   64.8309 C   0  0  0  0  0  0  0  0  0  0  0  0
  -49.8884   59.5657   64.7272 C   0  0  0  0  0  0  0  0  0  0  0  0
  -50.7166   59.5153   63.4405 C   0  0  0  0  0  0  0  0  0  0  0  0
  -50.0608   60.1806   62.2245 C   0  0  0  0  0  0  0  0  0  0  0  0
  -49.6146   59.1552   61.1739 C   0  0  0  0  0  0  0  0  0  0  0  0
  -50.2031   57.7635   61.4202 C   0  0  0  0  0  0  0  0  0  0  0  0
  -49.7924   56.7326   60.3617 C   0  0  0  0  0  0  0  0  0  0  0  0
  -43.2298   60.0268   64.8550 C   0  0  0  0  0  0  0  0  0  0  0  0
  -42.5144   60.0803   66.1930 C   0  0  0  0  0  0  0  0  0  0  0  0
  -41.0005   60.0288   66.0099 C   0  0  0  0  0  0  0  0  0  0  0  0
  -40.6469   59.1710   64.8030 C   0  0  0  0  0  0  0  0  0  0  0  0
  -39.4714   59.7619   64.0409 C   0  0  0  0  0  0  0  0  0  0  0  0
  -39.9462   60.5631   62.8329 C   0  0  0  0  0  0  0  0  0  0  0  0
  -38.8996   60.5032   61.7373 C   0  0  0  0  0  0  0  0  0  0  0  0
  -37.6824   60.3903   62.0328 O   0  0  0  0  0  0  0  0  0  0  0  0
  -39.2397   60.5705   60.5278 O   0  0  0  0  0  0  0  0  0  0  0  0
  -40.1446   60.6547   60.2995 H   0  0  0  0  0  0  0  0  0  0  0  0
 18 19  2  0  0  0
 18 17  1  0  0  0
 18 20  1  0  0  0
 17 16  1  0  0  0
 20 21  1  0  0  0
 16 15  1  0  0  0
 15 14  1  0  0  0
 14 13  1  0  0  0
 13 12  1  0  0  0
 12  1  1  0  0  0
  1  2  1  0  0  0
  2  3  1  0  0  0
  3  4  1  0  0  0
  4  5  1  0  0  0
  5  6  1  0  0  0
  6  7  1  0  0  0
  7  8  1  0  0  0
  8  9  1  0  0  0
  9 10  1  0  0  0
 10 11  1  0  0  0
M  END
> <minimizedAffinity>
-6.29187

> <CNNscore>
0.6177088618

> <CNNaffinity>
6.3007459641

> <CNN_VS>
3.8920266628

> <CNNaffinity_variance>
0.4498280883

$$$$
/media/chris/experiments/cd1a-new-docking/inputs/ligands/4x6d_1_ligand.pdb


 21 20  0  0  0  0  0  0  0  0999 V2000
  -42.4669   57.8801   65.6025 C   0  0  0  0  0  0  0  0  0  0  0  0
  -43.6642   58.3100   64.7917 C   0  0  0  0  0  0  0  0  0  0  0  0
  -44.4782   59.4500   65.2354 C   0  0  0  0  0  0  0  0  0  0  0  0
  -45.9879   59.3716   65.1920 C   0  0  0  0  0  0  0  0  0  0  0  0
  -46.4460   57.9194   65.3209 C   0  0  0  0  0  0  0  0  0  0  0  0
  -47.9576   57.7518   65.1911 C   0  0  0  0  0  0  0  0  0  0  0  0
  -48.4902   58.4114   63.9162 C   0  0  0  0  0  0  0  0  0  0  0  0
  -50.0129   58.5868   63.8682 C   0  0  0  0  0  0  0  0  0  0  0  0
  -50.5513   58.5828   62.4314 C   0  0  0  0  0  0  0  0  0  0  0  0
  -49.4937   58.9942   61.4036 C   0  0  0  0  0  0  0  0  0  0  0  0
  -49.5302   60.4876   61.0568 C   0  0  0  0  0  0  0  0  0  0  0  0
  -41.7151   59.1368   66.0106 C   0  0  0  0  0  0  0  0  0  0  0  0
  -40.5841   59.4551   65.0490 C   0  0  0  0  0  0  0  0  0  0  0  0
  -39.8334   58.1899   64.6445 C   0  0  0  0  0  0  0  0  0  0  0  0
  -38.4310   58.5417   64.1678 C   0  0  0  0  0  0  0  0  0  0  0  0
  -38.1195   57.8615   62.8442 C   0  0  0  0  0  0  0  0  0  0  0  0
  -37.1893   58.7181   61.9913 C   0  0  0  0  0  0  0  0  0  0  0  0
  -37.9765   59.3622   60.8667 C   0  0  0  0  0  0  0  0  0  0  0  0
  -38.7541   60.3205   61.1090 O   0  0  0  0  0  0  0  0  0  0  0  0
  -37.8615   58.9410   59.6867 O   0  0  0  0  0  0  0  0  0  0  0  0
  -37.2842   58.2275   59.4981 H   0  0  0  0  0  0  0  0  0  0  0  0
 18 19  2  0  0  0
 18 17  1  0  0  0
 18 20  1  0  0  0
 17 16  1  0  0  0
 20 21  1  0  0  0
 16 15  1  0  0  0
 15 14  1  0  0  0
 14 13  1  0  0  0
 13 12  1  0  0  0
 12  1  1  0  0  0
  1  2  1  0  0  0
  2  3  1  0  0  0
  3  4  1  0  0  0
  4  5  1  0  0  0
  5  6  1  0  0  0
  6  7  1  0  0  0
  7  8  1  0  0  0
  8  9  1  0  0  0
  9 10  1  0  0  0
 10 11  1  0  0  0
M  END
> <minimizedAffinity>
-6.50206

> <CNNscore>
0.6073105931

> <CNNaffinity>
6.2427606583

> <CNN_VS>
3.7912945747

> <CNNaffinity_variance>
0.5283511281

$$$$
/media/chris/experiments/cd1a-new-docking/inputs/ligands/4x6d_1_ligand.pdb


 21 20  0  0  0  0  0  0  0  0999 V2000
  -48.3820   58.7508   63.8587 C   0  0  0  0  0  0  0  0  0  0  0  0
  -47.5450   58.2281   64.9999 C   0  0  0  0  0  0  0  0  0  0  0  0
  -47.4896   58.9699   66.2670 C   0  0  0  0  0  0  0  0  0  0  0  0
  -46.1693   59.1672   66.9778 C   0  0  0  0  0  0  0  0  0  0  0  0
  -45.0996   59.6274   65.9881 C   0  0  0  0  0  0  0  0  0  0  0  0
  -43.7179   59.0506   66.2848 C   0  0  0  0  0  0  0  0  0  0  0  0
  -42.8511   60.0392   67.0693 C   0  0  0  0  0  0  0  0  0  0  0  0
  -41.4957   60.3593   66.4276 C   0  0  0  0  0  0  0  0  0  0  0  0
  -41.2780   59.5883   65.1189 C   0  0  0  0  0  0  0  0  0  0  0  0
  -41.0983   60.5129   63.9120 C   0  0  0  0  0  0  0  0  0  0  0  0
  -42.4153   61.1083   63.3995 C   0  0  0  0  0  0  0  0  0  0  0  0
  -49.8400   58.4971   64.2064 C   0  0  0  0  0  0  0  0  0  0  0  0
  -50.7797   59.1352   63.1990 C   0  0  0  0  0  0  0  0  0  0  0  0
  -50.2124   59.0477   61.7853 C   0  0  0  0  0  0  0  0  0  0  0  0
  -50.6609   57.7544   61.1192 C   0  0  0  0  0  0  0  0  0  0  0  0
  -50.0404   57.6097   59.7386 C   0  0  0  0  0  0  0  0  0  0  0  0
  -48.5824   58.0578   59.7415 C   0  0  0  0  0  0  0  0  0  0  0  0
  -47.7156   56.9790   59.1217 C   0  0  0  0  0  0  0  0  0  0  0  0
  -46.6901   57.2932   58.4652 O   0  0  0  0  0  0  0  0  0  0  0  0
  -48.0176   55.7649   59.2554 O   0  0  0  0  0  0  0  0  0  0  0  0
  -48.7801   55.5227   59.7431 H   0  0  0  0  0  0  0  0  0  0  0  0
 18 19  2  0  0  0
 18 17  1  0  0  0
 18 20  1  0  0  0
 17 16  1  0  0  0
 20 21  1  0  0  0
 16 15  1  0  0  0
 15 14  1  0  0  0
 14 13  1  0  0  0
 13 12  1  0  0  0
 12  1  1  0  0  0
  1  2  1  0  0  0
  2  3  1  0  0  0
  3  4  1  0  0  0
  4  5  1  0  0  0
  5  6  1  0  0  0
  6  7  1  0  0  0
  7  8  1  0  0  0
  8  9  1  0  0  0
  9 10  1  0  0  0
 10 11  1  0  0  0
M  END
> <minimizedAffinity>
-6.57025

> <CNNscore>
0.5831954479

> <CNNaffinity>
6.3929185867

> <CNN_VS>
3.7283210754

> <CNNaffinity_variance>
0.7000638247

$$$$
