/media/chris/experiments/cd1a-new-docking/inputs/ligands/4x6d_1_ligand.pdb


 21 20  0  0  0  0  0  0  0  0999 V2000
  -47.4190   59.2442   65.0104 C   0  0  0  0  0  0  0  0  0  0  0  0
  -48.5234   60.1397   64.5062 C   0  0  0  0  0  0  0  0  0  0  0  0
  -49.9084   59.9091   64.9391 C   0  0  0  0  0  0  0  0  0  0  0  0
  -51.0629   60.3223   64.0538 C   0  0  0  0  0  0  0  0  0  0  0  0
  -50.8316   59.8381   62.6228 C   0  0  0  0  0  0  0  0  0  0  0  0
  -50.9952   58.3289   62.4649 C   0  0  0  0  0  0  0  0  0  0  0  0
  -50.2645   57.8095   61.2237 C   0  0  0  0  0  0  0  0  0  0  0  0
  -48.8131   58.2843   61.0835 C   0  0  0  0  0  0  0  0  0  0  0  0
  -48.3630   58.3456   59.6179 C   0  0  0  0  0  0  0  0  0  0  0  0
  -47.3306   57.2694   59.2720 C   0  0  0  0  0  0  0  0  0  0  0  0
  -47.9312   56.0608   58.5439 C   0  0  0  0  0  0  0  0  0  0  0  0
  -46.2509   60.1344   65.4032 C   0  0  0  0  0  0  0  0  0  0  0  0
  -45.3855   59.4911   66.4720 C   0  0  0  0  0  0  0  0  0  0  0  0
  -43.9043   59.6106   66.1260 C   0  0  0  0  0  0  0  0  0  0  0  0
  -43.7368   60.2091   64.7364 C   0  0  0  0  0  0  0  0  0  0  0  0
  -42.2693   60.4543   64.4228 C   0  0  0  0  0  0  0  0  0  0  0  0
  -41.3762   59.9773   65.5636 C   0  0  0  0  0  0  0  0  0  0  0  0
  -40.3314   61.0327   65.8695 C   0  0  0  0  0  0  0  0  0  0  0  0
  -40.6847   62.1984   66.1824 O   0  0  0  0  0  0  0  0  0  0  0  0
  -39.1063   60.7523   65.8082 O   0  0  0  0  0  0  0  0  0  0  0  0
  -38.8351   59.8861   65.5757 H   0  0  0  0  0  0  0  0  0  0  0  0
 18 19  2  0  0  0
 18 17  1  0  0  0
 18 20  1  0  0  0
 17 16  1  0  0  0
 20 21  1  0  0  0
 16 15  1  0  0  0
 15 14  1  0  0  0
 14 13  1  0  0  0
 13 12  1  0  0  0
 12  1  1  0  0  0
  1  2  1  0  0  0
  2  3  1  0  0  0
  3  4  1  0  0  0
  4  5  1  0  0  0
  5  6  1  0  0  0
  6  7  1  0  0  0
  7  8  1  0  0  0
  8  9  1  0  0  0
  9 10  1  0  0  0
 10 11  1  0  0  0
M  END
> <minimizedAffinity>
-6.87696

> <CNNscore>
0.9154332876

> <CNNaffinity>
6.9000444412

> <CNN_VS>
6.3165302277

> <CNNaffinity_variance>
0.6238343716

$$$$
/media/chris/experiments/cd1a-new-docking/inputs/ligands/4x6d_1_ligand.pdb


 21 20  0  0  0  0  0  0  0  0999 V2000
  -46.8624   59.9531   66.2019 C   0  0  0  0  0  0  0  0  0  0  0  0
  -47.9714   60.8883   65.7877 C   0  0  0  0  0  0  0  0  0  0  0  0
  -48.1449   61.2363   64.3707 C   0  0  0  0  0  0  0  0  0  0  0  0
  -49.2159   60.5592   63.5450 C   0  0  0  0  0  0  0  0  0  0  0  0
  -48.7581   59.1620   63.1281 C   0  0  0  0  0  0  0  0  0  0  0  0
  -49.9156   58.1957   62.8915 C   0  0  0  0  0  0  0  0  0  0  0  0
  -50.5322   58.3840   61.5028 C   0  0  0  0  0  0  0  0  0  0  0  0
  -50.4222   57.1663   60.5773 C   0  0  0  0  0  0  0  0  0  0  0  0
  -49.6486   57.4847   59.2910 C   0  0  0  0  0  0  0  0  0  0  0  0
  -48.1838   57.8418   59.5564 C   0  0  0  0  0  0  0  0  0  0  0  0
  -47.3820   58.1138   58.2778 C   0  0  0  0  0  0  0  0  0  0  0  0
  -45.6659   60.2373   65.3082 C   0  0  0  0  0  0  0  0  0  0  0  0
  -44.8371   58.9894   65.0611 C   0  0  0  0  0  0  0  0  0  0  0  0
  -44.0010   58.6328   66.2866 C   0  0  0  0  0  0  0  0  0  0  0  0
  -42.5198   58.6566   65.9360 C   0  0  0  0  0  0  0  0  0  0  0  0
  -41.7301   59.4520   66.9635 C   0  0  0  0  0  0  0  0  0  0  0  0
  -41.8878   60.9521   66.7370 C   0  0  0  0  0  0  0  0  0  0  0  0
  -40.7687   61.4542   65.8456 C   0  0  0  0  0  0  0  0  0  0  0  0
  -41.0369   62.0579   64.7755 O   0  0  0  0  0  0  0  0  0  0  0  0
  -39.5665   61.2671   66.1666 O   0  0  0  0  0  0  0  0  0  0  0  0
  -39.3585   60.8181   66.9622 H   0  0  0  0  0  0  0  0  0  0  0  0
 18 19  2  0  0  0
 18 17  1  0  0  0
 18 20  1  0  0  0
 17 16  1  0  0  0
 20 21  1  0  0  0
 16 15  1  0  0  0
 15 14  1  0  0  0
 14 13  1  0  0  0
 13 12  1  0  0  0
 12  1  1  0  0  0
  1  2  1  0  0  0
  2  3  1  0  0  0
  3  4  1  0  0  0
  4  5  1  0  0  0
  5  6  1  0  0  0
  6  7  1  0  0  0
  7  8  1  0  0  0
  8  9  1  0  0  0
  9 10  1  0  0  0
 10 11  1  0  0  0
M  END
> <minimizedAffinity>
-6.93051

> <CNNscore>
0.8162905574

> <CNNaffinity>
6.4476408958

> <CNN_VS>
5.2631483078

> <CNNaffinity_variance>
0.4251905084

$$$$
/media/chris/experiments/cd1a-new-docking/inputs/ligands/4x6d_1_ligand.pdb


 21 20  0  0  0  0  0  0  0  0999 V2000
  -47.2473   57.2431   65.4097 C   0  0  0  0  0  0  0  0  0  0  0  0
  -47.5952   58.6914   65.1703 C   0  0  0  0  0  0  0  0  0  0  0  0
  -48.6794   59.3205   65.9369 C   0  0  0  0  0  0  0  0  0  0  0  0
  -50.1229   58.9987   65.6208 C   0  0  0  0  0  0  0  0  0  0  0  0
  -50.8142   60.2162   65.0081 C   0  0  0  0  0  0  0  0  0  0  0  0
  -51.1268   60.0465   63.5238 C   0  0  0  0  0  0  0  0  0  0  0  0
  -49.9080   60.3596   62.6517 C   0  0  0  0  0  0  0  0  0  0  0  0
  -49.4480   59.2089   61.7485 C   0  0  0  0  0  0  0  0  0  0  0  0
  -50.2333   57.9171   62.0113 C   0  0  0  0  0  0  0  0  0  0  0  0
  -50.7810   57.2879   60.7276 C   0  0  0  0  0  0  0  0  0  0  0  0
  -50.0875   57.7942   59.4572 C   0  0  0  0  0  0  0  0  0  0  0  0
  -45.9724   57.2090   66.2370 C   0  0  0  0  0  0  0  0  0  0  0  0
  -44.7550   57.5900   65.4137 C   0  0  0  0  0  0  0  0  0  0  0  0
  -43.6214   58.0874   66.3057 C   0  0  0  0  0  0  0  0  0  0  0  0
  -43.8091   59.5656   66.6174 C   0  0  0  0  0  0  0  0  0  0  0  0
  -42.5758   60.1394   67.2969 C   0  0  0  0  0  0  0  0  0  0  0  0
  -41.3104   59.8029   66.5145 C   0  0  0  0  0  0  0  0  0  0  0  0
  -40.9330   60.9725   65.6266 C   0  0  0  0  0  0  0  0  0  0  0  0
  -40.5173   62.0440   66.1372 O   0  0  0  0  0  0  0  0  0  0  0  0
  -41.0370   60.8820   64.3759 O   0  0  0  0  0  0  0  0  0  0  0  0
  -41.3460   60.0871   63.9879 H   0  0  0  0  0  0  0  0  0  0  0  0
 18 19  2  0  0  0
 18 17  1  0  0  0
 18 20  1  0  0  0
 17 16  1  0  0  0
 20 21  1  0  0  0
 16 15  1  0  0  0
 15 14  1  0  0  0
 14 13  1  0  0  0
 13 12  1  0  0  0
 12  1  1  0  0  0
  1  2  1  0  0  0
  2  3  1  0  0  0
  3  4  1  0  0  0
  4  5  1  0  0  0
  5  6  1  0  0  0
  6  7  1  0  0  0
  7  8  1  0  0  0
  8  9  1  0  0  0
  9 10  1  0  0  0
 10 11  1  0  0  0
M  END
> <minimizedAffinity>
-6.84372

> <CNNscore>
0.8150917888

> <CNNaffinity>
6.5321855545

> <CNN_VS>
5.3243308067

> <CNNaffinity_variance>
0.5363334417

$$$$
/media/chris/experiments/cd1a-new-docking/inputs/ligands/4x6d_1_ligand.pdb


 21 20  0  0  0  0  0  0  0  0999 V2000
  -44.5340   57.8945   64.7292 C   0  0  0  0  0  0  0  0  0  0  0  0
  -45.9801   57.6489   65.0818 C   0  0  0  0  0  0  0  0  0  0  0  0
  -46.9981   58.6510   64.7377 C   0  0  0  0  0  0  0  0  0  0  0  0
  -48.3857   58.2165   64.3214 C   0  0  0  0  0  0  0  0  0  0  0  0
  -49.0150   59.2644   63.4040 C   0  0  0  0  0  0  0  0  0  0  0  0
  -50.4185   58.8889   62.9362 C   0  0  0  0  0  0  0  0  0  0  0  0
  -50.3802   58.0488   61.6568 C   0  0  0  0  0  0  0  0  0  0  0  0
  -49.3921   58.5398   60.5917 C   0  0  0  0  0  0  0  0  0  0  0  0
  -49.1083   57.4706   59.5284 C   0  0  0  0  0  0  0  0  0  0  0  0
  -47.6178   57.3425   59.2033 C   0  0  0  0  0  0  0  0  0  0  0  0
  -47.1960   58.1325   57.9585 C   0  0  0  0  0  0  0  0  0  0  0  0
  -44.2701   59.3831   64.8889 C   0  0  0  0  0  0  0  0  0  0  0  0
  -42.8078   59.7243   64.6642 C   0  0  0  0  0  0  0  0  0  0  0  0
  -41.8955   58.7430   65.3942 C   0  0  0  0  0  0  0  0  0  0  0  0
  -40.5502   59.3938   65.6840 C   0  0  0  0  0  0  0  0  0  0  0  0
  -39.6447   59.3383   64.4637 C   0  0  0  0  0  0  0  0  0  0  0  0
  -38.8433   58.0409   64.4323 C   0  0  0  0  0  0  0  0  0  0  0  0
  -37.4219   58.3077   64.8876 C   0  0  0  0  0  0  0  0  0  0  0  0
  -37.1033   59.4409   65.3304 O   0  0  0  0  0  0  0  0  0  0  0  0
  -36.5516   57.4014   64.8217 O   0  0  0  0  0  0  0  0  0  0  0  0
  -36.7811   56.5546   64.4929 H   0  0  0  0  0  0  0  0  0  0  0  0
 18 19  2  0  0  0
 18 17  1  0  0  0
 18 20  1  0  0  0
 17 16  1  0  0  0
 20 21  1  0  0  0
 16 15  1  0  0  0
 15 14  1  0  0  0
 14 13  1  0  0  0
 13 12  1  0  0  0
 12  1  1  0  0  0
  1  2  1  0  0  0
  2  3  1  0  0  0
  3  4  1  0  0  0
  4  5  1  0  0  0
  5  6  1  0  0  0
  6  7  1  0  0  0
  7  8  1  0  0  0
  8  9  1  0  0  0
  9 10  1  0  0  0
 10 11  1  0  0  0
M  END
> <minimizedAffinity>
-6.47534

> <CNNscore>
0.7910238504

> <CNNaffinity>
6.7100548744

> <CNN_VS>
5.3078136444

> <CNNaffinity_variance>
0.7312108278

$$$$
/media/chris/experiments/cd1a-new-docking/inputs/ligands/4x6d_1_ligand.pdb


 21 20  0  0  0  0  0  0  0  0999 V2000
  -44.1302   58.4881   65.2681 C   0  0  0  0  0  0  0  0  0  0  0  0
  -44.4441   59.2183   66.5503 C   0  0  0  0  0  0  0  0  0  0  0  0
  -45.8028   59.1689   67.1074 C   0  0  0  0  0  0  0  0  0  0  0  0
  -46.7998   58.1528   66.5967 C   0  0  0  0  0  0  0  0  0  0  0  0
  -48.0111   58.8594   65.9892 C   0  0  0  0  0  0  0  0  0  0  0  0
  -48.4765   58.2339   64.6770 C   0  0  0  0  0  0  0  0  0  0  0  0
  -49.9437   58.5604   64.3861 C   0  0  0  0  0  0  0  0  0  0  0  0
  -50.2862   58.7237   62.9003 C   0  0  0  0  0  0  0  0  0  0  0  0
  -49.0464   58.6057   62.0040 C   0  0  0  0  0  0  0  0  0  0  0  0
  -49.3666   58.8204   60.5224 C   0  0  0  0  0  0  0  0  0  0  0  0
  -50.1024   57.6378   59.8808 C   0  0  0  0  0  0  0  0  0  0  0  0
  -42.7947   57.7864   65.4558 C   0  0  0  0  0  0  0  0  0  0  0  0
  -41.7142   58.7451   65.9232 C   0  0  0  0  0  0  0  0  0  0  0  0
  -40.8673   59.2329   64.7516 C   0  0  0  0  0  0  0  0  0  0  0  0
  -41.1953   60.6856   64.4361 C   0  0  0  0  0  0  0  0  0  0  0  0
  -40.4531   61.1538   63.1943 C   0  0  0  0  0  0  0  0  0  0  0  0
  -39.4124   60.1282   62.7566 C   0  0  0  0  0  0  0  0  0  0  0  0
  -38.9328   60.4538   61.3555 C   0  0  0  0  0  0  0  0  0  0  0  0
  -37.7189   60.3171   61.0564 O   0  0  0  0  0  0  0  0  0  0  0  0
  -39.7425   60.8663   60.4852 O   0  0  0  0  0  0  0  0  0  0  0  0
  -40.6484   60.9708   60.7003 H   0  0  0  0  0  0  0  0  0  0  0  0
 18 19  2  0  0  0
 18 17  1  0  0  0
 18 20  1  0  0  0
 17 16  1  0  0  0
 20 21  1  0  0  0
 16 15  1  0  0  0
 15 14  1  0  0  0
 14 13  1  0  0  0
 13 12  1  0  0  0
 12  1  1  0  0  0
  1  2  1  0  0  0
  2  3  1  0  0  0
  3  4  1  0  0  0
  4  5  1  0  0  0
  5  6  1  0  0  0
  6  7  1  0  0  0
  7  8  1  0  0  0
  8  9  1  0  0  0
  9 10  1  0  0  0
 10 11  1  0  0  0
M  END
> <minimizedAffinity>
-6.29239

> <CNNscore>
0.7892260551

> <CNNaffinity>
6.5633368492

> <CNN_VS>
5.1799564362

> <CNNaffinity_variance>
0.6691294909

$$$$
/media/chris/experiments/cd1a-new-docking/inputs/ligands/4x6d_1_ligand.pdb


 21 20  0  0  0  0  0  0  0  0999 V2000
  -45.2984   59.8645   65.3323 C   0  0  0  0  0  0  0  0  0  0  0  0
  -46.7402   60.1717   65.6526 C   0  0  0  0  0  0  0  0  0  0  0  0
  -47.7684   60.0262   64.6131 C   0  0  0  0  0  0  0  0  0  0  0  0
  -48.5585   58.7418   64.4967 C   0  0  0  0  0  0  0  0  0  0  0  0
  -49.4462   58.7779   63.2532 C   0  0  0  0  0  0  0  0  0  0  0  0
  -49.3671   60.1009   62.4961 C   0  0  0  0  0  0  0  0  0  0  0  0
  -49.4135   59.8869   60.9809 C   0  0  0  0  0  0  0  0  0  0  0  0
  -49.4964   58.4209   60.5384 C   0  0  0  0  0  0  0  0  0  0  0  0
  -48.1519   57.8966   60.0172 C   0  0  0  0  0  0  0  0  0  0  0  0
  -47.7494   58.5286   58.6822 C   0  0  0  0  0  0  0  0  0  0  0  0
  -46.7619   57.6749   57.8774 C   0  0  0  0  0  0  0  0  0  0  0  0
  -44.6332   59.3976   66.6171 C   0  0  0  0  0  0  0  0  0  0  0  0
  -43.4395   58.5010   66.3411 C   0  0  0  0  0  0  0  0  0  0  0  0
  -42.1451   59.1411   66.8340 C   0  0  0  0  0  0  0  0  0  0  0  0
  -41.0801   59.0739   65.7483 C   0  0  0  0  0  0  0  0  0  0  0  0
  -40.5355   60.4583   65.4338 C   0  0  0  0  0  0  0  0  0  0  0  0
  -40.4483   60.6857   63.9282 C   0  0  0  0  0  0  0  0  0  0  0  0
  -39.0791   60.2693   63.4274 C   0  0  0  0  0  0  0  0  0  0  0  0
  -38.9221   59.1493   62.8774 O   0  0  0  0  0  0  0  0  0  0  0  0
  -38.0914   61.0371   63.5621 O   0  0  0  0  0  0  0  0  0  0  0  0
  -38.2002   61.8731   63.9708 H   0  0  0  0  0  0  0  0  0  0  0  0
 18 19  2  0  0  0
 18 17  1  0  0  0
 18 20  1  0  0  0
 17 16  1  0  0  0
 20 21  1  0  0  0
 16 15  1  0  0  0
 15 14  1  0  0  0
 14 13  1  0  0  0
 13 12  1  0  0  0
 12  1  1  0  0  0
  1  2  1  0  0  0
  2  3  1  0  0  0
  3  4  1  0  0  0
  4  5  1  0  0  0
  5  6  1  0  0  0
  6  7  1  0  0  0
  7  8  1  0  0  0
  8  9  1  0  0  0
  9 10  1  0  0  0
 10 11  1  0  0  0
M  END
> <minimizedAffinity>
-6.38913

> <CNNscore>
0.7764220834

> <CNNaffinity>
6.6376967430

> <CNN_VS>
5.1536540985

> <CNNaffinity_variance>
0.6859681010

$$$$
/media/chris/experiments/cd1a-new-docking/inputs/ligands/4x6d_1_ligand.pdb


 21 20  0  0  0  0  0  0  0  0999 V2000
  -45.2879   57.4194   65.5472 C   0  0  0  0  0  0  0  0  0  0  0  0
  -46.5945   57.0407   66.1993 C   0  0  0  0  0  0  0  0  0  0  0  0
  -47.8637   57.3262   65.5162 C   0  0  0  0  0  0  0  0  0  0  0  0
  -48.5976   58.6218   65.7811 C   0  0  0  0  0  0  0  0  0  0  0  0
  -49.9910   58.5779   65.1550 C   0  0  0  0  0  0  0  0  0  0  0  0
  -50.4609   59.9349   64.6379 C   0  0  0  0  0  0  0  0  0  0  0  0
  -50.9540   59.8468   63.1911 C   0  0  0  0  0  0  0  0  0  0  0  0
  -50.8985   58.4437   62.5747 C   0  0  0  0  0  0  0  0  0  0  0  0
  -50.2459   58.4469   61.1860 C   0  0  0  0  0  0  0  0  0  0  0  0
  -48.7165   58.4401   61.2525 C   0  0  0  0  0  0  0  0  0  0  0  0
  -48.0600   57.6766   60.0960 C   0  0  0  0  0  0  0  0  0  0  0  0
  -44.6800   58.5496   66.3621 C   0  0  0  0  0  0  0  0  0  0  0  0
  -44.6645   59.8569   65.5902 C   0  0  0  0  0  0  0  0  0  0  0  0
  -43.2392   60.2677   65.2326 C   0  0  0  0  0  0  0  0  0  0  0  0
  -43.0451   60.2286   63.7233 C   0  0  0  0  0  0  0  0  0  0  0  0
  -41.8485   61.0692   63.3065 C   0  0  0  0  0  0  0  0  0  0  0  0
  -42.0512   61.6630   61.9163 C   0  0  0  0  0  0  0  0  0  0  0  0
  -40.9141   61.2368   61.0084 C   0  0  0  0  0  0  0  0  0  0  0  0
  -39.8669   60.7419   61.4983 O   0  0  0  0  0  0  0  0  0  0  0  0
  -41.0075   61.3788   59.7617 O   0  0  0  0  0  0  0  0  0  0  0  0
  -41.7845   61.7467   59.3890 H   0  0  0  0  0  0  0  0  0  0  0  0
 18 19  2  0  0  0
 18 17  1  0  0  0
 18 20  1  0  0  0
 17 16  1  0  0  0
 20 21  1  0  0  0
 16 15  1  0  0  0
 15 14  1  0  0  0
 14 13  1  0  0  0
 13 12  1  0  0  0
 12  1  1  0  0  0
  1  2  1  0  0  0
  2  3  1  0  0  0
  3  4  1  0  0  0
  4  5  1  0  0  0
  5  6  1  0  0  0
  6  7  1  0  0  0
  7  8  1  0  0  0
  8  9  1  0  0  0
  9 10  1  0  0  0
 10 11  1  0  0  0
M  END
> <minimizedAffinity>
-6.86375

> <CNNscore>
0.7751001120

> <CNNaffinity>
6.6075010300

> <CNN_VS>
5.1214747429

> <CNNaffinity_variance>
0.4986061454

$$$$
/media/chris/experiments/cd1a-new-docking/inputs/ligands/4x6d_1_ligand.pdb


 21 20  0  0  0  0  0  0  0  0999 V2000
  -46.2136   57.1655   66.5713 C   0  0  0  0  0  0  0  0  0  0  0  0
  -47.4659   56.8331   65.7987 C   0  0  0  0  0  0  0  0  0  0  0  0
  -48.3851   57.9067   65.3967 C   0  0  0  0  0  0  0  0  0  0  0  0
  -48.4158   58.3871   63.9629 C   0  0  0  0  0  0  0  0  0  0  0  0
  -49.7439   59.0826   63.6666 C   0  0  0  0  0  0  0  0  0  0  0  0
  -50.6010   58.3339   62.6495 C   0  0  0  0  0  0  0  0  0  0  0  0
  -50.1186   58.5784   61.2172 C   0  0  0  0  0  0  0  0  0  0  0  0
  -50.3224   57.3998   60.2575 C   0  0  0  0  0  0  0  0  0  0  0  0
  -49.0126   56.9673   59.5854 C   0  0  0  0  0  0  0  0  0  0  0  0
  -48.0292   58.1271   59.4080 C   0  0  0  0  0  0  0  0  0  0  0  0
  -47.2549   58.0722   58.0856 C   0  0  0  0  0  0  0  0  0  0  0  0
  -46.3572   58.5887   67.0861 C   0  0  0  0  0  0  0  0  0  0  0  0
  -45.0984   59.4040   66.8503 C   0  0  0  0  0  0  0  0  0  0  0  0
  -45.0359   59.9165   65.4146 C   0  0  0  0  0  0  0  0  0  0  0  0
  -43.8440   59.3057   64.6909 C   0  0  0  0  0  0  0  0  0  0  0  0
  -42.8301   60.3744   64.3141 C   0  0  0  0  0  0  0  0  0  0  0  0
  -41.4868   60.1207   64.9905 C   0  0  0  0  0  0  0  0  0  0  0  0
  -41.3026   61.0920   66.1401 C   0  0  0  0  0  0  0  0  0  0  0  0
  -40.3873   61.9535   66.0979 O   0  0  0  0  0  0  0  0  0  0  0  0
  -42.0589   61.0405   67.1444 O   0  0  0  0  0  0  0  0  0  0  0  0
  -42.7430   60.4015   67.1834 H   0  0  0  0  0  0  0  0  0  0  0  0
 18 19  2  0  0  0
 18 17  1  0  0  0
 18 20  1  0  0  0
 17 16  1  0  0  0
 20 21  1  0  0  0
 16 15  1  0  0  0
 15 14  1  0  0  0
 14 13  1  0  0  0
 13 12  1  0  0  0
 12  1  1  0  0  0
  1  2  1  0  0  0
  2  3  1  0  0  0
  3  4  1  0  0  0
  4  5  1  0  0  0
  5  6  1  0  0  0
  6  7  1  0  0  0
  7  8  1  0  0  0
  8  9  1  0  0  0
  9 10  1  0  0  0
 10 11  1  0  0  0
M  END
> <minimizedAffinity>
-6.95040

> <CNNscore>
0.7672697306

> <CNNaffinity>
6.6044106483

> <CNN_VS>
5.0673642159

> <CNNaffinity_variance>
0.4264727235

$$$$
/media/chris/experiments/cd1a-new-docking/inputs/ligands/4x6d_1_ligand.pdb


 21 20  0  0  0  0  0  0  0  0999 V2000
  -48.2799   58.7803   65.6730 C   0  0  0  0  0  0  0  0  0  0  0  0
  -49.7884   58.7916   65.6618 C   0  0  0  0  0  0  0  0  0  0  0  0
  -50.5084   59.9902   65.2102 C   0  0  0  0  0  0  0  0  0  0  0  0
  -51.0476   60.0695   63.7994 C   0  0  0  0  0  0  0  0  0  0  0  0
  -49.9166   60.3725   62.8173 C   0  0  0  0  0  0  0  0  0  0  0  0
  -49.4311   59.1393   62.0602 C   0  0  0  0  0  0  0  0  0  0  0  0
  -50.4674   58.0128   62.0944 C   0  0  0  0  0  0  0  0  0  0  0  0
  -50.7958   57.3965   60.7292 C   0  0  0  0  0  0  0  0  0  0  0  0
  -49.5700   56.7404   60.0801 C   0  0  0  0  0  0  0  0  0  0  0  0
  -49.1484   57.4327   58.7813 C   0  0  0  0  0  0  0  0  0  0  0  0
  -47.7333   58.0208   58.8362 C   0  0  0  0  0  0  0  0  0  0  0  0
  -47.8135   60.1954   65.9748 C   0  0  0  0  0  0  0  0  0  0  0  0
  -46.5989   60.5777   65.1480 C   0  0  0  0  0  0  0  0  0  0  0  0
  -45.4922   59.5359   65.2819 C   0  0  0  0  0  0  0  0  0  0  0  0
  -44.1294   60.2142   65.2741 C   0  0  0  0  0  0  0  0  0  0  0  0
  -43.1931   59.5660   66.2817 C   0  0  0  0  0  0  0  0  0  0  0  0
  -42.3697   60.6155   67.0212 C   0  0  0  0  0  0  0  0  0  0  0  0
  -41.0795   60.8757   66.2683 C   0  0  0  0  0  0  0  0  0  0  0  0
  -40.7386   62.0536   65.9888 O   0  0  0  0  0  0  0  0  0  0  0  0
  -40.3447   59.9177   65.9143 O   0  0  0  0  0  0  0  0  0  0  0  0
  -40.5919   59.0373   66.1188 H   0  0  0  0  0  0  0  0  0  0  0  0
 18 19  2  0  0  0
 18 17  1  0  0  0
 18 20  1  0  0  0
 17 16  1  0  0  0
 20 21  1  0  0  0
 16 15  1  0  0  0
 15 14  1  0  0  0
 14 13  1  0  0  0
 13 12  1  0  0  0
 12  1  1  0  0  0
  1  2  1  0  0  0
  2  3  1  0  0  0
  3  4  1  0  0  0
  4  5  1  0  0  0
  5  6  1  0  0  0
  6  7  1  0  0  0
  7  8  1  0  0  0
  8  9  1  0  0  0
  9 10  1  0  0  0
 10 11  1  0  0  0
M  END
> <minimizedAffinity>
-7.16099

> <CNNscore>
0.7636229396

> <CNNaffinity>
6.4705963135

> <CNN_VS>
4.9410958290

> <CNNaffinity_variance>
0.3375443220

$$$$
