/media/chris/experiments/cd1a-new-docking/inputs/ligands/4x6d_1_ligand.pdb


 21 20  0  0  0  0  0  0  0  0999 V2000
  -47.8977   58.9464   64.1027 C   0  0  0  0  0  0  0  0  0  0  0  0
  -49.1937   58.8750   64.8716 C   0  0  0  0  0  0  0  0  0  0  0  0
  -50.4251   59.4194   64.2833 C   0  0  0  0  0  0  0  0  0  0  0  0
  -50.5689   59.5296   62.7817 C   0  0  0  0  0  0  0  0  0  0  0  0
  -50.9528   58.1755   62.1865 C   0  0  0  0  0  0  0  0  0  0  0  0
  -50.4253   57.9706   60.7688 C   0  0  0  0  0  0  0  0  0  0  0  0
  -49.0710   58.6555   60.5668 C   0  0  0  0  0  0  0  0  0  0  0  0
  -47.9682   57.7512   60.0035 C   0  0  0  0  0  0  0  0  0  0  0  0
  -48.5070   56.7602   58.9632 C   0  0  0  0  0  0  0  0  0  0  0  0
  -48.0855   57.1162   57.5351 C   0  0  0  0  0  0  0  0  0  0  0  0
  -46.8239   57.9856   57.4715 C   0  0  0  0  0  0  0  0  0  0  0  0
  -46.7764   58.5747   65.0596 C   0  0  0  0  0  0  0  0  0  0  0  0
  -45.8347   59.7400   65.3054 C   0  0  0  0  0  0  0  0  0  0  0  0
  -44.8634   59.4323   66.4410 C   0  0  0  0  0  0  0  0  0  0  0  0
  -43.4837   59.1166   65.8801 C   0  0  0  0  0  0  0  0  0  0  0  0
  -42.4341   60.0525   66.4584 C   0  0  0  0  0  0  0  0  0  0  0  0
  -41.0943   59.8810   65.7498 C   0  0  0  0  0  0  0  0  0  0  0  0
  -40.2227   61.0952   66.0048 C   0  0  0  0  0  0  0  0  0  0  0  0
  -40.7496   62.2207   66.1986 O   0  0  0  0  0  0  0  0  0  0  0  0
  -38.9693   60.9873   66.0198 O   0  0  0  0  0  0  0  0  0  0  0  0
  -38.5691   60.1523   65.8763 H   0  0  0  0  0  0  0  0  0  0  0  0
 18 19  2  0  0  0
 18 17  1  0  0  0
 18 20  1  0  0  0
 17 16  1  0  0  0
 20 21  1  0  0  0
 16 15  1  0  0  0
 15 14  1  0  0  0
 14 13  1  0  0  0
 13 12  1  0  0  0
 12  1  1  0  0  0
  1  2  1  0  0  0
  2  3  1  0  0  0
  3  4  1  0  0  0
  4  5  1  0  0  0
  5  6  1  0  0  0
  6  7  1  0  0  0
  7  8  1  0  0  0
  8  9  1  0  0  0
  9 10  1  0  0  0
 10 11  1  0  0  0
M  END
> <minimizedAffinity>
-6.92194

> <CNNscore>
0.9478419423

> <CNNaffinity>
7.0844240189

> <CNN_VS>
6.7149143219

> <CNNaffinity_variance>
0.7975925207

$$$$
/media/chris/experiments/cd1a-new-docking/inputs/ligands/4x6d_1_ligand.pdb


 21 20  0  0  0  0  0  0  0  0999 V2000
  -47.6410   58.5590   64.2294 C   0  0  0  0  0  0  0  0  0  0  0  0
  -49.0751   58.1939   64.5227 C   0  0  0  0  0  0  0  0  0  0  0  0
  -49.9758   59.1877   65.1227 C   0  0  0  0  0  0  0  0  0  0  0  0
  -50.8488   60.0548   64.2432 C   0  0  0  0  0  0  0  0  0  0  0  0
  -50.8096   59.5531   62.8003 C   0  0  0  0  0  0  0  0  0  0  0  0
  -49.9443   60.4169   61.8866 C   0  0  0  0  0  0  0  0  0  0  0  0
  -49.1617   59.5665   60.8823 C   0  0  0  0  0  0  0  0  0  0  0  0
  -49.7656   58.1863   60.5965 C   0  0  0  0  0  0  0  0  0  0  0  0
  -49.2533   57.5917   59.2780 C   0  0  0  0  0  0  0  0  0  0  0  0
  -47.7248   57.5432   59.2069 C   0  0  0  0  0  0  0  0  0  0  0  0
  -47.1627   58.0103   57.8588 C   0  0  0  0  0  0  0  0  0  0  0  0
  -47.2435   59.6648   65.1939 C   0  0  0  0  0  0  0  0  0  0  0  0
  -45.7989   59.5308   65.6416 C   0  0  0  0  0  0  0  0  0  0  0  0
  -45.0614   58.4826   64.8137 C   0  0  0  0  0  0  0  0  0  0  0  0
  -43.5670   58.7731   64.8103 C   0  0  0  0  0  0  0  0  0  0  0  0
  -43.3007   60.2573   65.0059 C   0  0  0  0  0  0  0  0  0  0  0  0
  -42.1703   60.4862   66.0040 C   0  0  0  0  0  0  0  0  0  0  0  0
  -41.1876   61.4939   65.4402 C   0  0  0  0  0  0  0  0  0  0  0  0
  -41.3600   61.9665   64.2875 O   0  0  0  0  0  0  0  0  0  0  0  0
  -40.1925   61.8603   66.1173 O   0  0  0  0  0  0  0  0  0  0  0  0
  -40.0571   61.5128   66.9770 H   0  0  0  0  0  0  0  0  0  0  0  0
 18 19  2  0  0  0
 18 17  1  0  0  0
 18 20  1  0  0  0
 17 16  1  0  0  0
 20 21  1  0  0  0
 16 15  1  0  0  0
 15 14  1  0  0  0
 14 13  1  0  0  0
 13 12  1  0  0  0
 12  1  1  0  0  0
  1  2  1  0  0  0
  2  3  1  0  0  0
  3  4  1  0  0  0
  4  5  1  0  0  0
  5  6  1  0  0  0
  6  7  1  0  0  0
  7  8  1  0  0  0
  8  9  1  0  0  0
  9 10  1  0  0  0
 10 11  1  0  0  0
M  END
> <minimizedAffinity>
-6.88755

> <CNNscore>
0.8851013780

> <CNNaffinity>
6.8809256554

> <CNN_VS>
6.0903167725

> <CNNaffinity_variance>
0.4778781831

$$$$
/media/chris/experiments/cd1a-new-docking/inputs/ligands/4x6d_1_ligand.pdb


 21 20  0  0  0  0  0  0  0  0999 V2000
  -44.6684   57.7706   64.7091 C   0  0  0  0  0  0  0  0  0  0  0  0
  -46.0652   57.5047   65.2133 C   0  0  0  0  0  0  0  0  0  0  0  0
  -47.1476   58.4490   64.9042 C   0  0  0  0  0  0  0  0  0  0  0  0
  -48.4250   58.4363   65.7138 C   0  0  0  0  0  0  0  0  0  0  0  0
  -49.0448   59.8327   65.7458 C   0  0  0  0  0  0  0  0  0  0  0  0
  -50.5499   59.8286   65.4923 C   0  0  0  0  0  0  0  0  0  0  0  0
  -50.8859   60.3294   64.0850 C   0  0  0  0  0  0  0  0  0  0  0  0
  -50.9168   59.2427   63.0036 C   0  0  0  0  0  0  0  0  0  0  0  0
  -49.6056   59.1790   62.2090 C   0  0  0  0  0  0  0  0  0  0  0  0
  -49.7963   58.6114   60.8001 C   0  0  0  0  0  0  0  0  0  0  0  0
  -50.7305   57.3961   60.7544 C   0  0  0  0  0  0  0  0  0  0  0  0
  -43.6993   57.3532   65.8035 C   0  0  0  0  0  0  0  0  0  0  0  0
  -42.5253   58.3098   65.9125 C   0  0  0  0  0  0  0  0  0  0  0  0
  -42.6216   59.4199   64.8704 C   0  0  0  0  0  0  0  0  0  0  0  0
  -41.2334   59.7851   64.3631 C   0  0  0  0  0  0  0  0  0  0  0  0
  -40.1584   59.0280   65.1267 C   0  0  0  0  0  0  0  0  0  0  0  0
  -39.1815   59.9879   65.7981 C   0  0  0  0  0  0  0  0  0  0  0  0
  -37.8542   59.9608   65.0655 C   0  0  0  0  0  0  0  0  0  0  0  0
  -37.5002   60.9432   64.3646 O   0  0  0  0  0  0  0  0  0  0  0  0
  -37.1013   58.9563   65.1492 O   0  0  0  0  0  0  0  0  0  0  0  0
  -37.3579   58.2204   65.6695 H   0  0  0  0  0  0  0  0  0  0  0  0
 18 19  2  0  0  0
 18 17  1  0  0  0
 18 20  1  0  0  0
 17 16  1  0  0  0
 20 21  1  0  0  0
 16 15  1  0  0  0
 15 14  1  0  0  0
 14 13  1  0  0  0
 13 12  1  0  0  0
 12  1  1  0  0  0
  1  2  1  0  0  0
  2  3  1  0  0  0
  3  4  1  0  0  0
  4  5  1  0  0  0
  5  6  1  0  0  0
  6  7  1  0  0  0
  7  8  1  0  0  0
  8  9  1  0  0  0
  9 10  1  0  0  0
 10 11  1  0  0  0
M  END
> <minimizedAffinity>
-6.25753

> <CNNscore>
0.8002876043

> <CNNaffinity>
6.4845910072

> <CNN_VS>
5.1895380020

> <CNNaffinity_variance>
0.3052076697

$$$$
/media/chris/experiments/cd1a-new-docking/inputs/ligands/4x6d_1_ligand.pdb


 21 20  0  0  0  0  0  0  0  0999 V2000
  -45.1676   59.9388   65.5162 C   0  0  0  0  0  0  0  0  0  0  0  0
  -46.5845   59.7691   65.0269 C   0  0  0  0  0  0  0  0  0  0  0  0
  -47.4298   60.9507   64.8069 C   0  0  0  0  0  0  0  0  0  0  0  0
  -48.7686   60.8126   64.1170 C   0  0  0  0  0  0  0  0  0  0  0  0
  -49.2077   59.3490   64.1026 C   0  0  0  0  0  0  0  0  0  0  0  0
  -49.9085   58.9441   62.8085 C   0  0  0  0  0  0  0  0  0  0  0  0
  -49.7021   59.9863   61.7059 C   0  0  0  0  0  0  0  0  0  0  0  0
  -49.0514   59.4504   60.4251 C   0  0  0  0  0  0  0  0  0  0  0  0
  -49.3369   57.9580   60.2111 C   0  0  0  0  0  0  0  0  0  0  0  0
  -48.8699   57.4581   58.8416 C   0  0  0  0  0  0  0  0  0  0  0  0
  -47.3989   57.7756   58.5466 C   0  0  0  0  0  0  0  0  0  0  0  0
  -44.2686   59.1109   64.6121 C   0  0  0  0  0  0  0  0  0  0  0  0
  -44.0913   57.6965   65.1348 C   0  0  0  0  0  0  0  0  0  0  0  0
  -43.1368   57.6655   66.3248 C   0  0  0  0  0  0  0  0  0  0  0  0
  -41.9379   58.5652   66.0592 C   0  0  0  0  0  0  0  0  0  0  0  0
  -41.6694   59.4782   67.2450 C   0  0  0  0  0  0  0  0  0  0  0  0
  -41.9588   60.9342   66.8945 C   0  0  0  0  0  0  0  0  0  0  0  0
  -40.9754   61.4116   65.8438 C   0  0  0  0  0  0  0  0  0  0  0  0
  -39.7453   61.4517   66.1027 O   0  0  0  0  0  0  0  0  0  0  0  0
  -41.3817   61.7746   64.7097 O   0  0  0  0  0  0  0  0  0  0  0  0
  -42.2966   61.7475   64.5091 H   0  0  0  0  0  0  0  0  0  0  0  0
 18 19  2  0  0  0
 18 17  1  0  0  0
 18 20  1  0  0  0
 17 16  1  0  0  0
 20 21  1  0  0  0
 16 15  1  0  0  0
 15 14  1  0  0  0
 14 13  1  0  0  0
 13 12  1  0  0  0
 12  1  1  0  0  0
  1  2  1  0  0  0
  2  3  1  0  0  0
  3  4  1  0  0  0
  4  5  1  0  0  0
  5  6  1  0  0  0
  6  7  1  0  0  0
  7  8  1  0  0  0
  8  9  1  0  0  0
  9 10  1  0  0  0
 10 11  1  0  0  0
M  END
> <minimizedAffinity>
-6.63682

> <CNNscore>
0.7810695171

> <CNNaffinity>
6.4927382469

> <CNN_VS>
5.0712800026

> <CNNaffinity_variance>
0.5036697984

$$$$
/media/chris/experiments/cd1a-new-docking/inputs/ligands/4x6d_1_ligand.pdb


 21 20  0  0  0  0  0  0  0  0999 V2000
  -48.7850   59.1325   65.8582 C   0  0  0  0  0  0  0  0  0  0  0  0
  -50.2176   59.0315   65.3963 C   0  0  0  0  0  0  0  0  0  0  0  0
  -50.7971   60.0980   64.5683 C   0  0  0  0  0  0  0  0  0  0  0  0
  -51.0478   59.8680   63.0946 C   0  0  0  0  0  0  0  0  0  0  0  0
  -50.6118   58.4582   62.6977 C   0  0  0  0  0  0  0  0  0  0  0  0
  -49.3127   58.4337   61.8967 C   0  0  0  0  0  0  0  0  0  0  0  0
  -49.5357   58.8748   60.4476 C   0  0  0  0  0  0  0  0  0  0  0  0
  -49.8181   57.7344   59.4621 C   0  0  0  0  0  0  0  0  0  0  0  0
  -48.5774   56.8678   59.2084 C   0  0  0  0  0  0  0  0  0  0  0  0
  -47.3723   57.6860   58.7373 C   0  0  0  0  0  0  0  0  0  0  0  0
  -47.1126   57.5751   57.2300 C   0  0  0  0  0  0  0  0  0  0  0  0
  -48.0401   57.9273   65.3073 C   0  0  0  0  0  0  0  0  0  0  0  0
  -46.6973   58.3162   64.7149 C   0  0  0  0  0  0  0  0  0  0  0  0
  -45.5517   57.6244   65.4476 C   0  0  0  0  0  0  0  0  0  0  0  0
  -44.3080   57.5974   64.5700 C   0  0  0  0  0  0  0  0  0  0  0  0
  -43.3285   58.6855   64.9808 C   0  0  0  0  0  0  0  0  0  0  0  0
  -42.8174   58.4580   66.3997 C   0  0  0  0  0  0  0  0  0  0  0  0
  -42.0340   59.6716   66.8609 C   0  0  0  0  0  0  0  0  0  0  0  0
  -40.8857   59.8943   66.3986 O   0  0  0  0  0  0  0  0  0  0  0  0
  -42.5233   60.4601   67.7104 O   0  0  0  0  0  0  0  0  0  0  0  0
  -43.3783   60.3011   68.0595 H   0  0  0  0  0  0  0  0  0  0  0  0
 18 19  2  0  0  0
 18 17  1  0  0  0
 18 20  1  0  0  0
 17 16  1  0  0  0
 20 21  1  0  0  0
 16 15  1  0  0  0
 15 14  1  0  0  0
 14 13  1  0  0  0
 13 12  1  0  0  0
 12  1  1  0  0  0
  1  2  1  0  0  0
  2  3  1  0  0  0
  3  4  1  0  0  0
  4  5  1  0  0  0
  5  6  1  0  0  0
  6  7  1  0  0  0
  7  8  1  0  0  0
  8  9  1  0  0  0
  9 10  1  0  0  0
 10 11  1  0  0  0
M  END
> <minimizedAffinity>
-7.11801

> <CNNscore>
0.7760230899

> <CNNaffinity>
6.7427949905

> <CNN_VS>
5.2325644493

> <CNNaffinity_variance>
0.3230258226

$$$$
/media/chris/experiments/cd1a-new-docking/inputs/ligands/4x6d_1_ligand.pdb


 21 20  0  0  0  0  0  0  0  0999 V2000
  -49.2955   58.1700   62.8793 C   0  0  0  0  0  0  0  0  0  0  0  0
  -50.0868   58.6047   64.0880 C   0  0  0  0  0  0  0  0  0  0  0  0
  -49.5767   58.3237   65.4370 C   0  0  0  0  0  0  0  0  0  0  0  0
  -48.0962   58.4247   65.7288 C   0  0  0  0  0  0  0  0  0  0  0  0
  -47.4756   57.0303   65.8038 C   0  0  0  0  0  0  0  0  0  0  0  0
  -45.9494   57.0509   65.8113 C   0  0  0  0  0  0  0  0  0  0  0  0
  -45.3883   57.7032   64.5448 C   0  0  0  0  0  0  0  0  0  0  0  0
  -43.9888   58.3111   64.6979 C   0  0  0  0  0  0  0  0  0  0  0  0
  -43.6358   58.5898   66.1649 C   0  0  0  0  0  0  0  0  0  0  0  0
  -42.2705   59.2635   66.3257 C   0  0  0  0  0  0  0  0  0  0  0  0
  -42.2491   60.3444   67.4132 C   0  0  0  0  0  0  0  0  0  0  0  0
  -50.0523   58.6344   61.6453 C   0  0  0  0  0  0  0  0  0  0  0  0
  -50.6124   57.4659   60.8540 C   0  0  0  0  0  0  0  0  0  0  0  0
  -49.5139   56.7575   60.0670 C   0  0  0  0  0  0  0  0  0  0  0  0
  -48.6869   57.7727   59.2904 C   0  0  0  0  0  0  0  0  0  0  0  0
  -47.3878   57.1543   58.7985 C   0  0  0  0  0  0  0  0  0  0  0  0
  -47.2007   57.3855   57.3025 C   0  0  0  0  0  0  0  0  0  0  0  0
  -47.8150   56.2361   56.5275 C   0  0  0  0  0  0  0  0  0  0  0  0
  -49.0148   56.2961   56.1551 O   0  0  0  0  0  0  0  0  0  0  0  0
  -47.1324   55.2146   56.2559 O   0  0  0  0  0  0  0  0  0  0  0  0
  -46.2379   55.1624   56.5298 H   0  0  0  0  0  0  0  0  0  0  0  0
 18 19  2  0  0  0
 18 17  1  0  0  0
 18 20  1  0  0  0
 17 16  1  0  0  0
 20 21  1  0  0  0
 16 15  1  0  0  0
 15 14  1  0  0  0
 14 13  1  0  0  0
 13 12  1  0  0  0
 12  1  1  0  0  0
  1  2  1  0  0  0
  2  3  1  0  0  0
  3  4  1  0  0  0
  4  5  1  0  0  0
  5  6  1  0  0  0
  6  7  1  0  0  0
  7  8  1  0  0  0
  8  9  1  0  0  0
  9 10  1  0  0  0
 10 11  1  0  0  0
M  END
> <minimizedAffinity>
-7.24110

> <CNNscore>
0.7541772723

> <CNNaffinity>
6.8444900513

> <CNN_VS>
5.1619586945

> <CNNaffinity_variance>
0.3012771010

$$$$
/media/chris/experiments/cd1a-new-docking/inputs/ligands/4x6d_1_ligand.pdb


 21 20  0  0  0  0  0  0  0  0999 V2000
  -49.3434   58.6577   64.4819 C   0  0  0  0  0  0  0  0  0  0  0  0
  -47.9664   59.1512   64.8509 C   0  0  0  0  0  0  0  0  0  0  0  0
  -46.7828   58.3612   64.4849 C   0  0  0  0  0  0  0  0  0  0  0  0
  -45.5012   58.4964   65.2764 C   0  0  0  0  0  0  0  0  0  0  0  0
  -44.6698   57.2196   65.1588 C   0  0  0  0  0  0  0  0  0  0  0  0
  -43.1981   57.4261   65.5070 C   0  0  0  0  0  0  0  0  0  0  0  0
  -42.8778   58.9038   65.7475 C   0  0  0  0  0  0  0  0  0  0  0  0
  -41.9345   59.5357   64.7168 C   0  0  0  0  0  0  0  0  0  0  0  0
  -42.6420   60.5881   63.8529 C   0  0  0  0  0  0  0  0  0  0  0  0
  -41.6863   61.3059   62.8963 C   0  0  0  0  0  0  0  0  0  0  0  0
  -42.3993   62.2362   61.9075 C   0  0  0  0  0  0  0  0  0  0  0  0
  -49.2883   58.1832   63.0387 C   0  0  0  0  0  0  0  0  0  0  0  0
  -50.6565   58.2162   62.3813 C   0  0  0  0  0  0  0  0  0  0  0  0
  -50.6324   57.5167   61.0256 C   0  0  0  0  0  0  0  0  0  0  0  0
  -49.2039   57.4268   60.5070 C   0  0  0  0  0  0  0  0  0  0  0  0
  -49.1352   57.7988   59.0343 C   0  0  0  0  0  0  0  0  0  0  0  0
  -47.7478   57.5257   58.4623 C   0  0  0  0  0  0  0  0  0  0  0  0
  -47.8396   56.4611   57.3866 C   0  0  0  0  0  0  0  0  0  0  0  0
  -47.6764   56.7694   56.1782 O   0  0  0  0  0  0  0  0  0  0  0  0
  -48.0836   55.2655   57.6932 O   0  0  0  0  0  0  0  0  0  0  0  0
  -48.2064   55.0279   58.5913 H   0  0  0  0  0  0  0  0  0  0  0  0
 18 19  2  0  0  0
 18 17  1  0  0  0
 18 20  1  0  0  0
 17 16  1  0  0  0
 20 21  1  0  0  0
 16 15  1  0  0  0
 15 14  1  0  0  0
 14 13  1  0  0  0
 13 12  1  0  0  0
 12  1  1  0  0  0
  1  2  1  0  0  0
  2  3  1  0  0  0
  3  4  1  0  0  0
  4  5  1  0  0  0
  5  6  1  0  0  0
  6  7  1  0  0  0
  7  8  1  0  0  0
  8  9  1  0  0  0
  9 10  1  0  0  0
 10 11  1  0  0  0
M  END
> <minimizedAffinity>
-6.82743

> <CNNscore>
0.7520074844

> <CNNaffinity>
6.8415617943

> <CNN_VS>
5.1449055672

> <CNNaffinity_variance>
0.9242234230

$$$$
/media/chris/experiments/cd1a-new-docking/inputs/ligands/4x6d_1_ligand.pdb


 21 20  0  0  0  0  0  0  0  0999 V2000
  -49.6614   60.4937   62.5447 C   0  0  0  0  0  0  0  0  0  0  0  0
  -50.9617   60.2709   63.2764 C   0  0  0  0  0  0  0  0  0  0  0  0
  -50.9693   60.1715   64.7424 C   0  0  0  0  0  0  0  0  0  0  0  0
  -49.6875   59.8901   65.4942 C   0  0  0  0  0  0  0  0  0  0  0  0
  -49.4651   58.3830   65.6148 C   0  0  0  0  0  0  0  0  0  0  0  0
  -48.0407   57.9559   65.2705 C   0  0  0  0  0  0  0  0  0  0  0  0
  -47.0547   58.3370   66.3782 C   0  0  0  0  0  0  0  0  0  0  0  0
  -46.1023   59.4863   66.0268 C   0  0  0  0  0  0  0  0  0  0  0  0
  -44.6299   59.0602   66.0974 C   0  0  0  0  0  0  0  0  0  0  0  0
  -44.1440   58.3996   64.8046 C   0  0  0  0  0  0  0  0  0  0  0  0
  -44.0499   56.8719   64.8995 C   0  0  0  0  0  0  0  0  0  0  0  0
  -49.6148   59.5124   61.3845 C   0  0  0  0  0  0  0  0  0  0  0  0
  -49.8275   58.0819   61.8466 C   0  0  0  0  0  0  0  0  0  0  0  0
  -50.4393   57.2309   60.7378 C   0  0  0  0  0  0  0  0  0  0  0  0
  -49.8094   57.5838   59.3975 C   0  0  0  0  0  0  0  0  0  0  0  0
  -48.5215   56.8054   59.1798 C   0  0  0  0  0  0  0  0  0  0  0  0
  -47.7622   57.3276   57.9644 C   0  0  0  0  0  0  0  0  0  0  0  0
  -47.9152   56.3559   56.8105 C   0  0  0  0  0  0  0  0  0  0  0  0
  -47.9068   55.1165   57.0240 O   0  0  0  0  0  0  0  0  0  0  0  0
  -48.0466   56.7808   55.6335 O   0  0  0  0  0  0  0  0  0  0  0  0
  -48.0539   57.7028   55.4663 H   0  0  0  0  0  0  0  0  0  0  0  0
 18 19  2  0  0  0
 18 17  1  0  0  0
 18 20  1  0  0  0
 17 16  1  0  0  0
 20 21  1  0  0  0
 16 15  1  0  0  0
 15 14  1  0  0  0
 14 13  1  0  0  0
 13 12  1  0  0  0
 12  1  1  0  0  0
  1  2  1  0  0  0
  2  3  1  0  0  0
  3  4  1  0  0  0
  4  5  1  0  0  0
  5  6  1  0  0  0
  6  7  1  0  0  0
  7  8  1  0  0  0
  8  9  1  0  0  0
  9 10  1  0  0  0
 10 11  1  0  0  0
M  END
> <minimizedAffinity>
-7.16126

> <CNNscore>
0.7353327870

> <CNNaffinity>
6.7339792252

> <CNN_VS>
4.9517159462

> <CNNaffinity_variance>
0.4412457049

$$$$
/media/chris/experiments/cd1a-new-docking/inputs/ligands/4x6d_1_ligand.pdb


 21 20  0  0  0  0  0  0  0  0999 V2000
  -49.6166   58.2972   63.2175 C   0  0  0  0  0  0  0  0  0  0  0  0
  -50.0253   58.7281   64.6043 C   0  0  0  0  0  0  0  0  0  0  0  0
  -49.2423   59.7484   65.3147 C   0  0  0  0  0  0  0  0  0  0  0  0
  -47.9871   60.3172   64.6914 C   0  0  0  0  0  0  0  0  0  0  0  0
  -46.7699   59.9796   65.5515 C   0  0  0  0  0  0  0  0  0  0  0  0
  -46.9857   58.7631   66.4478 C   0  0  0  0  0  0  0  0  0  0  0  0
  -46.3461   57.5051   65.8541 C   0  0  0  0  0  0  0  0  0  0  0  0
  -45.3626   57.7616   64.7059 C   0  0  0  0  0  0  0  0  0  0  0  0
  -43.9763   57.1669   64.9870 C   0  0  0  0  0  0  0  0  0  0  0  0
  -42.9251   58.2377   65.2903 C   0  0  0  0  0  0  0  0  0  0  0  0
  -43.1523   59.5478   64.5263 C   0  0  0  0  0  0  0  0  0  0  0  0
  -50.7774   58.5990   62.2834 C   0  0  0  0  0  0  0  0  0  0  0  0
  -50.9798   57.4957   61.2602 C   0  0  0  0  0  0  0  0  0  0  0  0
  -49.6562   57.0916   60.6179 C   0  0  0  0  0  0  0  0  0  0  0  0
  -49.6392   57.4983   59.1509 C   0  0  0  0  0  0  0  0  0  0  0  0
  -48.2217   57.4920   58.6008 C   0  0  0  0  0  0  0  0  0  0  0  0
  -47.7556   56.0715   58.2985 C   0  0  0  0  0  0  0  0  0  0  0  0
  -47.8064   55.8248   56.8033 C   0  0  0  0  0  0  0  0  0  0  0  0
  -48.0150   56.7806   56.0128 O   0  0  0  0  0  0  0  0  0  0  0  0
  -47.6453   54.6647   56.3436 O   0  0  0  0  0  0  0  0  0  0  0  0
  -47.4894   53.9475   56.9260 H   0  0  0  0  0  0  0  0  0  0  0  0
 18 19  2  0  0  0
 18 17  1  0  0  0
 18 20  1  0  0  0
 17 16  1  0  0  0
 20 21  1  0  0  0
 16 15  1  0  0  0
 15 14  1  0  0  0
 14 13  1  0  0  0
 13 12  1  0  0  0
 12  1  1  0  0  0
  1  2  1  0  0  0
  2  3  1  0  0  0
  3  4  1  0  0  0
  4  5  1  0  0  0
  5  6  1  0  0  0
  6  7  1  0  0  0
  7  8  1  0  0  0
  8  9  1  0  0  0
  9 10  1  0  0  0
 10 11  1  0  0  0
M  END
> <minimizedAffinity>
-7.11489

> <CNNscore>
0.6895552874

> <CNNaffinity>
6.7621994019

> <CNN_VS>
4.6629104614

> <CNNaffinity_variance>
0.3161405921

$$$$
