/media/chris/experiments/cd1a-new-docking/inputs/ligands/4x6d_1_ligand.pdb


 21 20  0  0  0  0  0  0  0  0999 V2000
  -47.0619   60.5674   65.6254 C   0  0  0  0  0  0  0  0  0  0  0  0
  -48.0962   59.5350   65.9999 C   0  0  0  0  0  0  0  0  0  0  0  0
  -48.5185   58.5304   65.0144 C   0  0  0  0  0  0  0  0  0  0  0  0
  -49.9613   58.4618   64.5657 C   0  0  0  0  0  0  0  0  0  0  0  0
  -50.3620   59.7636   63.8729 C   0  0  0  0  0  0  0  0  0  0  0  0
  -50.7417   59.5725   62.4069 C   0  0  0  0  0  0  0  0  0  0  0  0
  -50.8517   58.0896   62.0419 C   0  0  0  0  0  0  0  0  0  0  0  0
  -50.4044   57.7408   60.6172 C   0  0  0  0  0  0  0  0  0  0  0  0
  -49.1162   58.4736   60.2192 C   0  0  0  0  0  0  0  0  0  0  0  0
  -48.0763   57.5409   59.5929 C   0  0  0  0  0  0  0  0  0  0  0  0
  -47.3880   58.1374   58.3590 C   0  0  0  0  0  0  0  0  0  0  0  0
  -45.7498   59.8367   65.3901 C   0  0  0  0  0  0  0  0  0  0  0  0
  -45.3551   58.9866   66.5845 C   0  0  0  0  0  0  0  0  0  0  0  0
  -44.2845   57.9679   66.2050 C   0  0  0  0  0  0  0  0  0  0  0  0
  -43.0140   58.6816   65.7645 C   0  0  0  0  0  0  0  0  0  0  0  0
  -42.1893   59.1159   66.9659 C   0  0  0  0  0  0  0  0  0  0  0  0
  -42.0652   60.6349   67.0275 C   0  0  0  0  0  0  0  0  0  0  0  0
  -40.8926   61.0859   66.1784 C   0  0  0  0  0  0  0  0  0  0  0  0
  -39.9542   60.2884   65.9237 O   0  0  0  0  0  0  0  0  0  0  0  0
  -40.8476   62.2596   65.7271 O   0  0  0  0  0  0  0  0  0  0  0  0
  -41.5430   62.8598   65.9124 H   0  0  0  0  0  0  0  0  0  0  0  0
 18 19  2  0  0  0
 18 17  1  0  0  0
 18 20  1  0  0  0
 17 16  1  0  0  0
 20 21  1  0  0  0
 16 15  1  0  0  0
 15 14  1  0  0  0
 14 13  1  0  0  0
 13 12  1  0  0  0
 12  1  1  0  0  0
  1  2  1  0  0  0
  2  3  1  0  0  0
  3  4  1  0  0  0
  4  5  1  0  0  0
  5  6  1  0  0  0
  6  7  1  0  0  0
  7  8  1  0  0  0
  8  9  1  0  0  0
  9 10  1  0  0  0
 10 11  1  0  0  0
M  END
> <minimizedAffinity>
-6.84682

> <CNNscore>
0.9141094685

> <CNNaffinity>
6.7925310135

> <CNN_VS>
6.2091169357

> <CNNaffinity_variance>
0.5035821199

$$$$
/media/chris/experiments/cd1a-new-docking/inputs/ligands/4x6d_1_ligand.pdb


 21 20  0  0  0  0  0  0  0  0999 V2000
  -46.3900   58.6775   66.5180 C   0  0  0  0  0  0  0  0  0  0  0  0
  -47.1834   58.7267   65.2358 C   0  0  0  0  0  0  0  0  0  0  0  0
  -48.3777   57.8849   65.0809 C   0  0  0  0  0  0  0  0  0  0  0  0
  -49.7328   58.3963   65.5165 C   0  0  0  0  0  0  0  0  0  0  0  0
  -49.8357   59.9003   65.2664 C   0  0  0  0  0  0  0  0  0  0  0  0
  -51.0982   60.2986   64.5067 C   0  0  0  0  0  0  0  0  0  0  0  0
  -50.9822   59.9790   63.0138 C   0  0  0  0  0  0  0  0  0  0  0  0
  -49.6282   60.3261   62.3830 C   0  0  0  0  0  0  0  0  0  0  0  0
  -49.3726   59.5385   61.0911 C   0  0  0  0  0  0  0  0  0  0  0  0
  -49.2706   58.0298   61.3302 C   0  0  0  0  0  0  0  0  0  0  0  0
  -50.4576   57.2418   60.7628 C   0  0  0  0  0  0  0  0  0  0  0  0
  -45.4506   57.4856   66.4299 C   0  0  0  0  0  0  0  0  0  0  0  0
  -44.5649   57.5549   65.1988 C   0  0  0  0  0  0  0  0  0  0  0  0
  -43.0913   57.4266   65.5733 C   0  0  0  0  0  0  0  0  0  0  0  0
  -42.7348   58.4377   66.6540 C   0  0  0  0  0  0  0  0  0  0  0  0
  -41.4681   59.1971   66.2921 C   0  0  0  0  0  0  0  0  0  0  0  0
  -41.6523   59.9905   65.0025 C   0  0  0  0  0  0  0  0  0  0  0  0
  -40.8776   61.2912   65.0884 C   0  0  0  0  0  0  0  0  0  0  0  0
  -40.7443   62.0149   64.0686 O   0  0  0  0  0  0  0  0  0  0  0  0
  -40.3600   61.6532   66.1766 O   0  0  0  0  0  0  0  0  0  0  0  0
  -40.4549   61.1195   66.9410 H   0  0  0  0  0  0  0  0  0  0  0  0
 18 19  2  0  0  0
 18 17  1  0  0  0
 18 20  1  0  0  0
 17 16  1  0  0  0
 20 21  1  0  0  0
 16 15  1  0  0  0
 15 14  1  0  0  0
 14 13  1  0  0  0
 13 12  1  0  0  0
 12  1  1  0  0  0
  1  2  1  0  0  0
  2  3  1  0  0  0
  3  4  1  0  0  0
  4  5  1  0  0  0
  5  6  1  0  0  0
  6  7  1  0  0  0
  7  8  1  0  0  0
  8  9  1  0  0  0
  9 10  1  0  0  0
 10 11  1  0  0  0
M  END
> <minimizedAffinity>
-6.76957

> <CNNscore>
0.8540406227

> <CNNaffinity>
6.6459760666

> <CNN_VS>
5.6759333611

> <CNNaffinity_variance>
0.5271657109

$$$$
/media/chris/experiments/cd1a-new-docking/inputs/ligands/4x6d_1_ligand.pdb


 21 20  0  0  0  0  0  0  0  0999 V2000
  -47.4609   58.5467   64.9593 C   0  0  0  0  0  0  0  0  0  0  0  0
  -47.1272   60.0152   65.0487 C   0  0  0  0  0  0  0  0  0  0  0  0
  -48.1664   61.0198   64.7844 C   0  0  0  0  0  0  0  0  0  0  0  0
  -49.0466   60.9024   63.5601 C   0  0  0  0  0  0  0  0  0  0  0  0
  -50.4728   60.5344   63.9674 C   0  0  0  0  0  0  0  0  0  0  0  0
  -51.1776   59.6417   62.9495 C   0  0  0  0  0  0  0  0  0  0  0  0
  -50.4688   58.2932   62.7961 C   0  0  0  0  0  0  0  0  0  0  0  0
  -50.1115   57.9124   61.3543 C   0  0  0  0  0  0  0  0  0  0  0  0
  -48.6398   58.1985   61.0277 C   0  0  0  0  0  0  0  0  0  0  0  0
  -48.1299   57.3820   59.8373 C   0  0  0  0  0  0  0  0  0  0  0  0
  -47.6233   58.2478   58.6772 C   0  0  0  0  0  0  0  0  0  0  0  0
  -46.6429   57.8259   66.0187 C   0  0  0  0  0  0  0  0  0  0  0  0
  -45.3552   57.2587   65.4484 C   0  0  0  0  0  0  0  0  0  0  0  0
  -44.1622   57.6034   66.3348 C   0  0  0  0  0  0  0  0  0  0  0  0
  -43.2013   58.5186   65.5887 C   0  0  0  0  0  0  0  0  0  0  0  0
  -43.2511   59.9318   66.1478 C   0  0  0  0  0  0  0  0  0  0  0  0
  -42.0231   60.2285   67.0025 C   0  0  0  0  0  0  0  0  0  0  0  0
  -40.9423   60.8551   66.1430 C   0  0  0  0  0  0  0  0  0  0  0  0
  -40.7230   62.0917   66.2071 O   0  0  0  0  0  0  0  0  0  0  0  0
  -40.2618   60.1453   65.3580 O   0  0  0  0  0  0  0  0  0  0  0  0
  -40.4192   59.2231   65.3045 H   0  0  0  0  0  0  0  0  0  0  0  0
 18 19  2  0  0  0
 18 17  1  0  0  0
 18 20  1  0  0  0
 17 16  1  0  0  0
 20 21  1  0  0  0
 16 15  1  0  0  0
 15 14  1  0  0  0
 14 13  1  0  0  0
 13 12  1  0  0  0
 12  1  1  0  0  0
  1  2  1  0  0  0
  2  3  1  0  0  0
  3  4  1  0  0  0
  4  5  1  0  0  0
  5  6  1  0  0  0
  6  7  1  0  0  0
  7  8  1  0  0  0
  8  9  1  0  0  0
  9 10  1  0  0  0
 10 11  1  0  0  0
M  END
> <minimizedAffinity>
-6.82062

> <CNNscore>
0.8307860494

> <CNNaffinity>
6.6930799484

> <CNN_VS>
5.5605173111

> <CNNaffinity_variance>
0.6339291930

$$$$
/media/chris/experiments/cd1a-new-docking/inputs/ligands/4x6d_1_ligand.pdb


 21 20  0  0  0  0  0  0  0  0999 V2000
  -47.2722   59.0852   64.6895 C   0  0  0  0  0  0  0  0  0  0  0  0
  -48.2723   58.1052   65.2509 C   0  0  0  0  0  0  0  0  0  0  0  0
  -49.7114   58.3545   65.0904 C   0  0  0  0  0  0  0  0  0  0  0  0
  -50.3028   59.6892   65.4857 C   0  0  0  0  0  0  0  0  0  0  0  0
  -51.0971   60.2811   64.3221 C   0  0  0  0  0  0  0  0  0  0  0  0
  -50.8532   59.5601   62.9991 C   0  0  0  0  0  0  0  0  0  0  0  0
  -50.0262   60.4152   62.0352 C   0  0  0  0  0  0  0  0  0  0  0  0
  -49.1956   59.6220   61.0191 C   0  0  0  0  0  0  0  0  0  0  0  0
  -49.1600   58.1230   61.3448 C   0  0  0  0  0  0  0  0  0  0  0  0
  -48.8342   57.2611   60.1222 C   0  0  0  0  0  0  0  0  0  0  0  0
  -47.8403   57.9214   59.1589 C   0  0  0  0  0  0  0  0  0  0  0  0
  -45.8850   58.5908   65.0668 C   0  0  0  0  0  0  0  0  0  0  0  0
  -45.3860   59.2337   66.3484 C   0  0  0  0  0  0  0  0  0  0  0  0
  -44.0060   59.8541   66.1516 C   0  0  0  0  0  0  0  0  0  0  0  0
  -43.5577   59.6884   64.7062 C   0  0  0  0  0  0  0  0  0  0  0  0
  -43.0994   61.0159   64.1231 C   0  0  0  0  0  0  0  0  0  0  0  0
  -41.7348   60.8811   63.4550 C   0  0  0  0  0  0  0  0  0  0  0  0
  -40.6550   61.3826   64.3941 C   0  0  0  0  0  0  0  0  0  0  0  0
  -40.9677   62.0198   65.4322 O   0  0  0  0  0  0  0  0  0  0  0  0
  -39.4412   61.1695   64.1402 O   0  0  0  0  0  0  0  0  0  0  0  0
  -39.2002   60.6955   63.3686 H   0  0  0  0  0  0  0  0  0  0  0  0
 18 19  2  0  0  0
 18 17  1  0  0  0
 18 20  1  0  0  0
 17 16  1  0  0  0
 20 21  1  0  0  0
 16 15  1  0  0  0
 15 14  1  0  0  0
 14 13  1  0  0  0
 13 12  1  0  0  0
 12  1  1  0  0  0
  1  2  1  0  0  0
  2  3  1  0  0  0
  3  4  1  0  0  0
  4  5  1  0  0  0
  5  6  1  0  0  0
  6  7  1  0  0  0
  7  8  1  0  0  0
  8  9  1  0  0  0
  9 10  1  0  0  0
 10 11  1  0  0  0
M  END
> <minimizedAffinity>
-6.73484

> <CNNscore>
0.8186885715

> <CNNaffinity>
6.7509903908

> <CNN_VS>
5.5269584656

> <CNNaffinity_variance>
0.5494598150

$$$$
/media/chris/experiments/cd1a-new-docking/inputs/ligands/4x6d_1_ligand.pdb


 21 20  0  0  0  0  0  0  0  0999 V2000
  -43.0254   57.5613   66.0361 C   0  0  0  0  0  0  0  0  0  0  0  0
  -44.5227   57.5496   66.2201 C   0  0  0  0  0  0  0  0  0  0  0  0
  -45.3721   58.3920   65.3669 C   0  0  0  0  0  0  0  0  0  0  0  0
  -46.7701   57.9440   65.0032 C   0  0  0  0  0  0  0  0  0  0  0  0
  -47.8055   58.8496   65.6690 C   0  0  0  0  0  0  0  0  0  0  0  0
  -49.2385   58.3532   65.4958 C   0  0  0  0  0  0  0  0  0  0  0  0
  -50.1925   59.4975   65.1429 C   0  0  0  0  0  0  0  0  0  0  0  0
  -50.6734   59.5109   63.6868 C   0  0  0  0  0  0  0  0  0  0  0  0
  -50.0463   58.3808   62.8597 C   0  0  0  0  0  0  0  0  0  0  0  0
  -49.5533   58.8555   61.4902 C   0  0  0  0  0  0  0  0  0  0  0  0
  -49.5740   60.3806   61.3306 C   0  0  0  0  0  0  0  0  0  0  0  0
  -42.6889   58.7052   65.0931 C   0  0  0  0  0  0  0  0  0  0  0  0
  -41.1993   58.9981   65.0702 C   0  0  0  0  0  0  0  0  0  0  0  0
  -40.9349   60.4940   64.9269 C   0  0  0  0  0  0  0  0  0  0  0  0
  -42.1290   61.1777   64.2756 C   0  0  0  0  0  0  0  0  0  0  0  0
  -41.6800   62.1210   63.1707 C   0  0  0  0  0  0  0  0  0  0  0  0
  -42.1342   61.6214   61.8030 C   0  0  0  0  0  0  0  0  0  0  0  0
  -40.9252   61.2344   60.9737 C   0  0  0  0  0  0  0  0  0  0  0  0
  -39.8768   60.8289   61.5375 O   0  0  0  0  0  0  0  0  0  0  0  0
  -40.9601   61.3199   59.7188 O   0  0  0  0  0  0  0  0  0  0  0  0
  -41.7376   61.6211   59.2912 H   0  0  0  0  0  0  0  0  0  0  0  0
 18 19  2  0  0  0
 18 17  1  0  0  0
 18 20  1  0  0  0
 17 16  1  0  0  0
 20 21  1  0  0  0
 16 15  1  0  0  0
 15 14  1  0  0  0
 14 13  1  0  0  0
 13 12  1  0  0  0
 12  1  1  0  0  0
  1  2  1  0  0  0
  2  3  1  0  0  0
  3  4  1  0  0  0
  4  5  1  0  0  0
  5  6  1  0  0  0
  6  7  1  0  0  0
  7  8  1  0  0  0
  8  9  1  0  0  0
  9 10  1  0  0  0
 10 11  1  0  0  0
M  END
> <minimizedAffinity>
-6.53338

> <CNNscore>
0.7536128759

> <CNNaffinity>
6.3975124359

> <CNN_VS>
4.8212475777

> <CNNaffinity_variance>
0.5728041530

$$$$
/media/chris/experiments/cd1a-new-docking/inputs/ligands/4x6d_1_ligand.pdb


 21 20  0  0  0  0  0  0  0  0999 V2000
  -44.2862   58.5780   65.0897 C   0  0  0  0  0  0  0  0  0  0  0  0
  -45.7655   58.8721   65.0608 C   0  0  0  0  0  0  0  0  0  0  0  0
  -46.2501   60.2226   65.3776 C   0  0  0  0  0  0  0  0  0  0  0  0
  -47.6230   60.6660   64.9238 C   0  0  0  0  0  0  0  0  0  0  0  0
  -48.6720   60.2928   65.9705 C   0  0  0  0  0  0  0  0  0  0  0  0
  -49.7926   59.4187   65.4137 C   0  0  0  0  0  0  0  0  0  0  0  0
  -50.8100   60.2438   64.6209 C   0  0  0  0  0  0  0  0  0  0  0  0
  -51.1777   59.6683   63.2479 C   0  0  0  0  0  0  0  0  0  0  0  0
  -50.0213   59.7785   62.2454 C   0  0  0  0  0  0  0  0  0  0  0  0
  -49.5645   58.4154   61.7193 C   0  0  0  0  0  0  0  0  0  0  0  0
  -50.6586   57.6597   60.9551 C   0  0  0  0  0  0  0  0  0  0  0  0
  -43.5544   59.9105   65.0933 C   0  0  0  0  0  0  0  0  0  0  0  0
  -42.0664   59.7365   65.3397 C   0  0  0  0  0  0  0  0  0  0  0  0
  -41.2545   60.7564   64.5468 C   0  0  0  0  0  0  0  0  0  0  0  0
  -39.9113   60.1616   64.1476 C   0  0  0  0  0  0  0  0  0  0  0  0
  -39.2482   59.4727   65.3299 C   0  0  0  0  0  0  0  0  0  0  0  0
  -37.7629   59.2429   65.0701 C   0  0  0  0  0  0  0  0  0  0  0  0
  -36.9748   60.4658   65.4977 C   0  0  0  0  0  0  0  0  0  0  0  0
  -37.3756   61.1703   66.4593 O   0  0  0  0  0  0  0  0  0  0  0  0
  -35.9194   60.7866   64.8925 O   0  0  0  0  0  0  0  0  0  0  0  0
  -35.6142   60.2668   64.1751 H   0  0  0  0  0  0  0  0  0  0  0  0
 18 19  2  0  0  0
 18 17  1  0  0  0
 18 20  1  0  0  0
 17 16  1  0  0  0
 20 21  1  0  0  0
 16 15  1  0  0  0
 15 14  1  0  0  0
 14 13  1  0  0  0
 13 12  1  0  0  0
 12  1  1  0  0  0
  1  2  1  0  0  0
  2  3  1  0  0  0
  3  4  1  0  0  0
  4  5  1  0  0  0
  5  6  1  0  0  0
  6  7  1  0  0  0
  7  8  1  0  0  0
  8  9  1  0  0  0
  9 10  1  0  0  0
 10 11  1  0  0  0
M  END
> <minimizedAffinity>
-6.16313

> <CNNscore>
0.7482525706

> <CNNaffinity>
6.3058533669

> <CNN_VS>
4.7183709145

> <CNNaffinity_variance>
0.5352374911

$$$$
/media/chris/experiments/cd1a-new-docking/inputs/ligands/4x6d_1_ligand.pdb


 21 20  0  0  0  0  0  0  0  0999 V2000
  -44.8257   58.0433   64.4230 C   0  0  0  0  0  0  0  0  0  0  0  0
  -45.4483   58.8909   65.5046 C   0  0  0  0  0  0  0  0  0  0  0  0
  -46.0776   60.1729   65.1591 C   0  0  0  0  0  0  0  0  0  0  0  0
  -47.5255   60.4312   65.5121 C   0  0  0  0  0  0  0  0  0  0  0  0
  -48.1391   61.4290   64.5308 C   0  0  0  0  0  0  0  0  0  0  0  0
  -49.4524   60.9441   63.9226 C   0  0  0  0  0  0  0  0  0  0  0  0
  -49.6661   59.4471   64.1630 C   0  0  0  0  0  0  0  0  0  0  0  0
  -50.3074   58.6908   62.9933 C   0  0  0  0  0  0  0  0  0  0  0  0
  -49.2597   58.1296   62.0228 C   0  0  0  0  0  0  0  0  0  0  0  0
  -49.1491   58.9497   60.7349 C   0  0  0  0  0  0  0  0  0  0  0  0
  -48.2195   58.3203   59.6900 C   0  0  0  0  0  0  0  0  0  0  0  0
  -43.9643   56.9920   65.1040 C   0  0  0  0  0  0  0  0  0  0  0  0
  -43.3557   57.5105   66.3947 C   0  0  0  0  0  0  0  0  0  0  0  0
  -42.0306   58.2197   66.1321 C   0  0  0  0  0  0  0  0  0  0  0  0
  -42.0547   59.6169   66.7360 C   0  0  0  0  0  0  0  0  0  0  0  0
  -40.9751   60.4939   66.1217 C   0  0  0  0  0  0  0  0  0  0  0  0
  -40.0244   59.6717   65.2577 C   0  0  0  0  0  0  0  0  0  0  0  0
  -38.5918   59.9454   65.6725 C   0  0  0  0  0  0  0  0  0  0  0  0
  -38.2997   61.0162   66.2637 O   0  0  0  0  0  0  0  0  0  0  0  0
  -37.6862   59.1077   65.4250 O   0  0  0  0  0  0  0  0  0  0  0  0
  -37.8959   58.3074   64.9849 H   0  0  0  0  0  0  0  0  0  0  0  0
 18 19  2  0  0  0
 18 17  1  0  0  0
 18 20  1  0  0  0
 17 16  1  0  0  0
 20 21  1  0  0  0
 16 15  1  0  0  0
 15 14  1  0  0  0
 14 13  1  0  0  0
 13 12  1  0  0  0
 12  1  1  0  0  0
  1  2  1  0  0  0
  2  3  1  0  0  0
  3  4  1  0  0  0
  4  5  1  0  0  0
  5  6  1  0  0  0
  6  7  1  0  0  0
  7  8  1  0  0  0
  8  9  1  0  0  0
  9 10  1  0  0  0
 10 11  1  0  0  0
M  END
> <minimizedAffinity>
-6.47777

> <CNNscore>
0.6510875821

> <CNNaffinity>
6.2907891273

> <CNN_VS>
4.0958547592

> <CNNaffinity_variance>
0.2248561382

$$$$
/media/chris/experiments/cd1a-new-docking/inputs/ligands/4x6d_1_ligand.pdb


 21 20  0  0  0  0  0  0  0  0999 V2000
  -44.1851   58.4905   64.6749 C   0  0  0  0  0  0  0  0  0  0  0  0
  -45.4728   57.7343   64.8892 C   0  0  0  0  0  0  0  0  0  0  0  0
  -46.7501   58.4595   64.9285 C   0  0  0  0  0  0  0  0  0  0  0  0
  -48.0327   57.7275   65.2549 C   0  0  0  0  0  0  0  0  0  0  0  0
  -49.2043   58.3495   64.4961 C   0  0  0  0  0  0  0  0  0  0  0  0
  -48.9066   58.5838   63.0175 C   0  0  0  0  0  0  0  0  0  0  0  0
  -50.1697   58.4572   62.1613 C   0  0  0  0  0  0  0  0  0  0  0  0
  -50.1014   57.3874   61.0648 C   0  0  0  0  0  0  0  0  0  0  0  0
  -49.8033   57.9902   59.6856 C   0  0  0  0  0  0  0  0  0  0  0  0
  -48.3239   58.3380   59.5009 C   0  0  0  0  0  0  0  0  0  0  0  0
  -47.4648   57.1400   59.0782 C   0  0  0  0  0  0  0  0  0  0  0  0
  -44.2632   59.7692   65.4935 C   0  0  0  0  0  0  0  0  0  0  0  0
  -43.0854   59.9051   66.4417 C   0  0  0  0  0  0  0  0  0  0  0  0
  -41.8817   59.1124   65.9410 C   0  0  0  0  0  0  0  0  0  0  0  0
  -40.7009   60.0441   65.7060 C   0  0  0  0  0  0  0  0  0  0  0  0
  -41.0917   61.1995   64.7979 C   0  0  0  0  0  0  0  0  0  0  0  0
  -40.9935   60.8016   63.3287 C   0  0  0  0  0  0  0  0  0  0  0  0
  -42.0559   61.5315   62.5301 C   0  0  0  0  0  0  0  0  0  0  0  0
  -41.9443   61.6394   61.2822 O   0  0  0  0  0  0  0  0  0  0  0  0
  -43.0522   62.0371   63.1089 O   0  0  0  0  0  0  0  0  0  0  0  0
  -43.1426   61.9609   64.0384 H   0  0  0  0  0  0  0  0  0  0  0  0
 18 19  2  0  0  0
 18 17  1  0  0  0
 18 20  1  0  0  0
 17 16  1  0  0  0
 20 21  1  0  0  0
 16 15  1  0  0  0
 15 14  1  0  0  0
 14 13  1  0  0  0
 13 12  1  0  0  0
 12  1  1  0  0  0
  1  2  1  0  0  0
  2  3  1  0  0  0
  3  4  1  0  0  0
  4  5  1  0  0  0
  5  6  1  0  0  0
  6  7  1  0  0  0
  7  8  1  0  0  0
  8  9  1  0  0  0
  9 10  1  0  0  0
 10 11  1  0  0  0
M  END
> <minimizedAffinity>
-6.37563

> <CNNscore>
0.6163884401

> <CNNaffinity>
6.3809375763

> <CNN_VS>
3.9331362247

> <CNNaffinity_variance>
0.4891055524

$$$$
/media/chris/experiments/cd1a-new-docking/inputs/ligands/4x6d_1_ligand.pdb


 21 20  0  0  0  0  0  0  0  0999 V2000
  -43.8036   58.0858   66.2402 C   0  0  0  0  0  0  0  0  0  0  0  0
  -45.2568   57.9031   66.6016 C   0  0  0  0  0  0  0  0  0  0  0  0
  -46.0903   56.9679   65.8338 C   0  0  0  0  0  0  0  0  0  0  0  0
  -47.5763   57.2112   65.6915 C   0  0  0  0  0  0  0  0  0  0  0  0
  -47.8317   58.6077   65.1261 C   0  0  0  0  0  0  0  0  0  0  0  0
  -48.3698   58.5890   63.6978 C   0  0  0  0  0  0  0  0  0  0  0  0
  -49.9006   58.5753   63.6723 C   0  0  0  0  0  0  0  0  0  0  0  0
  -50.5206   58.2967   62.2977 C   0  0  0  0  0  0  0  0  0  0  0  0
  -49.6859   58.8903   61.1551 C   0  0  0  0  0  0  0  0  0  0  0  0
  -49.4683   57.9007   60.0075 C   0  0  0  0  0  0  0  0  0  0  0  0
  -48.0038   57.7937   59.5651 C   0  0  0  0  0  0  0  0  0  0  0  0
  -43.7512   58.8243   64.9125 C   0  0  0  0  0  0  0  0  0  0  0  0
  -44.4493   60.1705   64.9874 C   0  0  0  0  0  0  0  0  0  0  0  0
  -43.6277   61.2554   64.2975 C   0  0  0  0  0  0  0  0  0  0  0  0
  -42.5737   60.6236   63.3990 C   0  0  0  0  0  0  0  0  0  0  0  0
  -41.3209   61.4834   63.3422 C   0  0  0  0  0  0  0  0  0  0  0  0
  -40.1601   60.8123   64.0693 C   0  0  0  0  0  0  0  0  0  0  0  0
  -40.3776   60.8992   65.5674 C   0  0  0  0  0  0  0  0  0  0  0  0
  -40.5623   59.8527   66.2400 O   0  0  0  0  0  0  0  0  0  0  0  0
  -40.3795   62.0161   66.1468 O   0  0  0  0  0  0  0  0  0  0  0  0
  -40.2426   62.8004   65.6526 H   0  0  0  0  0  0  0  0  0  0  0  0
 18 19  2  0  0  0
 18 17  1  0  0  0
 18 20  1  0  0  0
 17 16  1  0  0  0
 20 21  1  0  0  0
 16 15  1  0  0  0
 15 14  1  0  0  0
 14 13  1  0  0  0
 13 12  1  0  0  0
 12  1  1  0  0  0
  1  2  1  0  0  0
  2  3  1  0  0  0
  3  4  1  0  0  0
  4  5  1  0  0  0
  5  6  1  0  0  0
  6  7  1  0  0  0
  7  8  1  0  0  0
  8  9  1  0  0  0
  9 10  1  0  0  0
 10 11  1  0  0  0
M  END
> <minimizedAffinity>
-6.28548

> <CNNscore>
0.5885688066

> <CNNaffinity>
6.3901586533

> <CNN_VS>
3.7610480785

> <CNNaffinity_variance>
0.4021852612

$$$$
