/media/chris/experiments/cd1a-new-docking/inputs/ligands/4x6d_1_ligand.pdb


 21 20  0  0  0  0  0  0  0  0999 V2000
  -46.7606   58.2199   64.9943 C   0  0  0  0  0  0  0  0  0  0  0  0
  -48.2441   58.0230   65.1842 C   0  0  0  0  0  0  0  0  0  0  0  0
  -49.0357   59.0471   65.8796 C   0  0  0  0  0  0  0  0  0  0  0  0
  -50.3454   59.5261   65.2942 C   0  0  0  0  0  0  0  0  0  0  0  0
  -50.1380   60.0096   63.8595 C   0  0  0  0  0  0  0  0  0  0  0  0
  -51.1714   59.4550   62.8827 C   0  0  0  0  0  0  0  0  0  0  0  0
  -50.5778   58.3549   61.9986 C   0  0  0  0  0  0  0  0  0  0  0  0
  -49.0723   58.4807   61.7355 C   0  0  0  0  0  0  0  0  0  0  0  0
  -48.7633   58.7486   60.2566 C   0  0  0  0  0  0  0  0  0  0  0  0
  -47.8565   57.6803   59.6402 C   0  0  0  0  0  0  0  0  0  0  0  0
  -47.3755   58.0312   58.2270 C   0  0  0  0  0  0  0  0  0  0  0  0
  -46.3699   59.4929   65.7277 C   0  0  0  0  0  0  0  0  0  0  0  0
  -45.0731   59.3246   66.4990 C   0  0  0  0  0  0  0  0  0  0  0  0
  -43.8916   59.8946   65.7198 C   0  0  0  0  0  0  0  0  0  0  0  0
  -42.7347   60.1914   66.6637 C   0  0  0  0  0  0  0  0  0  0  0  0
  -41.6080   59.1877   66.4760 C   0  0  0  0  0  0  0  0  0  0  0  0
  -40.8085   59.4888   65.2124 C   0  0  0  0  0  0  0  0  0  0  0  0
  -40.2184   60.8827   65.3017 C   0  0  0  0  0  0  0  0  0  0  0  0
  -40.5752   61.7723   64.4874 O   0  0  0  0  0  0  0  0  0  0  0  0
  -39.3664   61.1579   66.1856 O   0  0  0  0  0  0  0  0  0  0  0  0
  -39.0954   60.5006   66.7959 H   0  0  0  0  0  0  0  0  0  0  0  0
 18 19  2  0  0  0
 18 17  1  0  0  0
 18 20  1  0  0  0
 17 16  1  0  0  0
 20 21  1  0  0  0
 16 15  1  0  0  0
 15 14  1  0  0  0
 14 13  1  0  0  0
 13 12  1  0  0  0
 12  1  1  0  0  0
  1  2  1  0  0  0
  2  3  1  0  0  0
  3  4  1  0  0  0
  4  5  1  0  0  0
  5  6  1  0  0  0
  6  7  1  0  0  0
  7  8  1  0  0  0
  8  9  1  0  0  0
  9 10  1  0  0  0
 10 11  1  0  0  0
M  END
> <minimizedAffinity>
-6.94665

> <CNNscore>
0.9224799871

> <CNNaffinity>
6.8614225388

> <CNN_VS>
6.3295249939

> <CNNaffinity_variance>
0.5243818164

$$$$
/media/chris/experiments/cd1a-new-docking/inputs/ligands/4x6d_1_ligand.pdb


 21 20  0  0  0  0  0  0  0  0999 V2000
  -47.8908   60.5180   65.2104 C   0  0  0  0  0  0  0  0  0  0  0  0
  -48.9333   59.7887   66.0209 C   0  0  0  0  0  0  0  0  0  0  0  0
  -50.2787   59.5820   65.4674 C   0  0  0  0  0  0  0  0  0  0  0  0
  -50.8506   60.5621   64.4675 C   0  0  0  0  0  0  0  0  0  0  0  0
  -51.1770   59.8493   63.1557 C   0  0  0  0  0  0  0  0  0  0  0  0
  -49.9605   59.6661   62.2521 C   0  0  0  0  0  0  0  0  0  0  0  0
  -49.6588   58.1853   62.0067 C   0  0  0  0  0  0  0  0  0  0  0  0
  -50.3018   57.5962   60.7453 C   0  0  0  0  0  0  0  0  0  0  0  0
  -49.3144   56.7456   59.9353 C   0  0  0  0  0  0  0  0  0  0  0  0
  -48.9606   57.3765   58.5861 C   0  0  0  0  0  0  0  0  0  0  0  0
  -47.5283   57.9212   58.5254 C   0  0  0  0  0  0  0  0  0  0  0  0
  -46.6868   59.5990   65.0797 C   0  0  0  0  0  0  0  0  0  0  0  0
  -46.0276   59.3381   66.4222 C   0  0  0  0  0  0  0  0  0  0  0  0
  -44.5173   59.5391   66.3418 C   0  0  0  0  0  0  0  0  0  0  0  0
  -44.1460   60.2038   65.0235 C   0  0  0  0  0  0  0  0  0  0  0  0
  -42.6901   59.9406   64.6725 C   0  0  0  0  0  0  0  0  0  0  0  0
  -41.7796   60.2084   65.8666 C   0  0  0  0  0  0  0  0  0  0  0  0
  -40.7773   61.2895   65.5121 C   0  0  0  0  0  0  0  0  0  0  0  0
  -40.6726   62.3141   66.2339 O   0  0  0  0  0  0  0  0  0  0  0  0
  -40.0480   61.1723   64.4936 O   0  0  0  0  0  0  0  0  0  0  0  0
  -40.1201   60.4119   63.9508 H   0  0  0  0  0  0  0  0  0  0  0  0
 18 19  2  0  0  0
 18 17  1  0  0  0
 18 20  1  0  0  0
 17 16  1  0  0  0
 20 21  1  0  0  0
 16 15  1  0  0  0
 15 14  1  0  0  0
 14 13  1  0  0  0
 13 12  1  0  0  0
 12  1  1  0  0  0
  1  2  1  0  0  0
  2  3  1  0  0  0
  3  4  1  0  0  0
  4  5  1  0  0  0
  5  6  1  0  0  0
  6  7  1  0  0  0
  7  8  1  0  0  0
  8  9  1  0  0  0
  9 10  1  0  0  0
 10 11  1  0  0  0
M  END
> <minimizedAffinity>
-6.96388

> <CNNscore>
0.8953583837

> <CNNaffinity>
6.7876167297

> <CNN_VS>
6.0773496628

> <CNNaffinity_variance>
0.8199928999

$$$$
/media/chris/experiments/cd1a-new-docking/inputs/ligands/4x6d_1_ligand.pdb


 21 20  0  0  0  0  0  0  0  0999 V2000
  -45.3259   57.5265   64.8838 C   0  0  0  0  0  0  0  0  0  0  0  0
  -46.5593   58.3103   65.2584 C   0  0  0  0  0  0  0  0  0  0  0  0
  -47.8882   57.8075   64.8839 C   0  0  0  0  0  0  0  0  0  0  0  0
  -49.1346   58.4629   65.4357 C   0  0  0  0  0  0  0  0  0  0  0  0
  -50.1203   58.7595   64.3061 C   0  0  0  0  0  0  0  0  0  0  0  0
  -49.6346   58.2768   62.9420 C   0  0  0  0  0  0  0  0  0  0  0  0
  -50.7931   58.1256   61.9525 C   0  0  0  0  0  0  0  0  0  0  0  0
  -50.5361   57.1431   60.8034 C   0  0  0  0  0  0  0  0  0  0  0  0
  -50.0944   57.8571   59.5190 C   0  0  0  0  0  0  0  0  0  0  0  0
  -48.5723   57.9698   59.4000 C   0  0  0  0  0  0  0  0  0  0  0  0
  -47.8761   56.6194   59.1913 C   0  0  0  0  0  0  0  0  0  0  0  0
  -44.4513   57.4289   66.1234 C   0  0  0  0  0  0  0  0  0  0  0  0
  -42.9783   57.5807   65.7883 C   0  0  0  0  0  0  0  0  0  0  0  0
  -42.5015   59.0084   66.0382 C   0  0  0  0  0  0  0  0  0  0  0  0
  -41.0518   59.1616   65.5999 C   0  0  0  0  0  0  0  0  0  0  0  0
  -40.9550   59.9595   64.3091 C   0  0  0  0  0  0  0  0  0  0  0  0
  -42.3080   60.5497   63.9249 C   0  0  0  0  0  0  0  0  0  0  0  0
  -42.1037   61.7442   63.0135 C   0  0  0  0  0  0  0  0  0  0  0  0
  -42.2815   61.6298   61.7738 O   0  0  0  0  0  0  0  0  0  0  0  0
  -41.7513   62.8546   63.4888 O   0  0  0  0  0  0  0  0  0  0  0  0
  -41.6167   62.9479   64.4113 H   0  0  0  0  0  0  0  0  0  0  0  0
 18 19  2  0  0  0
 18 17  1  0  0  0
 18 20  1  0  0  0
 17 16  1  0  0  0
 20 21  1  0  0  0
 16 15  1  0  0  0
 15 14  1  0  0  0
 14 13  1  0  0  0
 13 12  1  0  0  0
 12  1  1  0  0  0
  1  2  1  0  0  0
  2  3  1  0  0  0
  3  4  1  0  0  0
  4  5  1  0  0  0
  5  6  1  0  0  0
  6  7  1  0  0  0
  7  8  1  0  0  0
  8  9  1  0  0  0
  9 10  1  0  0  0
 10 11  1  0  0  0
M  END
> <minimizedAffinity>
-6.57673

> <CNNscore>
0.8082612753

> <CNNaffinity>
6.6940102577

> <CNN_VS>
5.4105091095

> <CNNaffinity_variance>
0.5784667730

$$$$
/media/chris/experiments/cd1a-new-docking/inputs/ligands/4x6d_1_ligand.pdb


 21 20  0  0  0  0  0  0  0  0999 V2000
  -44.8243   59.1785   66.8091 C   0  0  0  0  0  0  0  0  0  0  0  0
  -45.5575   59.6564   65.5803 C   0  0  0  0  0  0  0  0  0  0  0  0
  -46.5597   58.7914   64.9428 C   0  0  0  0  0  0  0  0  0  0  0  0
  -47.8762   58.5128   65.6332 C   0  0  0  0  0  0  0  0  0  0  0  0
  -48.7346   59.7768   65.6649 C   0  0  0  0  0  0  0  0  0  0  0  0
  -50.2198   59.5006   65.4469 C   0  0  0  0  0  0  0  0  0  0  0  0
  -50.8262   60.4592   64.4185 C   0  0  0  0  0  0  0  0  0  0  0  0
  -51.1751   59.8207   63.0686 C   0  0  0  0  0  0  0  0  0  0  0  0
  -50.5609   58.4232   62.9130 C   0  0  0  0  0  0  0  0  0  0  0  0
  -49.7678   58.2685   61.6128 C   0  0  0  0  0  0  0  0  0  0  0  0
  -50.5157   57.4759   60.5338 C   0  0  0  0  0  0  0  0  0  0  0  0
  -43.4734   59.8753   66.8363 C   0  0  0  0  0  0  0  0  0  0  0  0
  -42.3440   58.9315   66.4637 C   0  0  0  0  0  0  0  0  0  0  0  0
  -41.1507   59.6972   65.9000 C   0  0  0  0  0  0  0  0  0  0  0  0
  -40.2726   58.7667   65.0751 C   0  0  0  0  0  0  0  0  0  0  0  0
  -38.8220   59.2218   65.1016 C   0  0  0  0  0  0  0  0  0  0  0  0
  -37.8711   58.0343   64.9913 C   0  0  0  0  0  0  0  0  0  0  0  0
  -37.3003   57.9659   63.5882 C   0  0  0  0  0  0  0  0  0  0  0  0
  -38.0192   57.5756   62.6329 O   0  0  0  0  0  0  0  0  0  0  0  0
  -36.1052   58.2937   63.3704 O   0  0  0  0  0  0  0  0  0  0  0  0
  -35.5633   58.5855   64.0769 H   0  0  0  0  0  0  0  0  0  0  0  0
 18 19  2  0  0  0
 18 17  1  0  0  0
 18 20  1  0  0  0
 17 16  1  0  0  0
 20 21  1  0  0  0
 16 15  1  0  0  0
 15 14  1  0  0  0
 14 13  1  0  0  0
 13 12  1  0  0  0
 12  1  1  0  0  0
  1  2  1  0  0  0
  2  3  1  0  0  0
  3  4  1  0  0  0
  4  5  1  0  0  0
  5  6  1  0  0  0
  6  7  1  0  0  0
  7  8  1  0  0  0
  8  9  1  0  0  0
  9 10  1  0  0  0
 10 11  1  0  0  0
M  END
> <minimizedAffinity>
-6.50632

> <CNNscore>
0.7419450879

> <CNNaffinity>
6.3580756187

> <CNN_VS>
4.7173428535

> <CNNaffinity_variance>
0.3535072803

$$$$
/media/chris/experiments/cd1a-new-docking/inputs/ligands/4x6d_1_ligand.pdb


 21 20  0  0  0  0  0  0  0  0999 V2000
  -47.6474   59.1390   64.8467 C   0  0  0  0  0  0  0  0  0  0  0  0
  -48.7022   59.6548   65.7939 C   0  0  0  0  0  0  0  0  0  0  0  0
  -50.0547   59.9429   65.2973 C   0  0  0  0  0  0  0  0  0  0  0  0
  -50.2529   60.5042   63.9070 C   0  0  0  0  0  0  0  0  0  0  0  0
  -51.1778   59.5965   63.0971 C   0  0  0  0  0  0  0  0  0  0  0  0
  -50.5483   58.2491   62.7537 C   0  0  0  0  0  0  0  0  0  0  0  0
  -50.1199   58.1851   61.2852 C   0  0  0  0  0  0  0  0  0  0  0  0
  -48.6047   58.2246   61.0528 C   0  0  0  0  0  0  0  0  0  0  0  0
  -48.2503   58.5864   59.6044 C   0  0  0  0  0  0  0  0  0  0  0  0
  -47.5075   57.4609   58.8797 C   0  0  0  0  0  0  0  0  0  0  0  0
  -46.7439   57.9362   57.6376 C   0  0  0  0  0  0  0  0  0  0  0  0
  -47.5082   57.6442   65.0863 C   0  0  0  0  0  0  0  0  0  0  0  0
  -46.7709   57.3462   66.3795 C   0  0  0  0  0  0  0  0  0  0  0  0
  -45.4193   58.0531   66.4177 C   0  0  0  0  0  0  0  0  0  0  0  0
  -44.4527   57.3895   65.4466 C   0  0  0  0  0  0  0  0  0  0  0  0
  -43.2900   58.3133   65.1197 C   0  0  0  0  0  0  0  0  0  0  0  0
  -43.5575   59.7306   65.6160 C   0  0  0  0  0  0  0  0  0  0  0  0
  -42.4836   60.1358   66.6068 C   0  0  0  0  0  0  0  0  0  0  0  0
  -41.2699   60.0696   66.2840 O   0  0  0  0  0  0  0  0  0  0  0  0
  -42.7975   60.5357   67.7578 O   0  0  0  0  0  0  0  0  0  0  0  0
  -43.6995   60.5877   68.0058 H   0  0  0  0  0  0  0  0  0  0  0  0
 18 19  2  0  0  0
 18 17  1  0  0  0
 18 20  1  0  0  0
 17 16  1  0  0  0
 20 21  1  0  0  0
 16 15  1  0  0  0
 15 14  1  0  0  0
 14 13  1  0  0  0
 13 12  1  0  0  0
 12  1  1  0  0  0
  1  2  1  0  0  0
  2  3  1  0  0  0
  3  4  1  0  0  0
  4  5  1  0  0  0
  5  6  1  0  0  0
  6  7  1  0  0  0
  7  8  1  0  0  0
  8  9  1  0  0  0
  9 10  1  0  0  0
 10 11  1  0  0  0
M  END
> <minimizedAffinity>
-6.67423

> <CNNscore>
0.7161850929

> <CNNaffinity>
6.6821889877

> <CNN_VS>
4.7856841087

> <CNNaffinity_variance>
0.5481570959

$$$$
/media/chris/experiments/cd1a-new-docking/inputs/ligands/4x6d_1_ligand.pdb


 21 20  0  0  0  0  0  0  0  0999 V2000
  -45.1322   57.0429   65.2999 C   0  0  0  0  0  0  0  0  0  0  0  0
  -46.4181   56.9284   66.0804 C   0  0  0  0  0  0  0  0  0  0  0  0
  -47.6940   57.2882   65.4467 C   0  0  0  0  0  0  0  0  0  0  0  0
  -48.2900   58.6619   65.6590 C   0  0  0  0  0  0  0  0  0  0  0  0
  -48.4538   59.3800   64.3199 C   0  0  0  0  0  0  0  0  0  0  0  0
  -48.8353   58.4423   63.1775 C   0  0  0  0  0  0  0  0  0  0  0  0
  -49.8392   59.0954   62.2238 C   0  0  0  0  0  0  0  0  0  0  0  0
  -49.3083   59.3588   60.8095 C   0  0  0  0  0  0  0  0  0  0  0  0
  -49.2507   58.0789   59.9650 C   0  0  0  0  0  0  0  0  0  0  0  0
  -47.8178   57.6565   59.6304 C   0  0  0  0  0  0  0  0  0  0  0  0
  -47.4051   57.9892   58.1914 C   0  0  0  0  0  0  0  0  0  0  0  0
  -44.0954   57.6740   66.2153 C   0  0  0  0  0  0  0  0  0  0  0  0
  -44.4375   59.1157   66.5461 C   0  0  0  0  0  0  0  0  0  0  0  0
  -43.2207   59.8591   67.0891 C   0  0  0  0  0  0  0  0  0  0  0  0
  -42.0017   58.9473   67.0798 C   0  0  0  0  0  0  0  0  0  0  0  0
  -40.9093   59.5084   66.1833 C   0  0  0  0  0  0  0  0  0  0  0  0
  -40.6197   58.5698   65.0163 C   0  0  0  0  0  0  0  0  0  0  0  0
  -39.1225   58.4781   64.7944 C   0  0  0  0  0  0  0  0  0  0  0  0
  -38.3333   59.1025   65.5488 O   0  0  0  0  0  0  0  0  0  0  0  0
  -38.6598   57.7822   63.8538 O   0  0  0  0  0  0  0  0  0  0  0  0
  -39.2412   57.3141   63.2875 H   0  0  0  0  0  0  0  0  0  0  0  0
 18 19  2  0  0  0
 18 17  1  0  0  0
 18 20  1  0  0  0
 17 16  1  0  0  0
 20 21  1  0  0  0
 16 15  1  0  0  0
 15 14  1  0  0  0
 14 13  1  0  0  0
 13 12  1  0  0  0
 12  1  1  0  0  0
  1  2  1  0  0  0
  2  3  1  0  0  0
  3  4  1  0  0  0
  4  5  1  0  0  0
  5  6  1  0  0  0
  6  7  1  0  0  0
  7  8  1  0  0  0
  8  9  1  0  0  0
  9 10  1  0  0  0
 10 11  1  0  0  0
M  END
> <minimizedAffinity>
-6.41567

> <CNNscore>
0.7146097422

> <CNNaffinity>
6.5798521042

> <CNN_VS>
4.7020263672

> <CNNaffinity_variance>
0.3746036887

$$$$
/media/chris/experiments/cd1a-new-docking/inputs/ligands/4x6d_1_ligand.pdb


 21 20  0  0  0  0  0  0  0  0999 V2000
  -46.1169   59.2564   65.7749 C   0  0  0  0  0  0  0  0  0  0  0  0
  -46.7020   60.4504   65.0623 C   0  0  0  0  0  0  0  0  0  0  0  0
  -48.1549   60.6694   65.0718 C   0  0  0  0  0  0  0  0  0  0  0  0
  -49.0288   59.9439   66.0706 C   0  0  0  0  0  0  0  0  0  0  0  0
  -50.2508   59.3501   65.3709 C   0  0  0  0  0  0  0  0  0  0  0  0
  -51.0023   60.3627   64.5108 C   0  0  0  0  0  0  0  0  0  0  0  0
  -51.1594   59.8712   63.0693 C   0  0  0  0  0  0  0  0  0  0  0  0
  -50.3684   58.6019   62.7306 C   0  0  0  0  0  0  0  0  0  0  0  0
  -49.0794   58.9118   61.9579 C   0  0  0  0  0  0  0  0  0  0  0  0
  -49.2973   58.9651   60.4436 C   0  0  0  0  0  0  0  0  0  0  0  0
  -48.9524   57.6511   59.7321 C   0  0  0  0  0  0  0  0  0  0  0  0
  -45.9090   58.1622   64.7403 C   0  0  0  0  0  0  0  0  0  0  0  0
  -44.4365   57.8608   64.5257 C   0  0  0  0  0  0  0  0  0  0  0  0
  -43.7155   57.6649   65.8560 C   0  0  0  0  0  0  0  0  0  0  0  0
  -42.2469   58.0409   65.7171 C   0  0  0  0  0  0  0  0  0  0  0  0
  -42.0888   59.3408   64.9442 C   0  0  0  0  0  0  0  0  0  0  0  0
  -42.0621   60.5405   65.8858 C   0  0  0  0  0  0  0  0  0  0  0  0
  -40.9510   61.4871   65.4754 C   0  0  0  0  0  0  0  0  0  0  0  0
  -39.8729   61.5130   66.1225 O   0  0  0  0  0  0  0  0  0  0  0  0
  -41.1003   62.2549   64.4898 O   0  0  0  0  0  0  0  0  0  0  0  0
  -41.9006   62.2415   64.0027 H   0  0  0  0  0  0  0  0  0  0  0  0
 18 19  2  0  0  0
 18 17  1  0  0  0
 18 20  1  0  0  0
 17 16  1  0  0  0
 20 21  1  0  0  0
 16 15  1  0  0  0
 15 14  1  0  0  0
 14 13  1  0  0  0
 13 12  1  0  0  0
 12  1  1  0  0  0
  1  2  1  0  0  0
  2  3  1  0  0  0
  3  4  1  0  0  0
  4  5  1  0  0  0
  5  6  1  0  0  0
  6  7  1  0  0  0
  7  8  1  0  0  0
  8  9  1  0  0  0
  9 10  1  0  0  0
 10 11  1  0  0  0
M  END
> <minimizedAffinity>
-6.74406

> <CNNscore>
0.6993045211

> <CNNaffinity>
6.4630980492

> <CNN_VS>
4.5196738243

> <CNNaffinity_variance>
0.4495538771

$$$$
/media/chris/experiments/cd1a-new-docking/inputs/ligands/4x6d_1_ligand.pdb


 21 20  0  0  0  0  0  0  0  0999 V2000
  -41.2490   59.8780   66.2056 C   0  0  0  0  0  0  0  0  0  0  0  0
  -42.7311   59.6910   66.4153 C   0  0  0  0  0  0  0  0  0  0  0  0
  -43.5503   59.0873   65.3553 C   0  0  0  0  0  0  0  0  0  0  0  0
  -44.2970   57.7970   65.6104 C   0  0  0  0  0  0  0  0  0  0  0  0
  -45.6948   57.8647   64.9963 C   0  0  0  0  0  0  0  0  0  0  0  0
  -46.7534   57.1485   65.8306 C   0  0  0  0  0  0  0  0  0  0  0  0
  -48.1694   57.5565   65.4152 C   0  0  0  0  0  0  0  0  0  0  0  0
  -48.5866   58.9680   65.8456 C   0  0  0  0  0  0  0  0  0  0  0  0
  -50.0642   59.2521   65.5447 C   0  0  0  0  0  0  0  0  0  0  0  0
  -50.2683   59.9517   64.1984 C   0  0  0  0  0  0  0  0  0  0  0  0
  -50.7448   59.0078   63.0877 C   0  0  0  0  0  0  0  0  0  0  0  0
  -40.7551   58.7133   65.3627 C   0  0  0  0  0  0  0  0  0  0  0  0
  -39.5178   59.0800   64.5630 C   0  0  0  0  0  0  0  0  0  0  0  0
  -38.3368   58.1894   64.9372 C   0  0  0  0  0  0  0  0  0  0  0  0
  -37.3837   58.0587   63.7574 C   0  0  0  0  0  0  0  0  0  0  0  0
  -38.1445   58.0576   62.4408 C   0  0  0  0  0  0  0  0  0  0  0  0
  -37.2267   57.7012   61.2758 C   0  0  0  0  0  0  0  0  0  0  0  0
  -37.3263   58.7677   60.2026 C   0  0  0  0  0  0  0  0  0  0  0  0
  -36.9982   58.5031   59.0177 O   0  0  0  0  0  0  0  0  0  0  0  0
  -37.7325   59.9235   60.4894 O   0  0  0  0  0  0  0  0  0  0  0  0
  -37.9788   60.1284   61.3699 H   0  0  0  0  0  0  0  0  0  0  0  0
 18 19  2  0  0  0
 18 17  1  0  0  0
 18 20  1  0  0  0
 17 16  1  0  0  0
 20 21  1  0  0  0
 16 15  1  0  0  0
 15 14  1  0  0  0
 14 13  1  0  0  0
 13 12  1  0  0  0
 12  1  1  0  0  0
  1  2  1  0  0  0
  2  3  1  0  0  0
  3  4  1  0  0  0
  4  5  1  0  0  0
  5  6  1  0  0  0
  6  7  1  0  0  0
  7  8  1  0  0  0
  8  9  1  0  0  0
  9 10  1  0  0  0
 10 11  1  0  0  0
M  END
> <minimizedAffinity>
-6.50734

> <CNNscore>
0.6902776957

> <CNNaffinity>
6.2259597778

> <CNN_VS>
4.2976412773

> <CNNaffinity_variance>
0.6784747243

$$$$
/media/chris/experiments/cd1a-new-docking/inputs/ligands/4x6d_1_ligand.pdb


 21 20  0  0  0  0  0  0  0  0999 V2000
  -43.1712   58.0257   66.6669 C   0  0  0  0  0  0  0  0  0  0  0  0
  -43.4506   57.3016   65.3733 C   0  0  0  0  0  0  0  0  0  0  0  0
  -44.7661   57.4300   64.7315 C   0  0  0  0  0  0  0  0  0  0  0  0
  -45.6209   58.6521   64.9828 C   0  0  0  0  0  0  0  0  0  0  0  0
  -47.0453   58.4128   64.4835 C   0  0  0  0  0  0  0  0  0  0  0  0
  -48.0302   58.0947   65.6054 C   0  0  0  0  0  0  0  0  0  0  0  0
  -48.7940   59.3429   66.0555 C   0  0  0  0  0  0  0  0  0  0  0  0
  -50.2423   59.4273   65.5586 C   0  0  0  0  0  0  0  0  0  0  0  0
  -50.3955   60.4027   64.3840 C   0  0  0  0  0  0  0  0  0  0  0  0
  -51.1685   59.7961   63.2101 C   0  0  0  0  0  0  0  0  0  0  0  0
  -50.2907   59.5102   61.9856 C   0  0  0  0  0  0  0  0  0  0  0  0
  -41.8367   58.7376   66.5143 C   0  0  0  0  0  0  0  0  0  0  0  0
  -41.5070   59.0127   65.0580 C   0  0  0  0  0  0  0  0  0  0  0  0
  -40.0031   59.1700   64.8547 C   0  0  0  0  0  0  0  0  0  0  0  0
  -39.4734   60.3079   65.7161 C   0  0  0  0  0  0  0  0  0  0  0  0
  -37.9650   60.2089   65.8808 C   0  0  0  0  0  0  0  0  0  0  0  0
  -37.3532   59.3083   64.8126 C   0  0  0  0  0  0  0  0  0  0  0  0
  -36.7673   60.1587   63.7022 C   0  0  0  0  0  0  0  0  0  0  0  0
  -36.6610   59.6921   62.5392 O   0  0  0  0  0  0  0  0  0  0  0  0
  -36.3798   61.3327   63.9364 O   0  0  0  0  0  0  0  0  0  0  0  0
  -36.4557   61.6875   64.8003 H   0  0  0  0  0  0  0  0  0  0  0  0
 18 19  2  0  0  0
 18 17  1  0  0  0
 18 20  1  0  0  0
 17 16  1  0  0  0
 20 21  1  0  0  0
 16 15  1  0  0  0
 15 14  1  0  0  0
 14 13  1  0  0  0
 13 12  1  0  0  0
 12  1  1  0  0  0
  1  2  1  0  0  0
  2  3  1  0  0  0
  3  4  1  0  0  0
  4  5  1  0  0  0
  5  6  1  0  0  0
  6  7  1  0  0  0
  7  8  1  0  0  0
  8  9  1  0  0  0
  9 10  1  0  0  0
 10 11  1  0  0  0
M  END
> <minimizedAffinity>
-6.23525

> <CNNscore>
0.6178234816

> <CNNaffinity>
6.1958379745

> <CNN_VS>
3.8279342651

> <CNNaffinity_variance>
0.2539282143

$$$$
