/media/chris/experiments/cd1a-new-docking/inputs/ligands/4x6d_1_ligand.pdb


 21 20  0  0  0  0  0  0  0  0999 V2000
  -47.3527   58.0355   65.7198 C   0  0  0  0  0  0  0  0  0  0  0  0
  -47.5825   58.8583   64.4764 C   0  0  0  0  0  0  0  0  0  0  0  0
  -48.5877   58.4334   63.4925 C   0  0  0  0  0  0  0  0  0  0  0  0
  -50.0605   58.6338   63.7721 C   0  0  0  0  0  0  0  0  0  0  0  0
  -50.8520   58.6308   62.4649 C   0  0  0  0  0  0  0  0  0  0  0  0
  -49.9640   58.6667   61.2240 C   0  0  0  0  0  0  0  0  0  0  0  0
  -50.1955   57.4458   60.3297 C   0  0  0  0  0  0  0  0  0  0  0  0
  -49.4448   57.4734   58.9929 C   0  0  0  0  0  0  0  0  0  0  0  0
  -47.9322   57.6493   59.1818 C   0  0  0  0  0  0  0  0  0  0  0  0
  -47.2124   58.0075   57.8789 C   0  0  0  0  0  0  0  0  0  0  0  0
  -47.5462   57.0619   56.7189 C   0  0  0  0  0  0  0  0  0  0  0  0
  -45.9062   58.2373   66.1416 C   0  0  0  0  0  0  0  0  0  0  0  0
  -45.3961   59.6172   65.7663 C   0  0  0  0  0  0  0  0  0  0  0  0
  -43.9269   59.5681   65.3578 C   0  0  0  0  0  0  0  0  0  0  0  0
  -43.1457   58.6783   66.3147 C   0  0  0  0  0  0  0  0  0  0  0  0
  -41.8402   59.3388   66.7290 C   0  0  0  0  0  0  0  0  0  0  0  0
  -41.9549   60.8591   66.6848 C   0  0  0  0  0  0  0  0  0  0  0  0
  -40.7940   61.4360   65.8983 C   0  0  0  0  0  0  0  0  0  0  0  0
  -40.9798   62.4049   65.1183 O   0  0  0  0  0  0  0  0  0  0  0  0
  -39.6402   60.9482   66.0162 O   0  0  0  0  0  0  0  0  0  0  0  0
  -39.4937   60.2263   66.5954 H   0  0  0  0  0  0  0  0  0  0  0  0
 18 19  2  0  0  0
 18 17  1  0  0  0
 18 20  1  0  0  0
 17 16  1  0  0  0
 20 21  1  0  0  0
 16 15  1  0  0  0
 15 14  1  0  0  0
 14 13  1  0  0  0
 13 12  1  0  0  0
 12  1  1  0  0  0
  1  2  1  0  0  0
  2  3  1  0  0  0
  3  4  1  0  0  0
  4  5  1  0  0  0
  5  6  1  0  0  0
  6  7  1  0  0  0
  7  8  1  0  0  0
  8  9  1  0  0  0
  9 10  1  0  0  0
 10 11  1  0  0  0
M  END
> <minimizedAffinity>
-7.02727

> <CNNscore>
0.9608460069

> <CNNaffinity>
7.0801124573

> <CNN_VS>
6.8028979301

> <CNNaffinity_variance>
0.8042222857

$$$$
/media/chris/experiments/cd1a-new-docking/inputs/ligands/4x6d_1_ligand.pdb


 21 20  0  0  0  0  0  0  0  0999 V2000
  -46.6723   56.8728   65.6752 C   0  0  0  0  0  0  0  0  0  0  0  0
  -47.3617   58.0124   64.9668 C   0  0  0  0  0  0  0  0  0  0  0  0
  -47.4138   59.3402   65.5939 C   0  0  0  0  0  0  0  0  0  0  0  0
  -48.2843   60.4279   65.0051 C   0  0  0  0  0  0  0  0  0  0  0  0
  -49.7185   59.9267   64.8412 C   0  0  0  0  0  0  0  0  0  0  0  0
  -50.4096   60.4776   63.5967 C   0  0  0  0  0  0  0  0  0  0  0  0
  -51.1778   59.3850   62.8483 C   0  0  0  0  0  0  0  0  0  0  0  0
  -50.3383   58.1669   62.4448 C   0  0  0  0  0  0  0  0  0  0  0  0
  -50.8396   57.5230   61.1453 C   0  0  0  0  0  0  0  0  0  0  0  0
  -50.0482   57.9796   59.9168 C   0  0  0  0  0  0  0  0  0  0  0  0
  -48.5775   58.2898   60.2206 C   0  0  0  0  0  0  0  0  0  0  0  0
  -45.3196   57.3795   66.1491 C   0  0  0  0  0  0  0  0  0  0  0  0
  -44.2478   57.2035   65.0883 C   0  0  0  0  0  0  0  0  0  0  0  0
  -42.9457   57.8813   65.5043 C   0  0  0  0  0  0  0  0  0  0  0  0
  -43.2257   58.9704   66.5304 C   0  0  0  0  0  0  0  0  0  0  0  0
  -41.9318   59.5984   67.0243 C   0  0  0  0  0  0  0  0  0  0  0  0
  -40.8937   59.6682   65.9090 C   0  0  0  0  0  0  0  0  0  0  0  0
  -40.1585   60.9925   65.9781 C   0  0  0  0  0  0  0  0  0  0  0  0
  -40.7967   62.0733   65.8993 O   0  0  0  0  0  0  0  0  0  0  0  0
  -38.9075   61.0201   66.1099 O   0  0  0  0  0  0  0  0  0  0  0  0
  -38.4249   60.2190   66.1694 H   0  0  0  0  0  0  0  0  0  0  0  0
 18 19  2  0  0  0
 18 17  1  0  0  0
 18 20  1  0  0  0
 17 16  1  0  0  0
 20 21  1  0  0  0
 16 15  1  0  0  0
 15 14  1  0  0  0
 14 13  1  0  0  0
 13 12  1  0  0  0
 12  1  1  0  0  0
  1  2  1  0  0  0
  2  3  1  0  0  0
  3  4  1  0  0  0
  4  5  1  0  0  0
  5  6  1  0  0  0
  6  7  1  0  0  0
  7  8  1  0  0  0
  8  9  1  0  0  0
  9 10  1  0  0  0
 10 11  1  0  0  0
M  END
> <minimizedAffinity>
-6.88275

> <CNNscore>
0.8635874987

> <CNNaffinity>
6.7802114487

> <CNN_VS>
5.8553056717

> <CNNaffinity_variance>
0.6551757455

$$$$
/media/chris/experiments/cd1a-new-docking/inputs/ligands/4x6d_1_ligand.pdb


 21 20  0  0  0  0  0  0  0  0999 V2000
  -48.2513   58.1729   65.4816 C   0  0  0  0  0  0  0  0  0  0  0  0
  -49.6278   58.3723   64.8973 C   0  0  0  0  0  0  0  0  0  0  0  0
  -50.3847   59.5932   65.2063 C   0  0  0  0  0  0  0  0  0  0  0  0
  -51.1387   60.3197   64.1150 C   0  0  0  0  0  0  0  0  0  0  0  0
  -50.8679   59.6666   62.7602 C   0  0  0  0  0  0  0  0  0  0  0  0
  -49.8132   60.4024   61.9380 C   0  0  0  0  0  0  0  0  0  0  0  0
  -49.3352   59.5608   60.7517 C   0  0  0  0  0  0  0  0  0  0  0  0
  -48.7983   58.1725   61.1202 C   0  0  0  0  0  0  0  0  0  0  0  0
  -48.4849   57.3250   59.8800 C   0  0  0  0  0  0  0  0  0  0  0  0
  -47.5136   58.0185   58.9212 C   0  0  0  0  0  0  0  0  0  0  0  0
  -47.6067   57.5015   57.4805 C   0  0  0  0  0  0  0  0  0  0  0  0
  -47.2404   58.4977   64.3937 C   0  0  0  0  0  0  0  0  0  0  0  0
  -45.8197   58.5103   64.9290 C   0  0  0  0  0  0  0  0  0  0  0  0
  -45.4973   59.8412   65.6017 C   0  0  0  0  0  0  0  0  0  0  0  0
  -43.9919   59.9934   65.7690 C   0  0  0  0  0  0  0  0  0  0  0  0
  -43.3303   60.3474   64.4464 C   0  0  0  0  0  0  0  0  0  0  0  0
  -41.8104   60.2830   64.5572 C   0  0  0  0  0  0  0  0  0  0  0  0
  -41.2529   61.6800   64.7483 C   0  0  0  0  0  0  0  0  0  0  0  0
  -40.6314   61.9728   65.8018 O   0  0  0  0  0  0  0  0  0  0  0  0
  -41.4112   62.5559   63.8590 O   0  0  0  0  0  0  0  0  0  0  0  0
  -41.8731   62.3456   63.0713 H   0  0  0  0  0  0  0  0  0  0  0  0
 18 19  2  0  0  0
 18 17  1  0  0  0
 18 20  1  0  0  0
 17 16  1  0  0  0
 20 21  1  0  0  0
 16 15  1  0  0  0
 15 14  1  0  0  0
 14 13  1  0  0  0
 13 12  1  0  0  0
 12  1  1  0  0  0
  1  2  1  0  0  0
  2  3  1  0  0  0
  3  4  1  0  0  0
  4  5  1  0  0  0
  5  6  1  0  0  0
  6  7  1  0  0  0
  7  8  1  0  0  0
  8  9  1  0  0  0
  9 10  1  0  0  0
 10 11  1  0  0  0
M  END
> <minimizedAffinity>
-7.05963

> <CNNscore>
0.8189659715

> <CNNaffinity>
6.6706247330

> <CNN_VS>
5.4630146027

> <CNNaffinity_variance>
0.4071699679

$$$$
/media/chris/experiments/cd1a-new-docking/inputs/ligands/4x6d_1_ligand.pdb


 21 20  0  0  0  0  0  0  0  0999 V2000
  -46.6549   60.5732   65.0821 C   0  0  0  0  0  0  0  0  0  0  0  0
  -48.1036   60.7370   65.4695 C   0  0  0  0  0  0  0  0  0  0  0  0
  -48.8691   59.5779   65.9488 C   0  0  0  0  0  0  0  0  0  0  0  0
  -50.3307   59.4282   65.5898 C   0  0  0  0  0  0  0  0  0  0  0  0
  -50.7417   60.5046   64.5860 C   0  0  0  0  0  0  0  0  0  0  0  0
  -51.1770   59.9353   63.2384 C   0  0  0  0  0  0  0  0  0  0  0  0
  -50.4697   58.6129   62.9301 C   0  0  0  0  0  0  0  0  0  0  0  0
  -49.0694   58.7566   62.3220 C   0  0  0  0  0  0  0  0  0  0  0  0
  -49.1190   59.0388   60.8145 C   0  0  0  0  0  0  0  0  0  0  0  0
  -48.5886   57.8717   59.9777 C   0  0  0  0  0  0  0  0  0  0  0  0
  -47.6349   58.3083   58.8591 C   0  0  0  0  0  0  0  0  0  0  0  0
  -46.2981   59.1054   65.2535 C   0  0  0  0  0  0  0  0  0  0  0  0
  -44.8238   58.8492   64.9964 C   0  0  0  0  0  0  0  0  0  0  0  0
  -43.9670   60.0002   65.5152 C   0  0  0  0  0  0  0  0  0  0  0  0
  -43.5979   59.7639   66.9730 C   0  0  0  0  0  0  0  0  0  0  0  0
  -42.1669   60.1980   67.2493 C   0  0  0  0  0  0  0  0  0  0  0  0
  -41.2355   59.7737   66.1184 C   0  0  0  0  0  0  0  0  0  0  0  0
  -40.3057   60.9184   65.7663 C   0  0  0  0  0  0  0  0  0  0  0  0
  -40.5798   62.0897   66.1332 O   0  0  0  0  0  0  0  0  0  0  0  0
  -39.2582   60.7066   65.1022 O   0  0  0  0  0  0  0  0  0  0  0  0
  -39.0470   59.8367   64.8252 H   0  0  0  0  0  0  0  0  0  0  0  0
 18 19  2  0  0  0
 18 17  1  0  0  0
 18 20  1  0  0  0
 17 16  1  0  0  0
 20 21  1  0  0  0
 16 15  1  0  0  0
 15 14  1  0  0  0
 14 13  1  0  0  0
 13 12  1  0  0  0
 12  1  1  0  0  0
  1  2  1  0  0  0
  2  3  1  0  0  0
  3  4  1  0  0  0
  4  5  1  0  0  0
  5  6  1  0  0  0
  6  7  1  0  0  0
  7  8  1  0  0  0
  8  9  1  0  0  0
  9 10  1  0  0  0
 10 11  1  0  0  0
M  END
> <minimizedAffinity>
-7.09757

> <CNNscore>
0.7772243619

> <CNNaffinity>
6.4522829056

> <CNN_VS>
5.0148715973

> <CNNaffinity_variance>
0.3966488242

$$$$
/media/chris/experiments/cd1a-new-docking/inputs/ligands/4x6d_1_ligand.pdb


 21 20  0  0  0  0  0  0  0  0999 V2000
  -44.0599   59.5869   65.7387 C   0  0  0  0  0  0  0  0  0  0  0  0
  -45.3423   58.9991   66.2734 C   0  0  0  0  0  0  0  0  0  0  0  0
  -46.6307   59.4036   65.6942 C   0  0  0  0  0  0  0  0  0  0  0  0
  -47.2280   58.6240   64.5442 C   0  0  0  0  0  0  0  0  0  0  0  0
  -48.5266   57.9475   64.9818 C   0  0  0  0  0  0  0  0  0  0  0  0
  -49.7720   58.5855   64.3721 C   0  0  0  0  0  0  0  0  0  0  0  0
  -49.4326   59.4028   63.1228 C   0  0  0  0  0  0  0  0  0  0  0  0
  -50.0252   58.8609   61.8165 C   0  0  0  0  0  0  0  0  0  0  0  0
  -49.0488   57.9360   61.0776 C   0  0  0  0  0  0  0  0  0  0  0  0
  -48.3707   58.6222   59.8889 C   0  0  0  0  0  0  0  0  0  0  0  0
  -47.7632   57.6375   58.8825 C   0  0  0  0  0  0  0  0  0  0  0  0
  -43.1765   59.9191   66.9305 C   0  0  0  0  0  0  0  0  0  0  0  0
  -41.7826   59.3365   66.7795 C   0  0  0  0  0  0  0  0  0  0  0  0
  -41.5532   58.8196   65.3624 C   0  0  0  0  0  0  0  0  0  0  0  0
  -40.0682   58.8454   65.0284 C   0  0  0  0  0  0  0  0  0  0  0  0
  -39.7483   59.9707   64.0570 C   0  0  0  0  0  0  0  0  0  0  0  0
  -38.9698   59.4524   62.8522 C   0  0  0  0  0  0  0  0  0  0  0  0
  -37.9691   60.4989   62.4024 C   0  0  0  0  0  0  0  0  0  0  0  0
  -37.2924   61.1317   63.2529 O   0  0  0  0  0  0  0  0  0  0  0  0
  -37.8117   60.7449   61.1785 O   0  0  0  0  0  0  0  0  0  0  0  0
  -38.3121   60.2776   60.5386 H   0  0  0  0  0  0  0  0  0  0  0  0
 18 19  2  0  0  0
 18 17  1  0  0  0
 18 20  1  0  0  0
 17 16  1  0  0  0
 20 21  1  0  0  0
 16 15  1  0  0  0
 15 14  1  0  0  0
 14 13  1  0  0  0
 13 12  1  0  0  0
 12  1  1  0  0  0
  1  2  1  0  0  0
  2  3  1  0  0  0
  3  4  1  0  0  0
  4  5  1  0  0  0
  5  6  1  0  0  0
  6  7  1  0  0  0
  7  8  1  0  0  0
  8  9  1  0  0  0
  9 10  1  0  0  0
 10 11  1  0  0  0
M  END
> <minimizedAffinity>
-6.47546

> <CNNscore>
0.7479767799

> <CNNaffinity>
6.6054506302

> <CNN_VS>
4.9407238960

> <CNNaffinity_variance>
0.7835552692

$$$$
/media/chris/experiments/cd1a-new-docking/inputs/ligands/4x6d_1_ligand.pdb


 21 20  0  0  0  0  0  0  0  0999 V2000
  -47.9864   58.3462   64.6629 C   0  0  0  0  0  0  0  0  0  0  0  0
  -47.2878   57.7013   65.8343 C   0  0  0  0  0  0  0  0  0  0  0  0
  -46.5724   58.5352   66.8099 C   0  0  0  0  0  0  0  0  0  0  0  0
  -45.1169   58.8840   66.5928 C   0  0  0  0  0  0  0  0  0  0  0  0
  -44.3043   57.6183   66.3230 C   0  0  0  0  0  0  0  0  0  0  0  0
  -42.8013   57.8733   66.2470 C   0  0  0  0  0  0  0  0  0  0  0  0
  -42.4112   59.1635   66.9732 C   0  0  0  0  0  0  0  0  0  0  0  0
  -41.7532   60.2286   66.0878 C   0  0  0  0  0  0  0  0  0  0  0  0
  -41.8490   59.8815   64.5962 C   0  0  0  0  0  0  0  0  0  0  0  0
  -42.8445   60.7703   63.8461 C   0  0  0  0  0  0  0  0  0  0  0  0
  -42.2364   61.4695   62.6244 C   0  0  0  0  0  0  0  0  0  0  0  0
  -49.4649   58.4365   65.0046 C   0  0  0  0  0  0  0  0  0  0  0  0
  -50.2998   58.8292   63.7988 C   0  0  0  0  0  0  0  0  0  0  0  0
  -49.7369   58.2200   62.5183 C   0  0  0  0  0  0  0  0  0  0  0  0
  -50.8715   57.7778   61.6047 C   0  0  0  0  0  0  0  0  0  0  0  0
  -50.3922   57.6423   60.1680 C   0  0  0  0  0  0  0  0  0  0  0  0
  -48.9035   57.9537   60.0534 C   0  0  0  0  0  0  0  0  0  0  0  0
  -48.2827   57.0885   58.9739 C   0  0  0  0  0  0  0  0  0  0  0  0
  -48.0524   57.5692   57.8348 O   0  0  0  0  0  0  0  0  0  0  0  0
  -47.9982   55.8853   59.2075 O   0  0  0  0  0  0  0  0  0  0  0  0
  -48.1667   55.5199   60.0538 H   0  0  0  0  0  0  0  0  0  0  0  0
 18 19  2  0  0  0
 18 17  1  0  0  0
 18 20  1  0  0  0
 17 16  1  0  0  0
 20 21  1  0  0  0
 16 15  1  0  0  0
 15 14  1  0  0  0
 14 13  1  0  0  0
 13 12  1  0  0  0
 12  1  1  0  0  0
  1  2  1  0  0  0
  2  3  1  0  0  0
  3  4  1  0  0  0
  4  5  1  0  0  0
  5  6  1  0  0  0
  6  7  1  0  0  0
  7  8  1  0  0  0
  8  9  1  0  0  0
  9 10  1  0  0  0
 10 11  1  0  0  0
M  END
> <minimizedAffinity>
-6.64097

> <CNNscore>
0.6789489388

> <CNNaffinity>
6.5959739685

> <CNN_VS>
4.4783296585

> <CNNaffinity_variance>
0.7936457396

$$$$
/media/chris/experiments/cd1a-new-docking/inputs/ligands/4x6d_1_ligand.pdb


 21 20  0  0  0  0  0  0  0  0999 V2000
  -41.3334   58.6889   65.1960 C   0  0  0  0  0  0  0  0  0  0  0  0
  -42.5532   59.5701   65.3034 C   0  0  0  0  0  0  0  0  0  0  0  0
  -43.8948   58.9741   65.2420 C   0  0  0  0  0  0  0  0  0  0  0  0
  -44.0837   57.4939   65.4888 C   0  0  0  0  0  0  0  0  0  0  0  0
  -45.5457   57.1950   65.8181 C   0  0  0  0  0  0  0  0  0  0  0  0
  -46.5245   57.8108   64.8219 C   0  0  0  0  0  0  0  0  0  0  0  0
  -47.9327   57.9239   65.4119 C   0  0  0  0  0  0  0  0  0  0  0  0
  -48.5582   59.3212   65.3257 C   0  0  0  0  0  0  0  0  0  0  0  0
  -48.7174   59.7959   63.8752 C   0  0  0  0  0  0  0  0  0  0  0  0
  -50.1560   59.6696   63.3672 C   0  0  0  0  0  0  0  0  0  0  0  0
  -51.1762   60.4153   64.2359 C   0  0  0  0  0  0  0  0  0  0  0  0
  -40.1332   59.5129   65.6339 C   0  0  0  0  0  0  0  0  0  0  0  0
  -39.0175   59.4758   64.6049 C   0  0  0  0  0  0  0  0  0  0  0  0
  -37.8265   58.6693   65.1138 C   0  0  0  0  0  0  0  0  0  0  0  0
  -37.1304   57.9723   63.9533 C   0  0  0  0  0  0  0  0  0  0  0  0
  -38.0526   57.8684   62.7486 C   0  0  0  0  0  0  0  0  0  0  0  0
  -37.2556   57.7029   61.4587 C   0  0  0  0  0  0  0  0  0  0  0  0
  -37.5450   58.8639   60.5273 C   0  0  0  0  0  0  0  0  0  0  0  0
  -37.6997   60.0223   60.9920 O   0  0  0  0  0  0  0  0  0  0  0  0
  -37.6371   58.6770   59.2865 O   0  0  0  0  0  0  0  0  0  0  0  0
  -37.5231   57.8168   58.9325 H   0  0  0  0  0  0  0  0  0  0  0  0
 18 19  2  0  0  0
 18 17  1  0  0  0
 18 20  1  0  0  0
 17 16  1  0  0  0
 20 21  1  0  0  0
 16 15  1  0  0  0
 15 14  1  0  0  0
 14 13  1  0  0  0
 13 12  1  0  0  0
 12  1  1  0  0  0
  1  2  1  0  0  0
  2  3  1  0  0  0
  3  4  1  0  0  0
  4  5  1  0  0  0
  5  6  1  0  0  0
  6  7  1  0  0  0
  7  8  1  0  0  0
  8  9  1  0  0  0
  9 10  1  0  0  0
 10 11  1  0  0  0
M  END
> <minimizedAffinity>
-6.36740

> <CNNscore>
0.6697380543

> <CNNaffinity>
6.2147078514

> <CNN_VS>
4.1622262001

> <CNNaffinity_variance>
0.5232791901

$$$$
/media/chris/experiments/cd1a-new-docking/inputs/ligands/4x6d_1_ligand.pdb


 21 20  0  0  0  0  0  0  0  0999 V2000
  -44.1038   59.9084   65.6969 C   0  0  0  0  0  0  0  0  0  0  0  0
  -45.4007   59.2518   66.1001 C   0  0  0  0  0  0  0  0  0  0  0  0
  -46.6745   59.9506   65.8807 C   0  0  0  0  0  0  0  0  0  0  0  0
  -47.6576   59.4387   64.8517 C   0  0  0  0  0  0  0  0  0  0  0  0
  -48.5306   58.3393   65.4553 C   0  0  0  0  0  0  0  0  0  0  0  0
  -50.0240   58.5724   65.2425 C   0  0  0  0  0  0  0  0  0  0  0  0
  -50.2814   59.6366   64.1724 C   0  0  0  0  0  0  0  0  0  0  0  0
  -50.9939   59.1270   62.9138 C   0  0  0  0  0  0  0  0  0  0  0  0
  -50.1361   58.1262   62.1281 C   0  0  0  0  0  0  0  0  0  0  0  0
  -50.8801   57.5203   60.9351 C   0  0  0  0  0  0  0  0  0  0  0  0
  -50.1076   57.6319   59.6151 C   0  0  0  0  0  0  0  0  0  0  0  0
  -43.1992   59.9241   66.9186 C   0  0  0  0  0  0  0  0  0  0  0  0
  -42.0605   58.9281   66.7905 C   0  0  0  0  0  0  0  0  0  0  0  0
  -41.7784   58.6005   65.3273 C   0  0  0  0  0  0  0  0  0  0  0  0
  -40.2777   58.5887   65.0721 C   0  0  0  0  0  0  0  0  0  0  0  0
  -39.8171   59.9085   64.4734 C   0  0  0  0  0  0  0  0  0  0  0  0
  -40.9585   60.6095   63.7438 C   0  0  0  0  0  0  0  0  0  0  0  0
  -41.1751   61.9871   64.3391 C   0  0  0  0  0  0  0  0  0  0  0  0
  -41.6536   62.9114   63.6331 O   0  0  0  0  0  0  0  0  0  0  0  0
  -40.8743   62.2166   65.5391 O   0  0  0  0  0  0  0  0  0  0  0  0
  -40.5174   61.5332   66.0716 H   0  0  0  0  0  0  0  0  0  0  0  0
 18 19  2  0  0  0
 18 17  1  0  0  0
 18 20  1  0  0  0
 17 16  1  0  0  0
 20 21  1  0  0  0
 16 15  1  0  0  0
 15 14  1  0  0  0
 14 13  1  0  0  0
 13 12  1  0  0  0
 12  1  1  0  0  0
  1  2  1  0  0  0
  2  3  1  0  0  0
  3  4  1  0  0  0
  4  5  1  0  0  0
  5  6  1  0  0  0
  6  7  1  0  0  0
  7  8  1  0  0  0
  8  9  1  0  0  0
  9 10  1  0  0  0
 10 11  1  0  0  0
M  END
> <minimizedAffinity>
-6.64709

> <CNNscore>
0.6600749493

> <CNNaffinity>
6.2493801117

> <CNN_VS>
4.1250591278

> <CNNaffinity_variance>
0.1758737862

$$$$
/media/chris/experiments/cd1a-new-docking/inputs/ligands/4x6d_1_ligand.pdb


 21 20  0  0  0  0  0  0  0  0999 V2000
  -44.8625   57.5933   66.0253 C   0  0  0  0  0  0  0  0  0  0  0  0
  -45.5888   58.8555   65.6317 C   0  0  0  0  0  0  0  0  0  0  0  0
  -46.9867   58.7869   65.1844 C   0  0  0  0  0  0  0  0  0  0  0  0
  -47.7972   60.0530   65.0184 C   0  0  0  0  0  0  0  0  0  0  0  0
  -48.6066   59.9968   63.7234 C   0  0  0  0  0  0  0  0  0  0  0  0
  -48.6967   58.5929   63.1311 C   0  0  0  0  0  0  0  0  0  0  0  0
  -50.0632   58.3386   62.4891 C   0  0  0  0  0  0  0  0  0  0  0  0
  -50.0284   58.0814   60.9779 C   0  0  0  0  0  0  0  0  0  0  0  0
  -48.8802   58.8312   60.2892 C   0  0  0  0  0  0  0  0  0  0  0  0
  -48.0073   57.9130   59.4298 C   0  0  0  0  0  0  0  0  0  0  0  0
  -48.4535   56.4462   59.4588 C   0  0  0  0  0  0  0  0  0  0  0  0
  -43.3716   57.8828   65.9580 C   0  0  0  0  0  0  0  0  0  0  0  0
  -43.0810   59.3703   66.0474 C   0  0  0  0  0  0  0  0  0  0  0  0
  -41.6500   59.6779   65.6169 C   0  0  0  0  0  0  0  0  0  0  0  0
  -41.5892   61.0341   64.9281 C   0  0  0  0  0  0  0  0  0  0  0  0
  -42.2528   60.9804   63.5609 C   0  0  0  0  0  0  0  0  0  0  0  0
  -41.2136   60.8793   62.4490 C   0  0  0  0  0  0  0  0  0  0  0  0
  -41.6799   61.6687   61.2413 C   0  0  0  0  0  0  0  0  0  0  0  0
  -42.4982   62.6133   61.3824 O   0  0  0  0  0  0  0  0  0  0  0  0
  -41.2566   61.3826   60.0915 O   0  0  0  0  0  0  0  0  0  0  0  0
  -40.6467   60.6802   59.9782 H   0  0  0  0  0  0  0  0  0  0  0  0
 18 19  2  0  0  0
 18 17  1  0  0  0
 18 20  1  0  0  0
 17 16  1  0  0  0
 20 21  1  0  0  0
 16 15  1  0  0  0
 15 14  1  0  0  0
 14 13  1  0  0  0
 13 12  1  0  0  0
 12  1  1  0  0  0
  1  2  1  0  0  0
  2  3  1  0  0  0
  3  4  1  0  0  0
  4  5  1  0  0  0
  5  6  1  0  0  0
  6  7  1  0  0  0
  7  8  1  0  0  0
  8  9  1  0  0  0
  9 10  1  0  0  0
 10 11  1  0  0  0
M  END
> <minimizedAffinity>
-6.23348

> <CNNscore>
0.6546593904

> <CNNaffinity>
6.5132331848

> <CNN_VS>
4.2639493942

> <CNNaffinity_variance>
0.7196435332

$$$$
