/media/chris/experiments/cd1a-new-docking/inputs/ligands/4x6d_1_ligand.pdb


 21 20  0  0  0  0  0  0  0  0999 V2000
  -47.5827   59.4620   64.8265 C   0  0  0  0  0  0  0  0  0  0  0  0
  -48.7099   59.0532   65.7420 C   0  0  0  0  0  0  0  0  0  0  0  0
  -50.0924   59.0485   65.2446 C   0  0  0  0  0  0  0  0  0  0  0  0
  -50.6666   60.2779   64.5765 C   0  0  0  0  0  0  0  0  0  0  0  0
  -51.1778   59.9303   63.1789 C   0  0  0  0  0  0  0  0  0  0  0  0
  -50.4687   58.7282   62.5609 C   0  0  0  0  0  0  0  0  0  0  0  0
  -49.5438   59.1474   61.4151 C   0  0  0  0  0  0  0  0  0  0  0  0
  -48.6828   58.0187   60.8350 C   0  0  0  0  0  0  0  0  0  0  0  0
  -49.4342   57.2045   59.7734 C   0  0  0  0  0  0  0  0  0  0  0  0
  -48.8109   57.3323   58.3811 C   0  0  0  0  0  0  0  0  0  0  0  0
  -47.4466   58.0324   58.3865 C   0  0  0  0  0  0  0  0  0  0  0  0
  -46.2799   59.2469   65.5796 C   0  0  0  0  0  0  0  0  0  0  0  0
  -45.2398   60.2922   65.2182 C   0  0  0  0  0  0  0  0  0  0  0  0
  -43.8278   59.7255   65.3324 C   0  0  0  0  0  0  0  0  0  0  0  0
  -43.3611   59.7674   66.7808 C   0  0  0  0  0  0  0  0  0  0  0  0
  -41.8467   59.6633   66.8679 C   0  0  0  0  0  0  0  0  0  0  0  0
  -41.2082   59.7635   65.4864 C   0  0  0  0  0  0  0  0  0  0  0  0
  -40.4047   61.0455   65.3870 C   0  0  0  0  0  0  0  0  0  0  0  0
  -40.6358   61.9978   66.1752 O   0  0  0  0  0  0  0  0  0  0  0  0
  -39.5061   61.1675   64.5147 O   0  0  0  0  0  0  0  0  0  0  0  0
  -39.3279   60.4625   63.9239 H   0  0  0  0  0  0  0  0  0  0  0  0
 18 19  2  0  0  0
 18 17  1  0  0  0
 18 20  1  0  0  0
 17 16  1  0  0  0
 20 21  1  0  0  0
 16 15  1  0  0  0
 15 14  1  0  0  0
 14 13  1  0  0  0
 13 12  1  0  0  0
 12  1  1  0  0  0
  1  2  1  0  0  0
  2  3  1  0  0  0
  3  4  1  0  0  0
  4  5  1  0  0  0
  5  6  1  0  0  0
  6  7  1  0  0  0
  7  8  1  0  0  0
  8  9  1  0  0  0
  9 10  1  0  0  0
 10 11  1  0  0  0
M  END
> <minimizedAffinity>
-7.04801

> <CNNscore>
0.9329014421

> <CNNaffinity>
6.8965392113

> <CNN_VS>
6.4337911606

> <CNNaffinity_variance>
0.7118809819

$$$$
/media/chris/experiments/cd1a-new-docking/inputs/ligands/4x6d_1_ligand.pdb


 21 20  0  0  0  0  0  0  0  0999 V2000
  -46.6623   57.5670   66.3528 C   0  0  0  0  0  0  0  0  0  0  0  0
  -47.8849   57.6312   65.4714 C   0  0  0  0  0  0  0  0  0  0  0  0
  -47.8429   58.3921   64.2151 C   0  0  0  0  0  0  0  0  0  0  0  0
  -48.8707   59.4669   63.9400 C   0  0  0  0  0  0  0  0  0  0  0  0
  -50.2696   58.8557   63.8708 C   0  0  0  0  0  0  0  0  0  0  0  0
  -50.8918   58.9338   62.4793 C   0  0  0  0  0  0  0  0  0  0  0  0
  -50.5313   57.7111   61.6313 C   0  0  0  0  0  0  0  0  0  0  0  0
  -50.1290   58.0248   60.1851 C   0  0  0  0  0  0  0  0  0  0  0  0
  -48.6070   58.1212   60.0154 C   0  0  0  0  0  0  0  0  0  0  0  0
  -48.0991   57.3486   58.7953 C   0  0  0  0  0  0  0  0  0  0  0  0
  -47.1157   58.1496   57.9333 C   0  0  0  0  0  0  0  0  0  0  0  0
  -46.4340   58.9583   66.9213 C   0  0  0  0  0  0  0  0  0  0  0  0
  -45.0037   59.4244   66.7158 C   0  0  0  0  0  0  0  0  0  0  0  0
  -44.7730   59.8728   65.2758 C   0  0  0  0  0  0  0  0  0  0  0  0
  -43.3103   60.2403   65.0687 C   0  0  0  0  0  0  0  0  0  0  0  0
  -42.4790   59.8736   66.2879 C   0  0  0  0  0  0  0  0  0  0  0  0
  -41.0012   59.7539   65.9302 C   0  0  0  0  0  0  0  0  0  0  0  0
  -40.4780   61.0988   65.4646 C   0  0  0  0  0  0  0  0  0  0  0  0
  -40.5610   62.1030   66.2171 O   0  0  0  0  0  0  0  0  0  0  0  0
  -39.9625   61.2208   64.3234 O   0  0  0  0  0  0  0  0  0  0  0  0
  -39.8970   60.4774   63.7569 H   0  0  0  0  0  0  0  0  0  0  0  0
 18 19  2  0  0  0
 18 17  1  0  0  0
 18 20  1  0  0  0
 17 16  1  0  0  0
 20 21  1  0  0  0
 16 15  1  0  0  0
 15 14  1  0  0  0
 14 13  1  0  0  0
 13 12  1  0  0  0
 12  1  1  0  0  0
  1  2  1  0  0  0
  2  3  1  0  0  0
  3  4  1  0  0  0
  4  5  1  0  0  0
  5  6  1  0  0  0
  6  7  1  0  0  0
  7  8  1  0  0  0
  8  9  1  0  0  0
  9 10  1  0  0  0
 10 11  1  0  0  0
M  END
> <minimizedAffinity>
-6.90513

> <CNNscore>
0.9205269217

> <CNNaffinity>
6.9546632767

> <CNN_VS>
6.4019546509

> <CNNaffinity_variance>
0.6735253930

$$$$
/media/chris/experiments/cd1a-new-docking/inputs/ligands/4x6d_1_ligand.pdb


 21 20  0  0  0  0  0  0  0  0999 V2000
  -46.1231   57.2520   66.3639 C   0  0  0  0  0  0  0  0  0  0  0  0
  -47.4930   56.8875   65.8478 C   0  0  0  0  0  0  0  0  0  0  0  0
  -48.2482   57.8488   65.0326 C   0  0  0  0  0  0  0  0  0  0  0  0
  -49.6110   58.3255   65.4830 C   0  0  0  0  0  0  0  0  0  0  0  0
  -49.7167   59.8426   65.3335 C   0  0  0  0  0  0  0  0  0  0  0  0
  -51.0293   60.2944   64.6989 C   0  0  0  0  0  0  0  0  0  0  0  0
  -51.0944   59.9245   63.2147 C   0  0  0  0  0  0  0  0  0  0  0  0
  -49.8855   60.3726   62.3844 C   0  0  0  0  0  0  0  0  0  0  0  0
  -49.4895   59.3310   61.3295 C   0  0  0  0  0  0  0  0  0  0  0  0
  -49.9201   57.9122   61.7102 C   0  0  0  0  0  0  0  0  0  0  0  0
  -50.3209   57.0532   60.5048 C   0  0  0  0  0  0  0  0  0  0  0  0
  -46.2693   58.5133   67.1999 C   0  0  0  0  0  0  0  0  0  0  0  0
  -45.1930   59.5336   66.8752 C   0  0  0  0  0  0  0  0  0  0  0  0
  -44.7894   59.4585   65.4057 C   0  0  0  0  0  0  0  0  0  0  0  0
  -43.4344   60.1210   65.1992 C   0  0  0  0  0  0  0  0  0  0  0  0
  -42.5897   60.0373   66.4607 C   0  0  0  0  0  0  0  0  0  0  0  0
  -41.1173   59.8259   66.1236 C   0  0  0  0  0  0  0  0  0  0  0  0
  -40.5301   61.1108   65.5727 C   0  0  0  0  0  0  0  0  0  0  0  0
  -40.6001   62.1740   66.2408 O   0  0  0  0  0  0  0  0  0  0  0  0
  -39.9739   61.1238   64.4442 O   0  0  0  0  0  0  0  0  0  0  0  0
  -39.9177   60.3359   63.9404 H   0  0  0  0  0  0  0  0  0  0  0  0
 18 19  2  0  0  0
 18 17  1  0  0  0
 18 20  1  0  0  0
 17 16  1  0  0  0
 20 21  1  0  0  0
 16 15  1  0  0  0
 15 14  1  0  0  0
 14 13  1  0  0  0
 13 12  1  0  0  0
 12  1  1  0  0  0
  1  2  1  0  0  0
  2  3  1  0  0  0
  3  4  1  0  0  0
  4  5  1  0  0  0
  5  6  1  0  0  0
  6  7  1  0  0  0
  7  8  1  0  0  0
  8  9  1  0  0  0
  9 10  1  0  0  0
 10 11  1  0  0  0
M  END
> <minimizedAffinity>
-6.88876

> <CNNscore>
0.8499779105

> <CNNaffinity>
6.5778875351

> <CNN_VS>
5.5910592079

> <CNNaffinity_variance>
0.3344294727

$$$$
/media/chris/experiments/cd1a-new-docking/inputs/ligands/4x6d_1_ligand.pdb


 21 20  0  0  0  0  0  0  0  0999 V2000
  -45.9769   57.6715   66.2643 C   0  0  0  0  0  0  0  0  0  0  0  0
  -47.2010   56.8527   65.9372 C   0  0  0  0  0  0  0  0  0  0  0  0
  -48.4194   57.5175   65.4550 C   0  0  0  0  0  0  0  0  0  0  0  0
  -48.3787   58.3730   64.2084 C   0  0  0  0  0  0  0  0  0  0  0  0
  -49.7160   59.0863   64.0126 C   0  0  0  0  0  0  0  0  0  0  0  0
  -50.5411   58.5124   62.8639 C   0  0  0  0  0  0  0  0  0  0  0  0
  -49.6566   58.1091   61.6811 C   0  0  0  0  0  0  0  0  0  0  0  0
  -50.4145   57.5602   60.4662 C   0  0  0  0  0  0  0  0  0  0  0  0
  -49.5630   57.5912   59.1901 C   0  0  0  0  0  0  0  0  0  0  0  0
  -48.1380   58.0899   59.4434 C   0  0  0  0  0  0  0  0  0  0  0  0
  -47.2824   58.1600   58.1728 C   0  0  0  0  0  0  0  0  0  0  0  0
  -44.8605   57.2161   65.3384 C   0  0  0  0  0  0  0  0  0  0  0  0
  -44.3179   58.3616   64.5025 C   0  0  0  0  0  0  0  0  0  0  0  0
  -44.2854   59.6597   65.3037 C   0  0  0  0  0  0  0  0  0  0  0  0
  -43.5272   60.7323   64.5341 C   0  0  0  0  0  0  0  0  0  0  0  0
  -42.2925   60.1510   63.8636 C   0  0  0  0  0  0  0  0  0  0  0  0
  -41.0779   61.0489   64.0748 C   0  0  0  0  0  0  0  0  0  0  0  0
  -40.6992   61.0586   65.5430 C   0  0  0  0  0  0  0  0  0  0  0  0
  -40.5872   62.1494   66.1587 O   0  0  0  0  0  0  0  0  0  0  0  0
  -40.4902   59.9784   66.1536 O   0  0  0  0  0  0  0  0  0  0  0  0
  -40.5716   59.1616   65.7019 H   0  0  0  0  0  0  0  0  0  0  0  0
 18 19  2  0  0  0
 18 17  1  0  0  0
 18 20  1  0  0  0
 17 16  1  0  0  0
 20 21  1  0  0  0
 16 15  1  0  0  0
 15 14  1  0  0  0
 14 13  1  0  0  0
 13 12  1  0  0  0
 12  1  1  0  0  0
  1  2  1  0  0  0
  2  3  1  0  0  0
  3  4  1  0  0  0
  4  5  1  0  0  0
  5  6  1  0  0  0
  6  7  1  0  0  0
  7  8  1  0  0  0
  8  9  1  0  0  0
  9 10  1  0  0  0
 10 11  1  0  0  0
M  END
> <minimizedAffinity>
-6.82354

> <CNNscore>
0.8454526663

> <CNNaffinity>
6.8905625343

> <CNN_VS>
5.8256444931

> <CNNaffinity_variance>
0.6295014620

$$$$
/media/chris/experiments/cd1a-new-docking/inputs/ligands/4x6d_1_ligand.pdb


 21 20  0  0  0  0  0  0  0  0999 V2000
  -44.8254   60.1472   65.1598 C   0  0  0  0  0  0  0  0  0  0  0  0
  -45.6008   58.9246   65.5837 C   0  0  0  0  0  0  0  0  0  0  0  0
  -46.5041   58.2638   64.6317 C   0  0  0  0  0  0  0  0  0  0  0  0
  -48.0028   58.3995   64.7828 C   0  0  0  0  0  0  0  0  0  0  0  0
  -48.5926   59.1254   63.5742 C   0  0  0  0  0  0  0  0  0  0  0  0
  -50.0590   58.7835   63.3240 C   0  0  0  0  0  0  0  0  0  0  0  0
  -50.3214   58.4737   61.8478 C   0  0  0  0  0  0  0  0  0  0  0  0
  -49.2309   57.6445   61.1586 C   0  0  0  0  0  0  0  0  0  0  0  0
  -48.6870   58.3345   59.9006 C   0  0  0  0  0  0  0  0  0  0  0  0
  -47.6295   57.4961   59.1781 C   0  0  0  0  0  0  0  0  0  0  0  0
  -47.1150   58.1451   57.8875 C   0  0  0  0  0  0  0  0  0  0  0  0
  -43.4798   59.6759   64.6321 C   0  0  0  0  0  0  0  0  0  0  0  0
  -42.6176   60.8364   64.1683 C   0  0  0  0  0  0  0  0  0  0  0  0
  -41.1748   60.3941   63.9437 C   0  0  0  0  0  0  0  0  0  0  0  0
  -40.8462   59.2039   64.8341 C   0  0  0  0  0  0  0  0  0  0  0  0
  -39.3426   59.0369   64.9866 C   0  0  0  0  0  0  0  0  0  0  0  0
  -38.6808   58.7601   63.6406 C   0  0  0  0  0  0  0  0  0  0  0  0
  -37.6846   59.8590   63.3258 C   0  0  0  0  0  0  0  0  0  0  0  0
  -37.5281   60.8170   64.1255 O   0  0  0  0  0  0  0  0  0  0  0  0
  -37.0123   59.8233   62.2628 O   0  0  0  0  0  0  0  0  0  0  0  0
  -37.1231   59.1130   61.6620 H   0  0  0  0  0  0  0  0  0  0  0  0
 18 19  2  0  0  0
 18 17  1  0  0  0
 18 20  1  0  0  0
 17 16  1  0  0  0
 20 21  1  0  0  0
 16 15  1  0  0  0
 15 14  1  0  0  0
 14 13  1  0  0  0
 13 12  1  0  0  0
 12  1  1  0  0  0
  1  2  1  0  0  0
  2  3  1  0  0  0
  3  4  1  0  0  0
  4  5  1  0  0  0
  5  6  1  0  0  0
  6  7  1  0  0  0
  7  8  1  0  0  0
  8  9  1  0  0  0
  9 10  1  0  0  0
 10 11  1  0  0  0
M  END
> <minimizedAffinity>
-6.45752

> <CNNscore>
0.7844664454

> <CNNaffinity>
6.7031030655

> <CNN_VS>
5.2583594322

> <CNNaffinity_variance>
0.7976665497

$$$$
/media/chris/experiments/cd1a-new-docking/inputs/ligands/4x6d_1_ligand.pdb


 21 20  0  0  0  0  0  0  0  0999 V2000
  -48.2211   58.2550   63.7332 C   0  0  0  0  0  0  0  0  0  0  0  0
  -49.6744   58.4820   64.0680 C   0  0  0  0  0  0  0  0  0  0  0  0
  -50.6298   58.8074   63.0001 C   0  0  0  0  0  0  0  0  0  0  0  0
  -50.1664   58.8949   61.5631 C   0  0  0  0  0  0  0  0  0  0  0  0
  -50.5211   57.6110   60.8140 C   0  0  0  0  0  0  0  0  0  0  0  0
  -49.7213   57.4250   59.5273 C   0  0  0  0  0  0  0  0  0  0  0  0
  -48.3163   58.0214   59.6458 C   0  0  0  0  0  0  0  0  0  0  0  0
  -47.2392   57.3039   58.8233 C   0  0  0  0  0  0  0  0  0  0  0  0
  -47.1312   57.8623   57.3981 C   0  0  0  0  0  0  0  0  0  0  0  0
  -47.7252   56.9197   56.3483 C   0  0  0  0  0  0  0  0  0  0  0  0
  -47.6708   55.4424   56.7558 C   0  0  0  0  0  0  0  0  0  0  0  0
  -47.4132   58.5278   64.9917 C   0  0  0  0  0  0  0  0  0  0  0  0
  -46.4560   57.3917   65.3052 C   0  0  0  0  0  0  0  0  0  0  0  0
  -45.0102   57.8789   65.3203 C   0  0  0  0  0  0  0  0  0  0  0  0
  -44.7675   58.7643   66.5346 C   0  0  0  0  0  0  0  0  0  0  0  0
  -43.8902   59.9530   66.1749 C   0  0  0  0  0  0  0  0  0  0  0  0
  -44.0891   60.3626   64.7193 C   0  0  0  0  0  0  0  0  0  0  0  0
  -42.7401   60.5424   64.0506 C   0  0  0  0  0  0  0  0  0  0  0  0
  -41.7562   59.8512   64.4187 O   0  0  0  0  0  0  0  0  0  0  0  0
  -42.5944   61.3855   63.1280 O   0  0  0  0  0  0  0  0  0  0  0  0
  -43.3226   61.9043   62.8480 H   0  0  0  0  0  0  0  0  0  0  0  0
 18 19  2  0  0  0
 18 17  1  0  0  0
 18 20  1  0  0  0
 17 16  1  0  0  0
 20 21  1  0  0  0
 16 15  1  0  0  0
 15 14  1  0  0  0
 14 13  1  0  0  0
 13 12  1  0  0  0
 12  1  1  0  0  0
  1  2  1  0  0  0
  2  3  1  0  0  0
  3  4  1  0  0  0
  4  5  1  0  0  0
  5  6  1  0  0  0
  6  7  1  0  0  0
  7  8  1  0  0  0
  8  9  1  0  0  0
  9 10  1  0  0  0
 10 11  1  0  0  0
M  END
> <minimizedAffinity>
-6.93279

> <CNNscore>
0.7763095498

> <CNNaffinity>
6.7122449875

> <CNN_VS>
5.2107796669

> <CNNaffinity_variance>
0.5309885740

$$$$
/media/chris/experiments/cd1a-new-docking/inputs/ligands/4x6d_1_ligand.pdb


 21 20  0  0  0  0  0  0  0  0999 V2000
  -48.1101   60.5688   65.9440 C   0  0  0  0  0  0  0  0  0  0  0  0
  -48.0854   60.7446   64.4459 C   0  0  0  0  0  0  0  0  0  0  0  0
  -49.3433   60.9300   63.7095 C   0  0  0  0  0  0  0  0  0  0  0  0
  -50.5910   60.1873   64.1326 C   0  0  0  0  0  0  0  0  0  0  0  0
  -51.1774   59.4206   62.9478 C   0  0  0  0  0  0  0  0  0  0  0  0
  -50.2259   58.3704   62.3809 C   0  0  0  0  0  0  0  0  0  0  0  0
  -50.8258   57.6666   61.1607 C   0  0  0  0  0  0  0  0  0  0  0  0
  -50.0924   57.9282   59.8396 C   0  0  0  0  0  0  0  0  0  0  0  0
  -48.6844   58.4963   60.0616 C   0  0  0  0  0  0  0  0  0  0  0  0
  -47.5916   57.6273   59.4338 C   0  0  0  0  0  0  0  0  0  0  0  0
  -47.4521   57.8238   57.9194 C   0  0  0  0  0  0  0  0  0  0  0  0
  -47.3567   59.2885   66.2673 C   0  0  0  0  0  0  0  0  0  0  0  0
  -46.9308   58.5515   65.0102 C   0  0  0  0  0  0  0  0  0  0  0  0
  -45.4215   58.3291   64.9877 C   0  0  0  0  0  0  0  0  0  0  0  0
  -44.8090   58.7524   66.3156 C   0  0  0  0  0  0  0  0  0  0  0  0
  -43.6289   59.6861   66.0975 C   0  0  0  0  0  0  0  0  0  0  0  0
  -43.4107   59.9591   64.6129 C   0  0  0  0  0  0  0  0  0  0  0  0
  -42.0060   60.4855   64.3916 C   0  0  0  0  0  0  0  0  0  0  0  0
  -41.8279   61.6790   64.0374 O   0  0  0  0  0  0  0  0  0  0  0  0
  -41.0111   59.7330   64.5558 O   0  0  0  0  0  0  0  0  0  0  0  0
  -41.1355   58.8426   64.8197 H   0  0  0  0  0  0  0  0  0  0  0  0
 18 19  2  0  0  0
 18 17  1  0  0  0
 18 20  1  0  0  0
 17 16  1  0  0  0
 20 21  1  0  0  0
 16 15  1  0  0  0
 15 14  1  0  0  0
 14 13  1  0  0  0
 13 12  1  0  0  0
 12  1  1  0  0  0
  1  2  1  0  0  0
  2  3  1  0  0  0
  3  4  1  0  0  0
  4  5  1  0  0  0
  5  6  1  0  0  0
  6  7  1  0  0  0
  7  8  1  0  0  0
  8  9  1  0  0  0
  9 10  1  0  0  0
 10 11  1  0  0  0
M  END
> <minimizedAffinity>
-6.72618

> <CNNscore>
0.7402492762

> <CNNaffinity>
6.5932989120

> <CNN_VS>
4.8806848526

> <CNNaffinity_variance>
0.4173139036

$$$$
/media/chris/experiments/cd1a-new-docking/inputs/ligands/4x6d_1_ligand.pdb


 21 20  0  0  0  0  0  0  0  0999 V2000
  -48.9298   60.3609   63.4647 C   0  0  0  0  0  0  0  0  0  0  0  0
  -50.4311   60.2181   63.5033 C   0  0  0  0  0  0  0  0  0  0  0  0
  -51.0947   59.2266   62.6457 C   0  0  0  0  0  0  0  0  0  0  0  0
  -50.3866   57.9424   62.2761 C   0  0  0  0  0  0  0  0  0  0  0  0
  -50.9348   57.3965   60.9582 C   0  0  0  0  0  0  0  0  0  0  0  0
  -50.2349   57.9736   59.7307 C   0  0  0  0  0  0  0  0  0  0  0  0
  -48.8719   57.3163   59.4980 C   0  0  0  0  0  0  0  0  0  0  0  0
  -47.7679   58.2701   59.0257 C   0  0  0  0  0  0  0  0  0  0  0  0
  -47.0588   57.7562   57.7656 C   0  0  0  0  0  0  0  0  0  0  0  0
  -47.9910   56.9640   56.8453 C   0  0  0  0  0  0  0  0  0  0  0  0
  -47.5318   55.5200   56.6101 C   0  0  0  0  0  0  0  0  0  0  0  0
  -48.5425   61.4071   64.4974 C   0  0  0  0  0  0  0  0  0  0  0  0
  -47.6654   60.8234   65.5906 C   0  0  0  0  0  0  0  0  0  0  0  0
  -46.2327   60.6314   65.1024 C   0  0  0  0  0  0  0  0  0  0  0  0
  -45.8191   59.1737   65.2495 C   0  0  0  0  0  0  0  0  0  0  0  0
  -44.6229   59.0384   66.1784 C   0  0  0  0  0  0  0  0  0  0  0  0
  -43.3423   59.5116   65.4982 C   0  0  0  0  0  0  0  0  0  0  0  0
  -42.3264   58.3860   65.4831 C   0  0  0  0  0  0  0  0  0  0  0  0
  -41.1100   58.6365   65.2853 O   0  0  0  0  0  0  0  0  0  0  0  0
  -42.6924   57.1958   65.6632 O   0  0  0  0  0  0  0  0  0  0  0  0
  -43.5968   57.0010   65.8112 H   0  0  0  0  0  0  0  0  0  0  0  0
 18 19  2  0  0  0
 18 17  1  0  0  0
 18 20  1  0  0  0
 17 16  1  0  0  0
 20 21  1  0  0  0
 16 15  1  0  0  0
 15 14  1  0  0  0
 14 13  1  0  0  0
 13 12  1  0  0  0
 12  1  1  0  0  0
  1  2  1  0  0  0
  2  3  1  0  0  0
  3  4  1  0  0  0
  4  5  1  0  0  0
  5  6  1  0  0  0
  6  7  1  0  0  0
  7  8  1  0  0  0
  8  9  1  0  0  0
  9 10  1  0  0  0
 10 11  1  0  0  0
M  END
> <minimizedAffinity>
-7.28224

> <CNNscore>
0.6926912665

> <CNNaffinity>
6.5053086281

> <CNN_VS>
4.5061702728

> <CNNaffinity_variance>
0.4466351867

$$$$
/media/chris/experiments/cd1a-new-docking/inputs/ligands/4x6d_1_ligand.pdb


 21 20  0  0  0  0  0  0  0  0999 V2000
  -48.2102   57.9685   64.8863 C   0  0  0  0  0  0  0  0  0  0  0  0
  -49.6018   58.2658   65.3873 C   0  0  0  0  0  0  0  0  0  0  0  0
  -50.1783   59.6039   65.1971 C   0  0  0  0  0  0  0  0  0  0  0  0
  -50.7061   60.0212   63.8426 C   0  0  0  0  0  0  0  0  0  0  0  0
  -49.5794   60.6097   62.9943 C   0  0  0  0  0  0  0  0  0  0  0  0
  -49.5981   60.1224   61.5480 C   0  0  0  0  0  0  0  0  0  0  0  0
  -49.3951   58.6074   61.4610 C   0  0  0  0  0  0  0  0  0  0  0  0
  -50.3517   57.8819   60.5070 C   0  0  0  0  0  0  0  0  0  0  0  0
  -49.6415   57.3886   59.2393 C   0  0  0  0  0  0  0  0  0  0  0  0
  -48.1179   57.3697   59.3859 C   0  0  0  0  0  0  0  0  0  0  0  0
  -47.3865   58.0705   58.2346 C   0  0  0  0  0  0  0  0  0  0  0  0
  -47.6156   56.9020   65.7919 C   0  0  0  0  0  0  0  0  0  0  0  0
  -46.1328   57.1256   66.0290 C   0  0  0  0  0  0  0  0  0  0  0  0
  -45.6277   58.3365   65.2502 C   0  0  0  0  0  0  0  0  0  0  0  0
  -44.3176   58.0014   64.5509 C   0  0  0  0  0  0  0  0  0  0  0  0
  -43.3313   59.1533   64.6621 C   0  0  0  0  0  0  0  0  0  0  0  0
  -43.6200   60.0078   65.8920 C   0  0  0  0  0  0  0  0  0  0  0  0
  -42.3444   60.2050   66.6876 C   0  0  0  0  0  0  0  0  0  0  0  0
  -41.6836   61.2682   66.5672 O   0  0  0  0  0  0  0  0  0  0  0  0
  -41.9362   59.3070   67.4688 O   0  0  0  0  0  0  0  0  0  0  0  0
  -42.4230   58.5121   67.5640 H   0  0  0  0  0  0  0  0  0  0  0  0
 18 19  2  0  0  0
 18 17  1  0  0  0
 18 20  1  0  0  0
 17 16  1  0  0  0
 20 21  1  0  0  0
 16 15  1  0  0  0
 15 14  1  0  0  0
 14 13  1  0  0  0
 13 12  1  0  0  0
 12  1  1  0  0  0
  1  2  1  0  0  0
  2  3  1  0  0  0
  3  4  1  0  0  0
  4  5  1  0  0  0
  5  6  1  0  0  0
  6  7  1  0  0  0
  7  8  1  0  0  0
  8  9  1  0  0  0
  9 10  1  0  0  0
 10 11  1  0  0  0
M  END
> <minimizedAffinity>
-6.86500

> <CNNscore>
0.6648751497

> <CNNaffinity>
6.6458997726

> <CNN_VS>
4.4186935425

> <CNNaffinity_variance>
0.3887543976

$$$$
