/media/chris/experiments/cd1a-new-docking/inputs/ligands/4x6d_1_ligand.pdb


 21 20  0  0  0  0  0  0  0  0999 V2000
  -47.9281   60.8914   65.5463 C   0  0  0  0  0  0  0  0  0  0  0  0
  -48.7378   59.6882   65.9615 C   0  0  0  0  0  0  0  0  0  0  0  0
  -49.7533   59.1396   65.0522 C   0  0  0  0  0  0  0  0  0  0  0  0
  -50.7565   60.0558   64.3877 C   0  0  0  0  0  0  0  0  0  0  0  0
  -51.1665   59.4931   63.0272 C   0  0  0  0  0  0  0  0  0  0  0  0
  -50.3025   58.3179   62.5775 C   0  0  0  0  0  0  0  0  0  0  0  0
  -50.7864   57.7402   61.2448 C   0  0  0  0  0  0  0  0  0  0  0  0
  -49.6969   57.0721   60.3974 C   0  0  0  0  0  0  0  0  0  0  0  0
  -48.5251   58.0200   60.1091 C   0  0  0  0  0  0  0  0  0  0  0  0
  -47.4294   57.3640   59.2647 C   0  0  0  0  0  0  0  0  0  0  0  0
  -47.2385   58.0255   57.8945 C   0  0  0  0  0  0  0  0  0  0  0  0
  -46.5335   60.4035   65.1881 C   0  0  0  0  0  0  0  0  0  0  0  0
  -46.0795   59.2755   66.0972 C   0  0  0  0  0  0  0  0  0  0  0  0
  -44.8568   59.6848   66.9130 C   0  0  0  0  0  0  0  0  0  0  0  0
  -43.5946   59.0974   66.2972 C   0  0  0  0  0  0  0  0  0  0  0  0
  -42.3880   59.9765   66.5861 C   0  0  0  0  0  0  0  0  0  0  0  0
  -41.3198   59.8152   65.5094 C   0  0  0  0  0  0  0  0  0  0  0  0
  -40.5354   61.1055   65.3713 C   0  0  0  0  0  0  0  0  0  0  0  0
  -39.7211   61.2507   64.4240 O   0  0  0  0  0  0  0  0  0  0  0  0
  -40.6897   62.0364   66.2036 O   0  0  0  0  0  0  0  0  0  0  0  0
  -41.2945   61.9360   66.9121 H   0  0  0  0  0  0  0  0  0  0  0  0
 18 19  2  0  0  0
 18 17  1  0  0  0
 18 20  1  0  0  0
 17 16  1  0  0  0
 20 21  1  0  0  0
 16 15  1  0  0  0
 15 14  1  0  0  0
 14 13  1  0  0  0
 13 12  1  0  0  0
 12  1  1  0  0  0
  1  2  1  0  0  0
  2  3  1  0  0  0
  3  4  1  0  0  0
  4  5  1  0  0  0
  5  6  1  0  0  0
  6  7  1  0  0  0
  7  8  1  0  0  0
  8  9  1  0  0  0
  9 10  1  0  0  0
 10 11  1  0  0  0
M  END
> <minimizedAffinity>
-7.11566

> <CNNscore>
0.9423331022

> <CNNaffinity>
6.8802976608

> <CNN_VS>
6.4835324287

> <CNNaffinity_variance>
0.5425251126

$$$$
/media/chris/experiments/cd1a-new-docking/inputs/ligands/4x6d_1_ligand.pdb


 21 20  0  0  0  0  0  0  0  0999 V2000
  -47.1542   58.5559   64.4464 C   0  0  0  0  0  0  0  0  0  0  0  0
  -48.6133   58.2748   64.1861 C   0  0  0  0  0  0  0  0  0  0  0  0
  -49.2454   58.7662   62.9541 C   0  0  0  0  0  0  0  0  0  0  0  0
  -50.6072   58.2553   62.5396 C   0  0  0  0  0  0  0  0  0  0  0  0
  -50.5479   57.6791   61.1253 C   0  0  0  0  0  0  0  0  0  0  0  0
  -49.2262   57.9614   60.4160 C   0  0  0  0  0  0  0  0  0  0  0  0
  -48.7428   56.7459   59.6204 C   0  0  0  0  0  0  0  0  0  0  0  0
  -47.3967   56.9334   58.9101 C   0  0  0  0  0  0  0  0  0  0  0  0
  -47.5286   57.7716   57.6315 C   0  0  0  0  0  0  0  0  0  0  0  0
  -47.6358   56.9109   56.3700 C   0  0  0  0  0  0  0  0  0  0  0  0
  -47.5136   55.4074   56.6464 C   0  0  0  0  0  0  0  0  0  0  0  0
  -46.9090   58.3631   65.9343 C   0  0  0  0  0  0  0  0  0  0  0  0
  -45.6819   59.1220   66.4070 C   0  0  0  0  0  0  0  0  0  0  0  0
  -45.2443   60.1576   65.3755 C   0  0  0  0  0  0  0  0  0  0  0  0
  -43.7560   60.0157   65.0884 C   0  0  0  0  0  0  0  0  0  0  0  0
  -43.0144   59.4891   66.3069 C   0  0  0  0  0  0  0  0  0  0  0  0
  -42.2756   60.6116   67.0284 C   0  0  0  0  0  0  0  0  0  0  0  0
  -41.0147   60.9663   66.2644 C   0  0  0  0  0  0  0  0  0  0  0  0
  -40.1736   60.0738   65.9857 O   0  0  0  0  0  0  0  0  0  0  0  0
  -40.7989   62.1536   65.9085 O   0  0  0  0  0  0  0  0  0  0  0  0
  -41.4207   62.8243   66.1123 H   0  0  0  0  0  0  0  0  0  0  0  0
 18 19  2  0  0  0
 18 17  1  0  0  0
 18 20  1  0  0  0
 17 16  1  0  0  0
 20 21  1  0  0  0
 16 15  1  0  0  0
 15 14  1  0  0  0
 14 13  1  0  0  0
 13 12  1  0  0  0
 12  1  1  0  0  0
  1  2  1  0  0  0
  2  3  1  0  0  0
  3  4  1  0  0  0
  4  5  1  0  0  0
  5  6  1  0  0  0
  6  7  1  0  0  0
  7  8  1  0  0  0
  8  9  1  0  0  0
  9 10  1  0  0  0
 10 11  1  0  0  0
M  END
> <minimizedAffinity>
-7.12034

> <CNNscore>
0.9209262729

> <CNNaffinity>
6.8943643570

> <CNN_VS>
6.3492012024

> <CNNaffinity_variance>
0.5571546555

$$$$
/media/chris/experiments/cd1a-new-docking/inputs/ligands/4x6d_1_ligand.pdb


 21 20  0  0  0  0  0  0  0  0999 V2000
  -47.1375   59.9397   64.7729 C   0  0  0  0  0  0  0  0  0  0  0  0
  -48.0931   61.1024   64.6690 C   0  0  0  0  0  0  0  0  0  0  0  0
  -49.3945   60.9243   64.0106 C   0  0  0  0  0  0  0  0  0  0  0  0
  -50.0008   59.5448   63.8807 C   0  0  0  0  0  0  0  0  0  0  0  0
  -50.3797   59.2685   62.4262 C   0  0  0  0  0  0  0  0  0  0  0  0
  -49.7027   60.2146   61.4383 C   0  0  0  0  0  0  0  0  0  0  0  0
  -48.9649   59.4470   60.3380 C   0  0  0  0  0  0  0  0  0  0  0  0
  -48.7952   57.9458   60.6011 C   0  0  0  0  0  0  0  0  0  0  0  0
  -47.7312   57.3156   59.6926 C   0  0  0  0  0  0  0  0  0  0  0  0
  -47.4474   58.1562   58.4450 C   0  0  0  0  0  0  0  0  0  0  0  0
  -47.5620   57.3633   57.1374 C   0  0  0  0  0  0  0  0  0  0  0  0
  -45.7804   60.4964   65.1723 C   0  0  0  0  0  0  0  0  0  0  0  0
  -44.7099   59.4200   65.1834 C   0  0  0  0  0  0  0  0  0  0  0  0
  -44.2010   59.1648   66.5990 C   0  0  0  0  0  0  0  0  0  0  0  0
  -42.8525   58.4598   66.5526 C   0  0  0  0  0  0  0  0  0  0  0  0
  -41.7177   59.4380   66.8124 C   0  0  0  0  0  0  0  0  0  0  0  0
  -40.9831   59.7833   65.5211 C   0  0  0  0  0  0  0  0  0  0  0  0
  -40.3171   61.1385   65.6595 C   0  0  0  0  0  0  0  0  0  0  0  0
  -40.8840   62.1688   65.2138 O   0  0  0  0  0  0  0  0  0  0  0  0
  -39.1933   61.2416   66.2158 O   0  0  0  0  0  0  0  0  0  0  0  0
  -38.7644   60.4787   66.5506 H   0  0  0  0  0  0  0  0  0  0  0  0
 18 19  2  0  0  0
 18 17  1  0  0  0
 18 20  1  0  0  0
 17 16  1  0  0  0
 20 21  1  0  0  0
 16 15  1  0  0  0
 15 14  1  0  0  0
 14 13  1  0  0  0
 13 12  1  0  0  0
 12  1  1  0  0  0
  1  2  1  0  0  0
  2  3  1  0  0  0
  3  4  1  0  0  0
  4  5  1  0  0  0
  5  6  1  0  0  0
  6  7  1  0  0  0
  7  8  1  0  0  0
  8  9  1  0  0  0
  9 10  1  0  0  0
 10 11  1  0  0  0
M  END
> <minimizedAffinity>
-6.93031

> <CNNscore>
0.8657542467

> <CNNaffinity>
6.7696905136

> <CNN_VS>
5.8608884811

> <CNNaffinity_variance>
0.4867784977

$$$$
/media/chris/experiments/cd1a-new-docking/inputs/ligands/4x6d_1_ligand.pdb


 21 20  0  0  0  0  0  0  0  0999 V2000
  -45.8041   59.1600   66.8083 C   0  0  0  0  0  0  0  0  0  0  0  0
  -47.2674   59.3853   66.5189 C   0  0  0  0  0  0  0  0  0  0  0  0
  -47.7379   60.7186   66.1189 C   0  0  0  0  0  0  0  0  0  0  0  0
  -47.8348   61.0855   64.6549 C   0  0  0  0  0  0  0  0  0  0  0  0
  -49.2509   60.8327   64.1389 C   0  0  0  0  0  0  0  0  0  0  0  0
  -49.2823   60.2630   62.7232 C   0  0  0  0  0  0  0  0  0  0  0  0
  -49.0964   58.7433   62.7230 C   0  0  0  0  0  0  0  0  0  0  0  0
  -50.1770   57.9610   61.9668 C   0  0  0  0  0  0  0  0  0  0  0  0
  -50.0243   58.0861   60.4451 C   0  0  0  0  0  0  0  0  0  0  0  0
  -48.8812   57.2295   59.8944 C   0  0  0  0  0  0  0  0  0  0  0  0
  -47.8395   58.0359   59.1094 C   0  0  0  0  0  0  0  0  0  0  0  0
  -45.4715   57.7330   66.4032 C   0  0  0  0  0  0  0  0  0  0  0  0
  -45.0056   57.6499   64.9606 C   0  0  0  0  0  0  0  0  0  0  0  0
  -43.7831   58.5320   64.7257 C   0  0  0  0  0  0  0  0  0  0  0  0
  -42.5777   57.9653   65.4629 C   0  0  0  0  0  0  0  0  0  0  0  0
  -41.4425   58.9759   65.5077 C   0  0  0  0  0  0  0  0  0  0  0  0
  -41.9671   60.3995   65.3505 C   0  0  0  0  0  0  0  0  0  0  0  0
  -40.8041   61.3545   65.1649 C   0  0  0  0  0  0  0  0  0  0  0  0
  -40.3667   61.5995   64.0116 O   0  0  0  0  0  0  0  0  0  0  0  0
  -40.2664   61.9039   66.1609 O   0  0  0  0  0  0  0  0  0  0  0  0
  -40.5865   61.7265   67.0235 H   0  0  0  0  0  0  0  0  0  0  0  0
 18 19  2  0  0  0
 18 17  1  0  0  0
 18 20  1  0  0  0
 17 16  1  0  0  0
 20 21  1  0  0  0
 16 15  1  0  0  0
 15 14  1  0  0  0
 14 13  1  0  0  0
 13 12  1  0  0  0
 12  1  1  0  0  0
  1  2  1  0  0  0
  2  3  1  0  0  0
  3  4  1  0  0  0
  4  5  1  0  0  0
  5  6  1  0  0  0
  6  7  1  0  0  0
  7  8  1  0  0  0
  8  9  1  0  0  0
  9 10  1  0  0  0
 10 11  1  0  0  0
M  END
> <minimizedAffinity>
-6.64045

> <CNNscore>
0.8443694711

> <CNNaffinity>
6.6892118454

> <CNN_VS>
5.6481661797

> <CNNaffinity_variance>
0.6135376692

$$$$
/media/chris/experiments/cd1a-new-docking/inputs/ligands/4x6d_1_ligand.pdb


 21 20  0  0  0  0  0  0  0  0999 V2000
  -43.2080   59.6091   66.7405 C   0  0  0  0  0  0  0  0  0  0  0  0
  -44.6514   59.1799   66.6491 C   0  0  0  0  0  0  0  0  0  0  0  0
  -44.9817   57.7858   66.3233 C   0  0  0  0  0  0  0  0  0  0  0  0
  -46.4022   57.2860   66.4634 C   0  0  0  0  0  0  0  0  0  0  0  0
  -47.3906   58.4222   66.2035 C   0  0  0  0  0  0  0  0  0  0  0  0
  -48.4379   58.0784   65.1477 C   0  0  0  0  0  0  0  0  0  0  0  0
  -49.8499   58.4408   65.6157 C   0  0  0  0  0  0  0  0  0  0  0  0
  -50.4473   59.6903   64.9571 C   0  0  0  0  0  0  0  0  0  0  0  0
  -50.1215   59.7673   63.4596 C   0  0  0  0  0  0  0  0  0  0  0  0
  -51.0548   58.9032   62.6075 C   0  0  0  0  0  0  0  0  0  0  0  0
  -50.3525   58.2403   61.4163 C   0  0  0  0  0  0  0  0  0  0  0  0
  -42.3483   58.3889   66.4521 C   0  0  0  0  0  0  0  0  0  0  0  0
  -41.3369   58.6583   65.3523 C   0  0  0  0  0  0  0  0  0  0  0  0
  -40.3996   59.8000   65.7345 C   0  0  0  0  0  0  0  0  0  0  0  0
  -38.9626   59.4383   65.3856 C   0  0  0  0  0  0  0  0  0  0  0  0
  -38.9124   58.2078   64.4937 C   0  0  0  0  0  0  0  0  0  0  0  0
  -37.5017   57.9691   63.9651 C   0  0  0  0  0  0  0  0  0  0  0  0
  -37.3748   58.5479   62.5694 C   0  0  0  0  0  0  0  0  0  0  0  0
  -37.7635   57.8852   61.5737 O   0  0  0  0  0  0  0  0  0  0  0  0
  -36.8770   59.6904   62.3969 O   0  0  0  0  0  0  0  0  0  0  0  0
  -36.5851   60.1905   63.1335 H   0  0  0  0  0  0  0  0  0  0  0  0
 18 19  2  0  0  0
 18 17  1  0  0  0
 18 20  1  0  0  0
 17 16  1  0  0  0
 20 21  1  0  0  0
 16 15  1  0  0  0
 15 14  1  0  0  0
 14 13  1  0  0  0
 13 12  1  0  0  0
 12  1  1  0  0  0
  1  2  1  0  0  0
  2  3  1  0  0  0
  3  4  1  0  0  0
  4  5  1  0  0  0
  5  6  1  0  0  0
  6  7  1  0  0  0
  7  8  1  0  0  0
  8  9  1  0  0  0
  9 10  1  0  0  0
 10 11  1  0  0  0
M  END
> <minimizedAffinity>
-6.33014

> <CNNscore>
0.7657263875

> <CNNaffinity>
6.5614824295

> <CNN_VS>
5.0243000984

> <CNNaffinity_variance>
0.5691164136

$$$$
/media/chris/experiments/cd1a-new-docking/inputs/ligands/4x6d_1_ligand.pdb


 21 20  0  0  0  0  0  0  0  0999 V2000
  -50.6371   60.2661   64.1187 C   0  0  0  0  0  0  0  0  0  0  0  0
  -50.1466   59.1983   65.0648 C   0  0  0  0  0  0  0  0  0  0  0  0
  -48.9816   59.4580   65.9217 C   0  0  0  0  0  0  0  0  0  0  0  0
  -47.8162   60.2681   65.3992 C   0  0  0  0  0  0  0  0  0  0  0  0
  -46.6323   59.3525   65.0898 C   0  0  0  0  0  0  0  0  0  0  0  0
  -46.7865   57.9515   65.6756 C   0  0  0  0  0  0  0  0  0  0  0  0
  -45.4642   57.4298   66.2444 C   0  0  0  0  0  0  0  0  0  0  0  0
  -44.4207   57.0341   65.1927 C   0  0  0  0  0  0  0  0  0  0  0  0
  -43.0078   57.4920   65.5782 C   0  0  0  0  0  0  0  0  0  0  0  0
  -42.8596   59.0157   65.5740 C   0  0  0  0  0  0  0  0  0  0  0  0
  -42.5878   59.6050   66.9635 C   0  0  0  0  0  0  0  0  0  0  0  0
  -51.1775   59.5683   62.8809 C   0  0  0  0  0  0  0  0  0  0  0  0
  -50.3594   58.3404   62.5228 C   0  0  0  0  0  0  0  0  0  0  0  0
  -50.9858   57.5834   61.3556 C   0  0  0  0  0  0  0  0  0  0  0  0
  -49.9000   56.9385   60.5054 C   0  0  0  0  0  0  0  0  0  0  0  0
  -49.2807   57.9503   59.5543 C   0  0  0  0  0  0  0  0  0  0  0  0
  -47.8798   57.5209   59.1306 C   0  0  0  0  0  0  0  0  0  0  0  0
  -47.9710   56.5814   57.9439 C   0  0  0  0  0  0  0  0  0  0  0  0
  -47.8385   55.3417   58.1088 O   0  0  0  0  0  0  0  0  0  0  0  0
  -48.1748   57.0340   56.7878 O   0  0  0  0  0  0  0  0  0  0  0  0
  -48.2746   57.9564   56.6566 H   0  0  0  0  0  0  0  0  0  0  0  0
 18 19  2  0  0  0
 18 17  1  0  0  0
 18 20  1  0  0  0
 17 16  1  0  0  0
 20 21  1  0  0  0
 16 15  1  0  0  0
 15 14  1  0  0  0
 14 13  1  0  0  0
 13 12  1  0  0  0
 12  1  1  0  0  0
  1  2  1  0  0  0
  2  3  1  0  0  0
  3  4  1  0  0  0
  4  5  1  0  0  0
  5  6  1  0  0  0
  6  7  1  0  0  0
  7  8  1  0  0  0
  8  9  1  0  0  0
  9 10  1  0  0  0
 10 11  1  0  0  0
M  END
> <minimizedAffinity>
-6.97815

> <CNNscore>
0.7462922335

> <CNNaffinity>
6.7304282188

> <CNN_VS>
5.0228662491

> <CNNaffinity_variance>
0.8233340383

$$$$
/media/chris/experiments/cd1a-new-docking/inputs/ligands/4x6d_1_ligand.pdb


 21 20  0  0  0  0  0  0  0  0999 V2000
  -46.4034   58.8012   64.8350 C   0  0  0  0  0  0  0  0  0  0  0  0
  -47.8319   58.3911   65.0941 C   0  0  0  0  0  0  0  0  0  0  0  0
  -48.7737   59.3515   65.6854 C   0  0  0  0  0  0  0  0  0  0  0  0
  -50.2615   59.1965   65.4622 C   0  0  0  0  0  0  0  0  0  0  0  0
  -50.7667   60.2716   64.5007 C   0  0  0  0  0  0  0  0  0  0  0  0
  -51.1756   59.7165   63.1390 C   0  0  0  0  0  0  0  0  0  0  0  0
  -50.1091   59.9908   62.0753 C   0  0  0  0  0  0  0  0  0  0  0  0
  -49.3085   58.7603   61.6318 C   0  0  0  0  0  0  0  0  0  0  0  0
  -48.6261   58.9723   60.2739 C   0  0  0  0  0  0  0  0  0  0  0  0
  -47.9759   57.6956   59.7345 C   0  0  0  0  0  0  0  0  0  0  0  0
  -47.6238   57.7743   58.2440 C   0  0  0  0  0  0  0  0  0  0  0  0
  -45.5354   57.5634   64.9950 C   0  0  0  0  0  0  0  0  0  0  0  0
  -44.4327   57.7756   66.0168 C   0  0  0  0  0  0  0  0  0  0  0  0
  -44.1865   59.2616   66.2599 C   0  0  0  0  0  0  0  0  0  0  0  0
  -42.6916   59.5419   66.3252 C   0  0  0  0  0  0  0  0  0  0  0  0
  -42.0890   59.6089   64.9309 C   0  0  0  0  0  0  0  0  0  0  0  0
  -42.9173   60.5055   64.0163 C   0  0  0  0  0  0  0  0  0  0  0  0
  -42.0110   61.1781   63.0037 C   0  0  0  0  0  0  0  0  0  0  0  0
  -40.7618   61.1113   63.1323 O   0  0  0  0  0  0  0  0  0  0  0  0
  -42.5006   61.8102   62.0322 O   0  0  0  0  0  0  0  0  0  0  0  0
  -43.4304   61.8646   61.9294 H   0  0  0  0  0  0  0  0  0  0  0  0
 18 19  2  0  0  0
 18 17  1  0  0  0
 18 20  1  0  0  0
 17 16  1  0  0  0
 20 21  1  0  0  0
 16 15  1  0  0  0
 15 14  1  0  0  0
 14 13  1  0  0  0
 13 12  1  0  0  0
 12  1  1  0  0  0
  1  2  1  0  0  0
  2  3  1  0  0  0
  3  4  1  0  0  0
  4  5  1  0  0  0
  5  6  1  0  0  0
  6  7  1  0  0  0
  7  8  1  0  0  0
  8  9  1  0  0  0
  9 10  1  0  0  0
 10 11  1  0  0  0
M  END
> <minimizedAffinity>
-6.52730

> <CNNscore>
0.7280354500

> <CNNaffinity>
6.5195617676

> <CNN_VS>
4.7464718819

> <CNNaffinity_variance>
0.4812317789

$$$$
/media/chris/experiments/cd1a-new-docking/inputs/ligands/4x6d_1_ligand.pdb


 21 20  0  0  0  0  0  0  0  0999 V2000
  -47.3940   59.6393   64.5383 C   0  0  0  0  0  0  0  0  0  0  0  0
  -48.8201   59.1475   64.5282 C   0  0  0  0  0  0  0  0  0  0  0  0
  -49.8291   59.8434   63.7179 C   0  0  0  0  0  0  0  0  0  0  0  0
  -49.9809   59.5217   62.2480 C   0  0  0  0  0  0  0  0  0  0  0  0
  -50.7465   58.2111   62.0698 C   0  0  0  0  0  0  0  0  0  0  0  0
  -50.2368   57.3709   60.9020 C   0  0  0  0  0  0  0  0  0  0  0  0
  -49.3894   58.2036   59.9362 C   0  0  0  0  0  0  0  0  0  0  0  0
  -48.0536   57.5660   59.5353 C   0  0  0  0  0  0  0  0  0  0  0  0
  -47.4104   58.2751   58.3361 C   0  0  0  0  0  0  0  0  0  0  0  0
  -47.1618   57.3316   57.1564 C   0  0  0  0  0  0  0  0  0  0  0  0
  -47.8793   55.9833   57.2933 C   0  0  0  0  0  0  0  0  0  0  0  0
  -46.5640   58.6218   65.3043 C   0  0  0  0  0  0  0  0  0  0  0  0
  -45.0879   58.7270   64.9648 C   0  0  0  0  0  0  0  0  0  0  0  0
  -44.4215   59.8523   65.7506 C   0  0  0  0  0  0  0  0  0  0  0  0
  -43.0426   60.1475   65.1771 C   0  0  0  0  0  0  0  0  0  0  0  0
  -43.1507   60.8890   63.8540 C   0  0  0  0  0  0  0  0  0  0  0  0
  -41.7916   60.9937   63.1697 C   0  0  0  0  0  0  0  0  0  0  0  0
  -41.9459   61.6909   61.8321 C   0  0  0  0  0  0  0  0  0  0  0  0
  -41.3455   61.2513   60.8183 O   0  0  0  0  0  0  0  0  0  0  0  0
  -42.6703   62.7144   61.7276 O   0  0  0  0  0  0  0  0  0  0  0  0
  -43.1209   63.0481   62.4782 H   0  0  0  0  0  0  0  0  0  0  0  0
 18 19  2  0  0  0
 18 17  1  0  0  0
 18 20  1  0  0  0
 17 16  1  0  0  0
 20 21  1  0  0  0
 16 15  1  0  0  0
 15 14  1  0  0  0
 14 13  1  0  0  0
 13 12  1  0  0  0
 12  1  1  0  0  0
  1  2  1  0  0  0
  2  3  1  0  0  0
  3  4  1  0  0  0
  4  5  1  0  0  0
  5  6  1  0  0  0
  6  7  1  0  0  0
  7  8  1  0  0  0
  8  9  1  0  0  0
  9 10  1  0  0  0
 10 11  1  0  0  0
M  END
> <minimizedAffinity>
-6.61885

> <CNNscore>
0.7243350744

> <CNNaffinity>
6.6597733498

> <CNN_VS>
4.8239073753

> <CNNaffinity_variance>
0.7738988996

$$$$
/media/chris/experiments/cd1a-new-docking/inputs/ligands/4x6d_1_ligand.pdb


 21 20  0  0  0  0  0  0  0  0999 V2000
  -50.2281   59.0121   64.1845 C   0  0  0  0  0  0  0  0  0  0  0  0
  -49.2124   58.6140   65.2265 C   0  0  0  0  0  0  0  0  0  0  0  0
  -48.0201   57.8508   64.8331 C   0  0  0  0  0  0  0  0  0  0  0  0
  -47.3765   56.8873   65.8051 C   0  0  0  0  0  0  0  0  0  0  0  0
  -45.8724   57.1450   65.8875 C   0  0  0  0  0  0  0  0  0  0  0  0
  -45.3368   57.9597   64.7132 C   0  0  0  0  0  0  0  0  0  0  0  0
  -44.4137   59.0869   65.1838 C   0  0  0  0  0  0  0  0  0  0  0  0
  -43.5907   58.7662   66.4374 C   0  0  0  0  0  0  0  0  0  0  0  0
  -42.1660   59.3300   66.3544 C   0  0  0  0  0  0  0  0  0  0  0  0
  -41.3825   58.7803   65.1596 C   0  0  0  0  0  0  0  0  0  0  0  0
  -39.8738   59.0402   65.2490 C   0  0  0  0  0  0  0  0  0  0  0  0
  -49.9050   58.2437   62.9131 C   0  0  0  0  0  0  0  0  0  0  0  0
  -50.1862   59.0673   61.6691 C   0  0  0  0  0  0  0  0  0  0  0  0
  -48.9669   59.1141   60.7531 C   0  0  0  0  0  0  0  0  0  0  0  0
  -48.6544   57.7213   60.2239 C   0  0  0  0  0  0  0  0  0  0  0  0
  -47.7340   57.7920   59.0157 C   0  0  0  0  0  0  0  0  0  0  0  0
  -48.3674   57.1196   57.8020 C   0  0  0  0  0  0  0  0  0  0  0  0
  -47.6202   55.8401   57.4794 C   0  0  0  0  0  0  0  0  0  0  0  0
  -47.5527   55.4310   56.2922 O   0  0  0  0  0  0  0  0  0  0  0  0
  -47.0676   55.1776   58.3952 O   0  0  0  0  0  0  0  0  0  0  0  0
  -47.1134   55.4758   59.2823 H   0  0  0  0  0  0  0  0  0  0  0  0
 18 19  2  0  0  0
 18 17  1  0  0  0
 18 20  1  0  0  0
 17 16  1  0  0  0
 20 21  1  0  0  0
 16 15  1  0  0  0
 15 14  1  0  0  0
 14 13  1  0  0  0
 13 12  1  0  0  0
 12  1  1  0  0  0
  1  2  1  0  0  0
  2  3  1  0  0  0
  3  4  1  0  0  0
  4  5  1  0  0  0
  5  6  1  0  0  0
  6  7  1  0  0  0
  7  8  1  0  0  0
  8  9  1  0  0  0
  9 10  1  0  0  0
 10 11  1  0  0  0
M  END
> <minimizedAffinity>
-6.78571

> <CNNscore>
0.7002553940

> <CNNaffinity>
6.7636985779

> <CNN_VS>
4.7363162041

> <CNNaffinity_variance>
0.5372623801

$$$$
