/media/chris/experiments/cd1a-new-docking/inputs/ligands/7ryo_ligand.pdb
 OpenBabel07032304133D

135137  0  0  1  0  0  0  0  0999 V2000
  -38.4618   58.3450   63.9648 N   0  0  0  0  0  0  0  0  0  0  0  0
  -48.8840   65.9695   65.5251 C   0  0  0  0  0  0  0  0  0  0  0  0
  -39.4786   56.4632   64.6850 O   0  0  0  0  0  0  0  0  0  0  0  0
  -49.2497   64.6492   64.8992 C   0  0  0  0  0  0  0  0  0  0  0  0
  -34.0017   55.5459   60.5756 N   0  0  0  0  0  0  0  0  0  0  0  0
  -33.2801   54.3165   62.3139 O   0  0  0  0  0  0  0  0  0  0  0  0
  -48.5120   64.3773   63.6008 C   0  0  0  0  0  0  0  0  0  0  0  0
  -34.7459   52.1293   61.5622 N   0  0  0  0  0  0  0  0  0  0  0  0
  -36.5097   52.2868   60.1667 O   0  0  0  0  0  0  0  0  0  0  0  0
  -48.8731   63.0585   62.9364 C   0  0  0  0  0  0  0  0  0  0  0  0
  -30.1302   58.5282   64.2751 N   0  0  0  0  0  0  0  0  0  0  0  0
  -38.4618   50.7923   60.3169 O   0  0  0  0  0  0  0  0  0  0  0  0
  -48.1080   62.8012   61.6454 C   0  0  0  0  0  0  0  0  0  0  0  0
  -27.8399   61.2451   64.9580 N   0  0  0  0  0  0  0  0  0  0  0  0
  -31.2210   56.1784   61.4905 O   0  0  0  0  0  0  0  0  0  0  0  0
  -48.4733   61.4923   60.9625 C   0  0  0  0  0  0  0  0  0  0  0  0
  -32.4428   56.9252   63.2313 O   0  0  0  0  0  0  0  0  0  0  0  0
  -48.2354   60.2573   61.8139 C   0  0  0  0  0  0  0  0  0  0  0  0
  -31.4653   59.4698   65.8220 O   0  0  0  0  0  0  0  0  0  0  0  0
  -46.7932   60.0768   62.2584 C   0  0  0  0  0  0  0  0  0  0  0  0
  -29.1024   59.9379   66.2726 O   0  0  0  0  0  0  0  0  0  0  0  0
  -46.5765   58.8294   63.0923 C   0  0  0  0  0  0  0  0  0  0  0  0
  -45.1376   58.6693   63.5439 C   0  0  0  0  0  0  0  0  0  0  0  0
  -44.8755   57.4240   64.3670 C   0  0  0  0  0  0  0  0  0  0  0  0
  -45.7051   57.3633   65.6346 C   0  0  0  0  0  0  0  0  0  0  0  0
  -45.4376   56.1265   66.4763 C   0  0  0  0  0  0  0  0  0  0  0  0
  -44.0014   56.0192   66.9531 C   0  0  0  0  0  0  0  0  0  0  0  0
  -43.5444   57.1722   67.8312 C   0  0  0  0  0  0  0  0  0  0  0  0
  -42.0994   57.0555   68.2844 C   0  0  0  0  0  0  0  0  0  0  0  0
  -41.0951   57.0308   67.1387 C   0  0  0  0  0  0  0  0  0  0  0  0
  -41.1565   58.2830   66.3209 C   0  0  0  0  0  0  0  0  0  0  0  0
  -40.4379   58.5894   65.2493 C   0  0  0  0  0  0  0  0  0  0  0  0
  -39.4216   57.7030   64.6396 C   0  0  0  0  0  0  0  0  0  0  0  0
  -37.4201   57.6362   63.2386 C   0  0  0  0  0  0  0  0  0  0  0  0
  -36.9560   58.4330   62.0390 C   0  0  0  0  0  0  0  0  0  0  0  0
  -35.8780   57.7610   61.2090 C   0  0  0  0  0  0  0  0  0  0  0  0
  -34.6110   57.4590   62.0020 C   0  0  0  0  0  0  0  0  0  0  0  0
  -33.5311   56.7980   61.1441 C   0  0  1  0  0  0  0  0  0  0  0  0
  -33.8304   54.3921   61.2255 C   0  0  0  0  0  0  0  0  0  0  0  0
  -34.3365   53.1103   60.5436 C   0  0  1  0  0  0  0  0  0  0  0  0
  -33.2067   52.5167   59.7077 C   0  0  0  0  0  0  0  0  0  0  0  0
  -35.6075   53.3258   59.7088 C   0  0  0  0  0  0  0  0  0  0  0  0
  -35.9221   51.7544   61.2698 C   0  0  0  0  0  0  0  0  0  0  0  0
  -36.7279   50.7809   62.0106 C   0  0  0  0  0  0  0  0  0  0  0  0
  -36.2126   50.1711   63.1551 C   0  0  0  0  0  0  0  0  0  0  0  0
  -36.8546   49.0828   63.7205 C   0  0  0  0  0  0  0  0  0  0  0  0
  -38.0118   48.5870   63.1604 C   0  0  0  0  0  0  0  0  0  0  0  0
  -38.5407   49.1703   62.0235 C   0  0  0  0  0  0  0  0  0  0  0  0
  -37.9088   50.2636   61.4394 C   0  0  0  0  0  0  0  0  0  0  0  0
  -32.2521   56.5942   61.9423 C   0  0  0  0  0  0  0  0  0  0  0  0
  -31.6639   56.2146   64.2502 C   0  0  2  0  0  0  0  0  0  0  0  0
  -32.3291   54.8856   64.5048 C   0  0  0  0  0  0  0  0  0  0  0  0
  -31.6789   57.1110   65.4731 C   0  0  0  0  0  0  0  0  0  0  0  0
  -31.0823   58.4759   65.2111 C   0  0  0  0  0  0  0  0  0  0  0  0
  -29.4778   59.7744   63.9131 C   0  0  1  0  0  0  0  0  0  0  0  0
  -30.5145   60.7846   63.4088 C   0  0  0  0  0  0  0  0  0  0  0  0
  -29.9113   61.9253   62.5964 C   0  0  0  0  0  0  0  0  0  0  0  0
  -28.9257   62.8046   63.3401 C   0  0  0  0  0  0  0  0  0  0  0  0
  -27.6659   62.0890   63.7807 C   0  0  0  0  0  0  0  0  0  0  0  0
  -28.7897   60.3273   65.1512 C   0  0  0  0  0  0  0  0  0  0  0  0
  -38.4605   59.3295   63.9595 H   0  0  0  0  0  0  0  0  0  0  0  0
  -49.4360   66.0992   66.4324 H   0  0  0  0  0  0  0  0  0  0  0  0
  -49.1202   66.7631   64.8473 H   0  0  0  0  0  0  0  0  0  0  0  0
  -47.8359   65.9842   65.7401 H   0  0  0  0  0  0  0  0  0  0  0  0
  -50.3009   64.6471   64.6998 H   0  0  0  0  0  0  0  0  0  0  0  0
  -48.9697   63.8818   65.5903 H   0  0  0  0  0  0  0  0  0  0  0  0
  -34.4524   55.5484   59.7004 H   0  0  0  0  0  0  0  0  0  0  0  0
  -47.4622   64.3712   63.8075 H   0  0  0  0  0  0  0  0  0  0  0  0
  -48.7991   65.1507   62.9194 H   0  0  0  0  0  0  0  0  0  0  0  0
  -49.9198   63.0663   62.7142 H   0  0  0  0  0  0  0  0  0  0  0  0
  -48.6100   62.2785   63.6199 H   0  0  0  0  0  0  0  0  0  0  0  0
  -29.8633   57.6983   63.8177 H   0  0  0  0  0  0  0  0  0  0  0  0
  -38.0607   51.5290   59.8993 H   0  0  0  0  0  0  0  0  0  0  0  0
  -47.0624   62.7827   61.8717 H   0  0  0  0  0  0  0  0  0  0  0  0
  -48.3683   63.5878   60.9683 H   0  0  0  0  0  0  0  0  0  0  0  0
  -27.1885   61.3652   65.6864 H   0  0  0  0  0  0  0  0  0  0  0  0
  -47.8869   61.4037   60.0718 H   0  0  0  0  0  0  0  0  0  0  0  0
  -49.5242   61.5316   60.7652 H   0  0  0  0  0  0  0  0  0  0  0  0
  -48.5217   59.3973   61.2454 H   0  0  0  0  0  0  0  0  0  0  0  0
  -48.8186   60.3790   62.7027 H   0  0  0  0  0  0  0  0  0  0  0  0
  -46.5075   60.9283   62.8399 H   0  0  0  0  0  0  0  0  0  0  0  0
  -46.1986   59.9754   61.3746 H   0  0  0  0  0  0  0  0  0  0  0  0
  -46.8488   57.9755   62.5078 H   0  0  0  0  0  0  0  0  0  0  0  0
  -47.1824   58.9182   63.9697 H   0  0  0  0  0  0  0  0  0  0  0  0
  -44.8751   59.5222   64.1342 H   0  0  0  0  0  0  0  0  0  0  0  0
  -44.5469   58.5789   62.6563 H   0  0  0  0  0  0  0  0  0  0  0  0
  -43.8401   57.4057   64.6365 H   0  0  0  0  0  0  0  0  0  0  0  0
  -45.1483   56.5815   63.7666 H   0  0  0  0  0  0  0  0  0  0  0  0
  -46.7399   57.3704   65.3626 H   0  0  0  0  0  0  0  0  0  0  0  0
  -45.4352   58.2118   66.2280 H   0  0  0  0  0  0  0  0  0  0  0  0
  -45.6653   55.2614   65.8893 H   0  0  0  0  0  0  0  0  0  0  0  0
  -46.0544   56.1989   67.3477 H   0  0  0  0  0  0  0  0  0  0  0  0
  -43.3653   55.9804   66.0936 H   0  0  0  0  0  0  0  0  0  0  0  0
  -43.9440   55.1358   67.5542 H   0  0  0  0  0  0  0  0  0  0  0  0
  -44.1696   57.2050   68.6989 H   0  0  0  0  0  0  0  0  0  0  0  0
  -43.6179   58.0629   67.2429 H   0  0  0  0  0  0  0  0  0  0  0  0
  -41.9938   56.1503   68.8451 H   0  0  0  0  0  0  0  0  0  0  0  0
  -41.8848   57.9263   68.8681 H   0  0  0  0  0  0  0  0  0  0  0  0
  -41.3097   56.1938   66.5076 H   0  0  0  0  0  0  0  0  0  0  0  0
  -40.1135   56.9540   67.5574 H   0  0  0  0  0  0  0  0  0  0  0  0
  -41.8398   58.9929   66.6278 H   0  0  0  0  0  0  0  0  0  0  0  0
  -40.5985   59.5094   64.8102 H   0  0  0  0  0  0  0  0  0  0  0  0
  -37.8045   56.6947   62.9057 H   0  0  0  0  0  0  0  0  0  0  0  0
  -36.5868   57.4908   63.8939 H   0  0  0  0  0  0  0  0  0  0  0  0
  -36.5724   59.3687   62.3887 H   0  0  0  0  0  0  0  0  0  0  0  0
  -37.8072   58.5391   61.3994 H   0  0  0  0  0  0  0  0  0  0  0  0
  -35.6238   58.4067   60.3945 H   0  0  0  0  0  0  0  0  0  0  0  0
  -36.2729   56.8255   60.8717 H   0  0  0  0  0  0  0  0  0  0  0  0
  -34.8590   56.8018   62.8091 H   0  0  0  0  0  0  0  0  0  0  0  0
  -34.2203   58.3886   62.3599 H   0  0  0  0  0  0  0  0  0  0  0  0
  -33.3097   57.4574   60.3310 H   0  0  0  0  0  0  0  0  0  0  0  0
  -32.3413   52.3817   60.3222 H   0  0  0  0  0  0  0  0  0  0  0  0
  -32.9721   53.1808   58.9022 H   0  0  0  0  0  0  0  0  0  0  0  0
  -33.5144   51.5712   59.3123 H   0  0  0  0  0  0  0  0  0  0  0  0
  -36.0215   54.2957   59.8900 H   0  0  0  0  0  0  0  0  0  0  0  0
  -35.4219   53.2750   58.6562 H   0  0  0  0  0  0  0  0  0  0  0  0
  -35.3466   50.5342   63.5832 H   0  0  0  0  0  0  0  0  0  0  0  0
  -36.4640   48.6400   64.5669 H   0  0  0  0  0  0  0  0  0  0  0  0
  -38.4855   47.7775   63.5909 H   0  0  0  0  0  0  0  0  0  0  0  0
  -39.4066   48.7936   61.6072 H   0  0  0  0  0  0  0  0  0  0  0  0
  -30.6532   56.0146   63.9616 H   0  0  0  0  0  0  0  0  0  0  0  0
  -33.3459   55.0459   64.7970 H   0  0  0  0  0  0  0  0  0  0  0  0
  -31.8104   54.3710   65.2865 H   0  0  0  0  0  0  0  0  0  0  0  0
  -32.3032   54.2968   63.6118 H   0  0  0  0  0  0  0  0  0  0  0  0
  -31.1175   56.6367   66.2508 H   0  0  0  0  0  0  0  0  0  0  0  0
  -32.7018   57.2563   65.7516 H   0  0  0  0  0  0  0  0  0  0  0  0
  -28.7646   59.5999   63.1348 H   0  0  0  0  0  0  0  0  0  0  0  0
  -31.0193   61.2020   64.2549 H   0  0  0  0  0  0  0  0  0  0  0  0
  -31.1789   60.2541   62.7591 H   0  0  0  0  0  0  0  0  0  0  0  0
  -30.7127   62.5455   62.2530 H   0  0  0  0  0  0  0  0  0  0  0  0
  -29.3558   61.4629   61.8074 H   0  0  0  0  0  0  0  0  0  0  0  0
  -29.4126   63.1933   64.2100 H   0  0  0  0  0  0  0  0  0  0  0  0
  -28.6217   63.5712   62.6583 H   0  0  0  0  0  0  0  0  0  0  0  0
  -27.3295   61.4732   62.9729 H   0  0  0  0  0  0  0  0  0  0  0  0
  -26.9581   62.8463   64.0462 H   0  0  0  0  0  0  0  0  0  0  0  0
  1 33  1  0  0  0  0
  1 34  1  0  0  0  0
  1 61  1  0  0  0  0
  2  4  1  0  0  0  0
  2 62  1  0  0  0  0
  2 63  1  0  0  0  0
  2 64  1  0  0  0  0
  3 33  2  0  0  0  0
  4  7  1  0  0  0  0
  4 65  1  0  0  0  0
  4 66  1  0  0  0  0
  5 38  1  0  0  0  0
  5 39  1  0  0  0  0
  5 67  1  0  0  0  0
  6 39  2  0  0  0  0
  7 10  1  0  0  0  0
  7 68  1  0  0  0  0
  7 69  1  0  0  0  0
  8 40  1  0  0  0  0
  8 43  2  0  0  0  0
  9 42  1  0  0  0  0
  9 43  1  0  0  0  0
 10 13  1  0  0  0  0
 10 70  1  0  0  0  0
 10 71  1  0  0  0  0
 11 54  1  0  0  0  0
 11 55  1  0  0  0  0
 11 72  1  0  0  0  0
 12 49  1  0  0  0  0
 12 73  1  0  0  0  0
 13 16  1  0  0  0  0
 13 74  1  0  0  0  0
 13 75  1  0  0  0  0
 14 59  1  0  0  0  0
 14 60  1  0  0  0  0
 14 76  1  0  0  0  0
 15 50  2  0  0  0  0
 16 18  1  0  0  0  0
 16 77  1  0  0  0  0
 16 78  1  0  0  0  0
 17 50  1  0  0  0  0
 17 51  1  0  0  0  0
 18 20  1  0  0  0  0
 18 79  1  0  0  0  0
 18 80  1  0  0  0  0
 19 54  2  0  0  0  0
 20 22  1  0  0  0  0
 20 81  1  0  0  0  0
 20 82  1  0  0  0  0
 21 60  2  0  0  0  0
 22 23  1  0  0  0  0
 22 83  1  0  0  0  0
 22 84  1  0  0  0  0
 23 24  1  0  0  0  0
 23 85  1  0  0  0  0
 23 86  1  0  0  0  0
 24 25  1  0  0  0  0
 24 87  1  0  0  0  0
 24 88  1  0  0  0  0
 25 26  1  0  0  0  0
 25 89  1  0  0  0  0
 25 90  1  0  0  0  0
 26 27  1  0  0  0  0
 26 91  1  0  0  0  0
 26 92  1  0  0  0  0
 27 28  1  0  0  0  0
 27 93  1  0  0  0  0
 27 94  1  0  0  0  0
 28 29  1  0  0  0  0
 28 95  1  0  0  0  0
 28 96  1  0  0  0  0
 29 30  1  0  0  0  0
 29 97  1  0  0  0  0
 29 98  1  0  0  0  0
 30 31  1  0  0  0  0
 30 99  1  0  0  0  0
 30100  1  0  0  0  0
 31 32  2  0  0  0  0
 31101  1  0  0  0  0
 32 33  1  0  0  0  0
 32102  1  0  0  0  0
 34 35  1  0  0  0  0
 34103  1  0  0  0  0
 34104  1  0  0  0  0
 35 36  1  0  0  0  0
 35105  1  0  0  0  0
 35106  1  0  0  0  0
 36 37  1  0  0  0  0
 36107  1  0  0  0  0
 36108  1  0  0  0  0
 37 38  1  0  0  0  0
 37109  1  0  0  0  0
 37110  1  0  0  0  0
 38 50  1  0  0  0  0
 38111  1  6  0  0  0
 40 39  1  1  0  0  0
 40 41  1  0  0  0  0
 40 42  1  0  0  0  0
 41112  1  0  0  0  0
 41113  1  0  0  0  0
 41114  1  0  0  0  0
 42115  1  0  0  0  0
 42116  1  0  0  0  0
 43 44  1  0  0  0  0
 44 45  2  0  0  0  0
 44 49  1  0  0  0  0
 45 46  1  0  0  0  0
 45117  1  0  0  0  0
 46 47  2  0  0  0  0
 46118  1  0  0  0  0
 47 48  1  0  0  0  0
 47119  1  0  0  0  0
 48 49  2  0  0  0  0
 48120  1  0  0  0  0
 51 52  1  0  0  0  0
 51 53  1  0  0  0  0
 51121  1  6  0  0  0
 52122  1  0  0  0  0
 52123  1  0  0  0  0
 52124  1  0  0  0  0
 53 54  1  0  0  0  0
 53125  1  0  0  0  0
 53126  1  0  0  0  0
 55 56  1  0  0  0  0
 55 60  1  0  0  0  0
 55127  1  6  0  0  0
 56 57  1  0  0  0  0
 56128  1  0  0  0  0
 56129  1  0  0  0  0
 57 58  1  0  0  0  0
 57130  1  0  0  0  0
 57131  1  0  0  0  0
 58 59  1  0  0  0  0
 58132  1  0  0  0  0
 58133  1  0  0  0  0
 59134  1  0  0  0  0
 59135  1  0  0  0  0
M  END
$$$$