/media/chris/experiments/cd1a-new-docking/inputs/ligands/7ryo_ligand.pdb
 OpenBabel07032304133D

135137  0  0  1  0  0  0  0  0999 V2000
  -38.4618   58.3450   63.9648 N   0  0  0  0  0  0  0  0  0  0  0  0
  -42.8348   64.4662   63.6564 C   0  0  0  0  0  0  0  0  0  0  0  0
  -37.0190   59.4178   65.3291 O   0  0  0  0  0  0  0  0  0  0  0  0
  -41.7507   63.5295   63.1919 C   0  0  0  0  0  0  0  0  0  0  0  0
  -33.1324   57.6580   60.0424 N   0  0  0  0  0  0  0  0  0  0  0  0
  -35.2034   57.7505   59.1729 O   0  0  0  0  0  0  0  0  0  0  0  0
  -41.9374   62.1062   63.6853 C   0  0  0  0  0  0  0  0  0  0  0  0
  -34.5838   59.8665   57.5491 N   0  0  0  0  0  0  0  0  0  0  0  0
  -32.8084   61.2004   57.9387 O   0  0  0  0  0  0  0  0  0  0  0  0
  -41.9693   61.9639   65.1985 C   0  0  0  0  0  0  0  0  0  0  0  0
  -30.8216   54.4392   62.6889 N   0  0  0  0  0  0  0  0  0  0  0  0
  -36.8773   61.4792   58.1896 O   0  0  0  0  0  0  0  0  0  0  0  0
  -43.1046   62.7368   65.8557 C   0  0  0  0  0  0  0  0  0  0  0  0
  -31.3663   51.0732   61.4777 N   0  0  0  0  0  0  0  0  0  0  0  0
  -35.1244   55.1625   60.3520 O   0  0  0  0  0  0  0  0  0  0  0  0
  -43.1366   62.6158   67.3714 C   0  0  0  0  0  0  0  0  0  0  0  0
  -32.9598   54.5796   60.5876 O   0  0  0  0  0  0  0  0  0  0  0  0
  -43.2833   61.1923   67.8802 C   0  0  0  0  0  0  0  0  0  0  0  0
  -32.1350   55.5759   64.1188 O   0  0  0  0  0  0  0  0  0  0  0  0
  -43.3321   61.0751   69.3948 C   0  0  0  0  0  0  0  0  0  0  0  0
  -31.1137   51.9412   63.5304 O   0  0  0  0  0  0  0  0  0  0  0  0
  -42.0941   61.6230   70.0768 C   0  0  0  0  0  0  0  0  0  0  0  0
  -41.8761   63.0979   69.7984 C   0  0  0  0  0  0  0  0  0  0  0  0
  -40.6378   63.6807   70.4494 C   0  0  0  0  0  0  0  0  0  0  0  0
  -40.4569   65.1592   70.1666 C   0  0  0  0  0  0  0  0  0  0  0  0
  -40.3414   65.4844   68.6865 C   0  0  0  0  0  0  0  0  0  0  0  0
  -39.1770   64.7910   68.0047 C   0  0  0  0  0  0  0  0  0  0  0  0
  -39.2386   63.2732   68.0480 C   0  0  0  0  0  0  0  0  0  0  0  0
  -38.0563   62.5974   67.3754 C   0  0  0  0  0  0  0  0  0  0  0  0
  -38.1213   61.0752   67.4008 C   0  0  0  0  0  0  0  0  0  0  0  0
  -39.3330   60.5603   66.6885 C   0  0  0  0  0  0  0  0  0  0  0  0
  -39.3752   59.7561   65.6349 C   0  0  0  0  0  0  0  0  0  0  0  0
  -38.1839   59.1898   64.9637 C   0  0  0  0  0  0  0  0  0  0  0  0
  -37.4201   57.6362   63.2386 C   0  0  0  0  0  0  0  0  0  0  0  0
  -36.9560   58.4330   62.0390 C   0  0  0  0  0  0  0  0  0  0  0  0
  -35.8780   57.7610   61.2090 C   0  0  0  0  0  0  0  0  0  0  0  0
  -34.6110   57.4590   62.0020 C   0  0  0  0  0  0  0  0  0  0  0  0
  -33.5311   56.7980   61.1441 C   0  0  1  0  0  0  0  0  0  0  0  0
  -34.0234   58.0662   59.1357 C   0  0  0  0  0  0  0  0  0  0  0  0
  -33.5145   58.9550   57.9889 C   0  0  1  0  0  0  0  0  0  0  0  0
  -33.1071   58.0653   56.8183 C   0  0  0  0  0  0  0  0  0  0  0  0
  -32.3769   59.8978   58.4081 C   0  0  0  0  0  0  0  0  0  0  0  0
  -34.1033   61.0405   57.5603 C   0  0  0  0  0  0  0  0  0  0  0  0
  -34.8133   62.2681   57.1933 C   0  0  0  0  0  0  0  0  0  0  0  0
  -34.1152   63.3429   56.6412 C   0  0  0  0  0  0  0  0  0  0  0  0
  -34.7181   64.5827   56.5175 C   0  0  0  0  0  0  0  0  0  0  0  0
  -36.0166   64.7722   56.9378 C   0  0  0  0  0  0  0  0  0  0  0  0
  -36.7290   63.7246   57.4925 C   0  0  0  0  0  0  0  0  0  0  0  0
  -36.1394   62.4715   57.6272 C   0  0  0  0  0  0  0  0  0  0  0  0
  -33.9929   55.4382   60.6419 C   0  0  0  0  0  0  0  0  0  0  0  0
  -33.0303   53.3605   61.3991 C   0  0  2  0  0  0  0  0  0  0  0  0
  -34.2309   52.5674   60.9483 C   0  0  0  0  0  0  0  0  0  0  0  0
  -33.1570   53.8332   62.8344 C   0  0  0  0  0  0  0  0  0  0  0  0
  -31.9943   54.6937   63.2765 C   0  0  0  0  0  0  0  0  0  0  0  0
  -30.6767   53.4012   61.6832 C   0  0  1  0  0  0  0  0  0  0  0  0
  -29.2219   53.3300   61.2056 C   0  0  0  0  0  0  0  0  0  0  0  0
  -29.0520   52.6173   59.8683 C   0  0  0  0  0  0  0  0  0  0  0  0
  -29.4801   51.1634   59.8459 C   0  0  0  0  0  0  0  0  0  0  0  0
  -30.9605   50.9492   60.0818 C   0  0  0  0  0  0  0  0  0  0  0  0
  -31.0713   52.0736   62.3108 C   0  0  0  0  0  0  0  0  0  0  0  0
  -39.4021   58.1983   63.7129 H   0  0  0  0  0  0  0  0  0  0  0  0
  -42.6448   65.4481   63.2760 H   0  0  0  0  0  0  0  0  0  0  0  0
  -42.8477   64.4944   64.7260 H   0  0  0  0  0  0  0  0  0  0  0  0
  -43.7820   64.1217   63.2973 H   0  0  0  0  0  0  0  0  0  0  0  0
  -40.8105   63.8931   63.5507 H   0  0  0  0  0  0  0  0  0  0  0  0
  -41.7905   63.5028   62.1230 H   0  0  0  0  0  0  0  0  0  0  0  0
  -32.1934   57.9432   59.9638 H   0  0  0  0  0  0  0  0  0  0  0  0
  -41.1290   61.5136   63.3107 H   0  0  0  0  0  0  0  0  0  0  0  0
  -42.8928   61.7826   63.3285 H   0  0  0  0  0  0  0  0  0  0  0  0
  -41.0417   62.3237   65.5925 H   0  0  0  0  0  0  0  0  0  0  0  0
  -42.1265   60.9279   65.4147 H   0  0  0  0  0  0  0  0  0  0  0  0
  -30.0332   54.9704   62.9449 H   0  0  0  0  0  0  0  0  0  0  0  0
  -36.5095   60.6239   58.2946 H   0  0  0  0  0  0  0  0  0  0  0  0
  -44.0314   62.3679   65.4687 H   0  0  0  0  0  0  0  0  0  0  0  0
  -42.9474   63.7709   65.6302 H   0  0  0  0  0  0  0  0  0  0  0  0
  -31.9153   50.3425   61.8436 H   0  0  0  0  0  0  0  0  0  0  0  0
  -43.9631   63.1892   67.7363 H   0  0  0  0  0  0  0  0  0  0  0  0
  -42.1935   62.9739   67.7282 H   0  0  0  0  0  0  0  0  0  0  0  0
  -42.4503   60.6217   67.5260 H   0  0  0  0  0  0  0  0  0  0  0  0
  -44.2202   60.8290   67.5128 H   0  0  0  0  0  0  0  0  0  0  0  0
  -43.4331   60.0416   69.6528 H   0  0  0  0  0  0  0  0  0  0  0  0
  -44.1644   61.6570   69.7319 H   0  0  0  0  0  0  0  0  0  0  0  0
  -41.2416   61.0791   69.7270 H   0  0  0  0  0  0  0  0  0  0  0  0
  -42.2300   61.5102   71.1321 H   0  0  0  0  0  0  0  0  0  0  0  0
  -42.7281   63.6360   70.1581 H   0  0  0  0  0  0  0  0  0  0  0  0
  -41.7391   63.1925   68.7415 H   0  0  0  0  0  0  0  0  0  0  0  0
  -39.7808   63.1563   70.0814 H   0  0  0  0  0  0  0  0  0  0  0  0
  -40.7515   63.5699   71.5075 H   0  0  0  0  0  0  0  0  0  0  0  0
  -39.5656   65.4911   70.6567 H   0  0  0  0  0  0  0  0  0  0  0  0
  -41.3306   65.6582   70.5308 H   0  0  0  0  0  0  0  0  0  0  0  0
  -40.2152   66.5416   68.5807 H   0  0  0  0  0  0  0  0  0  0  0  0
  -41.2362   65.1339   68.2161 H   0  0  0  0  0  0  0  0  0  0  0  0
  -38.2734   65.1032   68.4853 H   0  0  0  0  0  0  0  0  0  0  0  0
  -39.2175   65.0692   66.9723 H   0  0  0  0  0  0  0  0  0  0  0  0
  -40.1343   62.9568   67.5554 H   0  0  0  0  0  0  0  0  0  0  0  0
  -39.2186   62.9875   69.0789 H   0  0  0  0  0  0  0  0  0  0  0  0
  -37.1622   62.9052   67.8761 H   0  0  0  0  0  0  0  0  0  0  0  0
  -38.0723   62.8926   66.3470 H   0  0  0  0  0  0  0  0  0  0  0  0
  -38.1518   60.7465   68.4186 H   0  0  0  0  0  0  0  0  0  0  0  0
  -37.2545   60.6961   66.9010 H   0  0  0  0  0  0  0  0  0  0  0  0
  -40.2445   60.8680   67.0620 H   0  0  0  0  0  0  0  0  0  0  0  0
  -40.3029   59.5079   65.2569 H   0  0  0  0  0  0  0  0  0  0  0  0
  -37.8045   56.6947   62.9057 H   0  0  0  0  0  0  0  0  0  0  0  0
  -36.5868   57.4908   63.8939 H   0  0  0  0  0  0  0  0  0  0  0  0
  -36.5724   59.3687   62.3887 H   0  0  0  0  0  0  0  0  0  0  0  0
  -37.8072   58.5391   61.3994 H   0  0  0  0  0  0  0  0  0  0  0  0
  -35.6238   58.4067   60.3945 H   0  0  0  0  0  0  0  0  0  0  0  0
  -36.2729   56.8255   60.8717 H   0  0  0  0  0  0  0  0  0  0  0  0
  -34.8590   56.8018   62.8091 H   0  0  0  0  0  0  0  0  0  0  0  0
  -34.2203   58.3886   62.3599 H   0  0  0  0  0  0  0  0  0  0  0  0
  -32.6704   56.6456   61.7612 H   0  0  0  0  0  0  0  0  0  0  0  0
  -33.9232   57.4248   56.5562 H   0  0  0  0  0  0  0  0  0  0  0  0
  -32.2630   57.4707   57.0991 H   0  0  0  0  0  0  0  0  0  0  0  0
  -32.8494   58.6764   55.9787 H   0  0  0  0  0  0  0  0  0  0  0  0
  -32.2554   59.8979   59.4712 H   0  0  0  0  0  0  0  0  0  0  0  0
  -31.4307   59.6069   58.0019 H   0  0  0  0  0  0  0  0  0  0  0  0
  -33.1422   63.2124   56.3229 H   0  0  0  0  0  0  0  0  0  0  0  0
  -34.1918   65.3702   56.1078 H   0  0  0  0  0  0  0  0  0  0  0  0
  -36.4592   65.6992   56.8383 H   0  0  0  0  0  0  0  0  0  0  0  0
  -37.7005   63.8727   57.8074 H   0  0  0  0  0  0  0  0  0  0  0  0
  -32.1746   52.7255   61.3023 H   0  0  0  0  0  0  0  0  0  0  0  0
  -35.1096   53.1723   61.0312 H   0  0  0  0  0  0  0  0  0  0  0  0
  -34.3364   51.6989   61.5643 H   0  0  0  0  0  0  0  0  0  0  0  0
  -34.0987   52.2682   59.9295 H   0  0  0  0  0  0  0  0  0  0  0  0
  -33.2091   52.9760   63.4726 H   0  0  0  0  0  0  0  0  0  0  0  0
  -34.0414   54.4320   62.8979 H   0  0  0  0  0  0  0  0  0  0  0  0
  -31.3017   53.6185   60.8424 H   0  0  0  0  0  0  0  0  0  0  0  0
  -28.6492   52.8070   61.9427 H   0  0  0  0  0  0  0  0  0  0  0  0
  -28.8871   54.3371   61.0690 H   0  0  0  0  0  0  0  0  0  0  0  0
  -28.0169   52.6606   59.6007 H   0  0  0  0  0  0  0  0  0  0  0  0
  -29.6963   53.1244   59.1808 H   0  0  0  0  0  0  0  0  0  0  0  0
  -28.9398   50.6426   60.6086 H   0  0  0  0  0  0  0  0  0  0  0  0
  -29.2685   50.7954   58.8637 H   0  0  0  0  0  0  0  0  0  0  0  0
  -31.5002   51.6745   59.5094 H   0  0  0  0  0  0  0  0  0  0  0  0
  -31.1774   49.9440   59.7860 H   0  0  0  0  0  0  0  0  0  0  0  0
  1 33  1  0  0  0  0
  1 34  1  0  0  0  0
  1 61  1  0  0  0  0
  2  4  1  0  0  0  0
  2 62  1  0  0  0  0
  2 63  1  0  0  0  0
  2 64  1  0  0  0  0
  3 33  2  0  0  0  0
  4  7  1  0  0  0  0
  4 65  1  0  0  0  0
  4 66  1  0  0  0  0
  5 38  1  0  0  0  0
  5 39  1  0  0  0  0
  5 67  1  0  0  0  0
  6 39  2  0  0  0  0
  7 10  1  0  0  0  0
  7 68  1  0  0  0  0
  7 69  1  0  0  0  0
  8 40  1  0  0  0  0
  8 43  2  0  0  0  0
  9 42  1  0  0  0  0
  9 43  1  0  0  0  0
 10 13  1  0  0  0  0
 10 70  1  0  0  0  0
 10 71  1  0  0  0  0
 11 54  1  0  0  0  0
 11 55  1  0  0  0  0
 11 72  1  0  0  0  0
 12 49  1  0  0  0  0
 12 73  1  0  0  0  0
 13 16  1  0  0  0  0
 13 74  1  0  0  0  0
 13 75  1  0  0  0  0
 14 59  1  0  0  0  0
 14 60  1  0  0  0  0
 14 76  1  0  0  0  0
 15 50  2  0  0  0  0
 16 18  1  0  0  0  0
 16 77  1  0  0  0  0
 16 78  1  0  0  0  0
 17 50  1  0  0  0  0
 17 51  1  0  0  0  0
 18 20  1  0  0  0  0
 18 79  1  0  0  0  0
 18 80  1  0  0  0  0
 19 54  2  0  0  0  0
 20 22  1  0  0  0  0
 20 81  1  0  0  0  0
 20 82  1  0  0  0  0
 21 60  2  0  0  0  0
 22 23  1  0  0  0  0
 22 83  1  0  0  0  0
 22 84  1  0  0  0  0
 23 24  1  0  0  0  0
 23 85  1  0  0  0  0
 23 86  1  0  0  0  0
 24 25  1  0  0  0  0
 24 87  1  0  0  0  0
 24 88  1  0  0  0  0
 25 26  1  0  0  0  0
 25 89  1  0  0  0  0
 25 90  1  0  0  0  0
 26 27  1  0  0  0  0
 26 91  1  0  0  0  0
 26 92  1  0  0  0  0
 27 28  1  0  0  0  0
 27 93  1  0  0  0  0
 27 94  1  0  0  0  0
 28 29  1  0  0  0  0
 28 95  1  0  0  0  0
 28 96  1  0  0  0  0
 29 30  1  0  0  0  0
 29 97  1  0  0  0  0
 29 98  1  0  0  0  0
 30 31  1  0  0  0  0
 30 99  1  0  0  0  0
 30100  1  0  0  0  0
 31 32  2  0  0  0  0
 31101  1  0  0  0  0
 32 33  1  0  0  0  0
 32102  1  0  0  0  0
 34 35  1  0  0  0  0
 34103  1  0  0  0  0
 34104  1  0  0  0  0
 35 36  1  0  0  0  0
 35105  1  0  0  0  0
 35106  1  0  0  0  0
 36 37  1  0  0  0  0
 36107  1  0  0  0  0
 36108  1  0  0  0  0
 37 38  1  0  0  0  0
 37109  1  0  0  0  0
 37110  1  0  0  0  0
 38 50  1  0  0  0  0
 38111  1  1  0  0  0
 40 39  1  1  0  0  0
 40 41  1  0  0  0  0
 40 42  1  0  0  0  0
 41112  1  0  0  0  0
 41113  1  0  0  0  0
 41114  1  0  0  0  0
 42115  1  0  0  0  0
 42116  1  0  0  0  0
 43 44  1  0  0  0  0
 44 45  2  0  0  0  0
 44 49  1  0  0  0  0
 45 46  1  0  0  0  0
 45117  1  0  0  0  0
 46 47  2  0  0  0  0
 46118  1  0  0  0  0
 47 48  1  0  0  0  0
 47119  1  0  0  0  0
 48 49  2  0  0  0  0
 48120  1  0  0  0  0
 51 52  1  0  0  0  0
 51 53  1  0  0  0  0
 51121  1  6  0  0  0
 52122  1  0  0  0  0
 52123  1  0  0  0  0
 52124  1  0  0  0  0
 53 54  1  0  0  0  0
 53125  1  0  0  0  0
 53126  1  0  0  0  0
 55 56  1  0  0  0  0
 55 60  1  0  0  0  0
 55127  1  6  0  0  0
 56 57  1  0  0  0  0
 56128  1  0  0  0  0
 56129  1  0  0  0  0
 57 58  1  0  0  0  0
 57130  1  0  0  0  0
 57131  1  0  0  0  0
 58 59  1  0  0  0  0
 58132  1  0  0  0  0
 58133  1  0  0  0  0
 59134  1  0  0  0  0
 59135  1  0  0  0  0
M  END
$$$$