/media/chris/experiments/cd1a-new-docking/inputs/ligands/7ryo_ligand.pdb
 OpenBabel07032304133D

135137  0  0  1  0  0  0  0  0999 V2000
  -39.2043   59.3899   62.1545 N   0  0  0  0  0  0  0  0  0  0  0  0
  -38.5665   51.0230   70.6351 C   0  0  0  0  0  0  0  0  0  0  0  0
  -39.2782   57.6966   63.6448 O   0  0  0  0  0  0  0  0  0  0  0  0
  -38.1166   51.3990   72.0224 C   0  0  0  0  0  0  0  0  0  0  0  0
  -35.3848   55.2330   62.7177 N   0  0  0  0  0  0  0  0  0  0  0  0
  -33.5600   54.7745   61.4873 O   0  0  0  0  0  0  0  0  0  0  0  0
  -36.8551   52.2430   72.0346 C   0  0  0  0  0  0  0  0  0  0  0  0
  -36.5433   53.3953   60.7058 N   0  0  0  0  0  0  0  0  0  0  0  0
  -35.3403   52.0560   59.3485 O   0  0  0  0  0  0  0  0  0  0  0  0
  -35.6491   51.5814   71.3873 C   0  0  0  0  0  0  0  0  0  0  0  0
  -36.9133   62.6543   64.7251 N   0  0  0  0  0  0  0  0  0  0  0  0
  -35.8485   52.1809   56.8534 O   0  0  0  0  0  0  0  0  0  0  0  0
  -35.8583   51.2472   69.9167 C   0  0  0  0  0  0  0  0  0  0  0  0
  -37.6738   64.9484   67.4181 N   0  0  0  0  0  0  0  0  0  0  0  0
  -36.1056   56.6655   65.2470 O   0  0  0  0  0  0  0  0  0  0  0  0
  -36.1397   52.4596   69.0427 C   0  0  0  0  0  0  0  0  0  0  0  0
  -36.2688   58.3271   63.7327 O   0  0  0  0  0  0  0  0  0  0  0  0
  -37.3742   53.2465   69.4471 C   0  0  0  0  0  0  0  0  0  0  0  0
  -34.7288   62.5115   64.2063 O   0  0  0  0  0  0  0  0  0  0  0  0
  -37.6634   54.4480   68.5621 C   0  0  0  0  0  0  0  0  0  0  0  0
  -38.8182   63.2719   66.4639 O   0  0  0  0  0  0  0  0  0  0  0  0
  -38.8895   55.2275   68.9946 C   0  0  0  0  0  0  0  0  0  0  0  0
  -40.1503   54.3845   68.9929 C   0  0  0  0  0  0  0  0  0  0  0  0
  -41.4029   55.1321   69.4036 C   0  0  0  0  0  0  0  0  0  0  0  0
  -41.7278   56.2965   68.4885 C   0  0  0  0  0  0  0  0  0  0  0  0
  -42.9730   57.0638   68.9012 C   0  0  0  0  0  0  0  0  0  0  0  0
  -43.3061   58.2181   67.9748 C   0  0  0  0  0  0  0  0  0  0  0  0
  -43.5811   57.8091   66.5373 C   0  0  0  0  0  0  0  0  0  0  0  0
  -42.4165   57.0929   65.8757 C   0  0  0  0  0  0  0  0  0  0  0  0
  -41.1357   57.9170   65.8254 C   0  0  0  0  0  0  0  0  0  0  0  0
  -41.3298   59.1976   65.0751 C   0  0  0  0  0  0  0  0  0  0  0  0
  -40.6964   59.6030   63.9828 C   0  0  0  0  0  0  0  0  0  0  0  0
  -39.6580   58.8202   63.2762 C   0  0  0  0  0  0  0  0  0  0  0  0
  -38.2360   58.7337   61.2903 C   0  0  0  0  0  0  0  0  0  0  0  0
  -36.9560   58.4330   62.0390 C   0  0  0  0  0  0  0  0  0  0  0  0
  -35.8780   57.7610   61.2090 C   0  0  0  0  0  0  0  0  0  0  0  0
  -34.6110   57.4590   62.0020 C   0  0  0  0  0  0  0  0  0  0  0  0
  -34.8704   56.5130   63.1754 C   0  0  1  0  0  0  0  0  0  0  0  0
  -34.6680   54.4615   61.8968 C   0  0  0  0  0  0  0  0  0  0  0  0
  -35.2951   53.1335   61.4412 C   0  0  1  0  0  0  0  0  0  0  0  0
  -35.6111   52.2890   62.6720 C   0  0  0  0  0  0  0  0  0  0  0  0
  -34.4283   52.3651   60.4328 C   0  0  0  0  0  0  0  0  0  0  0  0
  -36.4640   52.7764   59.6012 C   0  0  0  0  0  0  0  0  0  0  0  0
  -37.4833   52.7520   58.5494 C   0  0  0  0  0  0  0  0  0  0  0  0
  -38.8332   52.8801   58.8789 C   0  0  0  0  0  0  0  0  0  0  0  0
  -39.8138   52.6170   57.9379 C   0  0  0  0  0  0  0  0  0  0  0  0
  -39.4697   52.2250   56.6625 C   0  0  0  0  0  0  0  0  0  0  0  0
  -38.1391   52.0861   56.3118 C   0  0  0  0  0  0  0  0  0  0  0  0
  -37.1392   52.3440   57.2443 C   0  0  0  0  0  0  0  0  0  0  0  0
  -35.8061   57.1511   64.1912 C   0  0  0  0  0  0  0  0  0  0  0  0
  -35.9836   59.5345   64.5141 C   0  0  2  0  0  0  0  0  0  0  0  0
  -36.9730   59.6010   65.6500 C   0  0  0  0  0  0  0  0  0  0  0  0
  -36.1375   60.6918   63.5465 C   0  0  0  0  0  0  0  0  0  0  0  0
  -35.8600   62.0348   64.1846 C   0  0  0  0  0  0  0  0  0  0  0  0
  -36.7912   63.9446   65.3807 C   0  0  1  0  0  0  0  0  0  0  0  0
  -37.0100   65.0733   64.3670 C   0  0  0  0  0  0  0  0  0  0  0  0
  -36.4693   66.4224   64.8283 C   0  0  0  0  0  0  0  0  0  0  0  0
  -37.1005   66.9810   66.0882 C   0  0  0  0  0  0  0  0  0  0  0  0
  -36.8500   66.1492   67.3286 C   0  0  0  0  0  0  0  0  0  0  0  0
  -37.8499   64.0264   66.4690 C   0  0  0  0  0  0  0  0  0  0  0  0
  -39.5365   60.2827   61.9057 H   0  0  0  0  0  0  0  0  0  0  0  0
  -39.4561   50.4316   70.6966 H   0  0  0  0  0  0  0  0  0  0  0  0
  -37.7965   50.4596   70.1508 H   0  0  0  0  0  0  0  0  0  0  0  0
  -38.7666   51.9107   70.0722 H   0  0  0  0  0  0  0  0  0  0  0  0
  -37.9304   50.5014   72.5743 H   0  0  0  0  0  0  0  0  0  0  0  0
  -38.8960   51.9865   72.4608 H   0  0  0  0  0  0  0  0  0  0  0  0
  -36.2728   54.9310   63.0167 H   0  0  0  0  0  0  0  0  0  0  0  0
  -36.6096   52.4629   73.0526 H   0  0  0  0  0  0  0  0  0  0  0  0
  -37.0685   53.1187   71.4579 H   0  0  0  0  0  0  0  0  0  0  0  0
  -35.4365   50.6747   71.9141 H   0  0  0  0  0  0  0  0  0  0  0  0
  -34.8401   52.2797   71.4401 H   0  0  0  0  0  0  0  0  0  0  0  0
  -37.7974   62.2238   64.6776 H   0  0  0  0  0  0  0  0  0  0  0  0
  -35.1516   52.3464   57.4575 H   0  0  0  0  0  0  0  0  0  0  0  0
  -36.6878   50.5759   69.8386 H   0  0  0  0  0  0  0  0  0  0  0  0
  -34.9452   50.8153   69.5636 H   0  0  0  0  0  0  0  0  0  0  0  0
  -38.1497   64.8028   68.2676 H   0  0  0  0  0  0  0  0  0  0  0  0
  -36.2712   52.1236   68.0353 H   0  0  0  0  0  0  0  0  0  0  0  0
  -35.3047   53.1193   69.1545 H   0  0  0  0  0  0  0  0  0  0  0  0
  -37.2377   53.5933   70.4500 H   0  0  0  0  0  0  0  0  0  0  0  0
  -38.2082   52.5834   69.3482 H   0  0  0  0  0  0  0  0  0  0  0  0
  -37.8151   54.1038   67.5604 H   0  0  0  0  0  0  0  0  0  0  0  0
  -36.8244   55.1077   68.6379 H   0  0  0  0  0  0  0  0  0  0  0  0
  -39.0266   56.0496   68.3236 H   0  0  0  0  0  0  0  0  0  0  0  0
  -38.7240   55.5589   69.9984 H   0  0  0  0  0  0  0  0  0  0  0  0
  -40.0090   53.5696   69.6717 H   0  0  0  0  0  0  0  0  0  0  0  0
  -40.3025   54.0643   67.9833 H   0  0  0  0  0  0  0  0  0  0  0  0
  -41.2656   55.5072   70.3962 H   0  0  0  0  0  0  0  0  0  0  0  0
  -42.2194   54.4430   69.3451 H   0  0  0  0  0  0  0  0  0  0  0  0
  -41.8759   55.9181   67.4987 H   0  0  0  0  0  0  0  0  0  0  0  0
  -40.9053   56.9787   68.5437 H   0  0  0  0  0  0  0  0  0  0  0  0
  -42.8202   57.4530   69.8861 H   0  0  0  0  0  0  0  0  0  0  0  0
  -43.7938   56.3787   68.8589 H   0  0  0  0  0  0  0  0  0  0  0  0
  -42.4802   58.8984   67.9772 H   0  0  0  0  0  0  0  0  0  0  0  0
  -44.2087   58.6571   68.3457 H   0  0  0  0  0  0  0  0  0  0  0  0
  -43.8022   58.6899   65.9714 H   0  0  0  0  0  0  0  0  0  0  0  0
  -44.4012   57.1222   66.5579 H   0  0  0  0  0  0  0  0  0  0  0  0
  -42.6980   56.8458   64.8734 H   0  0  0  0  0  0  0  0  0  0  0  0
  -42.2066   56.2268   66.4677 H   0  0  0  0  0  0  0  0  0  0  0  0
  -40.3733   57.3435   65.3410 H   0  0  0  0  0  0  0  0  0  0  0  0
  -40.8549   58.1581   66.8294 H   0  0  0  0  0  0  0  0  0  0  0  0
  -42.0416   59.8421   65.4531 H   0  0  0  0  0  0  0  0  0  0  0  0
  -40.9447   60.5282   63.5990 H   0  0  0  0  0  0  0  0  0  0  0  0
  -38.0148   59.3748   60.4627 H   0  0  0  0  0  0  0  0  0  0  0  0
  -38.6554   57.8106   60.9484 H   0  0  0  0  0  0  0  0  0  0  0  0
  -37.1937   57.7896   62.8603 H   0  0  0  0  0  0  0  0  0  0  0  0
  -36.5565   59.3772   62.3453 H   0  0  0  0  0  0  0  0  0  0  0  0
  -35.6238   58.4067   60.3945 H   0  0  0  0  0  0  0  0  0  0  0  0
  -36.2729   56.8255   60.8717 H   0  0  0  0  0  0  0  0  0  0  0  0
  -34.2161   58.3779   62.3821 H   0  0  0  0  0  0  0  0  0  0  0  0
  -33.9192   56.9787   61.3420 H   0  0  0  0  0  0  0  0  0  0  0  0
  -33.9347   56.3288   63.6606 H   0  0  0  0  0  0  0  0  0  0  0  0
  -36.2146   52.8569   63.3489 H   0  0  0  0  0  0  0  0  0  0  0  0
  -34.6989   52.0091   63.1563 H   0  0  0  0  0  0  0  0  0  0  0  0
  -36.1413   51.4087   62.3739 H   0  0  0  0  0  0  0  0  0  0  0  0
  -33.6184   52.9728   60.0868 H   0  0  0  0  0  0  0  0  0  0  0  0
  -33.9817   51.4901   60.8569 H   0  0  0  0  0  0  0  0  0  0  0  0
  -39.1025   53.1732   59.8311 H   0  0  0  0  0  0  0  0  0  0  0  0
  -40.8089   52.7150   58.1932 H   0  0  0  0  0  0  0  0  0  0  0  0
  -40.2075   52.0344   55.9666 H   0  0  0  0  0  0  0  0  0  0  0  0
  -37.8872   51.7903   55.3557 H   0  0  0  0  0  0  0  0  0  0  0  0
  -35.0039   59.5511   64.9439 H   0  0  0  0  0  0  0  0  0  0  0  0
  -37.9683   59.5864   65.2574 H   0  0  0  0  0  0  0  0  0  0  0  0
  -36.8209   60.5043   66.2031 H   0  0  0  0  0  0  0  0  0  0  0  0
  -36.8319   58.7595   66.2956 H   0  0  0  0  0  0  0  0  0  0  0  0
  -37.1398   60.6926   63.1720 H   0  0  0  0  0  0  0  0  0  0  0  0
  -35.4199   60.5539   62.7649 H   0  0  0  0  0  0  0  0  0  0  0  0
  -35.8129   64.0487   65.8014 H   0  0  0  0  0  0  0  0  0  0  0  0
  -38.0611   65.1721   64.1925 H   0  0  0  0  0  0  0  0  0  0  0  0
  -36.4732   64.8070   63.4805 H   0  0  0  0  0  0  0  0  0  0  0  0
  -36.6268   67.1281   64.0396 H   0  0  0  0  0  0  0  0  0  0  0  0
  -35.4377   66.2614   65.0626 H   0  0  0  0  0  0  0  0  0  0  0  0
  -38.1575   67.0443   65.9344 H   0  0  0  0  0  0  0  0  0  0  0  0
  -36.6492   67.9355   66.2614 H   0  0  0  0  0  0  0  0  0  0  0  0
  -35.8220   65.8523   67.3319 H   0  0  0  0  0  0  0  0  0  0  0  0
  -37.1063   66.7620   68.1675 H   0  0  0  0  0  0  0  0  0  0  0  0
  1 33  1  0  0  0  0
  1 34  1  0  0  0  0
  1 61  1  0  0  0  0
  2  4  1  0  0  0  0
  2 62  1  0  0  0  0
  2 63  1  0  0  0  0
  2 64  1  0  0  0  0
  3 33  2  0  0  0  0
  4  7  1  0  0  0  0
  4 65  1  0  0  0  0
  4 66  1  0  0  0  0
  5 38  1  0  0  0  0
  5 39  1  0  0  0  0
  5 67  1  0  0  0  0
  6 39  2  0  0  0  0
  7 10  1  0  0  0  0
  7 68  1  0  0  0  0
  7 69  1  0  0  0  0
  8 40  1  0  0  0  0
  8 43  2  0  0  0  0
  9 42  1  0  0  0  0
  9 43  1  0  0  0  0
 10 13  1  0  0  0  0
 10 70  1  0  0  0  0
 10 71  1  0  0  0  0
 11 54  1  0  0  0  0
 11 55  1  0  0  0  0
 11 72  1  0  0  0  0
 12 49  1  0  0  0  0
 12 73  1  0  0  0  0
 13 16  1  0  0  0  0
 13 74  1  0  0  0  0
 13 75  1  0  0  0  0
 14 59  1  0  0  0  0
 14 60  1  0  0  0  0
 14 76  1  0  0  0  0
 15 50  2  0  0  0  0
 16 18  1  0  0  0  0
 16 77  1  0  0  0  0
 16 78  1  0  0  0  0
 17 50  1  0  0  0  0
 17 51  1  0  0  0  0
 18 20  1  0  0  0  0
 18 79  1  0  0  0  0
 18 80  1  0  0  0  0
 19 54  2  0  0  0  0
 20 22  1  0  0  0  0
 20 81  1  0  0  0  0
 20 82  1  0  0  0  0
 21 60  2  0  0  0  0
 22 23  1  0  0  0  0
 22 83  1  0  0  0  0
 22 84  1  0  0  0  0
 23 24  1  0  0  0  0
 23 85  1  0  0  0  0
 23 86  1  0  0  0  0
 24 25  1  0  0  0  0
 24 87  1  0  0  0  0
 24 88  1  0  0  0  0
 25 26  1  0  0  0  0
 25 89  1  0  0  0  0
 25 90  1  0  0  0  0
 26 27  1  0  0  0  0
 26 91  1  0  0  0  0
 26 92  1  0  0  0  0
 27 28  1  0  0  0  0
 27 93  1  0  0  0  0
 27 94  1  0  0  0  0
 28 29  1  0  0  0  0
 28 95  1  0  0  0  0
 28 96  1  0  0  0  0
 29 30  1  0  0  0  0
 29 97  1  0  0  0  0
 29 98  1  0  0  0  0
 30 31  1  0  0  0  0
 30 99  1  0  0  0  0
 30100  1  0  0  0  0
 31 32  2  0  0  0  0
 31101  1  0  0  0  0
 32 33  1  0  0  0  0
 32102  1  0  0  0  0
 34 35  1  0  0  0  0
 34103  1  0  0  0  0
 34104  1  0  0  0  0
 35 36  1  0  0  0  0
 35105  1  0  0  0  0
 35106  1  0  0  0  0
 36 37  1  0  0  0  0
 36107  1  0  0  0  0
 36108  1  0  0  0  0
 37 38  1  0  0  0  0
 37109  1  0  0  0  0
 37110  1  0  0  0  0
 38 50  1  0  0  0  0
 38111  1  1  0  0  0
 40 39  1  1  0  0  0
 40 41  1  0  0  0  0
 40 42  1  0  0  0  0
 41112  1  0  0  0  0
 41113  1  0  0  0  0
 41114  1  0  0  0  0
 42115  1  0  0  0  0
 42116  1  0  0  0  0
 43 44  1  0  0  0  0
 44 45  2  0  0  0  0
 44 49  1  0  0  0  0
 45 46  1  0  0  0  0
 45117  1  0  0  0  0
 46 47  2  0  0  0  0
 46118  1  0  0  0  0
 47 48  1  0  0  0  0
 47119  1  0  0  0  0
 48 49  2  0  0  0  0
 48120  1  0  0  0  0
 51 52  1  0  0  0  0
 51 53  1  0  0  0  0
 51121  1  1  0  0  0
 52122  1  0  0  0  0
 52123  1  0  0  0  0
 52124  1  0  0  0  0
 53 54  1  0  0  0  0
 53125  1  0  0  0  0
 53126  1  0  0  0  0
 55 56  1  0  0  0  0
 55 60  1  0  0  0  0
 55127  1  1  0  0  0
 56 57  1  0  0  0  0
 56128  1  0  0  0  0
 56129  1  0  0  0  0
 57 58  1  0  0  0  0
 57130  1  0  0  0  0
 57131  1  0  0  0  0
 58 59  1  0  0  0  0
 58132  1  0  0  0  0
 58133  1  0  0  0  0
 59134  1  0  0  0  0
 59135  1  0  0  0  0
M  END
$$$$