/media/chris/experiments/cd1a-new-docking/inputs/ligands/7ryo_ligand.pdb
 OpenBabel07032304133D

135137  0  0  1  0  0  0  0  0999 V2000
  -39.2043   59.3899   62.1545 N   0  0  0  0  0  0  0  0  0  0  0  0
  -43.1760   62.0220   57.4706 C   0  0  0  0  0  0  0  0  0  0  0  0
  -40.9220   60.8288   62.4244 O   0  0  0  0  0  0  0  0  0  0  0  0
  -41.8937   62.5428   56.8763 C   0  0  0  0  0  0  0  0  0  0  0  0
  -33.1324   57.6580   60.0424 N   0  0  0  0  0  0  0  0  0  0  0  0
  -30.9871   57.7601   60.7067 O   0  0  0  0  0  0  0  0  0  0  0  0
  -42.0672   63.1052   55.4772 C   0  0  0  0  0  0  0  0  0  0  0  0
  -32.4345   58.7123   57.6086 N   0  0  0  0  0  0  0  0  0  0  0  0
  -32.5874   60.9396   57.9228 O   0  0  0  0  0  0  0  0  0  0  0  0
  -43.0263   64.2811   55.3862 C   0  0  0  0  0  0  0  0  0  0  0  0
  -38.4120   53.7408   62.5705 N   0  0  0  0  0  0  0  0  0  0  0  0
  -33.7980   62.4213   56.3716 O   0  0  0  0  0  0  0  0  0  0  0  0
  -44.4350   63.9519   55.8610 C   0  0  0  0  0  0  0  0  0  0  0  0
  -40.5757   55.7929   64.6201 N   0  0  0  0  0  0  0  0  0  0  0  0
  -33.3116   54.6686   60.0224 O   0  0  0  0  0  0  0  0  0  0  0  0
  -45.4081   65.1162   55.7588 C   0  0  0  0  0  0  0  0  0  0  0  0
  -35.2791   55.2259   60.9704 O   0  0  0  0  0  0  0  0  0  0  0  0
  -44.9998   66.3419   56.5575 C   0  0  0  0  0  0  0  0  0  0  0  0
  -36.8881   52.6490   61.3265 O   0  0  0  0  0  0  0  0  0  0  0  0
  -44.8473   66.0900   58.0486 C   0  0  0  0  0  0  0  0  0  0  0  0
  -40.1781   53.5868   64.5430 O   0  0  0  0  0  0  0  0  0  0  0  0
  -44.4562   67.3305   58.8273 C   0  0  0  0  0  0  0  0  0  0  0  0
  -44.2905   67.0629   60.3109 C   0  0  0  0  0  0  0  0  0  0  0  0
  -43.2171   66.0472   60.6470 C   0  0  0  0  0  0  0  0  0  0  0  0
  -43.0876   65.7891   62.1354 C   0  0  0  0  0  0  0  0  0  0  0  0
  -42.0022   64.7844   62.4850 C   0  0  0  0  0  0  0  0  0  0  0  0
  -40.6150   65.2175   62.0492 C   0  0  0  0  0  0  0  0  0  0  0  0
  -39.5158   64.2196   62.3738 C   0  0  0  0  0  0  0  0  0  0  0  0
  -39.7067   62.8673   61.7091 C   0  0  0  0  0  0  0  0  0  0  0  0
  -39.7263   62.9273   60.1866 C   0  0  0  0  0  0  0  0  0  0  0  0
  -39.9336   61.5741   59.5813 C   0  0  0  0  0  0  0  0  0  0  0  0
  -40.0893   60.4176   60.2115 C   0  0  0  0  0  0  0  0  0  0  0  0
  -40.1043   60.2597   61.6829 C   0  0  0  0  0  0  0  0  0  0  0  0
  -38.2360   58.7337   61.2903 C   0  0  0  0  0  0  0  0  0  0  0  0
  -36.9560   58.4330   62.0390 C   0  0  0  0  0  0  0  0  0  0  0  0
  -35.8780   57.7610   61.2090 C   0  0  0  0  0  0  0  0  0  0  0  0
  -34.6110   57.4590   62.0020 C   0  0  0  0  0  0  0  0  0  0  0  0
  -33.5311   56.7980   61.1441 C   0  0  1  0  0  0  0  0  0  0  0  0
  -31.8686   58.0712   59.9196 C   0  0  0  0  0  0  0  0  0  0  0  0
  -31.5354   58.9980   58.7389 C   0  0  1  0  0  0  0  0  0  0  0  0
  -30.0949   58.7453   58.3042 C   0  0  0  0  0  0  0  0  0  0  0  0
  -31.7849   60.4830   59.0411 C   0  0  0  0  0  0  0  0  0  0  0  0
  -32.9475   59.8157   57.2499 C   0  0  0  0  0  0  0  0  0  0  0  0
  -33.9039   60.0093   56.1574 C   0  0  0  0  0  0  0  0  0  0  0  0
  -34.3325   58.9184   55.4000 C   0  0  0  0  0  0  0  0  0  0  0  0
  -35.0363   59.1131   54.2240 C   0  0  0  0  0  0  0  0  0  0  0  0
  -35.3234   60.3875   53.7855 C   0  0  0  0  0  0  0  0  0  0  0  0
  -34.9060   61.4856   54.5153 C   0  0  0  0  0  0  0  0  0  0  0  0
  -34.1957   61.3103   55.6987 C   0  0  0  0  0  0  0  0  0  0  0  0
  -33.9929   55.4382   60.6419 C   0  0  0  0  0  0  0  0  0  0  0  0
  -36.2431   55.0100   59.8870 C   0  0  2  0  0  0  0  0  0  0  0  0
  -36.2272   56.2274   58.9974 C   0  0  0  0  0  0  0  0  0  0  0  0
  -37.5833   54.8104   60.5677 C   0  0  0  0  0  0  0  0  0  0  0  0
  -37.5913   53.6365   61.5214 C   0  0  0  0  0  0  0  0  0  0  0  0
  -39.2480   54.9104   62.7773 C   0  0  1  0  0  0  0  0  0  0  0  0
  -40.2123   55.0836   61.5984 C   0  0  0  0  0  0  0  0  0  0  0  0
  -40.7988   56.4870   61.4898 C   0  0  0  0  0  0  0  0  0  0  0  0
  -41.6350   56.9369   62.6713 C   0  0  0  0  0  0  0  0  0  0  0  0
  -40.8603   57.0657   63.9661 C   0  0  0  0  0  0  0  0  0  0  0  0
  -40.0421   54.7062   64.0578 C   0  0  0  0  0  0  0  0  0  0  0  0
  -39.1971   59.1874   63.1179 H   0  0  0  0  0  0  0  0  0  0  0  0
  -42.9855   61.6417   58.4524 H   0  0  0  0  0  0  0  0  0  0  0  0
  -43.5626   61.2382   56.8533 H   0  0  0  0  0  0  0  0  0  0  0  0
  -43.8908   62.8161   57.5282 H   0  0  0  0  0  0  0  0  0  0  0  0
  -41.1876   61.7400   56.8349 H   0  0  0  0  0  0  0  0  0  0  0  0
  -41.5564   63.3435   57.5009 H   0  0  0  0  0  0  0  0  0  0  0  0
  -33.8025   57.9396   59.3784 H   0  0  0  0  0  0  0  0  0  0  0  0
  -42.4354   62.3236   54.8459 H   0  0  0  0  0  0  0  0  0  0  0  0
  -41.1080   63.4699   55.1742 H   0  0  0  0  0  0  0  0  0  0  0  0
  -43.0780   64.5982   54.3656 H   0  0  0  0  0  0  0  0  0  0  0  0
  -42.6476   65.0476   56.0297 H   0  0  0  0  0  0  0  0  0  0  0  0
  -38.4512   53.0038   63.2221 H   0  0  0  0  0  0  0  0  0  0  0  0
  -33.3178   62.3375   57.1719 H   0  0  0  0  0  0  0  0  0  0  0  0
  -44.3823   63.6459   56.8850 H   0  0  0  0  0  0  0  0  0  0  0  0
  -44.8061   63.1799   55.2198 H   0  0  0  0  0  0  0  0  0  0  0  0
  -40.8008   55.7288   65.5764 H   0  0  0  0  0  0  0  0  0  0  0  0
  -46.3627   64.7876   56.1133 H   0  0  0  0  0  0  0  0  0  0  0  0
  -45.4265   65.4118   54.7306 H   0  0  0  0  0  0  0  0  0  0  0  0
  -45.7455   67.0966   56.4189 H   0  0  0  0  0  0  0  0  0  0  0  0
  -44.0378   66.6390   56.1954 H   0  0  0  0  0  0  0  0  0  0  0  0
  -44.0918   65.3461   58.1923 H   0  0  0  0  0  0  0  0  0  0  0  0
  -45.8004   65.7715   58.4162 H   0  0  0  0  0  0  0  0  0  0  0  0
  -45.2172   68.0711   58.6960 H   0  0  0  0  0  0  0  0  0  0  0  0
  -43.5111   67.6629   58.4516 H   0  0  0  0  0  0  0  0  0  0  0  0
  -45.2232   66.7031   60.6924 H   0  0  0  0  0  0  0  0  0  0  0  0
  -43.9869   67.9873   60.7562 H   0  0  0  0  0  0  0  0  0  0  0  0
  -42.2791   66.4094   60.2813 H   0  0  0  0  0  0  0  0  0  0  0  0
  -43.4970   65.1229   60.1862 H   0  0  0  0  0  0  0  0  0  0  0  0
  -44.0231   65.4164   62.4971 H   0  0  0  0  0  0  0  0  0  0  0  0
  -42.8159   66.7174   62.5930 H   0  0  0  0  0  0  0  0  0  0  0  0
  -42.2332   63.8557   62.0064 H   0  0  0  0  0  0  0  0  0  0  0  0
  -41.9848   64.6976   63.5513 H   0  0  0  0  0  0  0  0  0  0  0  0
  -40.3837   66.1410   62.5376 H   0  0  0  0  0  0  0  0  0  0  0  0
  -40.6430   65.3054   60.9832 H   0  0  0  0  0  0  0  0  0  0  0  0
  -39.4922   64.0752   63.4338 H   0  0  0  0  0  0  0  0  0  0  0  0
  -38.6007   64.6275   61.9983 H   0  0  0  0  0  0  0  0  0  0  0  0
  -40.6365   62.4559   62.0424 H   0  0  0  0  0  0  0  0  0  0  0  0
  -38.8684   62.2629   61.9862 H   0  0  0  0  0  0  0  0  0  0  0  0
  -38.7927   63.3214   59.8431 H   0  0  0  0  0  0  0  0  0  0  0  0
  -40.5405   63.5542   59.8881 H   0  0  0  0  0  0  0  0  0  0  0  0
  -39.9582   61.5365   58.5503 H   0  0  0  0  0  0  0  0  0  0  0  0
  -40.2084   59.5693   59.6360 H   0  0  0  0  0  0  0  0  0  0  0  0
  -38.0148   59.3748   60.4627 H   0  0  0  0  0  0  0  0  0  0  0  0
  -38.6554   57.8106   60.9484 H   0  0  0  0  0  0  0  0  0  0  0  0
  -37.1937   57.7896   62.8603 H   0  0  0  0  0  0  0  0  0  0  0  0
  -36.5565   59.3772   62.3453 H   0  0  0  0  0  0  0  0  0  0  0  0
  -35.6238   58.4067   60.3945 H   0  0  0  0  0  0  0  0  0  0  0  0
  -36.2729   56.8255   60.8717 H   0  0  0  0  0  0  0  0  0  0  0  0
  -34.8590   56.8018   62.8091 H   0  0  0  0  0  0  0  0  0  0  0  0
  -34.2203   58.3886   62.3599 H   0  0  0  0  0  0  0  0  0  0  0  0
  -32.6704   56.6456   61.7612 H   0  0  0  0  0  0  0  0  0  0  0  0
  -29.9606   57.7030   58.1033 H   0  0  0  0  0  0  0  0  0  0  0  0
  -29.4286   59.0467   59.0853 H   0  0  0  0  0  0  0  0  0  0  0  0
  -29.8852   59.3091   57.4193 H   0  0  0  0  0  0  0  0  0  0  0  0
  -32.3160   60.5993   59.9627 H   0  0  0  0  0  0  0  0  0  0  0  0
  -30.8772   61.0388   59.1502 H   0  0  0  0  0  0  0  0  0  0  0  0
  -34.1233   57.9595   55.7189 H   0  0  0  0  0  0  0  0  0  0  0  0
  -35.3480   58.2987   53.6722 H   0  0  0  0  0  0  0  0  0  0  0  0
  -35.8517   60.5229   52.9094 H   0  0  0  0  0  0  0  0  0  0  0  0
  -35.1221   62.4378   54.1811 H   0  0  0  0  0  0  0  0  0  0  0  0
  -36.0210   54.1632   59.2717 H   0  0  0  0  0  0  0  0  0  0  0  0
  -36.4460   57.0978   59.5800 H   0  0  0  0  0  0  0  0  0  0  0  0
  -36.9642   56.1176   58.2294 H   0  0  0  0  0  0  0  0  0  0  0  0
  -35.2600   56.3306   58.5514 H   0  0  0  0  0  0  0  0  0  0  0  0
  -38.3265   54.6445   59.8160 H   0  0  0  0  0  0  0  0  0  0  0  0
  -37.7859   55.6908   61.1412 H   0  0  0  0  0  0  0  0  0  0  0  0
  -38.6379   55.7863   62.8506 H   0  0  0  0  0  0  0  0  0  0  0  0
  -41.0176   54.3887   61.7153 H   0  0  0  0  0  0  0  0  0  0  0  0
  -39.6500   54.9088   60.7051 H   0  0  0  0  0  0  0  0  0  0  0  0
  -41.4167   56.5196   60.6169 H   0  0  0  0  0  0  0  0  0  0  0  0
  -39.9624   57.1532   61.4506 H   0  0  0  0  0  0  0  0  0  0  0  0
  -42.4190   56.2238   62.8187 H   0  0  0  0  0  0  0  0  0  0  0  0
  -42.0025   57.9135   62.4342 H   0  0  0  0  0  0  0  0  0  0  0  0
  -39.9299   57.5497   63.7541 H   0  0  0  0  0  0  0  0  0  0  0  0
  -41.4750   57.6269   64.6385 H   0  0  0  0  0  0  0  0  0  0  0  0
  1 33  1  0  0  0  0
  1 34  1  0  0  0  0
  1 61  1  0  0  0  0
  2  4  1  0  0  0  0
  2 62  1  0  0  0  0
  2 63  1  0  0  0  0
  2 64  1  0  0  0  0
  3 33  2  0  0  0  0
  4  7  1  0  0  0  0
  4 65  1  0  0  0  0
  4 66  1  0  0  0  0
  5 38  1  0  0  0  0
  5 39  1  0  0  0  0
  5 67  1  0  0  0  0
  6 39  2  0  0  0  0
  7 10  1  0  0  0  0
  7 68  1  0  0  0  0
  7 69  1  0  0  0  0
  8 40  1  0  0  0  0
  8 43  2  0  0  0  0
  9 42  1  0  0  0  0
  9 43  1  0  0  0  0
 10 13  1  0  0  0  0
 10 70  1  0  0  0  0
 10 71  1  0  0  0  0
 11 54  1  0  0  0  0
 11 55  1  0  0  0  0
 11 72  1  0  0  0  0
 12 49  1  0  0  0  0
 12 73  1  0  0  0  0
 13 16  1  0  0  0  0
 13 74  1  0  0  0  0
 13 75  1  0  0  0  0
 14 59  1  0  0  0  0
 14 60  1  0  0  0  0
 14 76  1  0  0  0  0
 15 50  2  0  0  0  0
 16 18  1  0  0  0  0
 16 77  1  0  0  0  0
 16 78  1  0  0  0  0
 17 50  1  0  0  0  0
 17 51  1  0  0  0  0
 18 20  1  0  0  0  0
 18 79  1  0  0  0  0
 18 80  1  0  0  0  0
 19 54  2  0  0  0  0
 20 22  1  0  0  0  0
 20 81  1  0  0  0  0
 20 82  1  0  0  0  0
 21 60  2  0  0  0  0
 22 23  1  0  0  0  0
 22 83  1  0  0  0  0
 22 84  1  0  0  0  0
 23 24  1  0  0  0  0
 23 85  1  0  0  0  0
 23 86  1  0  0  0  0
 24 25  1  0  0  0  0
 24 87  1  0  0  0  0
 24 88  1  0  0  0  0
 25 26  1  0  0  0  0
 25 89  1  0  0  0  0
 25 90  1  0  0  0  0
 26 27  1  0  0  0  0
 26 91  1  0  0  0  0
 26 92  1  0  0  0  0
 27 28  1  0  0  0  0
 27 93  1  0  0  0  0
 27 94  1  0  0  0  0
 28 29  1  0  0  0  0
 28 95  1  0  0  0  0
 28 96  1  0  0  0  0
 29 30  1  0  0  0  0
 29 97  1  0  0  0  0
 29 98  1  0  0  0  0
 30 31  1  0  0  0  0
 30 99  1  0  0  0  0
 30100  1  0  0  0  0
 31 32  2  0  0  0  0
 31101  1  0  0  0  0
 32 33  1  0  0  0  0
 32102  1  0  0  0  0
 34 35  1  0  0  0  0
 34103  1  0  0  0  0
 34104  1  0  0  0  0
 35 36  1  0  0  0  0
 35105  1  0  0  0  0
 35106  1  0  0  0  0
 36 37  1  0  0  0  0
 36107  1  0  0  0  0
 36108  1  0  0  0  0
 37 38  1  0  0  0  0
 37109  1  0  0  0  0
 37110  1  0  0  0  0
 38 50  1  0  0  0  0
 38111  1  1  0  0  0
 40 39  1  1  0  0  0
 40 41  1  0  0  0  0
 40 42  1  0  0  0  0
 41112  1  0  0  0  0
 41113  1  0  0  0  0
 41114  1  0  0  0  0
 42115  1  0  0  0  0
 42116  1  0  0  0  0
 43 44  1  0  0  0  0
 44 45  2  0  0  0  0
 44 49  1  0  0  0  0
 45 46  1  0  0  0  0
 45117  1  0  0  0  0
 46 47  2  0  0  0  0
 46118  1  0  0  0  0
 47 48  1  0  0  0  0
 47119  1  0  0  0  0
 48 49  2  0  0  0  0
 48120  1  0  0  0  0
 51 52  1  0  0  0  0
 51 53  1  0  0  0  0
 51121  1  6  0  0  0
 52122  1  0  0  0  0
 52123  1  0  0  0  0
 52124  1  0  0  0  0
 53 54  1  0  0  0  0
 53125  1  0  0  0  0
 53126  1  0  0  0  0
 55 56  1  0  0  0  0
 55 60  1  0  0  0  0
 55127  1  1  0  0  0
 56 57  1  0  0  0  0
 56128  1  0  0  0  0
 56129  1  0  0  0  0
 57 58  1  0  0  0  0
 57130  1  0  0  0  0
 57131  1  0  0  0  0
 58 59  1  0  0  0  0
 58132  1  0  0  0  0
 58133  1  0  0  0  0
 59134  1  0  0  0  0
 59135  1  0  0  0  0
M  END
$$$$