/media/chris/experiments/cd1a-new-docking/inputs/ligands/7ryo_ligand.pdb
 OpenBabel07032304133D

135137  0  0  1  0  0  0  0  0999 V2000
  -37.6438   60.3330   63.4177 N   0  0  0  0  0  0  0  0  0  0  0  0
  -42.3544   63.3936   60.6108 C   0  0  0  0  0  0  0  0  0  0  0  0
  -39.1160   61.9983   63.8087 O   0  0  0  0  0  0  0  0  0  0  0  0
  -42.1696   63.3708   62.1054 C   0  0  0  0  0  0  0  0  0  0  0  0
  -35.3848   55.2330   62.7177 N   0  0  0  0  0  0  0  0  0  0  0  0
  -35.5611   54.3952   64.7963 O   0  0  0  0  0  0  0  0  0  0  0  0
  -42.6576   64.6354   62.7884 C   0  0  0  0  0  0  0  0  0  0  0  0
  -37.4327   53.1660   62.2375 N   0  0  0  0  0  0  0  0  0  0  0  0
  -36.0807   51.9952   60.8647 O   0  0  0  0  0  0  0  0  0  0  0  0
  -44.1386   64.9215   62.5989 C   0  0  0  0  0  0  0  0  0  0  0  0
  -38.7702   53.7945   66.9742 N   0  0  0  0  0  0  0  0  0  0  0  0
  -40.0931   52.9313   61.5081 O   0  0  0  0  0  0  0  0  0  0  0  0
  -45.0423   63.8281   63.1521 C   0  0  0  0  0  0  0  0  0  0  0  0
  -41.5363   52.7617   64.8823 N   0  0  0  0  0  0  0  0  0  0  0  0
  -36.3404   58.2172   64.0561 O   0  0  0  0  0  0  0  0  0  0  0  0
  -44.8891   63.5993   64.6478 C   0  0  0  0  0  0  0  0  0  0  0  0
  -35.9357   56.3635   65.2730 O   0  0  0  0  0  0  0  0  0  0  0  0
  -43.4866   63.2059   65.0778 C   0  0  0  0  0  0  0  0  0  0  0  0
  -37.6919   54.4563   65.1139 O   0  0  0  0  0  0  0  0  0  0  0  0
  -43.3395   62.9612   66.5707 C   0  0  0  0  0  0  0  0  0  0  0  0
  -41.2510   54.4626   66.3163 O   0  0  0  0  0  0  0  0  0  0  0  0
  -43.6965   64.1704   67.4124 C   0  0  0  0  0  0  0  0  0  0  0  0
  -42.8395   65.3802   67.0930 C   0  0  0  0  0  0  0  0  0  0  0  0
  -42.9514   65.8654   65.6616 C   0  0  0  0  0  0  0  0  0  0  0  0
  -42.0708   67.0645   65.3693 C   0  0  0  0  0  0  0  0  0  0  0  0
  -40.5894   66.7937   65.5736 C   0  0  0  0  0  0  0  0  0  0  0  0
  -40.0474   65.6938   64.6802 C   0  0  0  0  0  0  0  0  0  0  0  0
  -40.1719   65.9761   63.1923 C   0  0  0  0  0  0  0  0  0  0  0  0
  -39.6396   64.8566   62.3145 C   0  0  0  0  0  0  0  0  0  0  0  0
  -38.1671   64.5403   62.5460 C   0  0  0  0  0  0  0  0  0  0  0  0
  -37.6878   63.4439   61.6466 C   0  0  0  0  0  0  0  0  0  0  0  0
  -37.6882   62.1394   61.8848 C   0  0  0  0  0  0  0  0  0  0  0  0
  -38.2001   61.5133   63.1244 C   0  0  0  0  0  0  0  0  0  0  0  0
  -36.5610   59.7701   62.6268 C   0  0  0  0  0  0  0  0  0  0  0  0
  -36.9560   58.4330   62.0390 C   0  0  0  0  0  0  0  0  0  0  0  0
  -35.8780   57.7610   61.2090 C   0  0  0  0  0  0  0  0  0  0  0  0
  -34.6110   57.4590   62.0020 C   0  0  0  0  0  0  0  0  0  0  0  0
  -34.8704   56.5130   63.1754 C   0  0  1  0  0  0  0  0  0  0  0  0
  -35.6907   54.2677   63.5879 C   0  0  0  0  0  0  0  0  0  0  0  0
  -36.2067   52.9355   63.0194 C   0  0  1  0  0  0  0  0  0  0  0  0
  -36.5254   51.9949   64.1776 C   0  0  0  0  0  0  0  0  0  0  0  0
  -35.2440   52.2897   62.0120 C   0  0  0  0  0  0  0  0  0  0  0  0
  -37.2601   52.6262   61.1024 C   0  0  0  0  0  0  0  0  0  0  0  0
  -38.2239   52.6065   59.9995 C   0  0  0  0  0  0  0  0  0  0  0  0
  -37.7761   52.5806   58.6782 C   0  0  0  0  0  0  0  0  0  0  0  0
  -38.6562   52.8065   57.6339 C   0  0  0  0  0  0  0  0  0  0  0  0
  -39.9870   53.0600   57.8854 C   0  0  0  0  0  0  0  0  0  0  0  0
  -40.4554   53.0957   59.1862 C   0  0  0  0  0  0  0  0  0  0  0  0
  -39.5858   52.8732   60.2493 C   0  0  0  0  0  0  0  0  0  0  0  0
  -35.8061   57.1511   64.1912 C   0  0  0  0  0  0  0  0  0  0  0  0
  -36.7876   56.8312   66.3708 C   0  0  2  0  0  0  0  0  0  0  0  0
  -35.9925   57.8125   67.1945 C   0  0  0  0  0  0  0  0  0  0  0  0
  -37.1603   55.5882   67.1553 C   0  0  0  0  0  0  0  0  0  0  0  0
  -37.8931   54.5617   66.3205 C   0  0  0  0  0  0  0  0  0  0  0  0
  -39.5521   52.7750   66.2968 C   0  0  1  0  0  0  0  0  0  0  0  0
  -39.8564   51.6197   67.2571 C   0  0  0  0  0  0  0  0  0  0  0  0
  -40.2610   50.3295   66.5522 C   0  0  0  0  0  0  0  0  0  0  0  0
  -41.5252   50.4107   65.7198 C   0  0  0  0  0  0  0  0  0  0  0  0
  -41.4283   51.3488   64.5349 C   0  0  0  0  0  0  0  0  0  0  0  0
  -40.8550   53.4064   65.8322 C   0  0  0  0  0  0  0  0  0  0  0  0
  -37.9782   59.8288   64.1944 H   0  0  0  0  0  0  0  0  0  0  0  0
  -41.9921   62.4778   60.1925 H   0  0  0  0  0  0  0  0  0  0  0  0
  -41.8086   64.2154   60.1964 H   0  0  0  0  0  0  0  0  0  0  0  0
  -43.3937   63.5039   60.3815 H   0  0  0  0  0  0  0  0  0  0  0  0
  -41.1278   63.2503   62.3173 H   0  0  0  0  0  0  0  0  0  0  0  0
  -42.7540   62.5589   62.4852 H   0  0  0  0  0  0  0  0  0  0  0  0
  -35.5092   55.0758   61.7538 H   0  0  0  0  0  0  0  0  0  0  0  0
  -42.1042   65.4626   62.3954 H   0  0  0  0  0  0  0  0  0  0  0  0
  -42.5065   64.4927   63.8381 H   0  0  0  0  0  0  0  0  0  0  0  0
  -44.3327   65.0242   61.5517 H   0  0  0  0  0  0  0  0  0  0  0  0
  -44.3588   65.8171   63.1414 H   0  0  0  0  0  0  0  0  0  0  0  0
  -38.8899   53.9239   67.9428 H   0  0  0  0  0  0  0  0  0  0  0  0
  -39.5339   52.7862   62.2457 H   0  0  0  0  0  0  0  0  0  0  0  0
  -44.8128   62.9135   62.6462 H   0  0  0  0  0  0  0  0  0  0  0  0
  -46.0506   64.1465   62.9885 H   0  0  0  0  0  0  0  0  0  0  0  0
  -42.1789   53.2957   64.3616 H   0  0  0  0  0  0  0  0  0  0  0  0
  -45.5604   62.8184   64.9382 H   0  0  0  0  0  0  0  0  0  0  0  0
  -45.1063   64.5321   65.1250 H   0  0  0  0  0  0  0  0  0  0  0  0
  -42.8168   63.9923   64.7988 H   0  0  0  0  0  0  0  0  0  0  0  0
  -43.2635   62.2797   64.5905 H   0  0  0  0  0  0  0  0  0  0  0  0
  -42.3232   62.6942   66.7729 H   0  0  0  0  0  0  0  0  0  0  0  0
  -44.0207   62.1789   66.8332 H   0  0  0  0  0  0  0  0  0  0  0  0
  -43.5642   63.9201   68.4443 H   0  0  0  0  0  0  0  0  0  0  0  0
  -44.7120   64.4273   67.1943 H   0  0  0  0  0  0  0  0  0  0  0  0
  -41.8175   65.1257   67.2813 H   0  0  0  0  0  0  0  0  0  0  0  0
  -43.1919   66.1770   67.7143 H   0  0  0  0  0  0  0  0  0  0  0  0
  -43.9691   66.1361   65.4724 H   0  0  0  0  0  0  0  0  0  0  0  0
  -42.6245   65.0675   65.0279 H   0  0  0  0  0  0  0  0  0  0  0  0
  -42.3614   67.8641   66.0182 H   0  0  0  0  0  0  0  0  0  0  0  0
  -42.2061   67.3097   64.3367 H   0  0  0  0  0  0  0  0  0  0  0  0
  -40.4343   66.5093   66.5933 H   0  0  0  0  0  0  0  0  0  0  0  0
  -40.0668   67.6922   65.3195 H   0  0  0  0  0  0  0  0  0  0  0  0
  -40.5829   64.7929   64.8960 H   0  0  0  0  0  0  0  0  0  0  0  0
  -39.0011   65.6170   64.8904 H   0  0  0  0  0  0  0  0  0  0  0  0
  -39.6253   66.8689   62.9705 H   0  0  0  0  0  0  0  0  0  0  0  0
  -41.2155   66.0741   62.9776 H   0  0  0  0  0  0  0  0  0  0  0  0
  -39.7666   65.1413   61.2909 H   0  0  0  0  0  0  0  0  0  0  0  0
  -40.1909   63.9747   62.5659 H   0  0  0  0  0  0  0  0  0  0  0  0
  -38.0334   64.2373   63.5635 H   0  0  0  0  0  0  0  0  0  0  0  0
  -37.5990   65.4209   62.3300 H   0  0  0  0  0  0  0  0  0  0  0  0
  -37.3122   63.7385   60.7317 H   0  0  0  0  0  0  0  0  0  0  0  0
  -37.3051   61.5178   61.1556 H   0  0  0  0  0  0  0  0  0  0  0  0
  -35.7032   59.6374   63.2524 H   0  0  0  0  0  0  0  0  0  0  0  0
  -36.3399   60.4428   61.8246 H   0  0  0  0  0  0  0  0  0  0  0  0
  -37.8119   58.5833   61.4147 H   0  0  0  0  0  0  0  0  0  0  0  0
  -37.1476   57.7838   62.8677 H   0  0  0  0  0  0  0  0  0  0  0  0
  -35.6238   58.4067   60.3945 H   0  0  0  0  0  0  0  0  0  0  0  0
  -36.2729   56.8255   60.8717 H   0  0  0  0  0  0  0  0  0  0  0  0
  -34.2161   58.3779   62.3821 H   0  0  0  0  0  0  0  0  0  0  0  0
  -33.9192   56.9787   61.3420 H   0  0  0  0  0  0  0  0  0  0  0  0
  -33.9347   56.3288   63.6606 H   0  0  0  0  0  0  0  0  0  0  0  0
  -37.1967   52.4789   64.8559 H   0  0  0  0  0  0  0  0  0  0  0  0
  -35.6212   51.7417   64.6906 H   0  0  0  0  0  0  0  0  0  0  0  0
  -36.9819   51.1044   63.7987 H   0  0  0  0  0  0  0  0  0  0  0  0
  -34.4601   52.9679   61.7468 H   0  0  0  0  0  0  0  0  0  0  0  0
  -34.7619   51.4186   62.4040 H   0  0  0  0  0  0  0  0  0  0  0  0
  -36.7815   52.3915   58.4780 H   0  0  0  0  0  0  0  0  0  0  0  0
  -38.3134   52.7850   56.6607 H   0  0  0  0  0  0  0  0  0  0  0  0
  -40.6366   53.2238   57.1004 H   0  0  0  0  0  0  0  0  0  0  0  0
  -41.4528   53.2880   59.3689 H   0  0  0  0  0  0  0  0  0  0  0  0
  -37.6753   57.3332   66.0468 H   0  0  0  0  0  0  0  0  0  0  0  0
  -35.0937   57.3443   67.5375 H   0  0  0  0  0  0  0  0  0  0  0  0
  -36.5747   58.1263   68.0356 H   0  0  0  0  0  0  0  0  0  0  0  0
  -35.7450   58.6634   66.5947 H   0  0  0  0  0  0  0  0  0  0  0  0
  -37.7891   55.8758   67.9719 H   0  0  0  0  0  0  0  0  0  0  0  0
  -36.2505   55.1370   67.4924 H   0  0  0  0  0  0  0  0  0  0  0  0
  -39.0042   52.3898   65.4623 H   0  0  0  0  0  0  0  0  0  0  0  0
  -40.6565   51.9179   67.9020 H   0  0  0  0  0  0  0  0  0  0  0  0
  -38.9548   51.4135   67.7952 H   0  0  0  0  0  0  0  0  0  0  0  0
  -40.4055   49.5770   67.2990 H   0  0  0  0  0  0  0  0  0  0  0  0
  -39.4704   50.1089   65.8657 H   0  0  0  0  0  0  0  0  0  0  0  0
  -42.3213   50.7475   66.3504 H   0  0  0  0  0  0  0  0  0  0  0  0
  -41.6964   49.4315   65.3238 H   0  0  0  0  0  0  0  0  0  0  0  0
  -40.4833   51.1914   64.0583 H   0  0  0  0  0  0  0  0  0  0  0  0
  -42.2566   51.1245   63.8958 H   0  0  0  0  0  0  0  0  0  0  0  0
  1 33  1  0  0  0  0
  1 34  1  0  0  0  0
  1 61  1  0  0  0  0
  2  4  1  0  0  0  0
  2 62  1  0  0  0  0
  2 63  1  0  0  0  0
  2 64  1  0  0  0  0
  3 33  2  0  0  0  0
  4  7  1  0  0  0  0
  4 65  1  0  0  0  0
  4 66  1  0  0  0  0
  5 38  1  0  0  0  0
  5 39  1  0  0  0  0
  5 67  1  0  0  0  0
  6 39  2  0  0  0  0
  7 10  1  0  0  0  0
  7 68  1  0  0  0  0
  7 69  1  0  0  0  0
  8 40  1  0  0  0  0
  8 43  2  0  0  0  0
  9 42  1  0  0  0  0
  9 43  1  0  0  0  0
 10 13  1  0  0  0  0
 10 70  1  0  0  0  0
 10 71  1  0  0  0  0
 11 54  1  0  0  0  0
 11 55  1  0  0  0  0
 11 72  1  0  0  0  0
 12 49  1  0  0  0  0
 12 73  1  0  0  0  0
 13 16  1  0  0  0  0
 13 74  1  0  0  0  0
 13 75  1  0  0  0  0
 14 59  1  0  0  0  0
 14 60  1  0  0  0  0
 14 76  1  0  0  0  0
 15 50  2  0  0  0  0
 16 18  1  0  0  0  0
 16 77  1  0  0  0  0
 16 78  1  0  0  0  0
 17 50  1  0  0  0  0
 17 51  1  0  0  0  0
 18 20  1  0  0  0  0
 18 79  1  0  0  0  0
 18 80  1  0  0  0  0
 19 54  2  0  0  0  0
 20 22  1  0  0  0  0
 20 81  1  0  0  0  0
 20 82  1  0  0  0  0
 21 60  2  0  0  0  0
 22 23  1  0  0  0  0
 22 83  1  0  0  0  0
 22 84  1  0  0  0  0
 23 24  1  0  0  0  0
 23 85  1  0  0  0  0
 23 86  1  0  0  0  0
 24 25  1  0  0  0  0
 24 87  1  0  0  0  0
 24 88  1  0  0  0  0
 25 26  1  0  0  0  0
 25 89  1  0  0  0  0
 25 90  1  0  0  0  0
 26 27  1  0  0  0  0
 26 91  1  0  0  0  0
 26 92  1  0  0  0  0
 27 28  1  0  0  0  0
 27 93  1  0  0  0  0
 27 94  1  0  0  0  0
 28 29  1  0  0  0  0
 28 95  1  0  0  0  0
 28 96  1  0  0  0  0
 29 30  1  0  0  0  0
 29 97  1  0  0  0  0
 29 98  1  0  0  0  0
 30 31  1  0  0  0  0
 30 99  1  0  0  0  0
 30100  1  0  0  0  0
 31 32  2  0  0  0  0
 31101  1  0  0  0  0
 32 33  1  0  0  0  0
 32102  1  0  0  0  0
 34 35  1  0  0  0  0
 34103  1  0  0  0  0
 34104  1  0  0  0  0
 35 36  1  0  0  0  0
 35105  1  0  0  0  0
 35106  1  0  0  0  0
 36 37  1  0  0  0  0
 36107  1  0  0  0  0
 36108  1  0  0  0  0
 37 38  1  0  0  0  0
 37109  1  0  0  0  0
 37110  1  0  0  0  0
 38 50  1  0  0  0  0
 38111  1  1  0  0  0
 40 39  1  1  0  0  0
 40 41  1  0  0  0  0
 40 42  1  0  0  0  0
 41112  1  0  0  0  0
 41113  1  0  0  0  0
 41114  1  0  0  0  0
 42115  1  0  0  0  0
 42116  1  0  0  0  0
 43 44  1  0  0  0  0
 44 45  2  0  0  0  0
 44 49  1  0  0  0  0
 45 46  1  0  0  0  0
 45117  1  0  0  0  0
 46 47  2  0  0  0  0
 46118  1  0  0  0  0
 47 48  1  0  0  0  0
 47119  1  0  0  0  0
 48 49  2  0  0  0  0
 48120  1  0  0  0  0
 51 52  1  0  0  0  0
 51 53  1  0  0  0  0
 51121  1  6  0  0  0
 52122  1  0  0  0  0
 52123  1  0  0  0  0
 52124  1  0  0  0  0
 53 54  1  0  0  0  0
 53125  1  0  0  0  0
 53126  1  0  0  0  0
 55 56  1  0  0  0  0
 55 60  1  0  0  0  0
 55127  1  6  0  0  0
 56 57  1  0  0  0  0
 56128  1  0  0  0  0
 56129  1  0  0  0  0
 57 58  1  0  0  0  0
 57130  1  0  0  0  0
 57131  1  0  0  0  0
 58 59  1  0  0  0  0
 58132  1  0  0  0  0
 58133  1  0  0  0  0
 59134  1  0  0  0  0
 59135  1  0  0  0  0
M  END
$$$$