/media/chris/experiments/cd1a-new-docking/inputs/ligands/7ryo_ligand.pdb
 OpenBabel07032304133D

135137  0  0  1  0  0  0  0  0999 V2000
  -36.2311   60.7237   61.5795 N   0  0  0  0  0  0  0  0  0  0  0  0
  -45.3381   67.6567   63.8529 C   0  0  0  0  0  0  0  0  0  0  0  0
  -35.5695   62.7896   60.9564 O   0  0  0  0  0  0  0  0  0  0  0  0
  -44.9254   66.6062   64.8501 C   0  0  0  0  0  0  0  0  0  0  0  0
  -35.8432   57.0722   64.0991 N   0  0  0  0  0  0  0  0  0  0  0  0
  -37.2875   55.3694   63.8380 O   0  0  0  0  0  0  0  0  0  0  0  0
  -43.9473   67.1200   65.8910 C   0  0  0  0  0  0  0  0  0  0  0  0
  -37.2353   57.9218   66.3042 N   0  0  0  0  0  0  0  0  0  0  0  0
  -38.7944   59.3111   65.4544 O   0  0  0  0  0  0  0  0  0  0  0  0
  -44.4791   68.2589   66.7460 C   0  0  0  0  0  0  0  0  0  0  0  0
  -32.4347   51.8484   67.8816 N   0  0  0  0  0  0  0  0  0  0  0  0
  -36.3433   58.7694   68.7843 O   0  0  0  0  0  0  0  0  0  0  0  0
  -43.4740   68.7677   67.7702 C   0  0  0  0  0  0  0  0  0  0  0  0
  -35.4952   53.3700   69.0698 N   0  0  0  0  0  0  0  0  0  0  0  0
  -32.4985   56.6279   63.6242 O   0  0  0  0  0  0  0  0  0  0  0  0
  -42.1952   69.3186   67.1585 C   0  0  0  0  0  0  0  0  0  0  0  0
  -33.7924   55.2407   64.8416 O   0  0  0  0  0  0  0  0  0  0  0  0
  -41.4254   68.3166   66.3157 C   0  0  0  0  0  0  0  0  0  0  0  0
  -30.8149   52.8556   66.6883 O   0  0  0  0  0  0  0  0  0  0  0  0
  -40.1391   68.8640   65.7191 C   0  0  0  0  0  0  0  0  0  0  0  0
  -33.3253   53.8336   69.3980 O   0  0  0  0  0  0  0  0  0  0  0  0
  -40.3608   70.0638   64.8194 C   0  0  0  0  0  0  0  0  0  0  0  0
  -39.0724   70.5902   64.2169 C   0  0  0  0  0  0  0  0  0  0  0  0
  -38.3354   69.5919   63.3468 C   0  0  0  0  0  0  0  0  0  0  0  0
  -39.1476   69.1297   62.1529 C   0  0  0  0  0  0  0  0  0  0  0  0
  -38.4241   68.1152   61.2828 C   0  0  0  0  0  0  0  0  0  0  0  0
  -38.0622   66.8381   62.0173 C   0  0  0  0  0  0  0  0  0  0  0  0
  -37.3227   65.8158   61.1704 C   0  0  0  0  0  0  0  0  0  0  0  0
  -36.9840   64.5378   61.9181 C   0  0  0  0  0  0  0  0  0  0  0  0
  -36.1091   64.7567   63.1462 C   0  0  0  0  0  0  0  0  0  0  0  0
  -35.7904   63.4674   63.8366 C   0  0  0  0  0  0  0  0  0  0  0  0
  -35.6789   62.2620   63.2951 C   0  0  0  0  0  0  0  0  0  0  0  0
  -35.8384   61.9727   61.8524 C   0  0  0  0  0  0  0  0  0  0  0  0
  -36.5610   59.7701   62.6268 C   0  0  0  0  0  0  0  0  0  0  0  0
  -36.9560   58.4330   62.0390 C   0  0  0  0  0  0  0  0  0  0  0  0
  -35.8780   57.7610   61.2090 C   0  0  0  0  0  0  0  0  0  0  0  0
  -34.6110   57.4590   62.0020 C   0  0  0  0  0  0  0  0  0  0  0  0
  -34.8704   56.5130   63.1754 C   0  0  1  0  0  0  0  0  0  0  0  0
  -36.9896   56.4367   64.3534 C   0  0  0  0  0  0  0  0  0  0  0  0
  -37.9743   57.1081   65.3248 C   0  0  1  0  0  0  0  0  0  0  0  0
  -38.7531   56.0251   66.0652 C   0  0  0  0  0  0  0  0  0  0  0  0
  -38.9116   58.1153   64.6424 C   0  0  0  0  0  0  0  0  0  0  0  0
  -37.7509   59.0809   66.2933 C   0  0  0  0  0  0  0  0  0  0  0  0
  -37.3330   60.2202   67.1138 C   0  0  0  0  0  0  0  0  0  0  0  0
  -37.4827   61.5218   66.6335 C   0  0  0  0  0  0  0  0  0  0  0  0
  -36.8767   62.5838   67.2825 C   0  0  0  0  0  0  0  0  0  0  0  0
  -36.1174   62.3696   68.4122 C   0  0  0  0  0  0  0  0  0  0  0  0
  -35.9496   61.0888   68.9061 C   0  0  0  0  0  0  0  0  0  0  0  0
  -36.5490   60.0083   68.2665 C   0  0  0  0  0  0  0  0  0  0  0  0
  -33.5727   56.1622   63.8877 C   0  0  0  0  0  0  0  0  0  0  0  0
  -32.7131   54.2992   65.1552 C   0  0  2  0  0  0  0  0  0  0  0  0
  -32.7268   53.2084   64.1142 C   0  0  0  0  0  0  0  0  0  0  0  0
  -33.0207   53.7747   66.5444 C   0  0  0  0  0  0  0  0  0  0  0  0
  -31.9880   52.7895   67.0448 C   0  0  0  0  0  0  0  0  0  0  0  0
  -33.8293   51.7762   68.2809 C   0  0  1  0  0  0  0  0  0  0  0  0
  -34.0386   50.6113   69.2550 C   0  0  0  0  0  0  0  0  0  0  0  0
  -35.4933   50.1705   69.3768 C   0  0  0  0  0  0  0  0  0  0  0  0
  -36.4503   51.2208   69.9050 C   0  0  0  0  0  0  0  0  0  0  0  0
  -36.6065   52.4271   69.0030 C   0  0  0  0  0  0  0  0  0  0  0  0
  -34.1955   53.0835   68.9656 C   0  0  0  0  0  0  0  0  0  0  0  0
  -36.2991   60.4406   60.6390 H   0  0  0  0  0  0  0  0  0  0  0  0
  -46.0246   67.2318   63.1507 H   0  0  0  0  0  0  0  0  0  0  0  0
  -44.4737   68.0154   63.3343 H   0  0  0  0  0  0  0  0  0  0  0  0
  -45.8093   68.4693   64.3653 H   0  0  0  0  0  0  0  0  0  0  0  0
  -44.4654   65.7976   64.3213 H   0  0  0  0  0  0  0  0  0  0  0  0
  -45.8083   66.2968   65.3694 H   0  0  0  0  0  0  0  0  0  0  0  0
  -35.6545   57.9305   64.5430 H   0  0  0  0  0  0  0  0  0  0  0  0
  -43.0697   67.4637   65.3843 H   0  0  0  0  0  0  0  0  0  0  0  0
  -43.7533   66.3044   66.5559 H   0  0  0  0  0  0  0  0  0  0  0  0
  -45.3485   67.9149   67.2662 H   0  0  0  0  0  0  0  0  0  0  0  0
  -44.6972   69.0730   66.0868 H   0  0  0  0  0  0  0  0  0  0  0  0
  -31.8003   51.1851   68.2377 H   0  0  0  0  0  0  0  0  0  0  0  0
  -36.7329   58.0208   68.3771 H   0  0  0  0  0  0  0  0  0  0  0  0
  -43.2150   67.9574   68.4193 H   0  0  0  0  0  0  0  0  0  0  0  0
  -43.9431   69.5769   68.2899 H   0  0  0  0  0  0  0  0  0  0  0  0
  -35.7281   54.3167   69.2061 H   0  0  0  0  0  0  0  0  0  0  0  0
  -41.5584   69.6482   67.9527 H   0  0  0  0  0  0  0  0  0  0  0  0
  -42.4856   70.1126   66.5028 H   0  0  0  0  0  0  0  0  0  0  0  0
  -42.0576   67.9962   65.5141 H   0  0  0  0  0  0  0  0  0  0  0  0
  -41.1460   67.5157   66.9680 H   0  0  0  0  0  0  0  0  0  0  0  0
  -39.6742   68.0899   65.1451 H   0  0  0  0  0  0  0  0  0  0  0  0
  -39.5234   69.1863   66.5327 H   0  0  0  0  0  0  0  0  0  0  0  0
  -40.8133   70.8441   65.3950 H   0  0  0  0  0  0  0  0  0  0  0  0
  -40.9903   69.7507   64.0128 H   0  0  0  0  0  0  0  0  0  0  0  0
  -38.4233   70.8810   65.0162 H   0  0  0  0  0  0  0  0  0  0  0  0
  -39.3436   71.4076   63.5819 H   0  0  0  0  0  0  0  0  0  0  0  0
  -38.0890   68.7378   63.9423 H   0  0  0  0  0  0  0  0  0  0  0  0
  -37.4626   70.0818   62.9684 H   0  0  0  0  0  0  0  0  0  0  0  0
  -39.3833   69.9835   61.5528 H   0  0  0  0  0  0  0  0  0  0  0  0
  -40.0230   68.6480   62.5357 H   0  0  0  0  0  0  0  0  0  0  0  0
  -37.5236   68.5630   60.9177 H   0  0  0  0  0  0  0  0  0  0  0  0
  -39.0922   67.8453   60.4917 H   0  0  0  0  0  0  0  0  0  0  0  0
  -38.9659   66.3882   62.3720 H   0  0  0  0  0  0  0  0  0  0  0  0
  -37.3978   67.1180   62.8080 H   0  0  0  0  0  0  0  0  0  0  0  0
  -36.4112   66.2578   60.8258 H   0  0  0  0  0  0  0  0  0  0  0  0
  -37.9736   65.5454   60.3653 H   0  0  0  0  0  0  0  0  0  0  0  0
  -36.4675   63.8821   61.2485 H   0  0  0  0  0  0  0  0  0  0  0  0
  -37.9086   64.1249   62.2639 H   0  0  0  0  0  0  0  0  0  0  0  0
  -36.6254   65.3977   63.8299 H   0  0  0  0  0  0  0  0  0  0  0  0
  -35.1892   65.1994   62.8256 H   0  0  0  0  0  0  0  0  0  0  0  0
  -35.6395   63.5232   64.8560 H   0  0  0  0  0  0  0  0  0  0  0  0
  -35.4661   61.4711   63.9230 H   0  0  0  0  0  0  0  0  0  0  0  0
  -37.3764   60.1530   63.2042 H   0  0  0  0  0  0  0  0  0  0  0  0
  -35.6979   59.6294   63.2434 H   0  0  0  0  0  0  0  0  0  0  0  0
  -37.8119   58.5833   61.4147 H   0  0  0  0  0  0  0  0  0  0  0  0
  -37.1476   57.7838   62.8677 H   0  0  0  0  0  0  0  0  0  0  0  0
  -35.6238   58.4067   60.3945 H   0  0  0  0  0  0  0  0  0  0  0  0
  -36.2729   56.8255   60.8717 H   0  0  0  0  0  0  0  0  0  0  0  0
  -34.2161   58.3779   62.3821 H   0  0  0  0  0  0  0  0  0  0  0  0
  -33.9192   56.9787   61.3420 H   0  0  0  0  0  0  0  0  0  0  0  0
  -35.2841   55.6083   62.7813 H   0  0  0  0  0  0  0  0  0  0  0  0
  -38.0678   55.3447   66.5260 H   0  0  0  0  0  0  0  0  0  0  0  0
  -39.3716   55.4937   65.3724 H   0  0  0  0  0  0  0  0  0  0  0  0
  -39.3663   56.4772   66.8166 H   0  0  0  0  0  0  0  0  0  0  0  0
  -38.5979   58.3060   63.6373 H   0  0  0  0  0  0  0  0  0  0  0  0
  -39.9188   57.7603   64.5760 H   0  0  0  0  0  0  0  0  0  0  0  0
  -38.0493   61.6940   65.7883 H   0  0  0  0  0  0  0  0  0  0  0  0
  -36.9943   63.5420   66.9179 H   0  0  0  0  0  0  0  0  0  0  0  0
  -35.6723   63.1679   68.8915 H   0  0  0  0  0  0  0  0  0  0  0  0
  -35.3783   60.9340   69.7514 H   0  0  0  0  0  0  0  0  0  0  0  0
  -31.7376   54.7386   65.1431 H   0  0  0  0  0  0  0  0  0  0  0  0
  -33.6906   52.7438   64.0970 H   0  0  0  0  0  0  0  0  0  0  0  0
  -31.9828   52.4776   64.3536 H   0  0  0  0  0  0  0  0  0  0  0  0
  -32.5168   53.6297   63.1534 H   0  0  0  0  0  0  0  0  0  0  0  0
  -33.9736   53.2885   66.5223 H   0  0  0  0  0  0  0  0  0  0  0  0
  -33.0154   54.6114   67.2114 H   0  0  0  0  0  0  0  0  0  0  0  0
  -34.4468   51.6177   67.4216 H   0  0  0  0  0  0  0  0  0  0  0  0
  -33.6947   50.9133   70.2221 H   0  0  0  0  0  0  0  0  0  0  0  0
  -33.4897   49.7777   68.8694 H   0  0  0  0  0  0  0  0  0  0  0  0
  -35.5289   49.3297   70.0375 H   0  0  0  0  0  0  0  0  0  0  0  0
  -35.8184   49.9503   68.3814 H   0  0  0  0  0  0  0  0  0  0  0  0
  -36.0894   51.5563   70.8548 H   0  0  0  0  0  0  0  0  0  0  0  0
  -37.4124   50.7567   69.9678 H   0  0  0  0  0  0  0  0  0  0  0  0
  -36.6944   52.0826   67.9938 H   0  0  0  0  0  0  0  0  0  0  0  0
  -37.4765   52.9519   69.3383 H   0  0  0  0  0  0  0  0  0  0  0  0
  1 33  1  0  0  0  0
  1 34  1  0  0  0  0
  1 61  1  0  0  0  0
  2  4  1  0  0  0  0
  2 62  1  0  0  0  0
  2 63  1  0  0  0  0
  2 64  1  0  0  0  0
  3 33  2  0  0  0  0
  4  7  1  0  0  0  0
  4 65  1  0  0  0  0
  4 66  1  0  0  0  0
  5 38  1  0  0  0  0
  5 39  1  0  0  0  0
  5 67  1  0  0  0  0
  6 39  2  0  0  0  0
  7 10  1  0  0  0  0
  7 68  1  0  0  0  0
  7 69  1  0  0  0  0
  8 40  1  0  0  0  0
  8 43  2  0  0  0  0
  9 42  1  0  0  0  0
  9 43  1  0  0  0  0
 10 13  1  0  0  0  0
 10 70  1  0  0  0  0
 10 71  1  0  0  0  0
 11 54  1  0  0  0  0
 11 55  1  0  0  0  0
 11 72  1  0  0  0  0
 12 49  1  0  0  0  0
 12 73  1  0  0  0  0
 13 16  1  0  0  0  0
 13 74  1  0  0  0  0
 13 75  1  0  0  0  0
 14 59  1  0  0  0  0
 14 60  1  0  0  0  0
 14 76  1  0  0  0  0
 15 50  2  0  0  0  0
 16 18  1  0  0  0  0
 16 77  1  0  0  0  0
 16 78  1  0  0  0  0
 17 50  1  0  0  0  0
 17 51  1  0  0  0  0
 18 20  1  0  0  0  0
 18 79  1  0  0  0  0
 18 80  1  0  0  0  0
 19 54  2  0  0  0  0
 20 22  1  0  0  0  0
 20 81  1  0  0  0  0
 20 82  1  0  0  0  0
 21 60  2  0  0  0  0
 22 23  1  0  0  0  0
 22 83  1  0  0  0  0
 22 84  1  0  0  0  0
 23 24  1  0  0  0  0
 23 85  1  0  0  0  0
 23 86  1  0  0  0  0
 24 25  1  0  0  0  0
 24 87  1  0  0  0  0
 24 88  1  0  0  0  0
 25 26  1  0  0  0  0
 25 89  1  0  0  0  0
 25 90  1  0  0  0  0
 26 27  1  0  0  0  0
 26 91  1  0  0  0  0
 26 92  1  0  0  0  0
 27 28  1  0  0  0  0
 27 93  1  0  0  0  0
 27 94  1  0  0  0  0
 28 29  1  0  0  0  0
 28 95  1  0  0  0  0
 28 96  1  0  0  0  0
 29 30  1  0  0  0  0
 29 97  1  0  0  0  0
 29 98  1  0  0  0  0
 30 31  1  0  0  0  0
 30 99  1  0  0  0  0
 30100  1  0  0  0  0
 31 32  2  0  0  0  0
 31101  1  0  0  0  0
 32 33  1  0  0  0  0
 32102  1  0  0  0  0
 34 35  1  0  0  0  0
 34103  1  0  0  0  0
 34104  1  0  0  0  0
 35 36  1  0  0  0  0
 35105  1  0  0  0  0
 35106  1  0  0  0  0
 36 37  1  0  0  0  0
 36107  1  0  0  0  0
 36108  1  0  0  0  0
 37 38  1  0  0  0  0
 37109  1  0  0  0  0
 37110  1  0  0  0  0
 38 50  1  0  0  0  0
 38111  1  6  0  0  0
 40 39  1  6  0  0  0
 40 41  1  0  0  0  0
 40 42  1  0  0  0  0
 41112  1  0  0  0  0
 41113  1  0  0  0  0
 41114  1  0  0  0  0
 42115  1  0  0  0  0
 42116  1  0  0  0  0
 43 44  1  0  0  0  0
 44 45  2  0  0  0  0
 44 49  1  0  0  0  0
 45 46  1  0  0  0  0
 45117  1  0  0  0  0
 46 47  2  0  0  0  0
 46118  1  0  0  0  0
 47 48  1  0  0  0  0
 47119  1  0  0  0  0
 48 49  2  0  0  0  0
 48120  1  0  0  0  0
 51 52  1  0  0  0  0
 51 53  1  0  0  0  0
 51121  1  6  0  0  0
 52122  1  0  0  0  0
 52123  1  0  0  0  0
 52124  1  0  0  0  0
 53 54  1  0  0  0  0
 53125  1  0  0  0  0
 53126  1  0  0  0  0
 55 56  1  0  0  0  0
 55 60  1  0  0  0  0
 55127  1  6  0  0  0
 56 57  1  0  0  0  0
 56128  1  0  0  0  0
 56129  1  0  0  0  0
 57 58  1  0  0  0  0
 57130  1  0  0  0  0
 57131  1  0  0  0  0
 58 59  1  0  0  0  0
 58132  1  0  0  0  0
 58133  1  0  0  0  0
 59134  1  0  0  0  0
 59135  1  0  0  0  0
M  END
$$$$