/media/chris/experiments/cd1a-new-docking/inputs/ligands/7ryo_ligand.pdb
 OpenBabel07032304133D

135137  0  0  1  0  0  0  0  0999 V2000
  -39.2043   59.3899   62.1545 N   0  0  0  0  0  0  0  0  0  0  0  0
  -36.7348   59.7718   64.5980 C   0  0  0  0  0  0  0  0  0  0  0  0
  -39.2782   57.6966   63.6448 O   0  0  0  0  0  0  0  0  0  0  0  0
  -35.8435   60.9185   64.9969 C   0  0  0  0  0  0  0  0  0  0  0  0
  -33.6519   56.2542   63.9242 N   0  0  0  0  0  0  0  0  0  0  0  0
  -34.6659   54.8731   65.3795 O   0  0  0  0  0  0  0  0  0  0  0  0
  -35.3784   60.8415   66.4398 C   0  0  0  0  0  0  0  0  0  0  0  0
  -32.2911   53.8912   66.3251 N   0  0  0  0  0  0  0  0  0  0  0  0
  -30.3679   54.0724   65.1625 O   0  0  0  0  0  0  0  0  0  0  0  0
  -34.5646   59.6016   66.7732 C   0  0  0  0  0  0  0  0  0  0  0  0
  -36.6216   50.9151   65.6064 N   0  0  0  0  0  0  0  0  0  0  0  0
  -32.1203   51.9620   68.3034 O   0  0  0  0  0  0  0  0  0  0  0  0
  -35.3150   58.3000   66.5263 C   0  0  0  0  0  0  0  0  0  0  0  0
  -37.3375   48.2256   63.2939 N   0  0  0  0  0  0  0  0  0  0  0  0
  -36.1585   55.1020   61.6953 O   0  0  0  0  0  0  0  0  0  0  0  0
  -36.6016   58.1685   67.3266 C   0  0  0  0  0  0  0  0  0  0  0  0
  -35.2623   54.2216   63.5667 O   0  0  0  0  0  0  0  0  0  0  0  0
  -36.4086   58.2322   68.8318 C   0  0  0  0  0  0  0  0  0  0  0  0
  -36.2676   53.1218   65.8649 O   0  0  0  0  0  0  0  0  0  0  0  0
  -37.6934   58.0836   69.6303 C   0  0  0  0  0  0  0  0  0  0  0  0
  -38.6376   49.5556   64.5475 O   0  0  0  0  0  0  0  0  0  0  0  0
  -38.7233   59.1486   69.3089 C   0  0  0  0  0  0  0  0  0  0  0  0
  -39.1536   59.1275   67.8548 C   0  0  0  0  0  0  0  0  0  0  0  0
  -39.7968   57.8288   67.4118 C   0  0  0  0  0  0  0  0  0  0  0  0
  -40.2002   57.8329   65.9503 C   0  0  0  0  0  0  0  0  0  0  0  0
  -40.8618   56.5411   65.4996 C   0  0  0  0  0  0  0  0  0  0  0  0
  -42.1422   56.2244   66.2494 C   0  0  0  0  0  0  0  0  0  0  0  0
  -43.2323   57.2724   66.0990 C   0  0  0  0  0  0  0  0  0  0  0  0
  -43.6854   57.4766   64.6636 C   0  0  0  0  0  0  0  0  0  0  0  0
  -42.5696   57.9135   63.7224 C   0  0  0  0  0  0  0  0  0  0  0  0
  -41.9483   59.2030   64.1603 C   0  0  0  0  0  0  0  0  0  0  0  0
  -40.6964   59.6030   63.9828 C   0  0  0  0  0  0  0  0  0  0  0  0
  -39.6580   58.8202   63.2762 C   0  0  0  0  0  0  0  0  0  0  0  0
  -38.2360   58.7337   61.2903 C   0  0  0  0  0  0  0  0  0  0  0  0
  -36.9560   58.4330   62.0390 C   0  0  0  0  0  0  0  0  0  0  0  0
  -35.8780   57.7610   61.2090 C   0  0  0  0  0  0  0  0  0  0  0  0
  -34.6110   57.4590   62.0020 C   0  0  0  0  0  0  0  0  0  0  0  0
  -34.8704   56.5130   63.1754 C   0  0  1  0  0  0  0  0  0  0  0  0
  -33.6588   55.4398   64.9822 C   0  0  0  0  0  0  0  0  0  0  0  0
  -32.3321   55.2384   65.7328 C   0  0  1  0  0  0  0  0  0  0  0  0
  -32.2337   56.2749   66.8481 C   0  0  0  0  0  0  0  0  0  0  0  0
  -31.1015   55.2741   64.8146 C   0  0  0  0  0  0  0  0  0  0  0  0
  -31.2031   53.3529   65.9565 C   0  0  0  0  0  0  0  0  0  0  0  0
  -30.7404   52.0091   66.3112 C   0  0  0  0  0  0  0  0  0  0  0  0
  -29.9322   51.2909   65.4290 C   0  0  0  0  0  0  0  0  0  0  0  0
  -29.6909   49.9436   65.6361 C   0  0  0  0  0  0  0  0  0  0  0  0
  -30.2458   49.2935   66.7169 C   0  0  0  0  0  0  0  0  0  0  0  0
  -31.0541   49.9813   67.6036 C   0  0  0  0  0  0  0  0  0  0  0  0
  -31.3101   51.3353   67.4111 C   0  0  0  0  0  0  0  0  0  0  0  0
  -35.5090   55.2173   62.6978 C   0  0  0  0  0  0  0  0  0  0  0  0
  -35.2031   52.8510   63.0493 C   0  0  2  0  0  0  0  0  0  0  0  0
  -36.5305   52.5357   62.4074 C   0  0  0  0  0  0  0  0  0  0  0  0
  -34.9212   51.9729   64.2530 C   0  0  0  0  0  0  0  0  0  0  0  0
  -35.9983   52.0595   65.3112 C   0  0  0  0  0  0  0  0  0  0  0  0
  -36.2798   49.6644   64.9518 C   0  0  1  0  0  0  0  0  0  0  0  0
  -35.8106   48.6380   65.9892 C   0  0  0  0  0  0  0  0  0  0  0  0
  -35.0167   47.4824   65.3896 C   0  0  0  0  0  0  0  0  0  0  0  0
  -35.7680   46.6248   64.3907 C   0  0  0  0  0  0  0  0  0  0  0  0
  -36.1773   47.3564   63.1295 C   0  0  0  0  0  0  0  0  0  0  0  0
  -37.5215   49.1428   64.2462 C   0  0  0  0  0  0  0  0  0  0  0  0
  -39.5365   60.2827   61.9057 H   0  0  0  0  0  0  0  0  0  0  0  0
  -37.0260   59.8857   63.5747 H   0  0  0  0  0  0  0  0  0  0  0  0
  -37.6067   59.7653   65.2183 H   0  0  0  0  0  0  0  0  0  0  0  0
  -36.2051   58.8499   64.7177 H   0  0  0  0  0  0  0  0  0  0  0  0
  -36.3840   61.8320   64.8623 H   0  0  0  0  0  0  0  0  0  0  0  0
  -34.9710   60.8724   64.3792 H   0  0  0  0  0  0  0  0  0  0  0  0
  -32.8109   56.6849   63.6478 H   0  0  0  0  0  0  0  0  0  0  0  0
  -36.2425   60.8541   67.0708 H   0  0  0  0  0  0  0  0  0  0  0  0
  -34.7338   61.6808   66.5975 H   0  0  0  0  0  0  0  0  0  0  0  0
  -34.2903   59.6439   67.8066 H   0  0  0  0  0  0  0  0  0  0  0  0
  -33.7114   59.6012   66.1275 H   0  0  0  0  0  0  0  0  0  0  0  0
  -37.3330   50.9198   66.2870 H   0  0  0  0  0  0  0  0  0  0  0  0
  -32.3124   52.8734   68.2020 H   0  0  0  0  0  0  0  0  0  0  0  0
  -34.6716   57.4857   66.7867 H   0  0  0  0  0  0  0  0  0  0  0  0
  -35.5905   58.2919   65.4924 H   0  0  0  0  0  0  0  0  0  0  0  0
  -38.0605   48.1251   62.6333 H   0  0  0  0  0  0  0  0  0  0  0  0
  -37.0518   57.2282   67.0857 H   0  0  0  0  0  0  0  0  0  0  0  0
  -37.2158   59.0031   67.0601 H   0  0  0  0  0  0  0  0  0  0  0  0
  -35.9700   59.1775   69.0743 H   0  0  0  0  0  0  0  0  0  0  0  0
  -35.7836   57.4054   69.0974 H   0  0  0  0  0  0  0  0  0  0  0  0
  -37.4553   58.1441   70.6717 H   0  0  0  0  0  0  0  0  0  0  0  0
  -38.1218   57.1384   69.3699 H   0  0  0  0  0  0  0  0  0  0  0  0
  -38.3031   60.1080   69.5276 H   0  0  0  0  0  0  0  0  0  0  0  0
  -39.5895   58.9505   69.9050 H   0  0  0  0  0  0  0  0  0  0  0  0
  -38.2893   59.2973   67.2473 H   0  0  0  0  0  0  0  0  0  0  0  0
  -39.8965   59.8897   67.7448 H   0  0  0  0  0  0  0  0  0  0  0  0
  -40.6710   57.6617   68.0058 H   0  0  0  0  0  0  0  0  0  0  0  0
  -39.0709   57.0532   67.5401 H   0  0  0  0  0  0  0  0  0  0  0  0
  -39.3232   57.9888   65.3574 H   0  0  0  0  0  0  0  0  0  0  0  0
  -40.9196   58.6150   65.8249 H   0  0  0  0  0  0  0  0  0  0  0  0
  -40.1727   55.7366   65.6510 H   0  0  0  0  0  0  0  0  0  0  0  0
  -41.1221   56.6632   64.4690 H   0  0  0  0  0  0  0  0  0  0  0  0
  -41.9073   56.1326   67.2892 H   0  0  0  0  0  0  0  0  0  0  0  0
  -42.5276   55.3197   65.8277 H   0  0  0  0  0  0  0  0  0  0  0  0
  -42.8602   58.2037   66.4720 H   0  0  0  0  0  0  0  0  0  0  0  0
  -44.0810   56.9236   66.6494 H   0  0  0  0  0  0  0  0  0  0  0  0
  -44.4478   58.2273   64.6542 H   0  0  0  0  0  0  0  0  0  0  0  0
  -44.0379   56.5300   64.3106 H   0  0  0  0  0  0  0  0  0  0  0  0
  -42.9743   58.0397   62.7399 H   0  0  0  0  0  0  0  0  0  0  0  0
  -41.8115   57.1584   63.7309 H   0  0  0  0  0  0  0  0  0  0  0  0
  -42.5683   59.8593   64.6602 H   0  0  0  0  0  0  0  0  0  0  0  0
  -40.4277   60.5237   64.3637 H   0  0  0  0  0  0  0  0  0  0  0  0
  -38.0148   59.3748   60.4627 H   0  0  0  0  0  0  0  0  0  0  0  0
  -38.6554   57.8106   60.9484 H   0  0  0  0  0  0  0  0  0  0  0  0
  -37.1937   57.7896   62.8603 H   0  0  0  0  0  0  0  0  0  0  0  0
  -36.5565   59.3772   62.3453 H   0  0  0  0  0  0  0  0  0  0  0  0
  -35.6238   58.4067   60.3945 H   0  0  0  0  0  0  0  0  0  0  0  0
  -36.2729   56.8255   60.8717 H   0  0  0  0  0  0  0  0  0  0  0  0
  -34.2161   58.3779   62.3821 H   0  0  0  0  0  0  0  0  0  0  0  0
  -33.9192   56.9787   61.3420 H   0  0  0  0  0  0  0  0  0  0  0  0
  -35.5592   56.9942   63.8379 H   0  0  0  0  0  0  0  0  0  0  0  0
  -33.1065   56.2194   67.4646 H   0  0  0  0  0  0  0  0  0  0  0  0
  -32.1606   57.2530   66.4206 H   0  0  0  0  0  0  0  0  0  0  0  0
  -31.3650   56.0791   67.4413 H   0  0  0  0  0  0  0  0  0  0  0  0
  -31.3943   55.2562   63.7856 H   0  0  0  0  0  0  0  0  0  0  0  0
  -30.5191   56.1628   64.9414 H   0  0  0  0  0  0  0  0  0  0  0  0
  -29.5112   51.7676   64.6163 H   0  0  0  0  0  0  0  0  0  0  0  0
  -29.0917   49.4228   64.9769 H   0  0  0  0  0  0  0  0  0  0  0  0
  -30.0574   48.2897   66.8653 H   0  0  0  0  0  0  0  0  0  0  0  0
  -31.4687   49.4889   68.4102 H   0  0  0  0  0  0  0  0  0  0  0  0
  -34.4469   52.7003   62.3074 H   0  0  0  0  0  0  0  0  0  0  0  0
  -37.3145   52.6757   63.1220 H   0  0  0  0  0  0  0  0  0  0  0  0
  -36.5317   51.5199   62.0711 H   0  0  0  0  0  0  0  0  0  0  0  0
  -36.6873   53.1876   61.5735 H   0  0  0  0  0  0  0  0  0  0  0  0
  -33.9914   52.2767   64.6867 H   0  0  0  0  0  0  0  0  0  0  0  0
  -34.8891   50.9598   63.9102 H   0  0  0  0  0  0  0  0  0  0  0  0
  -35.4892   49.8249   64.2489 H   0  0  0  0  0  0  0  0  0  0  0  0
  -36.6718   48.2371   66.4816 H   0  0  0  0  0  0  0  0  0  0  0  0
  -35.1573   49.1505   66.6640 H   0  0  0  0  0  0  0  0  0  0  0  0
  -34.6969   46.8507   66.1919 H   0  0  0  0  0  0  0  0  0  0  0  0
  -34.2109   47.9297   64.8461 H   0  0  0  0  0  0  0  0  0  0  0  0
  -36.6521   46.2533   64.8652 H   0  0  0  0  0  0  0  0  0  0  0  0
  -35.0998   45.8447   64.0909 H   0  0  0  0  0  0  0  0  0  0  0  0
  -35.3519   47.9556   62.8060 H   0  0  0  0  0  0  0  0  0  0  0  0
  -36.4511   46.6088   62.4147 H   0  0  0  0  0  0  0  0  0  0  0  0
  1 33  1  0  0  0  0
  1 34  1  0  0  0  0
  1 61  1  0  0  0  0
  2  4  1  0  0  0  0
  2 62  1  0  0  0  0
  2 63  1  0  0  0  0
  2 64  1  0  0  0  0
  3 33  2  0  0  0  0
  4  7  1  0  0  0  0
  4 65  1  0  0  0  0
  4 66  1  0  0  0  0
  5 38  1  0  0  0  0
  5 39  1  0  0  0  0
  5 67  1  0  0  0  0
  6 39  2  0  0  0  0
  7 10  1  0  0  0  0
  7 68  1  0  0  0  0
  7 69  1  0  0  0  0
  8 40  1  0  0  0  0
  8 43  2  0  0  0  0
  9 42  1  0  0  0  0
  9 43  1  0  0  0  0
 10 13  1  0  0  0  0
 10 70  1  0  0  0  0
 10 71  1  0  0  0  0
 11 54  1  0  0  0  0
 11 55  1  0  0  0  0
 11 72  1  0  0  0  0
 12 49  1  0  0  0  0
 12 73  1  0  0  0  0
 13 16  1  0  0  0  0
 13 74  1  0  0  0  0
 13 75  1  0  0  0  0
 14 59  1  0  0  0  0
 14 60  1  0  0  0  0
 14 76  1  0  0  0  0
 15 50  2  0  0  0  0
 16 18  1  0  0  0  0
 16 77  1  0  0  0  0
 16 78  1  0  0  0  0
 17 50  1  0  0  0  0
 17 51  1  0  0  0  0
 18 20  1  0  0  0  0
 18 79  1  0  0  0  0
 18 80  1  0  0  0  0
 19 54  2  0  0  0  0
 20 22  1  0  0  0  0
 20 81  1  0  0  0  0
 20 82  1  0  0  0  0
 21 60  2  0  0  0  0
 22 23  1  0  0  0  0
 22 83  1  0  0  0  0
 22 84  1  0  0  0  0
 23 24  1  0  0  0  0
 23 85  1  0  0  0  0
 23 86  1  0  0  0  0
 24 25  1  0  0  0  0
 24 87  1  0  0  0  0
 24 88  1  0  0  0  0
 25 26  1  0  0  0  0
 25 89  1  0  0  0  0
 25 90  1  0  0  0  0
 26 27  1  0  0  0  0
 26 91  1  0  0  0  0
 26 92  1  0  0  0  0
 27 28  1  0  0  0  0
 27 93  1  0  0  0  0
 27 94  1  0  0  0  0
 28 29  1  0  0  0  0
 28 95  1  0  0  0  0
 28 96  1  0  0  0  0
 29 30  1  0  0  0  0
 29 97  1  0  0  0  0
 29 98  1  0  0  0  0
 30 31  1  0  0  0  0
 30 99  1  0  0  0  0
 30100  1  0  0  0  0
 31 32  2  0  0  0  0
 31101  1  0  0  0  0
 32 33  1  0  0  0  0
 32102  1  0  0  0  0
 34 35  1  0  0  0  0
 34103  1  0  0  0  0
 34104  1  0  0  0  0
 35 36  1  0  0  0  0
 35105  1  0  0  0  0
 35106  1  0  0  0  0
 36 37  1  0  0  0  0
 36107  1  0  0  0  0
 36108  1  0  0  0  0
 37 38  1  0  0  0  0
 37109  1  0  0  0  0
 37110  1  0  0  0  0
 38 50  1  0  0  0  0
 38111  1  1  0  0  0
 40 39  1  6  0  0  0
 40 41  1  0  0  0  0
 40 42  1  0  0  0  0
 41112  1  0  0  0  0
 41113  1  0  0  0  0
 41114  1  0  0  0  0
 42115  1  0  0  0  0
 42116  1  0  0  0  0
 43 44  1  0  0  0  0
 44 45  2  0  0  0  0
 44 49  1  0  0  0  0
 45 46  1  0  0  0  0
 45117  1  0  0  0  0
 46 47  2  0  0  0  0
 46118  1  0  0  0  0
 47 48  1  0  0  0  0
 47119  1  0  0  0  0
 48 49  2  0  0  0  0
 48120  1  0  0  0  0
 51 52  1  0  0  0  0
 51 53  1  0  0  0  0
 51121  1  6  0  0  0
 52122  1  0  0  0  0
 52123  1  0  0  0  0
 52124  1  0  0  0  0
 53 54  1  0  0  0  0
 53125  1  0  0  0  0
 53126  1  0  0  0  0
 55 56  1  0  0  0  0
 55 60  1  0  0  0  0
 55127  1  6  0  0  0
 56 57  1  0  0  0  0
 56128  1  0  0  0  0
 56129  1  0  0  0  0
 57 58  1  0  0  0  0
 57130  1  0  0  0  0
 57131  1  0  0  0  0
 58 59  1  0  0  0  0
 58132  1  0  0  0  0
 58133  1  0  0  0  0
 59134  1  0  0  0  0
 59135  1  0  0  0  0
M  END
$$$$