/media/chris/experiments/cd1a-new-docking/inputs/ligands/7ryo_ligand.pdb
 OpenBabel07032304133D

135137  0  0  1  0  0  0  0  0999 V2000
  -37.9573   56.3471   62.8329 N   0  0  0  0  0  0  0  0  0  0  0  0
  -29.8627   45.1595   72.1641 C   0  0  0  0  0  0  0  0  0  0  0  0
  -37.3474   55.3010   64.7375 O   0  0  0  0  0  0  0  0  0  0  0  0
  -30.6072   46.3728   72.6561 C   0  0  0  0  0  0  0  0  0  0  0  0
  -34.0017   55.5459   60.5756 N   0  0  0  0  0  0  0  0  0  0  0  0
  -34.4515   54.3400   58.7324 O   0  0  0  0  0  0  0  0  0  0  0  0
  -30.0205   47.6797   72.1542 C   0  0  0  0  0  0  0  0  0  0  0  0
  -34.2915   56.5240   57.0886 N   0  0  0  0  0  0  0  0  0  0  0  0
  -34.4811   58.6310   57.8681 O   0  0  0  0  0  0  0  0  0  0  0  0
  -30.0198   47.8292   70.6414 C   0  0  0  0  0  0  0  0  0  0  0  0
  -30.1302   58.5282   64.2751 N   0  0  0  0  0  0  0  0  0  0  0  0
  -35.4626   60.4575   56.5386 O   0  0  0  0  0  0  0  0  0  0  0  0
  -29.2348   46.7387   69.9253 C   0  0  0  0  0  0  0  0  0  0  0  0
  -27.8399   61.2451   64.9580 N   0  0  0  0  0  0  0  0  0  0  0  0
  -31.2210   56.1784   61.4905 O   0  0  0  0  0  0  0  0  0  0  0  0
  -29.2128   46.8873   68.4119 C   0  0  0  0  0  0  0  0  0  0  0  0
  -32.4428   56.9252   63.2313 O   0  0  0  0  0  0  0  0  0  0  0  0
  -30.5865   46.8734   67.7641 C   0  0  0  0  0  0  0  0  0  0  0  0
  -31.4653   59.4698   65.8220 O   0  0  0  0  0  0  0  0  0  0  0  0
  -31.5033   47.9943   68.2262 C   0  0  0  0  0  0  0  0  0  0  0  0
  -29.1024   59.9379   66.2726 O   0  0  0  0  0  0  0  0  0  0  0  0
  -32.8736   47.9504   67.5795 C   0  0  0  0  0  0  0  0  0  0  0  0
  -33.7731   49.0831   68.0354 C   0  0  0  0  0  0  0  0  0  0  0  0
  -35.1597   49.0654   67.4239 C   0  0  0  0  0  0  0  0  0  0  0  0
  -35.1434   49.1477   65.9101 C   0  0  0  0  0  0  0  0  0  0  0  0
  -36.5297   49.1478   65.2872 C   0  0  0  0  0  0  0  0  0  0  0  0
  -37.3888   50.3190   65.7253 C   0  0  0  0  0  0  0  0  0  0  0  0
  -38.7858   50.3300   65.1275 C   0  0  0  0  0  0  0  0  0  0  0  0
  -39.6246   51.5186   65.5642 C   0  0  0  0  0  0  0  0  0  0  0  0
  -39.0336   52.8667   65.1704 C   0  0  0  0  0  0  0  0  0  0  0  0
  -38.8967   52.9994   63.6858 C   0  0  0  0  0  0  0  0  0  0  0  0
  -38.4110   54.0277   63.0035 C   0  0  0  0  0  0  0  0  0  0  0  0
  -37.8815   55.2661   63.6168 C   0  0  0  0  0  0  0  0  0  0  0  0
  -37.4201   57.6362   63.2386 C   0  0  0  0  0  0  0  0  0  0  0  0
  -36.9560   58.4330   62.0390 C   0  0  0  0  0  0  0  0  0  0  0  0
  -35.8780   57.7610   61.2090 C   0  0  0  0  0  0  0  0  0  0  0  0
  -34.6110   57.4590   62.0020 C   0  0  0  0  0  0  0  0  0  0  0  0
  -33.5311   56.7980   61.1441 C   0  0  1  0  0  0  0  0  0  0  0  0
  -34.0514   55.3707   59.2529 C   0  0  0  0  0  0  0  0  0  0  0  0
  -33.5563   56.5236   58.3641 C   0  0  1  0  0  0  0  0  0  0  0  0
  -32.0702   56.3255   58.0811 C   0  0  0  0  0  0  0  0  0  0  0  0
  -33.8416   57.9127   58.9536 C   0  0  0  0  0  0  0  0  0  0  0  0
  -34.7475   57.6957   56.9196 C   0  0  0  0  0  0  0  0  0  0  0  0
  -35.5436   58.1569   55.7797 C   0  0  0  0  0  0  0  0  0  0  0  0
  -35.8662   57.2747   54.7477 C   0  0  0  0  0  0  0  0  0  0  0  0
  -36.4005   57.7471   53.5614 C   0  0  0  0  0  0  0  0  0  0  0  0
  -36.6214   59.0956   53.3836 C   0  0  0  0  0  0  0  0  0  0  0  0
  -36.3061   59.9914   54.3891 C   0  0  0  0  0  0  0  0  0  0  0  0
  -35.7663   59.5360   55.5878 C   0  0  0  0  0  0  0  0  0  0  0  0
  -32.2521   56.5942   61.9423 C   0  0  0  0  0  0  0  0  0  0  0  0
  -31.6639   56.2146   64.2502 C   0  0  2  0  0  0  0  0  0  0  0  0
  -32.3291   54.8856   64.5048 C   0  0  0  0  0  0  0  0  0  0  0  0
  -31.6789   57.1110   65.4731 C   0  0  0  0  0  0  0  0  0  0  0  0
  -31.0823   58.4759   65.2111 C   0  0  0  0  0  0  0  0  0  0  0  0
  -29.4778   59.7744   63.9131 C   0  0  1  0  0  0  0  0  0  0  0  0
  -30.5145   60.7846   63.4088 C   0  0  0  0  0  0  0  0  0  0  0  0
  -29.9113   61.9253   62.5964 C   0  0  0  0  0  0  0  0  0  0  0  0
  -28.9257   62.8046   63.3401 C   0  0  0  0  0  0  0  0  0  0  0  0
  -27.6659   62.0890   63.7807 C   0  0  0  0  0  0  0  0  0  0  0  0
  -28.7897   60.3273   65.1512 C   0  0  0  0  0  0  0  0  0  0  0  0
  -38.3908   56.2676   61.9526 H   0  0  0  0  0  0  0  0  0  0  0  0
  -30.3248   44.2759   72.5520 H   0  0  0  0  0  0  0  0  0  0  0  0
  -28.8465   45.2057   72.4961 H   0  0  0  0  0  0  0  0  0  0  0  0
  -29.8877   45.1350   71.0947 H   0  0  0  0  0  0  0  0  0  0  0  0
  -30.5811   46.3771   73.7257 H   0  0  0  0  0  0  0  0  0  0  0  0
  -31.6061   46.3073   72.2782 H   0  0  0  0  0  0  0  0  0  0  0  0
  -34.2874   54.8177   61.1734 H   0  0  0  0  0  0  0  0  0  0  0  0
  -29.0091   47.7458   72.4972 H   0  0  0  0  0  0  0  0  0  0  0  0
  -30.6435   48.4607   72.5375 H   0  0  0  0  0  0  0  0  0  0  0  0
  -29.5871   48.7761   70.3945 H   0  0  0  0  0  0  0  0  0  0  0  0
  -31.0363   47.7514   70.3163 H   0  0  0  0  0  0  0  0  0  0  0  0
  -29.8633   57.6983   63.8177 H   0  0  0  0  0  0  0  0  0  0  0  0
  -35.0976   60.1835   57.3570 H   0  0  0  0  0  0  0  0  0  0  0  0
  -29.6760   45.7938   70.1646 H   0  0  0  0  0  0  0  0  0  0  0  0
  -28.2213   46.8156   70.2595 H   0  0  0  0  0  0  0  0  0  0  0  0
  -27.1885   61.3652   65.6864 H   0  0  0  0  0  0  0  0  0  0  0  0
  -28.6414   46.0799   68.0039 H   0  0  0  0  0  0  0  0  0  0  0  0
  -28.7846   47.8455   68.2035 H   0  0  0  0  0  0  0  0  0  0  0  0
  -31.0562   45.9396   67.9928 H   0  0  0  0  0  0  0  0  0  0  0  0
  -30.4335   47.0137   66.7144 H   0  0  0  0  0  0  0  0  0  0  0  0
  -31.0438   48.9302   67.9859 H   0  0  0  0  0  0  0  0  0  0  0  0
  -31.6452   47.8747   69.2799 H   0  0  0  0  0  0  0  0  0  0  0  0
  -33.3405   47.0207   67.8298 H   0  0  0  0  0  0  0  0  0  0  0  0
  -32.7358   48.0525   66.5233 H   0  0  0  0  0  0  0  0  0  0  0  0
  -33.3041   50.0088   67.7746 H   0  0  0  0  0  0  0  0  0  0  0  0
  -33.9030   48.9645   69.0908 H   0  0  0  0  0  0  0  0  0  0  0  0
  -35.7104   49.9001   67.8044 H   0  0  0  0  0  0  0  0  0  0  0  0
  -35.6128   48.1326   67.6877 H   0  0  0  0  0  0  0  0  0  0  0  0
  -34.6020   48.3062   65.5310 H   0  0  0  0  0  0  0  0  0  0  0  0
  -34.6822   50.0778   65.6507 H   0  0  0  0  0  0  0  0  0  0  0  0
  -37.0258   48.2412   65.5646 H   0  0  0  0  0  0  0  0  0  0  0  0
  -36.3995   49.2311   64.2285 H   0  0  0  0  0  0  0  0  0  0  0  0
  -36.8943   51.2231   65.4372 H   0  0  0  0  0  0  0  0  0  0  0  0
  -37.5102   50.2297   66.7846 H   0  0  0  0  0  0  0  0  0  0  0  0
  -39.2884   49.4335   65.4255 H   0  0  0  0  0  0  0  0  0  0  0  0
  -38.6724   50.3991   64.0657 H   0  0  0  0  0  0  0  0  0  0  0  0
  -39.7205   51.4905   66.6295 H   0  0  0  0  0  0  0  0  0  0  0  0
  -40.5676   51.4343   65.0656 H   0  0  0  0  0  0  0  0  0  0  0  0
  -38.0666   52.9653   65.6179 H   0  0  0  0  0  0  0  0  0  0  0  0
  -39.6954   53.6340   65.5140 H   0  0  0  0  0  0  0  0  0  0  0  0
  -39.2188   52.1944   63.1261 H   0  0  0  0  0  0  0  0  0  0  0  0
  -38.4018   53.9596   61.9738 H   0  0  0  0  0  0  0  0  0  0  0  0
  -36.5906   57.4783   63.8958 H   0  0  0  0  0  0  0  0  0  0  0  0
  -38.1924   58.1861   63.7346 H   0  0  0  0  0  0  0  0  0  0  0  0
  -36.5724   59.3687   62.3887 H   0  0  0  0  0  0  0  0  0  0  0  0
  -37.8072   58.5391   61.3994 H   0  0  0  0  0  0  0  0  0  0  0  0
  -35.6238   58.4067   60.3945 H   0  0  0  0  0  0  0  0  0  0  0  0
  -36.2729   56.8255   60.8717 H   0  0  0  0  0  0  0  0  0  0  0  0
  -34.8590   56.8018   62.8091 H   0  0  0  0  0  0  0  0  0  0  0  0
  -34.2203   58.3886   62.3599 H   0  0  0  0  0  0  0  0  0  0  0  0
  -33.3097   57.4574   60.3310 H   0  0  0  0  0  0  0  0  0  0  0  0
  -31.9118   55.3493   57.6727 H   0  0  0  0  0  0  0  0  0  0  0  0
  -31.5173   56.4251   58.9918 H   0  0  0  0  0  0  0  0  0  0  0  0
  -31.7391   57.0633   57.3804 H   0  0  0  0  0  0  0  0  0  0  0  0
  -34.4945   57.8405   59.7983 H   0  0  0  0  0  0  0  0  0  0  0  0
  -32.9563   58.4005   59.3046 H   0  0  0  0  0  0  0  0  0  0  0  0
  -35.7052   56.2627   54.8699 H   0  0  0  0  0  0  0  0  0  0  0  0
  -36.6350   57.0852   52.8051 H   0  0  0  0  0  0  0  0  0  0  0  0
  -37.0235   59.4383   52.4971 H   0  0  0  0  0  0  0  0  0  0  0  0
  -36.4718   61.0004   54.2498 H   0  0  0  0  0  0  0  0  0  0  0  0
  -30.6532   56.0146   63.9616 H   0  0  0  0  0  0  0  0  0  0  0  0
  -33.3459   55.0459   64.7970 H   0  0  0  0  0  0  0  0  0  0  0  0
  -31.8104   54.3710   65.2865 H   0  0  0  0  0  0  0  0  0  0  0  0
  -32.3032   54.2968   63.6118 H   0  0  0  0  0  0  0  0  0  0  0  0
  -31.1175   56.6367   66.2508 H   0  0  0  0  0  0  0  0  0  0  0  0
  -32.7018   57.2563   65.7516 H   0  0  0  0  0  0  0  0  0  0  0  0
  -28.7646   59.5999   63.1348 H   0  0  0  0  0  0  0  0  0  0  0  0
  -31.0193   61.2020   64.2549 H   0  0  0  0  0  0  0  0  0  0  0  0
  -31.1789   60.2541   62.7591 H   0  0  0  0  0  0  0  0  0  0  0  0
  -30.7127   62.5455   62.2530 H   0  0  0  0  0  0  0  0  0  0  0  0
  -29.3558   61.4629   61.8074 H   0  0  0  0  0  0  0  0  0  0  0  0
  -29.4126   63.1933   64.2100 H   0  0  0  0  0  0  0  0  0  0  0  0
  -28.6217   63.5712   62.6583 H   0  0  0  0  0  0  0  0  0  0  0  0
  -27.3295   61.4732   62.9729 H   0  0  0  0  0  0  0  0  0  0  0  0
  -26.9581   62.8463   64.0462 H   0  0  0  0  0  0  0  0  0  0  0  0
  1 33  1  0  0  0  0
  1 34  1  0  0  0  0
  1 61  1  0  0  0  0
  2  4  1  0  0  0  0
  2 62  1  0  0  0  0
  2 63  1  0  0  0  0
  2 64  1  0  0  0  0
  3 33  2  0  0  0  0
  4  7  1  0  0  0  0
  4 65  1  0  0  0  0
  4 66  1  0  0  0  0
  5 38  1  0  0  0  0
  5 39  1  0  0  0  0
  5 67  1  0  0  0  0
  6 39  2  0  0  0  0
  7 10  1  0  0  0  0
  7 68  1  0  0  0  0
  7 69  1  0  0  0  0
  8 40  1  0  0  0  0
  8 43  2  0  0  0  0
  9 42  1  0  0  0  0
  9 43  1  0  0  0  0
 10 13  1  0  0  0  0
 10 70  1  0  0  0  0
 10 71  1  0  0  0  0
 11 54  1  0  0  0  0
 11 55  1  0  0  0  0
 11 72  1  0  0  0  0
 12 49  1  0  0  0  0
 12 73  1  0  0  0  0
 13 16  1  0  0  0  0
 13 74  1  0  0  0  0
 13 75  1  0  0  0  0
 14 59  1  0  0  0  0
 14 60  1  0  0  0  0
 14 76  1  0  0  0  0
 15 50  2  0  0  0  0
 16 18  1  0  0  0  0
 16 77  1  0  0  0  0
 16 78  1  0  0  0  0
 17 50  1  0  0  0  0
 17 51  1  0  0  0  0
 18 20  1  0  0  0  0
 18 79  1  0  0  0  0
 18 80  1  0  0  0  0
 19 54  2  0  0  0  0
 20 22  1  0  0  0  0
 20 81  1  0  0  0  0
 20 82  1  0  0  0  0
 21 60  2  0  0  0  0
 22 23  1  0  0  0  0
 22 83  1  0  0  0  0
 22 84  1  0  0  0  0
 23 24  1  0  0  0  0
 23 85  1  0  0  0  0
 23 86  1  0  0  0  0
 24 25  1  0  0  0  0
 24 87  1  0  0  0  0
 24 88  1  0  0  0  0
 25 26  1  0  0  0  0
 25 89  1  0  0  0  0
 25 90  1  0  0  0  0
 26 27  1  0  0  0  0
 26 91  1  0  0  0  0
 26 92  1  0  0  0  0
 27 28  1  0  0  0  0
 27 93  1  0  0  0  0
 27 94  1  0  0  0  0
 28 29  1  0  0  0  0
 28 95  1  0  0  0  0
 28 96  1  0  0  0  0
 29 30  1  0  0  0  0
 29 97  1  0  0  0  0
 29 98  1  0  0  0  0
 30 31  1  0  0  0  0
 30 99  1  0  0  0  0
 30100  1  0  0  0  0
 31 32  2  0  0  0  0
 31101  1  0  0  0  0
 32 33  1  0  0  0  0
 32102  1  0  0  0  0
 34 35  1  0  0  0  0
 34103  1  0  0  0  0
 34104  1  0  0  0  0
 35 36  1  0  0  0  0
 35105  1  0  0  0  0
 35106  1  0  0  0  0
 36 37  1  0  0  0  0
 36107  1  0  0  0  0
 36108  1  0  0  0  0
 37 38  1  0  0  0  0
 37109  1  0  0  0  0
 37110  1  0  0  0  0
 38 50  1  0  0  0  0
 38111  1  6  0  0  0
 40 39  1  1  0  0  0
 40 41  1  0  0  0  0
 40 42  1  0  0  0  0
 41112  1  0  0  0  0
 41113  1  0  0  0  0
 41114  1  0  0  0  0
 42115  1  0  0  0  0
 42116  1  0  0  0  0
 43 44  1  0  0  0  0
 44 45  2  0  0  0  0
 44 49  1  0  0  0  0
 45 46  1  0  0  0  0
 45117  1  0  0  0  0
 46 47  2  0  0  0  0
 46118  1  0  0  0  0
 47 48  1  0  0  0  0
 47119  1  0  0  0  0
 48 49  2  0  0  0  0
 48120  1  0  0  0  0
 51 52  1  0  0  0  0
 51 53  1  0  0  0  0
 51121  1  6  0  0  0
 52122  1  0  0  0  0
 52123  1  0  0  0  0
 52124  1  0  0  0  0
 53 54  1  0  0  0  0
 53125  1  0  0  0  0
 53126  1  0  0  0  0
 55 56  1  0  0  0  0
 55 60  1  0  0  0  0
 55127  1  6  0  0  0
 56 57  1  0  0  0  0
 56128  1  0  0  0  0
 56129  1  0  0  0  0
 57 58  1  0  0  0  0
 57130  1  0  0  0  0
 57131  1  0  0  0  0
 58 59  1  0  0  0  0
 58132  1  0  0  0  0
 58133  1  0  0  0  0
 59134  1  0  0  0  0
 59135  1  0  0  0  0
M  END
$$$$