/media/chris/experiments/cd1a-new-docking/inputs/ligands/7ryo_ligand.pdb
 OpenBabel07032304133D

135137  0  0  1  0  0  0  0  0999 V2000
  -39.2043   59.3899   62.1545 N   0  0  0  0  0  0  0  0  0  0  0  0
  -47.7068   49.2685   54.6672 C   0  0  0  0  0  0  0  0  0  0  0  0
  -41.2404   60.3151   62.4578 O   0  0  0  0  0  0  0  0  0  0  0  0
  -46.8482   48.0361   54.5547 C   0  0  0  0  0  0  0  0  0  0  0  0
  -34.0017   55.5459   60.5756 N   0  0  0  0  0  0  0  0  0  0  0  0
  -35.6789   56.5223   59.4411 O   0  0  0  0  0  0  0  0  0  0  0  0
  -45.6182   48.0801   55.4431 C   0  0  0  0  0  0  0  0  0  0  0  0
  -36.6621   54.3182   58.3252 N   0  0  0  0  0  0  0  0  0  0  0  0
  -35.1824   53.1042   57.1337 O   0  0  0  0  0  0  0  0  0  0  0  0
  -44.6837   49.2467   55.1665 C   0  0  0  0  0  0  0  0  0  0  0  0
  -28.6885   60.9568   62.1971 N   0  0  0  0  0  0  0  0  0  0  0  0
  -36.5170   51.3704   55.5878 O   0  0  0  0  0  0  0  0  0  0  0  0
  -43.4498   49.2591   56.0584 C   0  0  0  0  0  0  0  0  0  0  0  0
  -26.0902   63.4656   62.4163 N   0  0  0  0  0  0  0  0  0  0  0  0
  -32.1446   55.8670   62.8909 O   0  0  0  0  0  0  0  0  0  0  0  0
  -42.5154   50.4314   55.8025 C   0  0  0  0  0  0  0  0  0  0  0  0
  -31.2621   57.3590   61.4502 O   0  0  0  0  0  0  0  0  0  0  0  0
  -43.1471   51.7935   56.0316 C   0  0  0  0  0  0  0  0  0  0  0  0
  -27.7619   59.3290   63.4435 O   0  0  0  0  0  0  0  0  0  0  0  0
  -42.2169   52.9642   55.7589 C   0  0  0  0  0  0  0  0  0  0  0  0
  -26.2013   61.4570   61.4246 O   0  0  0  0  0  0  0  0  0  0  0  0
  -42.8632   54.3122   56.0104 C   0  0  0  0  0  0  0  0  0  0  0  0
  -41.9310   55.4724   55.7187 C   0  0  0  0  0  0  0  0  0  0  0  0
  -42.5345   56.8389   55.9740 C   0  0  0  0  0  0  0  0  0  0  0  0
  -42.9513   57.0450   57.4171 C   0  0  0  0  0  0  0  0  0  0  0  0
  -43.5736   58.4063   57.6806 C   0  0  0  0  0  0  0  0  0  0  0  0
  -43.9745   58.6172   59.1285 C   0  0  0  0  0  0  0  0  0  0  0  0
  -44.6147   59.9660   59.4117 C   0  0  0  0  0  0  0  0  0  0  0  0
  -43.7213   61.1463   59.0715 C   0  0  0  0  0  0  0  0  0  0  0  0
  -42.3999   61.1567   59.8303 C   0  0  0  0  0  0  0  0  0  0  0  0
  -41.5814   59.9389   59.5344 C   0  0  0  0  0  0  0  0  0  0  0  0
  -40.7202   59.3250   60.3344 C   0  0  0  0  0  0  0  0  0  0  0  0
  -40.4196   59.7432   61.7219 C   0  0  0  0  0  0  0  0  0  0  0  0
  -38.2360   58.7337   61.2903 C   0  0  0  0  0  0  0  0  0  0  0  0
  -36.9560   58.4330   62.0390 C   0  0  0  0  0  0  0  0  0  0  0  0
  -35.8780   57.7610   61.2090 C   0  0  0  0  0  0  0  0  0  0  0  0
  -34.6110   57.4590   62.0020 C   0  0  0  0  0  0  0  0  0  0  0  0
  -33.5311   56.7980   61.1441 C   0  0  1  0  0  0  0  0  0  0  0  0
  -35.0564   55.5194   59.7572 C   0  0  0  0  0  0  0  0  0  0  0  0
  -35.5035   54.1507   59.2180 C   0  0  1  0  0  0  0  0  0  0  0  0
  -35.9057   53.2646   60.3932 C   0  0  0  0  0  0  0  0  0  0  0  0
  -34.4500   53.4722   58.3301 C   0  0  0  0  0  0  0  0  0  0  0  0
  -36.3864   53.7245   57.2384 C   0  0  0  0  0  0  0  0  0  0  0  0
  -37.2531   53.6308   56.0612 C   0  0  0  0  0  0  0  0  0  0  0  0
  -38.1655   54.6484   55.7801 C   0  0  0  0  0  0  0  0  0  0  0  0
  -39.1497   54.4649   54.8241 C   0  0  0  0  0  0  0  0  0  0  0  0
  -39.2412   53.2742   54.1367 C   0  0  0  0  0  0  0  0  0  0  0  0
  -38.3521   52.2481   54.3996 C   0  0  0  0  0  0  0  0  0  0  0  0
  -37.3574   52.4128   55.3584 C   0  0  0  0  0  0  0  0  0  0  0  0
  -32.2521   56.5942   61.9423 C   0  0  0  0  0  0  0  0  0  0  0  0
  -30.6531   58.3562   62.3360 C   0  0  2  0  0  0  0  0  0  0  0  0
  -31.5544   59.5645   62.3696 C   0  0  0  0  0  0  0  0  0  0  0  0
  -29.2972   58.6645   61.7311 C   0  0  0  0  0  0  0  0  0  0  0  0
  -28.5097   59.6762   62.5337 C   0  0  0  0  0  0  0  0  0  0  0  0
  -28.0049   62.0348   62.8901 C   0  0  1  0  0  0  0  0  0  0  0  0
  -27.7337   61.6371   64.3454 C   0  0  0  0  0  0  0  0  0  0  0  0
  -27.4450   62.8231   65.2593 C   0  0  0  0  0  0  0  0  0  0  0  0
  -26.2162   63.6361   64.9031 C   0  0  0  0  0  0  0  0  0  0  0  0
  -26.3045   64.3394   63.5649 C   0  0  0  0  0  0  0  0  0  0  0  0
  -26.6857   62.2946   62.1799 C   0  0  0  0  0  0  0  0  0  0  0  0
  -38.9572   59.5804   63.0882 H   0  0  0  0  0  0  0  0  0  0  0  0
  -48.5528   49.1742   54.0190 H   0  0  0  0  0  0  0  0  0  0  0  0
  -47.1355   50.1282   54.3853 H   0  0  0  0  0  0  0  0  0  0  0  0
  -48.0420   49.3786   55.6774 H   0  0  0  0  0  0  0  0  0  0  0  0
  -46.5298   47.9354   53.5381 H   0  0  0  0  0  0  0  0  0  0  0  0
  -47.4416   47.2053   54.8747 H   0  0  0  0  0  0  0  0  0  0  0  0
  -33.5369   54.7066   60.7968 H   0  0  0  0  0  0  0  0  0  0  0  0
  -45.0705   47.1719   55.3011 H   0  0  0  0  0  0  0  0  0  0  0  0
  -45.9707   48.2029   56.4459 H   0  0  0  0  0  0  0  0  0  0  0  0
  -45.2233   50.1575   55.3218 H   0  0  0  0  0  0  0  0  0  0  0  0
  -44.3424   49.1452   54.1575 H   0  0  0  0  0  0  0  0  0  0  0  0
  -29.3012   61.1760   61.4583 H   0  0  0  0  0  0  0  0  0  0  0  0
  -35.8365   51.4491   56.2271 H   0  0  0  0  0  0  0  0  0  0  0  0
  -42.9058   48.3526   55.8934 H   0  0  0  0  0  0  0  0  0  0  0  0
  -43.7964   49.3527   57.0664 H   0  0  0  0  0  0  0  0  0  0  0  0
  -25.4380   63.7717   61.7454 H   0  0  0  0  0  0  0  0  0  0  0  0
  -42.1853   50.3815   54.7859 H   0  0  0  0  0  0  0  0  0  0  0  0
  -41.7126   50.3432   56.5043 H   0  0  0  0  0  0  0  0  0  0  0  0
  -43.4660   51.8485   57.0515 H   0  0  0  0  0  0  0  0  0  0  0  0
  -43.9585   51.8771   55.3390 H   0  0  0  0  0  0  0  0  0  0  0  0
  -41.9072   52.9213   54.7356 H   0  0  0  0  0  0  0  0  0  0  0  0
  -41.3906   52.8772   56.4332 H   0  0  0  0  0  0  0  0  0  0  0  0
  -43.1614   54.3626   57.0368 H   0  0  0  0  0  0  0  0  0  0  0  0
  -43.7008   54.3970   55.3500 H   0  0  0  0  0  0  0  0  0  0  0  0
  -41.6436   55.4203   54.6893 H   0  0  0  0  0  0  0  0  0  0  0  0
  -41.1021   55.3744   56.3883 H   0  0  0  0  0  0  0  0  0  0  0  0
  -43.3971   56.9520   55.3510 H   0  0  0  0  0  0  0  0  0  0  0  0
  -41.7819   57.5665   55.7523 H   0  0  0  0  0  0  0  0  0  0  0  0
  -42.0856   56.9427   58.0374 H   0  0  0  0  0  0  0  0  0  0  0  0
  -43.6976   56.3103   57.6368 H   0  0  0  0  0  0  0  0  0  0  0  0
  -44.4465   58.5038   57.0696 H   0  0  0  0  0  0  0  0  0  0  0  0
  -42.8321   59.1420   57.4486 H   0  0  0  0  0  0  0  0  0  0  0  0
  -43.0975   58.5289   59.7351 H   0  0  0  0  0  0  0  0  0  0  0  0
  -44.7125   57.8755   59.3525 H   0  0  0  0  0  0  0  0  0  0  0  0
  -44.8565   60.0138   60.4529 H   0  0  0  0  0  0  0  0  0  0  0  0
  -45.4817   60.0389   58.7889 H   0  0  0  0  0  0  0  0  0  0  0  0
  -44.2501   62.0473   59.3028 H   0  0  0  0  0  0  0  0  0  0  0  0
  -43.4827   61.0668   58.0315 H   0  0  0  0  0  0  0  0  0  0  0  0
  -42.6033   61.1910   60.8802 H   0  0  0  0  0  0  0  0  0  0  0  0
  -41.8435   62.0161   59.5190 H   0  0  0  0  0  0  0  0  0  0  0  0
  -41.7017   59.5279   58.5954 H   0  0  0  0  0  0  0  0  0  0  0  0
  -40.2254   58.4986   59.9639 H   0  0  0  0  0  0  0  0  0  0  0  0
  -38.0148   59.3748   60.4627 H   0  0  0  0  0  0  0  0  0  0  0  0
  -38.6554   57.8106   60.9484 H   0  0  0  0  0  0  0  0  0  0  0  0
  -37.1937   57.7896   62.8603 H   0  0  0  0  0  0  0  0  0  0  0  0
  -36.5565   59.3772   62.3453 H   0  0  0  0  0  0  0  0  0  0  0  0
  -35.6238   58.4067   60.3945 H   0  0  0  0  0  0  0  0  0  0  0  0
  -36.2729   56.8255   60.8717 H   0  0  0  0  0  0  0  0  0  0  0  0
  -34.8590   56.8018   62.8091 H   0  0  0  0  0  0  0  0  0  0  0  0
  -34.2203   58.3886   62.3599 H   0  0  0  0  0  0  0  0  0  0  0  0
  -33.3097   57.4574   60.3310 H   0  0  0  0  0  0  0  0  0  0  0  0
  -36.6387   53.7702   60.9865 H   0  0  0  0  0  0  0  0  0  0  0  0
  -35.0446   53.0547   60.9926 H   0  0  0  0  0  0  0  0  0  0  0  0
  -36.3159   52.3477   60.0245 H   0  0  0  0  0  0  0  0  0  0  0  0
  -33.6561   54.1504   58.0963 H   0  0  0  0  0  0  0  0  0  0  0  0
  -33.9905   52.6313   58.8062 H   0  0  0  0  0  0  0  0  0  0  0  0
  -38.1062   55.5445   56.2887 H   0  0  0  0  0  0  0  0  0  0  0  0
  -39.8190   55.2247   54.6249 H   0  0  0  0  0  0  0  0  0  0  0  0
  -39.9760   53.1477   53.4231 H   0  0  0  0  0  0  0  0  0  0  0  0
  -38.4265   51.3578   53.8831 H   0  0  0  0  0  0  0  0  0  0  0  0
  -30.5307   58.0221   63.3451 H   0  0  0  0  0  0  0  0  0  0  0  0
  -31.7006   59.9283   61.3740 H   0  0  0  0  0  0  0  0  0  0  0  0
  -31.1032   60.3296   62.9662 H   0  0  0  0  0  0  0  0  0  0  0  0
  -32.4991   59.2931   62.7925 H   0  0  0  0  0  0  0  0  0  0  0  0
  -29.4438   59.0514   60.7443 H   0  0  0  0  0  0  0  0  0  0  0  0
  -28.7351   57.7541   61.7230 H   0  0  0  0  0  0  0  0  0  0  0  0
  -28.6129   62.9152   62.8845 H   0  0  0  0  0  0  0  0  0  0  0  0
  -26.8884   60.9815   64.3649 H   0  0  0  0  0  0  0  0  0  0  0  0
  -28.6221   61.1673   64.7127 H   0  0  0  0  0  0  0  0  0  0  0  0
  -27.3165   62.4496   66.2537 H   0  0  0  0  0  0  0  0  0  0  0  0
  -28.2777   63.4864   65.1525 H   0  0  0  0  0  0  0  0  0  0  0  0
  -25.3729   62.9778   64.8813 H   0  0  0  0  0  0  0  0  0  0  0  0
  -26.1263   64.4000   65.6469 H   0  0  0  0  0  0  0  0  0  0  0  0
  -27.2778   64.7754   63.4782 H   0  0  0  0  0  0  0  0  0  0  0  0
  -25.5215   65.0685   63.5477 H   0  0  0  0  0  0  0  0  0  0  0  0
  1 33  1  0  0  0  0
  1 34  1  0  0  0  0
  1 61  1  0  0  0  0
  2  4  1  0  0  0  0
  2 62  1  0  0  0  0
  2 63  1  0  0  0  0
  2 64  1  0  0  0  0
  3 33  2  0  0  0  0
  4  7  1  0  0  0  0
  4 65  1  0  0  0  0
  4 66  1  0  0  0  0
  5 38  1  0  0  0  0
  5 39  1  0  0  0  0
  5 67  1  0  0  0  0
  6 39  2  0  0  0  0
  7 10  1  0  0  0  0
  7 68  1  0  0  0  0
  7 69  1  0  0  0  0
  8 40  1  0  0  0  0
  8 43  2  0  0  0  0
  9 42  1  0  0  0  0
  9 43  1  0  0  0  0
 10 13  1  0  0  0  0
 10 70  1  0  0  0  0
 10 71  1  0  0  0  0
 11 54  1  0  0  0  0
 11 55  1  0  0  0  0
 11 72  1  0  0  0  0
 12 49  1  0  0  0  0
 12 73  1  0  0  0  0
 13 16  1  0  0  0  0
 13 74  1  0  0  0  0
 13 75  1  0  0  0  0
 14 59  1  0  0  0  0
 14 60  1  0  0  0  0
 14 76  1  0  0  0  0
 15 50  2  0  0  0  0
 16 18  1  0  0  0  0
 16 77  1  0  0  0  0
 16 78  1  0  0  0  0
 17 50  1  0  0  0  0
 17 51  1  0  0  0  0
 18 20  1  0  0  0  0
 18 79  1  0  0  0  0
 18 80  1  0  0  0  0
 19 54  2  0  0  0  0
 20 22  1  0  0  0  0
 20 81  1  0  0  0  0
 20 82  1  0  0  0  0
 21 60  2  0  0  0  0
 22 23  1  0  0  0  0
 22 83  1  0  0  0  0
 22 84  1  0  0  0  0
 23 24  1  0  0  0  0
 23 85  1  0  0  0  0
 23 86  1  0  0  0  0
 24 25  1  0  0  0  0
 24 87  1  0  0  0  0
 24 88  1  0  0  0  0
 25 26  1  0  0  0  0
 25 89  1  0  0  0  0
 25 90  1  0  0  0  0
 26 27  1  0  0  0  0
 26 91  1  0  0  0  0
 26 92  1  0  0  0  0
 27 28  1  0  0  0  0
 27 93  1  0  0  0  0
 27 94  1  0  0  0  0
 28 29  1  0  0  0  0
 28 95  1  0  0  0  0
 28 96  1  0  0  0  0
 29 30  1  0  0  0  0
 29 97  1  0  0  0  0
 29 98  1  0  0  0  0
 30 31  1  0  0  0  0
 30 99  1  0  0  0  0
 30100  1  0  0  0  0
 31 32  2  0  0  0  0
 31101  1  0  0  0  0
 32 33  1  0  0  0  0
 32102  1  0  0  0  0
 34 35  1  0  0  0  0
 34103  1  0  0  0  0
 34104  1  0  0  0  0
 35 36  1  0  0  0  0
 35105  1  0  0  0  0
 35106  1  0  0  0  0
 36 37  1  0  0  0  0
 36107  1  0  0  0  0
 36108  1  0  0  0  0
 37 38  1  0  0  0  0
 37109  1  0  0  0  0
 37110  1  0  0  0  0
 38 50  1  0  0  0  0
 38111  1  6  0  0  0
 40 39  1  1  0  0  0
 40 41  1  0  0  0  0
 40 42  1  0  0  0  0
 41112  1  0  0  0  0
 41113  1  0  0  0  0
 41114  1  0  0  0  0
 42115  1  0  0  0  0
 42116  1  0  0  0  0
 43 44  1  0  0  0  0
 44 45  2  0  0  0  0
 44 49  1  0  0  0  0
 45 46  1  0  0  0  0
 45117  1  0  0  0  0
 46 47  2  0  0  0  0
 46118  1  0  0  0  0
 47 48  1  0  0  0  0
 47119  1  0  0  0  0
 48 49  2  0  0  0  0
 48120  1  0  0  0  0
 51 52  1  0  0  0  0
 51 53  1  0  0  0  0
 51121  1  1  0  0  0
 52122  1  0  0  0  0
 52123  1  0  0  0  0
 52124  1  0  0  0  0
 53 54  1  0  0  0  0
 53125  1  0  0  0  0
 53126  1  0  0  0  0
 55 56  1  0  0  0  0
 55 60  1  0  0  0  0
 55127  1  6  0  0  0
 56 57  1  0  0  0  0
 56128  1  0  0  0  0
 56129  1  0  0  0  0
 57 58  1  0  0  0  0
 57130  1  0  0  0  0
 57131  1  0  0  0  0
 58 59  1  0  0  0  0
 58132  1  0  0  0  0
 58133  1  0  0  0  0
 59134  1  0  0  0  0
 59135  1  0  0  0  0
M  END
$$$$