/media/chris/experiments/cd1a-new-docking/inputs/ligands/7ryo_ligand.pdb
 OpenBabel07032304133D

135137  0  0  1  0  0  0  0  0999 V2000
  -37.9843   59.6092   60.1567 N   0  0  0  0  0  0  0  0  0  0  0  0
  -44.5874   61.0997   47.3523 C   0  0  0  0  0  0  0  0  0  0  0  0
  -38.4998   60.3021   58.0715 O   0  0  0  0  0  0  0  0  0  0  0  0
  -45.6110   61.4859   48.3876 C   0  0  0  0  0  0  0  0  0  0  0  0
  -33.1324   57.6580   60.0424 N   0  0  0  0  0  0  0  0  0  0  0  0
  -30.9871   57.7601   60.7067 O   0  0  0  0  0  0  0  0  0  0  0  0
  -46.7350   60.4750   48.5244 C   0  0  0  0  0  0  0  0  0  0  0  0
  -32.4345   58.7123   57.6086 N   0  0  0  0  0  0  0  0  0  0  0  0
  -32.5874   60.9396   57.9228 O   0  0  0  0  0  0  0  0  0  0  0  0
  -46.2838   59.0855   48.9447 C   0  0  0  0  0  0  0  0  0  0  0  0
  -38.4120   53.7408   62.5705 N   0  0  0  0  0  0  0  0  0  0  0  0
  -33.7980   62.4213   56.3716 O   0  0  0  0  0  0  0  0  0  0  0  0
  -45.2935   58.4519   47.9773 C   0  0  0  0  0  0  0  0  0  0  0  0
  -40.5757   55.7929   64.6201 N   0  0  0  0  0  0  0  0  0  0  0  0
  -33.3116   54.6686   60.0224 O   0  0  0  0  0  0  0  0  0  0  0  0
  -44.8477   57.0542   48.3785 C   0  0  0  0  0  0  0  0  0  0  0  0
  -35.2791   55.2259   60.9704 O   0  0  0  0  0  0  0  0  0  0  0  0
  -44.1726   56.9812   49.7371 C   0  0  0  0  0  0  0  0  0  0  0  0
  -36.8881   52.6490   61.3265 O   0  0  0  0  0  0  0  0  0  0  0  0
  -42.9239   57.8392   49.8579 C   0  0  0  0  0  0  0  0  0  0  0  0
  -40.1781   53.5868   64.5430 O   0  0  0  0  0  0  0  0  0  0  0  0
  -42.2580   57.7373   51.2160 C   0  0  0  0  0  0  0  0  0  0  0  0
  -41.0233   58.6106   51.3300 C   0  0  0  0  0  0  0  0  0  0  0  0
  -40.3178   58.5244   52.6686 C   0  0  0  0  0  0  0  0  0  0  0  0
  -39.0983   59.4208   52.7572 C   0  0  0  0  0  0  0  0  0  0  0  0
  -38.3733   59.3294   54.0897 C   0  0  0  0  0  0  0  0  0  0  0  0
  -37.8500   57.9393   54.3987 C   0  0  0  0  0  0  0  0  0  0  0  0
  -37.1359   57.8209   55.7348 C   0  0  0  0  0  0  0  0  0  0  0  0
  -38.0156   58.1579   56.9263 C   0  0  0  0  0  0  0  0  0  0  0  0
  -39.2343   57.2539   57.0667 C   0  0  0  0  0  0  0  0  0  0  0  0
  -40.0759   57.6372   58.2436 C   0  0  0  0  0  0  0  0  0  0  0  0
  -39.8651   58.6217   59.1067 C   0  0  0  0  0  0  0  0  0  0  0  0
  -38.7243   59.5625   59.0436 C   0  0  0  0  0  0  0  0  0  0  0  0
  -38.2360   58.7337   61.2903 C   0  0  0  0  0  0  0  0  0  0  0  0
  -36.9560   58.4330   62.0390 C   0  0  0  0  0  0  0  0  0  0  0  0
  -35.8780   57.7610   61.2090 C   0  0  0  0  0  0  0  0  0  0  0  0
  -34.6110   57.4590   62.0020 C   0  0  0  0  0  0  0  0  0  0  0  0
  -33.5311   56.7980   61.1441 C   0  0  1  0  0  0  0  0  0  0  0  0
  -31.8686   58.0712   59.9196 C   0  0  0  0  0  0  0  0  0  0  0  0
  -31.5354   58.9980   58.7389 C   0  0  1  0  0  0  0  0  0  0  0  0
  -30.0949   58.7453   58.3042 C   0  0  0  0  0  0  0  0  0  0  0  0
  -31.7849   60.4830   59.0411 C   0  0  0  0  0  0  0  0  0  0  0  0
  -32.9475   59.8157   57.2499 C   0  0  0  0  0  0  0  0  0  0  0  0
  -33.9039   60.0093   56.1574 C   0  0  0  0  0  0  0  0  0  0  0  0
  -34.3325   58.9184   55.4000 C   0  0  0  0  0  0  0  0  0  0  0  0
  -35.0363   59.1131   54.2240 C   0  0  0  0  0  0  0  0  0  0  0  0
  -35.3234   60.3875   53.7855 C   0  0  0  0  0  0  0  0  0  0  0  0
  -34.9060   61.4856   54.5153 C   0  0  0  0  0  0  0  0  0  0  0  0
  -34.1957   61.3103   55.6987 C   0  0  0  0  0  0  0  0  0  0  0  0
  -33.9929   55.4382   60.6419 C   0  0  0  0  0  0  0  0  0  0  0  0
  -36.2431   55.0100   59.8870 C   0  0  2  0  0  0  0  0  0  0  0  0
  -36.2272   56.2274   58.9974 C   0  0  0  0  0  0  0  0  0  0  0  0
  -37.5833   54.8104   60.5677 C   0  0  0  0  0  0  0  0  0  0  0  0
  -37.5913   53.6365   61.5214 C   0  0  0  0  0  0  0  0  0  0  0  0
  -39.2480   54.9104   62.7773 C   0  0  1  0  0  0  0  0  0  0  0  0
  -40.2123   55.0836   61.5984 C   0  0  0  0  0  0  0  0  0  0  0  0
  -40.7988   56.4870   61.4898 C   0  0  0  0  0  0  0  0  0  0  0  0
  -41.6350   56.9369   62.6713 C   0  0  0  0  0  0  0  0  0  0  0  0
  -40.8603   57.0657   63.9661 C   0  0  0  0  0  0  0  0  0  0  0  0
  -40.0421   54.7062   64.0578 C   0  0  0  0  0  0  0  0  0  0  0  0
  -37.2452   60.2572   60.2104 H   0  0  0  0  0  0  0  0  0  0  0  0
  -43.8263   61.8504   47.3059 H   0  0  0  0  0  0  0  0  0  0  0  0
  -45.0615   61.0129   46.3971 H   0  0  0  0  0  0  0  0  0  0  0  0
  -44.1472   60.1615   47.6186 H   0  0  0  0  0  0  0  0  0  0  0  0
  -46.0339   62.4293   48.1120 H   0  0  0  0  0  0  0  0  0  0  0  0
  -45.1075   61.5307   49.3307 H   0  0  0  0  0  0  0  0  0  0  0  0
  -33.8025   57.9396   59.3784 H   0  0  0  0  0  0  0  0  0  0  0  0
  -47.2293   60.3945   47.5789 H   0  0  0  0  0  0  0  0  0  0  0  0
  -47.3762   60.8354   49.3016 H   0  0  0  0  0  0  0  0  0  0  0  0
  -47.1455   58.4544   49.0094 H   0  0  0  0  0  0  0  0  0  0  0  0
  -45.7847   59.1870   49.8856 H   0  0  0  0  0  0  0  0  0  0  0  0
  -38.4512   53.0038   63.2221 H   0  0  0  0  0  0  0  0  0  0  0  0
  -33.3178   62.3375   57.1719 H   0  0  0  0  0  0  0  0  0  0  0  0
  -44.4280   59.0787   47.9227 H   0  0  0  0  0  0  0  0  0  0  0  0
  -45.7944   58.3597   47.0363 H   0  0  0  0  0  0  0  0  0  0  0  0
  -40.8008   55.7288   65.5764 H   0  0  0  0  0  0  0  0  0  0  0  0
  -44.1584   56.6976   47.6418 H   0  0  0  0  0  0  0  0  0  0  0  0
  -45.7326   56.4562   48.4426 H   0  0  0  0  0  0  0  0  0  0  0  0
  -43.8998   55.9632   49.9221 H   0  0  0  0  0  0  0  0  0  0  0  0
  -44.8753   57.3577   50.4507 H   0  0  0  0  0  0  0  0  0  0  0  0
  -43.1951   58.8602   49.6880 H   0  0  0  0  0  0  0  0  0  0  0  0
  -42.2224   57.4833   49.1325 H   0  0  0  0  0  0  0  0  0  0  0  0
  -41.9736   56.7193   51.3822 H   0  0  0  0  0  0  0  0  0  0  0  0
  -42.9619   58.0762   51.9471 H   0  0  0  0  0  0  0  0  0  0  0  0
  -41.3164   59.6273   51.1709 H   0  0  0  0  0  0  0  0  0  0  0  0
  -40.3299   58.2571   50.5957 H   0  0  0  0  0  0  0  0  0  0  0  0
  -40.0085   57.5122   52.8259 H   0  0  0  0  0  0  0  0  0  0  0  0
  -41.0100   58.8526   53.4156 H   0  0  0  0  0  0  0  0  0  0  0  0
  -39.4113   60.4335   52.6108 H   0  0  0  0  0  0  0  0  0  0  0  0
  -38.4128   59.0945   52.0032 H   0  0  0  0  0  0  0  0  0  0  0  0
  -39.0525   59.6160   54.8653 H   0  0  0  0  0  0  0  0  0  0  0  0
  -37.5256   59.9798   54.0325 H   0  0  0  0  0  0  0  0  0  0  0  0
  -37.1638   57.6606   53.6265 H   0  0  0  0  0  0  0  0  0  0  0  0
  -38.7034   57.2959   54.4500 H   0  0  0  0  0  0  0  0  0  0  0  0
  -36.2999   58.4887   55.7320 H   0  0  0  0  0  0  0  0  0  0  0  0
  -36.8395   56.7984   55.8427 H   0  0  0  0  0  0  0  0  0  0  0  0
  -38.3548   59.1672   56.8203 H   0  0  0  0  0  0  0  0  0  0  0  0
  -37.4197   58.0158   57.8035 H   0  0  0  0  0  0  0  0  0  0  0  0
  -38.9041   56.2437   57.1909 H   0  0  0  0  0  0  0  0  0  0  0  0
  -39.8294   57.3572   56.1835 H   0  0  0  0  0  0  0  0  0  0  0  0
  -40.9215   57.0673   58.4023 H   0  0  0  0  0  0  0  0  0  0  0  0
  -40.5433   58.7400   59.8756 H   0  0  0  0  0  0  0  0  0  0  0  0
  -38.6582   57.8163   60.9368 H   0  0  0  0  0  0  0  0  0  0  0  0
  -38.9129   59.2259   61.9570 H   0  0  0  0  0  0  0  0  0  0  0  0
  -37.1937   57.7896   62.8603 H   0  0  0  0  0  0  0  0  0  0  0  0
  -36.5565   59.3772   62.3453 H   0  0  0  0  0  0  0  0  0  0  0  0
  -35.6238   58.4067   60.3945 H   0  0  0  0  0  0  0  0  0  0  0  0
  -36.2729   56.8255   60.8717 H   0  0  0  0  0  0  0  0  0  0  0  0
  -34.8590   56.8018   62.8091 H   0  0  0  0  0  0  0  0  0  0  0  0
  -34.2203   58.3886   62.3599 H   0  0  0  0  0  0  0  0  0  0  0  0
  -32.6704   56.6456   61.7612 H   0  0  0  0  0  0  0  0  0  0  0  0
  -29.9606   57.7030   58.1033 H   0  0  0  0  0  0  0  0  0  0  0  0
  -29.4286   59.0467   59.0853 H   0  0  0  0  0  0  0  0  0  0  0  0
  -29.8852   59.3091   57.4193 H   0  0  0  0  0  0  0  0  0  0  0  0
  -32.3160   60.5993   59.9627 H   0  0  0  0  0  0  0  0  0  0  0  0
  -30.8772   61.0388   59.1502 H   0  0  0  0  0  0  0  0  0  0  0  0
  -34.1233   57.9595   55.7189 H   0  0  0  0  0  0  0  0  0  0  0  0
  -35.3480   58.2987   53.6722 H   0  0  0  0  0  0  0  0  0  0  0  0
  -35.8517   60.5229   52.9094 H   0  0  0  0  0  0  0  0  0  0  0  0
  -35.1221   62.4378   54.1811 H   0  0  0  0  0  0  0  0  0  0  0  0
  -36.0210   54.1632   59.2717 H   0  0  0  0  0  0  0  0  0  0  0  0
  -36.4460   57.0978   59.5800 H   0  0  0  0  0  0  0  0  0  0  0  0
  -36.9642   56.1176   58.2294 H   0  0  0  0  0  0  0  0  0  0  0  0
  -35.2600   56.3306   58.5514 H   0  0  0  0  0  0  0  0  0  0  0  0
  -38.3265   54.6445   59.8160 H   0  0  0  0  0  0  0  0  0  0  0  0
  -37.7859   55.6908   61.1412 H   0  0  0  0  0  0  0  0  0  0  0  0
  -38.6379   55.7863   62.8506 H   0  0  0  0  0  0  0  0  0  0  0  0
  -41.0176   54.3887   61.7153 H   0  0  0  0  0  0  0  0  0  0  0  0
  -39.6500   54.9088   60.7051 H   0  0  0  0  0  0  0  0  0  0  0  0
  -41.4167   56.5196   60.6169 H   0  0  0  0  0  0  0  0  0  0  0  0
  -39.9624   57.1532   61.4506 H   0  0  0  0  0  0  0  0  0  0  0  0
  -42.4190   56.2238   62.8187 H   0  0  0  0  0  0  0  0  0  0  0  0
  -42.0025   57.9135   62.4342 H   0  0  0  0  0  0  0  0  0  0  0  0
  -39.9299   57.5497   63.7541 H   0  0  0  0  0  0  0  0  0  0  0  0
  -41.4750   57.6269   64.6385 H   0  0  0  0  0  0  0  0  0  0  0  0
  1 33  1  0  0  0  0
  1 34  1  0  0  0  0
  1 61  1  0  0  0  0
  2  4  1  0  0  0  0
  2 62  1  0  0  0  0
  2 63  1  0  0  0  0
  2 64  1  0  0  0  0
  3 33  2  0  0  0  0
  4  7  1  0  0  0  0
  4 65  1  0  0  0  0
  4 66  1  0  0  0  0
  5 38  1  0  0  0  0
  5 39  1  0  0  0  0
  5 67  1  0  0  0  0
  6 39  2  0  0  0  0
  7 10  1  0  0  0  0
  7 68  1  0  0  0  0
  7 69  1  0  0  0  0
  8 40  1  0  0  0  0
  8 43  2  0  0  0  0
  9 42  1  0  0  0  0
  9 43  1  0  0  0  0
 10 13  1  0  0  0  0
 10 70  1  0  0  0  0
 10 71  1  0  0  0  0
 11 54  1  0  0  0  0
 11 55  1  0  0  0  0
 11 72  1  0  0  0  0
 12 49  1  0  0  0  0
 12 73  1  0  0  0  0
 13 16  1  0  0  0  0
 13 74  1  0  0  0  0
 13 75  1  0  0  0  0
 14 59  1  0  0  0  0
 14 60  1  0  0  0  0
 14 76  1  0  0  0  0
 15 50  2  0  0  0  0
 16 18  1  0  0  0  0
 16 77  1  0  0  0  0
 16 78  1  0  0  0  0
 17 50  1  0  0  0  0
 17 51  1  0  0  0  0
 18 20  1  0  0  0  0
 18 79  1  0  0  0  0
 18 80  1  0  0  0  0
 19 54  2  0  0  0  0
 20 22  1  0  0  0  0
 20 81  1  0  0  0  0
 20 82  1  0  0  0  0
 21 60  2  0  0  0  0
 22 23  1  0  0  0  0
 22 83  1  0  0  0  0
 22 84  1  0  0  0  0
 23 24  1  0  0  0  0
 23 85  1  0  0  0  0
 23 86  1  0  0  0  0
 24 25  1  0  0  0  0
 24 87  1  0  0  0  0
 24 88  1  0  0  0  0
 25 26  1  0  0  0  0
 25 89  1  0  0  0  0
 25 90  1  0  0  0  0
 26 27  1  0  0  0  0
 26 91  1  0  0  0  0
 26 92  1  0  0  0  0
 27 28  1  0  0  0  0
 27 93  1  0  0  0  0
 27 94  1  0  0  0  0
 28 29  1  0  0  0  0
 28 95  1  0  0  0  0
 28 96  1  0  0  0  0
 29 30  1  0  0  0  0
 29 97  1  0  0  0  0
 29 98  1  0  0  0  0
 30 31  1  0  0  0  0
 30 99  1  0  0  0  0
 30100  1  0  0  0  0
 31 32  2  0  0  0  0
 31101  1  0  0  0  0
 32 33  1  0  0  0  0
 32102  1  0  0  0  0
 34 35  1  0  0  0  0
 34103  1  0  0  0  0
 34104  1  0  0  0  0
 35 36  1  0  0  0  0
 35105  1  0  0  0  0
 35106  1  0  0  0  0
 36 37  1  0  0  0  0
 36107  1  0  0  0  0
 36108  1  0  0  0  0
 37 38  1  0  0  0  0
 37109  1  0  0  0  0
 37110  1  0  0  0  0
 38 50  1  0  0  0  0
 38111  1  1  0  0  0
 40 39  1  1  0  0  0
 40 41  1  0  0  0  0
 40 42  1  0  0  0  0
 41112  1  0  0  0  0
 41113  1  0  0  0  0
 41114  1  0  0  0  0
 42115  1  0  0  0  0
 42116  1  0  0  0  0
 43 44  1  0  0  0  0
 44 45  2  0  0  0  0
 44 49  1  0  0  0  0
 45 46  1  0  0  0  0
 45117  1  0  0  0  0
 46 47  2  0  0  0  0
 46118  1  0  0  0  0
 47 48  1  0  0  0  0
 47119  1  0  0  0  0
 48 49  2  0  0  0  0
 48120  1  0  0  0  0
 51 52  1  0  0  0  0
 51 53  1  0  0  0  0
 51121  1  6  0  0  0
 52122  1  0  0  0  0
 52123  1  0  0  0  0
 52124  1  0  0  0  0
 53 54  1  0  0  0  0
 53125  1  0  0  0  0
 53126  1  0  0  0  0
 55 56  1  0  0  0  0
 55 60  1  0  0  0  0
 55127  1  1  0  0  0
 56 57  1  0  0  0  0
 56128  1  0  0  0  0
 56129  1  0  0  0  0
 57 58  1  0  0  0  0
 57130  1  0  0  0  0
 57131  1  0  0  0  0
 58 59  1  0  0  0  0
 58132  1  0  0  0  0
 58133  1  0  0  0  0
 59134  1  0  0  0  0
 59135  1  0  0  0  0
M  END
$$$$