/media/chris/experiments/cd1a-new-docking/inputs/ligands/7ryo_ligand.pdb
 OpenBabel07032304133D

135137  0  0  1  0  0  0  0  0999 V2000
  -38.8442   57.5132   60.7850 N   0  0  0  0  0  0  0  0  0  0  0  0
  -51.5169   66.0147   63.7651 C   0  0  0  0  0  0  0  0  0  0  0  0
  -39.7733   58.5162   58.9894 O   0  0  0  0  0  0  0  0  0  0  0  0
  -51.8619   66.5255   62.3909 C   0  0  0  0  0  0  0  0  0  0  0  0
  -35.3848   55.2330   62.7177 N   0  0  0  0  0  0  0  0  0  0  0  0
  -35.5611   54.3952   64.7963 O   0  0  0  0  0  0  0  0  0  0  0  0
  -50.6823   67.1551   61.6725 C   0  0  0  0  0  0  0  0  0  0  0  0
  -35.3076   51.8395   63.4168 N   0  0  0  0  0  0  0  0  0  0  0  0
  -37.3672   51.1474   64.0188 O   0  0  0  0  0  0  0  0  0  0  0  0
  -49.5123   66.2131   61.4386 C   0  0  0  0  0  0  0  0  0  0  0  0
  -33.8369   58.7085   66.6316 N   0  0  0  0  0  0  0  0  0  0  0  0
  -33.5575   49.7167   63.1087 O   0  0  0  0  0  0  0  0  0  0  0  0
  -49.8683   65.0063   60.5812 C   0  0  0  0  0  0  0  0  0  0  0  0
  -30.4396   57.5958   66.0715 N   0  0  0  0  0  0  0  0  0  0  0  0
  -36.3404   58.2172   64.0561 O   0  0  0  0  0  0  0  0  0  0  0  0
  -50.3521   65.3635   59.1843 C   0  0  0  0  0  0  0  0  0  0  0  0
  -35.9357   56.3635   65.2730 O   0  0  0  0  0  0  0  0  0  0  0  0
  -50.7254   64.1654   58.3286 C   0  0  0  0  0  0  0  0  0  0  0  0
  -34.4562   57.2668   68.2440 O   0  0  0  0  0  0  0  0  0  0  0  0
  -49.5890   63.1803   58.1084 C   0  0  0  0  0  0  0  0  0  0  0  0
  -32.4418   56.6681   65.6703 O   0  0  0  0  0  0  0  0  0  0  0  0
  -49.9797   62.0021   57.2382 C   0  0  0  0  0  0  0  0  0  0  0  0
  -48.8429   61.0179   57.0398 C   0  0  0  0  0  0  0  0  0  0  0  0
  -48.3272   60.3921   58.3201 C   0  0  0  0  0  0  0  0  0  0  0  0
  -47.1809   59.4266   58.0906 C   0  0  0  0  0  0  0  0  0  0  0  0
  -46.6671   58.7802   59.3664 C   0  0  0  0  0  0  0  0  0  0  0  0
  -45.5091   57.8273   59.1370 C   0  0  0  0  0  0  0  0  0  0  0  0
  -44.9900   57.1563   60.3977 C   0  0  0  0  0  0  0  0  0  0  0  0
  -43.8204   56.2194   60.1503 C   0  0  0  0  0  0  0  0  0  0  0  0
  -42.5970   56.9062   59.5556 C   0  0  0  0  0  0  0  0  0  0  0  0
  -41.4804   55.9387   59.3155 C   0  0  0  0  0  0  0  0  0  0  0  0
  -40.1765   56.1781   59.3506 C   0  0  0  0  0  0  0  0  0  0  0  0
  -39.5734   57.4928   59.6640 C   0  0  0  0  0  0  0  0  0  0  0  0
  -38.2360   58.7337   61.2903 C   0  0  0  0  0  0  0  0  0  0  0  0
  -36.9560   58.4330   62.0390 C   0  0  0  0  0  0  0  0  0  0  0  0
  -35.8780   57.7610   61.2090 C   0  0  0  0  0  0  0  0  0  0  0  0
  -34.6110   57.4590   62.0020 C   0  0  0  0  0  0  0  0  0  0  0  0
  -34.8704   56.5130   63.1754 C   0  0  1  0  0  0  0  0  0  0  0  0
  -35.6907   54.2677   63.5879 C   0  0  0  0  0  0  0  0  0  0  0  0
  -36.2067   52.9355   63.0194 C   0  0  1  0  0  0  0  0  0  0  0  0
  -36.2361   53.0270   61.4967 C   0  0  0  0  0  0  0  0  0  0  0  0
  -37.5703   52.5176   63.5893 C   0  0  0  0  0  0  0  0  0  0  0  0
  -36.0273   50.9366   63.9425 C   0  0  0  0  0  0  0  0  0  0  0  0
  -35.5541   49.6595   64.4817 C   0  0  0  0  0  0  0  0  0  0  0  0
  -36.2301   49.0528   65.5411 C   0  0  0  0  0  0  0  0  0  0  0  0
  -35.6639   47.9849   66.2158 C   0  0  0  0  0  0  0  0  0  0  0  0
  -34.4246   47.5064   65.8499 C   0  0  0  0  0  0  0  0  0  0  0  0
  -33.7319   48.0928   64.8064 C   0  0  0  0  0  0  0  0  0  0  0  0
  -34.2835   49.1685   64.1175 C   0  0  0  0  0  0  0  0  0  0  0  0
  -35.8061   57.1511   64.1912 C   0  0  0  0  0  0  0  0  0  0  0  0
  -36.7876   56.8312   66.3708 C   0  0  2  0  0  0  0  0  0  0  0  0
  -38.1865   57.0054   65.8356 C   0  0  0  0  0  0  0  0  0  0  0  0
  -36.1782   58.1417   66.8297 C   0  0  0  0  0  0  0  0  0  0  0  0
  -34.7479   57.9945   67.2991 C   0  0  0  0  0  0  0  0  0  0  0  0
  -32.4275   58.6723   66.9808 C   0  0  1  0  0  0  0  0  0  0  0  0
  -32.2631   58.3966   68.4797 C   0  0  0  0  0  0  0  0  0  0  0  0
  -30.8918   58.7806   69.0248 C   0  0  0  0  0  0  0  0  0  0  0  0
  -29.7183   58.0360   68.4199 C   0  0  0  0  0  0  0  0  0  0  0  0
  -29.5085   58.3032   66.9441 C   0  0  0  0  0  0  0  0  0  0  0  0
  -31.7692   57.5574   66.1836 C   0  0  0  0  0  0  0  0  0  0  0  0
  -38.7149   56.6746   61.2843 H   0  0  0  0  0  0  0  0  0  0  0  0
  -52.3876   65.5852   64.2150 H   0  0  0  0  0  0  0  0  0  0  0  0
  -51.1663   66.8253   64.3693 H   0  0  0  0  0  0  0  0  0  0  0  0
  -50.7517   65.2708   63.6875 H   0  0  0  0  0  0  0  0  0  0  0  0
  -52.6340   67.2602   62.4852 H   0  0  0  0  0  0  0  0  0  0  0  0
  -52.1759   65.6842   61.8090 H   0  0  0  0  0  0  0  0  0  0  0  0
  -35.5092   55.0758   61.7538 H   0  0  0  0  0  0  0  0  0  0  0  0
  -50.3353   67.9802   62.2588 H   0  0  0  0  0  0  0  0  0  0  0  0
  -51.0353   67.4487   60.7060 H   0  0  0  0  0  0  0  0  0  0  0  0
  -49.1636   65.8635   62.3878 H   0  0  0  0  0  0  0  0  0  0  0  0
  -48.7634   66.7654   60.9104 H   0  0  0  0  0  0  0  0  0  0  0  0
  -34.1293   59.2752   65.8816 H   0  0  0  0  0  0  0  0  0  0  0  0
  -33.9006   50.4422   62.6252 H   0  0  0  0  0  0  0  0  0  0  0  0
  -50.6428   64.4583   61.0760 H   0  0  0  0  0  0  0  0  0  0  0  0
  -48.9717   64.4346   60.4624 H   0  0  0  0  0  0  0  0  0  0  0  0
  -30.0459   57.0943   65.3213 H   0  0  0  0  0  0  0  0  0  0  0  0
  -49.5725   65.9013   58.6866 H   0  0  0  0  0  0  0  0  0  0  0  0
  -51.2432   65.9430   59.3067 H   0  0  0  0  0  0  0  0  0  0  0  0
  -51.0497   64.5228   57.3737 H   0  0  0  0  0  0  0  0  0  0  0  0
  -51.4927   63.6377   58.8555 H   0  0  0  0  0  0  0  0  0  0  0  0
  -49.2715   62.8092   59.0605 H   0  0  0  0  0  0  0  0  0  0  0  0
  -48.8073   63.7053   57.6004 H   0  0  0  0  0  0  0  0  0  0  0  0
  -50.2847   62.3701   56.2808 H   0  0  0  0  0  0  0  0  0  0  0  0
  -50.7732   61.4833   57.7342 H   0  0  0  0  0  0  0  0  0  0  0  0
  -48.0322   61.5334   56.5689 H   0  0  0  0  0  0  0  0  0  0  0  0
  -49.2311   60.2187   56.4437 H   0  0  0  0  0  0  0  0  0  0  0  0
  -49.1305   59.8620   58.7877 H   0  0  0  0  0  0  0  0  0  0  0  0
  -47.9579   61.1849   58.9365 H   0  0  0  0  0  0  0  0  0  0  0  0
  -46.3746   59.9610   57.6333 H   0  0  0  0  0  0  0  0  0  0  0  0
  -47.5523   58.6402   57.4672 H   0  0  0  0  0  0  0  0  0  0  0  0
  -47.4700   58.2353   59.8174 H   0  0  0  0  0  0  0  0  0  0  0  0
  -46.3076   59.5673   59.9958 H   0  0  0  0  0  0  0  0  0  0  0  0
  -44.7049   58.3779   58.6954 H   0  0  0  0  0  0  0  0  0  0  0  0
  -45.8764   57.0466   58.5042 H   0  0  0  0  0  0  0  0  0  0  0  0
  -45.7882   56.5929   60.8343 H   0  0  0  0  0  0  0  0  0  0  0  0
  -44.6388   57.9328   61.0447 H   0  0  0  0  0  0  0  0  0  0  0  0
  -44.1389   55.4534   59.4745 H   0  0  0  0  0  0  0  0  0  0  0  0
  -43.5266   55.8296   61.1025 H   0  0  0  0  0  0  0  0  0  0  0  0
  -42.2605   57.6627   60.2333 H   0  0  0  0  0  0  0  0  0  0  0  0
  -42.8778   57.3313   58.6147 H   0  0  0  0  0  0  0  0  0  0  0  0
  -41.7585   54.9693   59.0964 H   0  0  0  0  0  0  0  0  0  0  0  0
  -39.5383   55.3936   59.1453 H   0  0  0  0  0  0  0  0  0  0  0  0
  -38.9228   59.2185   61.9523 H   0  0  0  0  0  0  0  0  0  0  0  0
  -38.0041   59.3676   60.4601 H   0  0  0  0  0  0  0  0  0  0  0  0
  -37.1937   57.7896   62.8603 H   0  0  0  0  0  0  0  0  0  0  0  0
  -36.5565   59.3772   62.3453 H   0  0  0  0  0  0  0  0  0  0  0  0
  -35.6238   58.4067   60.3945 H   0  0  0  0  0  0  0  0  0  0  0  0
  -36.2729   56.8255   60.8717 H   0  0  0  0  0  0  0  0  0  0  0  0
  -34.2161   58.3779   62.3821 H   0  0  0  0  0  0  0  0  0  0  0  0
  -33.9192   56.9787   61.3420 H   0  0  0  0  0  0  0  0  0  0  0  0
  -33.9347   56.3288   63.6606 H   0  0  0  0  0  0  0  0  0  0  0  0
  -35.2713   53.3197   61.1383 H   0  0  0  0  0  0  0  0  0  0  0  0
  -36.9632   53.7525   61.1969 H   0  0  0  0  0  0  0  0  0  0  0  0
  -36.4943   52.0729   61.0870 H   0  0  0  0  0  0  0  0  0  0  0  0
  -37.8431   53.1389   64.4167 H   0  0  0  0  0  0  0  0  0  0  0  0
  -38.3612   52.6118   62.8748 H   0  0  0  0  0  0  0  0  0  0  0  0
  -37.1589   49.4028   65.8236 H   0  0  0  0  0  0  0  0  0  0  0  0
  -36.1731   47.5444   66.9978 H   0  0  0  0  0  0  0  0  0  0  0  0
  -34.0119   46.7075   66.3563 H   0  0  0  0  0  0  0  0  0  0  0  0
  -32.8032   47.7316   64.5379 H   0  0  0  0  0  0  0  0  0  0  0  0
  -36.8445   56.1513   67.1951 H   0  0  0  0  0  0  0  0  0  0  0  0
  -38.1696   57.6817   65.0066 H   0  0  0  0  0  0  0  0  0  0  0  0
  -38.8163   57.4002   66.6053 H   0  0  0  0  0  0  0  0  0  0  0  0
  -38.5663   56.0578   65.5151 H   0  0  0  0  0  0  0  0  0  0  0  0
  -36.7647   58.5263   67.6378 H   0  0  0  0  0  0  0  0  0  0  0  0
  -36.1734   58.8046   65.9898 H   0  0  0  0  0  0  0  0  0  0  0  0
  -31.9717   59.6137   66.7550 H   0  0  0  0  0  0  0  0  0  0  0  0
  -32.4139   57.3510   68.6497 H   0  0  0  0  0  0  0  0  0  0  0  0
  -32.9839   59.0003   68.9904 H   0  0  0  0  0  0  0  0  0  0  0  0
  -30.8922   58.5954   70.0787 H   0  0  0  0  0  0  0  0  0  0  0  0
  -30.7510   59.8099   68.7684 H   0  0  0  0  0  0  0  0  0  0  0  0
  -29.8828   56.9869   68.5510 H   0  0  0  0  0  0  0  0  0  0  0  0
  -28.8405   58.3837   68.9234 H   0  0  0  0  0  0  0  0  0  0  0  0
  -29.6207   59.3536   66.7737 H   0  0  0  0  0  0  0  0  0  0  0  0
  -28.5288   57.9472   66.7027 H   0  0  0  0  0  0  0  0  0  0  0  0
  1 33  1  0  0  0  0
  1 34  1  0  0  0  0
  1 61  1  0  0  0  0
  2  4  1  0  0  0  0
  2 62  1  0  0  0  0
  2 63  1  0  0  0  0
  2 64  1  0  0  0  0
  3 33  2  0  0  0  0
  4  7  1  0  0  0  0
  4 65  1  0  0  0  0
  4 66  1  0  0  0  0
  5 38  1  0  0  0  0
  5 39  1  0  0  0  0
  5 67  1  0  0  0  0
  6 39  2  0  0  0  0
  7 10  1  0  0  0  0
  7 68  1  0  0  0  0
  7 69  1  0  0  0  0
  8 40  1  0  0  0  0
  8 43  2  0  0  0  0
  9 42  1  0  0  0  0
  9 43  1  0  0  0  0
 10 13  1  0  0  0  0
 10 70  1  0  0  0  0
 10 71  1  0  0  0  0
 11 54  1  0  0  0  0
 11 55  1  0  0  0  0
 11 72  1  0  0  0  0
 12 49  1  0  0  0  0
 12 73  1  0  0  0  0
 13 16  1  0  0  0  0
 13 74  1  0  0  0  0
 13 75  1  0  0  0  0
 14 59  1  0  0  0  0
 14 60  1  0  0  0  0
 14 76  1  0  0  0  0
 15 50  2  0  0  0  0
 16 18  1  0  0  0  0
 16 77  1  0  0  0  0
 16 78  1  0  0  0  0
 17 50  1  0  0  0  0
 17 51  1  0  0  0  0
 18 20  1  0  0  0  0
 18 79  1  0  0  0  0
 18 80  1  0  0  0  0
 19 54  2  0  0  0  0
 20 22  1  0  0  0  0
 20 81  1  0  0  0  0
 20 82  1  0  0  0  0
 21 60  2  0  0  0  0
 22 23  1  0  0  0  0
 22 83  1  0  0  0  0
 22 84  1  0  0  0  0
 23 24  1  0  0  0  0
 23 85  1  0  0  0  0
 23 86  1  0  0  0  0
 24 25  1  0  0  0  0
 24 87  1  0  0  0  0
 24 88  1  0  0  0  0
 25 26  1  0  0  0  0
 25 89  1  0  0  0  0
 25 90  1  0  0  0  0
 26 27  1  0  0  0  0
 26 91  1  0  0  0  0
 26 92  1  0  0  0  0
 27 28  1  0  0  0  0
 27 93  1  0  0  0  0
 27 94  1  0  0  0  0
 28 29  1  0  0  0  0
 28 95  1  0  0  0  0
 28 96  1  0  0  0  0
 29 30  1  0  0  0  0
 29 97  1  0  0  0  0
 29 98  1  0  0  0  0
 30 31  1  0  0  0  0
 30 99  1  0  0  0  0
 30100  1  0  0  0  0
 31 32  2  0  0  0  0
 31101  1  0  0  0  0
 32 33  1  0  0  0  0
 32102  1  0  0  0  0
 34 35  1  0  0  0  0
 34103  1  0  0  0  0
 34104  1  0  0  0  0
 35 36  1  0  0  0  0
 35105  1  0  0  0  0
 35106  1  0  0  0  0
 36 37  1  0  0  0  0
 36107  1  0  0  0  0
 36108  1  0  0  0  0
 37 38  1  0  0  0  0
 37109  1  0  0  0  0
 37110  1  0  0  0  0
 38 50  1  0  0  0  0
 38111  1  1  0  0  0
 40 39  1  1  0  0  0
 40 41  1  0  0  0  0
 40 42  1  0  0  0  0
 41112  1  0  0  0  0
 41113  1  0  0  0  0
 41114  1  0  0  0  0
 42115  1  0  0  0  0
 42116  1  0  0  0  0
 43 44  1  0  0  0  0
 44 45  2  0  0  0  0
 44 49  1  0  0  0  0
 45 46  1  0  0  0  0
 45117  1  0  0  0  0
 46 47  2  0  0  0  0
 46118  1  0  0  0  0
 47 48  1  0  0  0  0
 47119  1  0  0  0  0
 48 49  2  0  0  0  0
 48120  1  0  0  0  0
 51 52  1  0  0  0  0
 51 53  1  0  0  0  0
 51121  1  1  0  0  0
 52122  1  0  0  0  0
 52123  1  0  0  0  0
 52124  1  0  0  0  0
 53 54  1  0  0  0  0
 53125  1  0  0  0  0
 53126  1  0  0  0  0
 55 56  1  0  0  0  0
 55 60  1  0  0  0  0
 55127  1  6  0  0  0
 56 57  1  0  0  0  0
 56128  1  0  0  0  0
 56129  1  0  0  0  0
 57 58  1  0  0  0  0
 57130  1  0  0  0  0
 57131  1  0  0  0  0
 58 59  1  0  0  0  0
 58132  1  0  0  0  0
 58133  1  0  0  0  0
 59134  1  0  0  0  0
 59135  1  0  0  0  0
M  END
$$$$