/media/chris/experiments/cd1a-new-docking/inputs/ligands/7ryo_ligand.pdb
 OpenBabel07032304133D

135137  0  0  1  0  0  0  0  0999 V2000
  -36.2311   60.7237   61.5795 N   0  0  0  0  0  0  0  0  0  0  0  0
  -30.7082   68.1888   55.7999 C   0  0  0  0  0  0  0  0  0  0  0  0
  -34.7486   62.1173   60.6028 O   0  0  0  0  0  0  0  0  0  0  0  0
  -30.9605   66.7479   56.1585 C   0  0  0  0  0  0  0  0  0  0  0  0
  -33.6519   56.2542   63.9242 N   0  0  0  0  0  0  0  0  0  0  0  0
  -32.3884   57.5620   62.6024 O   0  0  0  0  0  0  0  0  0  0  0  0
  -31.5470   65.9401   55.0151 C   0  0  0  0  0  0  0  0  0  0  0  0
  -31.4575   56.8643   65.7975 N   0  0  0  0  0  0  0  0  0  0  0  0
  -30.7988   54.7103   65.8930 O   0  0  0  0  0  0  0  0  0  0  0  0
  -32.8757   66.4621   54.4926 C   0  0  0  0  0  0  0  0  0  0  0  0
  -37.6045   55.1860   60.4294 N   0  0  0  0  0  0  0  0  0  0  0  0
  -31.0010   58.1873   68.1862 O   0  0  0  0  0  0  0  0  0  0  0  0
  -33.4513   65.6255   53.3581 C   0  0  0  0  0  0  0  0  0  0  0  0
  -37.5782   55.8360   56.8698 N   0  0  0  0  0  0  0  0  0  0  0  0
  -35.7068   54.9334   61.5487 O   0  0  0  0  0  0  0  0  0  0  0  0
  -33.7355   64.1810   53.7398 C   0  0  0  0  0  0  0  0  0  0  0  0
  -35.8412   54.4415   63.7442 O   0  0  0  0  0  0  0  0  0  0  0  0
  -32.5166   63.4111   54.2175 C   0  0  0  0  0  0  0  0  0  0  0  0
  -37.0817   53.1554   61.2448 O   0  0  0  0  0  0  0  0  0  0  0  0
  -32.7995   61.9630   54.5824 C   0  0  0  0  0  0  0  0  0  0  0  0
  -39.1062   56.1701   58.4775 O   0  0  0  0  0  0  0  0  0  0  0  0
  -33.8294   61.8146   55.6848 C   0  0  0  0  0  0  0  0  0  0  0  0
  -34.0904   60.3664   56.0517 C   0  0  0  0  0  0  0  0  0  0  0  0
  -32.8736   59.6220   56.5637 C   0  0  0  0  0  0  0  0  0  0  0  0
  -32.2910   60.2302   57.8243 C   0  0  0  0  0  0  0  0  0  0  0  0
  -33.2596   60.2440   58.9953 C   0  0  0  0  0  0  0  0  0  0  0  0
  -32.6807   60.8683   60.2510 C   0  0  0  0  0  0  0  0  0  0  0  0
  -32.2660   62.3218   60.0946 C   0  0  0  0  0  0  0  0  0  0  0  0
  -31.6734   62.9240   61.3569 C   0  0  0  0  0  0  0  0  0  0  0  0
  -32.6170   62.8974   62.5531 C   0  0  0  0  0  0  0  0  0  0  0  0
  -33.0044   61.4995   62.9223 C   0  0  0  0  0  0  0  0  0  0  0  0
  -34.0407   60.8001   62.4799 C   0  0  0  0  0  0  0  0  0  0  0  0
  -35.0244   61.2934   61.4903 C   0  0  0  0  0  0  0  0  0  0  0  0
  -36.5610   59.7701   62.6268 C   0  0  0  0  0  0  0  0  0  0  0  0
  -36.9560   58.4330   62.0390 C   0  0  0  0  0  0  0  0  0  0  0  0
  -35.8780   57.7610   61.2090 C   0  0  0  0  0  0  0  0  0  0  0  0
  -34.6110   57.4590   62.0020 C   0  0  0  0  0  0  0  0  0  0  0  0
  -34.8704   56.5130   63.1754 C   0  0  1  0  0  0  0  0  0  0  0  0
  -32.4948   56.8140   63.5629 C   0  0  0  0  0  0  0  0  0  0  0  0
  -31.2483   56.4696   64.3946 C   0  0  1  0  0  0  0  0  0  0  0  0
  -30.0541   57.2368   63.8351 C   0  0  0  0  0  0  0  0  0  0  0  0
  -30.9673   54.9618   64.4748 C   0  0  0  0  0  0  0  0  0  0  0  0
  -31.1927   55.8521   66.5149 C   0  0  0  0  0  0  0  0  0  0  0  0
  -31.2630   55.7868   67.9765 C   0  0  0  0  0  0  0  0  0  0  0  0
  -31.5733   54.5827   68.6100 C   0  0  0  0  0  0  0  0  0  0  0  0
  -31.8813   54.5581   69.9593 C   0  0  0  0  0  0  0  0  0  0  0  0
  -31.8854   55.7229   70.6954 C   0  0  0  0  0  0  0  0  0  0  0  0
  -31.5858   56.9300   70.0906 C   0  0  0  0  0  0  0  0  0  0  0  0
  -31.2758   56.9754   68.7350 C   0  0  0  0  0  0  0  0  0  0  0  0
  -35.5090   55.2173   62.6978 C   0  0  0  0  0  0  0  0  0  0  0  0
  -37.2520   54.0824   63.9186 C   0  0  2  0  0  0  0  0  0  0  0  0
  -37.3623   52.5796   63.8647 C   0  0  0  0  0  0  0  0  0  0  0  0
  -37.9881   54.7562   62.7768 C   0  0  0  0  0  0  0  0  0  0  0  0
  -37.5199   54.2895   61.4164 C   0  0  0  0  0  0  0  0  0  0  0  0
  -37.1804   54.8781   59.0748 C   0  0  1  0  0  0  0  0  0  0  0  0
  -37.3623   53.3824   58.7931 C   0  0  0  0  0  0  0  0  0  0  0  0
  -36.5491   52.8811   57.6045 C   0  0  0  0  0  0  0  0  0  0  0  0
  -36.8885   53.5138   56.2695 C   0  0  0  0  0  0  0  0  0  0  0  0
  -36.5942   54.9974   56.1938 C   0  0  0  0  0  0  0  0  0  0  0  0
  -38.0392   55.6845   58.1134 C   0  0  0  0  0  0  0  0  0  0  0  0
  -36.9185   60.9574   60.9146 H   0  0  0  0  0  0  0  0  0  0  0  0
  -30.2968   68.6999   56.6451 H   0  0  0  0  0  0  0  0  0  0  0  0
  -31.6299   68.6525   55.5165 H   0  0  0  0  0  0  0  0  0  0  0  0
  -30.0185   68.2375   54.9832 H   0  0  0  0  0  0  0  0  0  0  0  0
  -31.6434   66.7171   56.9817 H   0  0  0  0  0  0  0  0  0  0  0  0
  -30.0149   66.3113   56.4036 H   0  0  0  0  0  0  0  0  0  0  0  0
  -33.6801   55.6587   64.7076 H   0  0  0  0  0  0  0  0  0  0  0  0
  -31.6925   64.9360   55.3551 H   0  0  0  0  0  0  0  0  0  0  0  0
  -30.8520   66.0100   54.2045 H   0  0  0  0  0  0  0  0  0  0  0  0
  -32.7315   67.4611   54.1377 H   0  0  0  0  0  0  0  0  0  0  0  0
  -33.5730   66.4169   55.3030 H   0  0  0  0  0  0  0  0  0  0  0  0
  -37.9645   56.0810   60.6259 H   0  0  0  0  0  0  0  0  0  0  0  0
  -30.7885   58.2521   67.2759 H   0  0  0  0  0  0  0  0  0  0  0  0
  -32.7514   65.6286   52.5488 H   0  0  0  0  0  0  0  0  0  0  0  0
  -34.3892   66.0666   53.0922 H   0  0  0  0  0  0  0  0  0  0  0  0
  -37.9402   56.5930   56.3549 H   0  0  0  0  0  0  0  0  0  0  0  0
  -34.1341   63.6798   52.8826 H   0  0  0  0  0  0  0  0  0  0  0  0
  -34.4218   64.2095   54.5602 H   0  0  0  0  0  0  0  0  0  0  0  0
  -32.1252   63.9049   55.0823 H   0  0  0  0  0  0  0  0  0  0  0  0
  -31.8243   63.3936   53.4019 H   0  0  0  0  0  0  0  0  0  0  0  0
  -31.8863   61.5095   54.9070 H   0  0  0  0  0  0  0  0  0  0  0  0
  -33.1968   61.4873   53.7102 H   0  0  0  0  0  0  0  0  0  0  0  0
  -34.7475   62.2555   55.3569 H   0  0  0  0  0  0  0  0  0  0  0  0
  -33.4438   62.3038   56.5549 H   0  0  0  0  0  0  0  0  0  0  0  0
  -34.4507   59.8601   55.1806 H   0  0  0  0  0  0  0  0  0  0  0  0
  -34.8012   60.3770   56.8514 H   0  0  0  0  0  0  0  0  0  0  0  0
  -32.1224   59.6327   55.8018 H   0  0  0  0  0  0  0  0  0  0  0  0
  -33.1862   58.6273   56.8043 H   0  0  0  0  0  0  0  0  0  0  0  0
  -32.0025   61.2384   57.6117 H   0  0  0  0  0  0  0  0  0  0  0  0
  -31.4591   59.6216   58.1116 H   0  0  0  0  0  0  0  0  0  0  0  0
  -33.5386   59.2349   59.2162 H   0  0  0  0  0  0  0  0  0  0  0  0
  -34.0979   60.8417   58.7038 H   0  0  0  0  0  0  0  0  0  0  0  0
  -31.8188   60.3033   60.5390 H   0  0  0  0  0  0  0  0  0  0  0  0
  -33.4566   60.8493   60.9875 H   0  0  0  0  0  0  0  0  0  0  0  0
  -33.1288   62.8922   59.8205 H   0  0  0  0  0  0  0  0  0  0  0  0
  -31.5034   62.3517   59.3447 H   0  0  0  0  0  0  0  0  0  0  0  0
  -31.4135   63.9422   61.1549 H   0  0  0  0  0  0  0  0  0  0  0  0
  -30.8237   62.3281   61.6171 H   0  0  0  0  0  0  0  0  0  0  0  0
  -33.5008   63.4493   62.3099 H   0  0  0  0  0  0  0  0  0  0  0  0
  -32.1095   63.3341   63.3877 H   0  0  0  0  0  0  0  0  0  0  0  0
  -32.3917   61.0229   63.6023 H   0  0  0  0  0  0  0  0  0  0  0  0
  -34.1701   59.8461   62.8514 H   0  0  0  0  0  0  0  0  0  0  0  0
  -37.3764   60.1530   63.2042 H   0  0  0  0  0  0  0  0  0  0  0  0
  -35.6979   59.6294   63.2434 H   0  0  0  0  0  0  0  0  0  0  0  0
  -37.8119   58.5833   61.4147 H   0  0  0  0  0  0  0  0  0  0  0  0
  -37.1476   57.7838   62.8677 H   0  0  0  0  0  0  0  0  0  0  0  0
  -35.6238   58.4067   60.3945 H   0  0  0  0  0  0  0  0  0  0  0  0
  -36.2729   56.8255   60.8717 H   0  0  0  0  0  0  0  0  0  0  0  0
  -34.2161   58.3779   62.3821 H   0  0  0  0  0  0  0  0  0  0  0  0
  -33.9192   56.9787   61.3420 H   0  0  0  0  0  0  0  0  0  0  0  0
  -35.5592   56.9942   63.8379 H   0  0  0  0  0  0  0  0  0  0  0  0
  -30.2877   58.2803   63.7948 H   0  0  0  0  0  0  0  0  0  0  0  0
  -29.8324   56.8827   62.8501 H   0  0  0  0  0  0  0  0  0  0  0  0
  -29.2048   57.0857   64.4681 H   0  0  0  0  0  0  0  0  0  0  0  0
  -31.7902   54.4004   64.0842 H   0  0  0  0  0  0  0  0  0  0  0  0
  -30.1120   54.6717   63.9010 H   0  0  0  0  0  0  0  0  0  0  0  0
  -31.5732   53.7042   68.0685 H   0  0  0  0  0  0  0  0  0  0  0  0
  -32.1094   53.6617   70.4169 H   0  0  0  0  0  0  0  0  0  0  0  0
  -32.1127   55.6944   71.7017 H   0  0  0  0  0  0  0  0  0  0  0  0
  -31.5923   57.7996   70.6463 H   0  0  0  0  0  0  0  0  0  0  0  0
  -37.6675   54.3988   64.8525 H   0  0  0  0  0  0  0  0  0  0  0  0
  -36.9551   52.2250   62.9409 H   0  0  0  0  0  0  0  0  0  0  0  0
  -38.3914   52.2948   63.9336 H   0  0  0  0  0  0  0  0  0  0  0  0
  -36.8186   52.1526   64.6813 H   0  0  0  0  0  0  0  0  0  0  0  0
  -37.8330   55.8126   62.8471 H   0  0  0  0  0  0  0  0  0  0  0  0
  -39.0227   54.4983   62.8657 H   0  0  0  0  0  0  0  0  0  0  0  0
  -36.1467   55.1254   58.9512 H   0  0  0  0  0  0  0  0  0  0  0  0
  -38.3978   53.1989   58.5958 H   0  0  0  0  0  0  0  0  0  0  0  0
  -37.0127   52.8559   59.6565 H   0  0  0  0  0  0  0  0  0  0  0  0
  -36.7059   51.8261   57.5190 H   0  0  0  0  0  0  0  0  0  0  0  0
  -35.5337   53.1505   57.8081 H   0  0  0  0  0  0  0  0  0  0  0  0
  -37.9324   53.3688   56.0851 H   0  0  0  0  0  0  0  0  0  0  0  0
  -36.2687   53.0394   55.5377 H   0  0  0  0  0  0  0  0  0  0  0  0
  -35.6385   55.1735   56.6415 H   0  0  0  0  0  0  0  0  0  0  0  0
  -36.6214   55.2644   55.1580 H   0  0  0  0  0  0  0  0  0  0  0  0
  1 33  1  0  0  0  0
  1 34  1  0  0  0  0
  1 61  1  0  0  0  0
  2  4  1  0  0  0  0
  2 62  1  0  0  0  0
  2 63  1  0  0  0  0
  2 64  1  0  0  0  0
  3 33  2  0  0  0  0
  4  7  1  0  0  0  0
  4 65  1  0  0  0  0
  4 66  1  0  0  0  0
  5 38  1  0  0  0  0
  5 39  1  0  0  0  0
  5 67  1  0  0  0  0
  6 39  2  0  0  0  0
  7 10  1  0  0  0  0
  7 68  1  0  0  0  0
  7 69  1  0  0  0  0
  8 40  1  0  0  0  0
  8 43  2  0  0  0  0
  9 42  1  0  0  0  0
  9 43  1  0  0  0  0
 10 13  1  0  0  0  0
 10 70  1  0  0  0  0
 10 71  1  0  0  0  0
 11 54  1  0  0  0  0
 11 55  1  0  0  0  0
 11 72  1  0  0  0  0
 12 49  1  0  0  0  0
 12 73  1  0  0  0  0
 13 16  1  0  0  0  0
 13 74  1  0  0  0  0
 13 75  1  0  0  0  0
 14 59  1  0  0  0  0
 14 60  1  0  0  0  0
 14 76  1  0  0  0  0
 15 50  2  0  0  0  0
 16 18  1  0  0  0  0
 16 77  1  0  0  0  0
 16 78  1  0  0  0  0
 17 50  1  0  0  0  0
 17 51  1  0  0  0  0
 18 20  1  0  0  0  0
 18 79  1  0  0  0  0
 18 80  1  0  0  0  0
 19 54  2  0  0  0  0
 20 22  1  0  0  0  0
 20 81  1  0  0  0  0
 20 82  1  0  0  0  0
 21 60  2  0  0  0  0
 22 23  1  0  0  0  0
 22 83  1  0  0  0  0
 22 84  1  0  0  0  0
 23 24  1  0  0  0  0
 23 85  1  0  0  0  0
 23 86  1  0  0  0  0
 24 25  1  0  0  0  0
 24 87  1  0  0  0  0
 24 88  1  0  0  0  0
 25 26  1  0  0  0  0
 25 89  1  0  0  0  0
 25 90  1  0  0  0  0
 26 27  1  0  0  0  0
 26 91  1  0  0  0  0
 26 92  1  0  0  0  0
 27 28  1  0  0  0  0
 27 93  1  0  0  0  0
 27 94  1  0  0  0  0
 28 29  1  0  0  0  0
 28 95  1  0  0  0  0
 28 96  1  0  0  0  0
 29 30  1  0  0  0  0
 29 97  1  0  0  0  0
 29 98  1  0  0  0  0
 30 31  1  0  0  0  0
 30 99  1  0  0  0  0
 30100  1  0  0  0  0
 31 32  2  0  0  0  0
 31101  1  0  0  0  0
 32 33  1  0  0  0  0
 32102  1  0  0  0  0
 34 35  1  0  0  0  0
 34103  1  0  0  0  0
 34104  1  0  0  0  0
 35 36  1  0  0  0  0
 35105  1  0  0  0  0
 35106  1  0  0  0  0
 36 37  1  0  0  0  0
 36107  1  0  0  0  0
 36108  1  0  0  0  0
 37 38  1  0  0  0  0
 37109  1  0  0  0  0
 37110  1  0  0  0  0
 38 50  1  0  0  0  0
 38111  1  1  0  0  0
 40 39  1  6  0  0  0
 40 41  1  0  0  0  0
 40 42  1  0  0  0  0
 41112  1  0  0  0  0
 41113  1  0  0  0  0
 41114  1  0  0  0  0
 42115  1  0  0  0  0
 42116  1  0  0  0  0
 43 44  1  0  0  0  0
 44 45  2  0  0  0  0
 44 49  1  0  0  0  0
 45 46  1  0  0  0  0
 45117  1  0  0  0  0
 46 47  2  0  0  0  0
 46118  1  0  0  0  0
 47 48  1  0  0  0  0
 47119  1  0  0  0  0
 48 49  2  0  0  0  0
 48120  1  0  0  0  0
 51 52  1  0  0  0  0
 51 53  1  0  0  0  0
 51121  1  1  0  0  0
 52122  1  0  0  0  0
 52123  1  0  0  0  0
 52124  1  0  0  0  0
 53 54  1  0  0  0  0
 53125  1  0  0  0  0
 53126  1  0  0  0  0
 55 56  1  0  0  0  0
 55 60  1  0  0  0  0
 55127  1  6  0  0  0
 56 57  1  0  0  0  0
 56128  1  0  0  0  0
 56129  1  0  0  0  0
 57 58  1  0  0  0  0
 57130  1  0  0  0  0
 57131  1  0  0  0  0
 58 59  1  0  0  0  0
 58132  1  0  0  0  0
 58133  1  0  0  0  0
 59134  1  0  0  0  0
 59135  1  0  0  0  0
M  END
$$$$