/media/chris/experiments/cd1a-new-docking/inputs/ligands/7ryo_ligand.pdb
 OpenBabel07032304133D

135137  0  0  1  0  0  0  0  0999 V2000
  -36.2311   60.7237   61.5795 N   0  0  0  0  0  0  0  0  0  0  0  0
  -29.3942   66.9111   65.9062 C   0  0  0  0  0  0  0  0  0  0  0  0
  -34.7328   61.8482   62.8383 O   0  0  0  0  0  0  0  0  0  0  0  0
  -28.9554   66.6574   67.3246 C   0  0  0  0  0  0  0  0  0  0  0  0
  -33.1324   57.6580   60.0424 N   0  0  0  0  0  0  0  0  0  0  0  0
  -31.6520   56.1749   59.2284 O   0  0  0  0  0  0  0  0  0  0  0  0
  -29.5409   67.6445   68.3181 C   0  0  0  0  0  0  0  0  0  0  0  0
  -32.6903   58.0204   56.8699 N   0  0  0  0  0  0  0  0  0  0  0  0
  -32.8325   60.2313   57.2880 O   0  0  0  0  0  0  0  0  0  0  0  0
  -31.0594   67.6392   68.3897 C   0  0  0  0  0  0  0  0  0  0  0  0
  -37.3639   54.3603   58.9926 N   0  0  0  0  0  0  0  0  0  0  0  0
  -33.3572   57.4232   54.2502 O   0  0  0  0  0  0  0  0  0  0  0  0
  -31.6226   68.6490   69.3802 C   0  0  0  0  0  0  0  0  0  0  0  0
  -40.0811   56.5313   57.9939 N   0  0  0  0  0  0  0  0  0  0  0  0
  -33.3116   54.6686   60.0224 O   0  0  0  0  0  0  0  0  0  0  0  0
  -31.2636   70.0920   69.0613 C   0  0  0  0  0  0  0  0  0  0  0  0
  -35.2791   55.2259   60.9704 O   0  0  0  0  0  0  0  0  0  0  0  0
  -31.7707   70.5774   67.7144 C   0  0  0  0  0  0  0  0  0  0  0  0
  -35.7540   53.7317   57.5522 O   0  0  0  0  0  0  0  0  0  0  0  0
  -31.2556   69.7759   66.5302 C   0  0  0  0  0  0  0  0  0  0  0  0
  -39.7591   55.1955   59.7666 O   0  0  0  0  0  0  0  0  0  0  0  0
  -31.7611   70.2887   65.1962 C   0  0  0  0  0  0  0  0  0  0  0  0
  -33.2743   70.2700   65.0967 C   0  0  0  0  0  0  0  0  0  0  0  0
  -33.8955   68.8985   65.2693 C   0  0  0  0  0  0  0  0  0  0  0  0
  -33.4115   67.8928   64.2431 C   0  0  0  0  0  0  0  0  0  0  0  0
  -34.0411   66.5182   64.3965 C   0  0  0  0  0  0  0  0  0  0  0  0
  -35.5506   66.5245   64.2442 C   0  0  0  0  0  0  0  0  0  0  0  0
  -36.0421   67.0093   62.8905 C   0  0  0  0  0  0  0  0  0  0  0  0
  -35.5569   66.1606   61.7280 C   0  0  0  0  0  0  0  0  0  0  0  0
  -36.0087   64.7070   61.7966 C   0  0  0  0  0  0  0  0  0  0  0  0
  -35.4914   63.9107   60.6395 C   0  0  0  0  0  0  0  0  0  0  0  0
  -35.1898   62.6196   60.6121 C   0  0  0  0  0  0  0  0  0  0  0  0
  -35.3353   61.6998   61.7624 C   0  0  0  0  0  0  0  0  0  0  0  0
  -36.5610   59.7701   62.6268 C   0  0  0  0  0  0  0  0  0  0  0  0
  -36.9560   58.4330   62.0390 C   0  0  0  0  0  0  0  0  0  0  0  0
  -35.8780   57.7610   61.2090 C   0  0  0  0  0  0  0  0  0  0  0  0
  -34.6110   57.4590   62.0020 C   0  0  0  0  0  0  0  0  0  0  0  0
  -33.5311   56.7980   61.1441 C   0  0  1  0  0  0  0  0  0  0  0  0
  -32.2084   57.2610   59.1640 C   0  0  0  0  0  0  0  0  0  0  0  0
  -31.8270   58.2406   58.0420 C   0  0  1  0  0  0  0  0  0  0  0  0
  -30.3751   57.9934   57.6434 C   0  0  0  0  0  0  0  0  0  0  0  0
  -32.0724   59.7117   58.4085 C   0  0  0  0  0  0  0  0  0  0  0  0
  -33.1805   59.1457   56.5491 C   0  0  0  0  0  0  0  0  0  0  0  0
  -34.0978   59.4030   55.4365 C   0  0  0  0  0  0  0  0  0  0  0  0
  -35.0338   60.4342   55.5242 C   0  0  0  0  0  0  0  0  0  0  0  0
  -36.0574   60.5341   54.5977 C   0  0  0  0  0  0  0  0  0  0  0  0
  -36.1657   59.6161   53.5759 C   0  0  0  0  0  0  0  0  0  0  0  0
  -35.2537   58.5820   53.4692 C   0  0  0  0  0  0  0  0  0  0  0  0
  -34.2191   58.4636   54.3919 C   0  0  0  0  0  0  0  0  0  0  0  0
  -33.9929   55.4382   60.6419 C   0  0  0  0  0  0  0  0  0  0  0  0
  -35.7226   53.8428   61.1706 C   0  0  2  0  0  0  0  0  0  0  0  0
  -34.9202   53.2537   62.3032 C   0  0  0  0  0  0  0  0  0  0  0  0
  -35.4649   53.1375   59.8532 C   0  0  0  0  0  0  0  0  0  0  0  0
  -36.2056   53.7654   58.6935 C   0  0  0  0  0  0  0  0  0  0  0  0
  -38.1750   55.0133   57.9800 C   0  0  1  0  0  0  0  0  0  0  0  0
  -38.6024   53.9993   56.9129 C   0  0  0  0  0  0  0  0  0  0  0  0
  -39.0537   54.6415   55.6056 C   0  0  0  0  0  0  0  0  0  0  0  0
  -40.2659   55.5459   55.7084 C   0  0  0  0  0  0  0  0  0  0  0  0
  -40.0478   56.7811   56.5568 C   0  0  0  0  0  0  0  0  0  0  0  0
  -39.4086   55.5885   58.6578 C   0  0  0  0  0  0  0  0  0  0  0  0
  -36.6819   60.6483   60.7075 H   0  0  0  0  0  0  0  0  0  0  0  0
  -28.9485   66.1843   65.2597 H   0  0  0  0  0  0  0  0  0  0  0  0
  -29.0859   67.8912   65.6074 H   0  0  0  0  0  0  0  0  0  0  0  0
  -30.4599   66.8379   65.8441 H   0  0  0  0  0  0  0  0  0  0  0  0
  -27.8884   66.7245   67.3675 H   0  0  0  0  0  0  0  0  0  0  0  0
  -29.3087   65.6850   67.5973 H   0  0  0  0  0  0  0  0  0  0  0  0
  -33.5487   58.5445   59.9426 H   0  0  0  0  0  0  0  0  0  0  0  0
  -29.2227   68.6275   68.0400 H   0  0  0  0  0  0  0  0  0  0  0  0
  -29.1891   67.3492   69.2845 H   0  0  0  0  0  0  0  0  0  0  0  0
  -31.3816   66.6616   68.6821 H   0  0  0  0  0  0  0  0  0  0  0  0
  -31.4219   67.9120   67.4206 H   0  0  0  0  0  0  0  0  0  0  0  0
  -37.6766   54.3560   59.9261 H   0  0  0  0  0  0  0  0  0  0  0  0
  -32.6498   57.3152   54.8550 H   0  0  0  0  0  0  0  0  0  0  0  0
  -31.2430   68.4145   70.3528 H   0  0  0  0  0  0  0  0  0  0  0  0
  -32.6887   68.5752   69.3263 H   0  0  0  0  0  0  0  0  0  0  0  0
  -40.6602   57.1198   58.5301 H   0  0  0  0  0  0  0  0  0  0  0  0
  -30.1974   70.1823   69.0706 H   0  0  0  0  0  0  0  0  0  0  0  0
  -31.7379   70.6981   69.8047 H   0  0  0  0  0  0  0  0  0  0  0  0
  -31.4669   71.5956   67.5884 H   0  0  0  0  0  0  0  0  0  0  0  0
  -32.8343   70.4612   67.7257 H   0  0  0  0  0  0  0  0  0  0  0  0
  -31.5699   68.7596   66.6450 H   0  0  0  0  0  0  0  0  0  0  0  0
  -30.1897   69.8688   66.5232 H   0  0  0  0  0  0  0  0  0  0  0  0
  -31.3594   69.6732   64.4186 H   0  0  0  0  0  0  0  0  0  0  0  0
  -31.4436   71.3059   65.0999 H   0  0  0  0  0  0  0  0  0  0  0  0
  -33.5511   70.6441   64.1332 H   0  0  0  0  0  0  0  0  0  0  0  0
  -33.6409   70.8749   65.8997 H   0  0  0  0  0  0  0  0  0  0  0  0
  -34.9576   68.9920   65.1798 H   0  0  0  0  0  0  0  0  0  0  0  0
  -33.6049   68.5357   66.2331 H   0  0  0  0  0  0  0  0  0  0  0  0
  -32.3508   67.7923   64.3416 H   0  0  0  0  0  0  0  0  0  0  0  0
  -33.6967   68.2636   63.2807 H   0  0  0  0  0  0  0  0  0  0  0  0
  -33.8002   66.1417   65.3687 H   0  0  0  0  0  0  0  0  0  0  0  0
  -33.6481   65.9025   63.6146 H   0  0  0  0  0  0  0  0  0  0  0  0
  -35.9604   67.1640   64.9978 H   0  0  0  0  0  0  0  0  0  0  0  0
  -35.8718   65.5084   64.3401 H   0  0  0  0  0  0  0  0  0  0  0  0
  -35.6974   68.0117   62.7445 H   0  0  0  0  0  0  0  0  0  0  0  0
  -37.1100   66.9440   62.9025 H   0  0  0  0  0  0  0  0  0  0  0  0
  -34.4871   66.1813   61.7187 H   0  0  0  0  0  0  0  0  0  0  0  0
  -35.9825   66.5774   60.8391 H   0  0  0  0  0  0  0  0  0  0  0  0
  -37.0782   64.6756   61.7885 H   0  0  0  0  0  0  0  0  0  0  0  0
  -35.6191   64.2790   62.6966 H   0  0  0  0  0  0  0  0  0  0  0  0
  -35.3528   64.4284   59.7576 H   0  0  0  0  0  0  0  0  0  0  0  0
  -34.8287   62.2293   59.7276 H   0  0  0  0  0  0  0  0  0  0  0  0
  -37.3764   60.1530   63.2042 H   0  0  0  0  0  0  0  0  0  0  0  0
  -35.6979   59.6294   63.2434 H   0  0  0  0  0  0  0  0  0  0  0  0
  -37.8119   58.5833   61.4147 H   0  0  0  0  0  0  0  0  0  0  0  0
  -37.1476   57.7838   62.8677 H   0  0  0  0  0  0  0  0  0  0  0  0
  -35.6238   58.4067   60.3945 H   0  0  0  0  0  0  0  0  0  0  0  0
  -36.2729   56.8255   60.8717 H   0  0  0  0  0  0  0  0  0  0  0  0
  -34.8590   56.8018   62.8091 H   0  0  0  0  0  0  0  0  0  0  0  0
  -34.2203   58.3886   62.3599 H   0  0  0  0  0  0  0  0  0  0  0  0
  -32.6704   56.6456   61.7612 H   0  0  0  0  0  0  0  0  0  0  0  0
  -30.2441   56.9607   57.3960 H   0  0  0  0  0  0  0  0  0  0  0  0
  -29.7326   58.2489   58.4599 H   0  0  0  0  0  0  0  0  0  0  0  0
  -30.1306   58.5973   56.7946 H   0  0  0  0  0  0  0  0  0  0  0  0
  -32.6330   59.7889   59.3166 H   0  0  0  0  0  0  0  0  0  0  0  0
  -31.1636   60.2514   58.5747 H   0  0  0  0  0  0  0  0  0  0  0  0
  -34.9622   61.1275   56.2853 H   0  0  0  0  0  0  0  0  0  0  0  0
  -36.7439   61.3010   54.6729 H   0  0  0  0  0  0  0  0  0  0  0  0
  -36.9301   59.7006   52.8877 H   0  0  0  0  0  0  0  0  0  0  0  0
  -35.3408   57.8961   52.7030 H   0  0  0  0  0  0  0  0  0  0  0  0
  -36.7562   53.7527   61.4322 H   0  0  0  0  0  0  0  0  0  0  0  0
  -33.8769   53.3261   62.0767 H   0  0  0  0  0  0  0  0  0  0  0  0
  -35.1866   52.2254   62.4320 H   0  0  0  0  0  0  0  0  0  0  0  0
  -35.1276   53.7914   63.2047 H   0  0  0  0  0  0  0  0  0  0  0  0
  -35.7764   52.1181   59.9452 H   0  0  0  0  0  0  0  0  0  0  0  0
  -34.4182   53.2174   59.6461 H   0  0  0  0  0  0  0  0  0  0  0  0
  -37.6115   55.7899   57.5065 H   0  0  0  0  0  0  0  0  0  0  0  0
  -39.4132   53.4199   57.3026 H   0  0  0  0  0  0  0  0  0  0  0  0
  -37.7448   53.4002   56.6883 H   0  0  0  0  0  0  0  0  0  0  0  0
  -39.2848   53.8573   54.9154 H   0  0  0  0  0  0  0  0  0  0  0  0
  -38.2452   55.2678   55.2910 H   0  0  0  0  0  0  0  0  0  0  0  0
  -41.0694   54.9830   56.1353 H   0  0  0  0  0  0  0  0  0  0  0  0
  -40.4801   55.8872   54.7171 H   0  0  0  0  0  0  0  0  0  0  0  0
  -39.0920   57.1938   56.3097 H   0  0  0  0  0  0  0  0  0  0  0  0
  -40.8552   57.4494   56.3414 H   0  0  0  0  0  0  0  0  0  0  0  0
  1 33  1  0  0  0  0
  1 34  1  0  0  0  0
  1 61  1  0  0  0  0
  2  4  1  0  0  0  0
  2 62  1  0  0  0  0
  2 63  1  0  0  0  0
  2 64  1  0  0  0  0
  3 33  2  0  0  0  0
  4  7  1  0  0  0  0
  4 65  1  0  0  0  0
  4 66  1  0  0  0  0
  5 38  1  0  0  0  0
  5 39  1  0  0  0  0
  5 67  1  0  0  0  0
  6 39  2  0  0  0  0
  7 10  1  0  0  0  0
  7 68  1  0  0  0  0
  7 69  1  0  0  0  0
  8 40  1  0  0  0  0
  8 43  2  0  0  0  0
  9 42  1  0  0  0  0
  9 43  1  0  0  0  0
 10 13  1  0  0  0  0
 10 70  1  0  0  0  0
 10 71  1  0  0  0  0
 11 54  1  0  0  0  0
 11 55  1  0  0  0  0
 11 72  1  0  0  0  0
 12 49  1  0  0  0  0
 12 73  1  0  0  0  0
 13 16  1  0  0  0  0
 13 74  1  0  0  0  0
 13 75  1  0  0  0  0
 14 59  1  0  0  0  0
 14 60  1  0  0  0  0
 14 76  1  0  0  0  0
 15 50  2  0  0  0  0
 16 18  1  0  0  0  0
 16 77  1  0  0  0  0
 16 78  1  0  0  0  0
 17 50  1  0  0  0  0
 17 51  1  0  0  0  0
 18 20  1  0  0  0  0
 18 79  1  0  0  0  0
 18 80  1  0  0  0  0
 19 54  2  0  0  0  0
 20 22  1  0  0  0  0
 20 81  1  0  0  0  0
 20 82  1  0  0  0  0
 21 60  2  0  0  0  0
 22 23  1  0  0  0  0
 22 83  1  0  0  0  0
 22 84  1  0  0  0  0
 23 24  1  0  0  0  0
 23 85  1  0  0  0  0
 23 86  1  0  0  0  0
 24 25  1  0  0  0  0
 24 87  1  0  0  0  0
 24 88  1  0  0  0  0
 25 26  1  0  0  0  0
 25 89  1  0  0  0  0
 25 90  1  0  0  0  0
 26 27  1  0  0  0  0
 26 91  1  0  0  0  0
 26 92  1  0  0  0  0
 27 28  1  0  0  0  0
 27 93  1  0  0  0  0
 27 94  1  0  0  0  0
 28 29  1  0  0  0  0
 28 95  1  0  0  0  0
 28 96  1  0  0  0  0
 29 30  1  0  0  0  0
 29 97  1  0  0  0  0
 29 98  1  0  0  0  0
 30 31  1  0  0  0  0
 30 99  1  0  0  0  0
 30100  1  0  0  0  0
 31 32  2  0  0  0  0
 31101  1  0  0  0  0
 32 33  1  0  0  0  0
 32102  1  0  0  0  0
 34 35  1  0  0  0  0
 34103  1  0  0  0  0
 34104  1  0  0  0  0
 35 36  1  0  0  0  0
 35105  1  0  0  0  0
 35106  1  0  0  0  0
 36 37  1  0  0  0  0
 36107  1  0  0  0  0
 36108  1  0  0  0  0
 37 38  1  0  0  0  0
 37109  1  0  0  0  0
 37110  1  0  0  0  0
 38 50  1  0  0  0  0
 38111  1  1  0  0  0
 40 39  1  1  0  0  0
 40 41  1  0  0  0  0
 40 42  1  0  0  0  0
 41112  1  0  0  0  0
 41113  1  0  0  0  0
 41114  1  0  0  0  0
 42115  1  0  0  0  0
 42116  1  0  0  0  0
 43 44  1  0  0  0  0
 44 45  2  0  0  0  0
 44 49  1  0  0  0  0
 45 46  1  0  0  0  0
 45117  1  0  0  0  0
 46 47  2  0  0  0  0
 46118  1  0  0  0  0
 47 48  1  0  0  0  0
 47119  1  0  0  0  0
 48 49  2  0  0  0  0
 48120  1  0  0  0  0
 51 52  1  0  0  0  0
 51 53  1  0  0  0  0
 51121  1  1  0  0  0
 52122  1  0  0  0  0
 52123  1  0  0  0  0
 52124  1  0  0  0  0
 53 54  1  0  0  0  0
 53125  1  0  0  0  0
 53126  1  0  0  0  0
 55 56  1  0  0  0  0
 55 60  1  0  0  0  0
 55127  1  6  0  0  0
 56 57  1  0  0  0  0
 56128  1  0  0  0  0
 56129  1  0  0  0  0
 57 58  1  0  0  0  0
 57130  1  0  0  0  0
 57131  1  0  0  0  0
 58 59  1  0  0  0  0
 58132  1  0  0  0  0
 58133  1  0  0  0  0
 59134  1  0  0  0  0
 59135  1  0  0  0  0
M  END
$$$$