/media/chris/experiments/cd1a-new-docking/inputs/ligands/7ryo_ligand.pdb
 OpenBabel07032304133D

135137  0  0  1  0  0  0  0  0999 V2000
  -36.2311   60.7237   61.5795 N   0  0  0  0  0  0  0  0  0  0  0  0
  -30.5353   53.9915   59.0097 C   0  0  0  0  0  0  0  0  0  0  0  0
  -34.1151   61.0407   62.2976 O   0  0  0  0  0  0  0  0  0  0  0  0
  -30.8038   52.5927   58.5199 C   0  0  0  0  0  0  0  0  0  0  0  0
  -33.6519   56.2542   63.9242 N   0  0  0  0  0  0  0  0  0  0  0  0
  -32.5700   55.3969   62.1499 O   0  0  0  0  0  0  0  0  0  0  0  0
  -29.5389   51.8182   58.1971 C   0  0  0  0  0  0  0  0  0  0  0  0
  -30.1289   55.5525   63.3804 N   0  0  0  0  0  0  0  0  0  0  0  0
  -29.7582   56.9020   65.1480 O   0  0  0  0  0  0  0  0  0  0  0  0
  -28.6656   52.4566   57.1289 C   0  0  0  0  0  0  0  0  0  0  0  0
  -31.5090   51.5497   62.8712 N   0  0  0  0  0  0  0  0  0  0  0  0
  -27.5770   57.9628   65.5768 O   0  0  0  0  0  0  0  0  0  0  0  0
  -27.4123   51.6527   56.8111 C   0  0  0  0  0  0  0  0  0  0  0  0
  -28.6384   53.2046   61.4171 N   0  0  0  0  0  0  0  0  0  0  0  0
  -36.6868   55.0519   62.5376 O   0  0  0  0  0  0  0  0  0  0  0  0
  -26.5219   52.2901   55.7557 C   0  0  0  0  0  0  0  0  0  0  0  0
  -34.5715   54.2744   62.4997 O   0  0  0  0  0  0  0  0  0  0  0  0
  -25.9914   53.6621   56.1337 C   0  0  0  0  0  0  0  0  0  0  0  0
  -32.0740   53.4246   61.7634 O   0  0  0  0  0  0  0  0  0  0  0  0
  -27.0736   54.6939   56.4065 C   0  0  0  0  0  0  0  0  0  0  0  0
  -30.6378   52.6024   60.5982 O   0  0  0  0  0  0  0  0  0  0  0  0
  -27.9897   54.9267   55.2213 C   0  0  0  0  0  0  0  0  0  0  0  0
  -29.0545   55.9701   55.5000 C   0  0  0  0  0  0  0  0  0  0  0  0
  -29.9674   55.6369   56.6629 C   0  0  0  0  0  0  0  0  0  0  0  0
  -31.0307   56.6901   56.9053 C   0  0  0  0  0  0  0  0  0  0  0  0
  -30.4633   58.0681   57.2031 C   0  0  0  0  0  0  0  0  0  0  0  0
  -31.5283   59.1170   57.4621 C   0  0  0  0  0  0  0  0  0  0  0  0
  -30.9836   60.5070   57.7457 C   0  0  0  0  0  0  0  0  0  0  0  0
  -32.0638   61.5392   58.0191 C   0  0  0  0  0  0  0  0  0  0  0  0
  -32.9300   61.2174   59.2308 C   0  0  0  0  0  0  0  0  0  0  0  0
  -33.9878   62.2542   59.4468 C   0  0  0  0  0  0  0  0  0  0  0  0
  -34.8999   62.2958   60.4086 C   0  0  0  0  0  0  0  0  0  0  0  0
  -35.0244   61.2934   61.4903 C   0  0  0  0  0  0  0  0  0  0  0  0
  -36.5610   59.7701   62.6268 C   0  0  0  0  0  0  0  0  0  0  0  0
  -36.9560   58.4330   62.0390 C   0  0  0  0  0  0  0  0  0  0  0  0
  -35.8780   57.7610   61.2090 C   0  0  0  0  0  0  0  0  0  0  0  0
  -34.6110   57.4590   62.0020 C   0  0  0  0  0  0  0  0  0  0  0  0
  -34.8704   56.5130   63.1754 C   0  0  1  0  0  0  0  0  0  0  0  0
  -32.5876   55.7075   63.3316 C   0  0  0  0  0  0  0  0  0  0  0  0
  -31.3467   55.4453   64.2008 C   0  0  1  0  0  0  0  0  0  0  0  0
  -31.4360   54.0350   64.7760 C   0  0  0  0  0  0  0  0  0  0  0  0
  -31.1418   56.4957   65.3023 C   0  0  0  0  0  0  0  0  0  0  0  0
  -29.3470   56.3562   63.9739 C   0  0  0  0  0  0  0  0  0  0  0  0
  -28.0151   56.7608   63.5180 C   0  0  0  0  0  0  0  0  0  0  0  0
  -27.4975   56.2511   62.3266 C   0  0  0  0  0  0  0  0  0  0  0  0
  -26.1619   56.4281   62.0085 C   0  0  0  0  0  0  0  0  0  0  0  0
  -25.3254   57.1108   62.8646 C   0  0  0  0  0  0  0  0  0  0  0  0
  -25.8124   57.6220   64.0538 C   0  0  0  0  0  0  0  0  0  0  0  0
  -27.1513   57.4524   64.3920 C   0  0  0  0  0  0  0  0  0  0  0  0
  -35.5090   55.2173   62.6978 C   0  0  0  0  0  0  0  0  0  0  0  0
  -34.6577   53.0381   63.2831 C   0  0  2  0  0  0  0  0  0  0  0  0
  -34.0802   53.3089   64.6494 C   0  0  0  0  0  0  0  0  0  0  0  0
  -33.8544   52.0095   62.5109 C   0  0  0  0  0  0  0  0  0  0  0  0
  -32.4012   52.3964   62.3493 C   0  0  0  0  0  0  0  0  0  0  0  0
  -30.0794   51.7894   62.7804 C   0  0  1  0  0  0  0  0  0  0  0  0
  -29.3234   50.4567   62.7384 C   0  0  0  0  0  0  0  0  0  0  0  0
  -27.8461   50.5806   63.0956 C   0  0  0  0  0  0  0  0  0  0  0  0
  -27.0239   51.4577   62.1724 C   0  0  0  0  0  0  0  0  0  0  0  0
  -27.4286   52.9169   62.1802 C   0  0  0  0  0  0  0  0  0  0  0  0
  -29.8086   52.5680   61.5027 C   0  0  0  0  0  0  0  0  0  0  0  0
  -36.9185   60.9574   60.9146 H   0  0  0  0  0  0  0  0  0  0  0  0
  -31.4638   54.4807   59.2183 H   0  0  0  0  0  0  0  0  0  0  0  0
  -30.0058   54.5374   58.2570 H   0  0  0  0  0  0  0  0  0  0  0  0
  -29.9457   53.9501   59.9016 H   0  0  0  0  0  0  0  0  0  0  0  0
  -31.4017   52.6515   57.6345 H   0  0  0  0  0  0  0  0  0  0  0  0
  -31.3034   52.0704   59.3088 H   0  0  0  0  0  0  0  0  0  0  0  0
  -33.6108   56.4850   64.8803 H   0  0  0  0  0  0  0  0  0  0  0  0
  -29.8209   50.8428   57.8595 H   0  0  0  0  0  0  0  0  0  0  0  0
  -28.9567   51.7975   59.0946 H   0  0  0  0  0  0  0  0  0  0  0  0
  -28.3689   53.4268   57.4689 H   0  0  0  0  0  0  0  0  0  0  0  0
  -29.2471   52.5022   56.2319 H   0  0  0  0  0  0  0  0  0  0  0  0
  -31.8299   50.7401   63.3303 H   0  0  0  0  0  0  0  0  0  0  0  0
  -28.4727   57.8656   65.8340 H   0  0  0  0  0  0  0  0  0  0  0  0
  -27.7115   50.6869   56.4607 H   0  0  0  0  0  0  0  0  0  0  0  0
  -26.8383   51.6032   57.7127 H   0  0  0  0  0  0  0  0  0  0  0  0
  -28.5862   53.9458   60.7713 H   0  0  0  0  0  0  0  0  0  0  0  0
  -27.0880   52.3865   54.8529 H   0  0  0  0  0  0  0  0  0  0  0  0
  -25.6706   51.6513   55.6455 H   0  0  0  0  0  0  0  0  0  0  0  0
  -25.3817   54.0195   55.3302 H   0  0  0  0  0  0  0  0  0  0  0  0
  -25.4449   53.5405   57.0455 H   0  0  0  0  0  0  0  0  0  0  0  0
  -26.6034   55.6210   56.6600 H   0  0  0  0  0  0  0  0  0  0  0  0
  -27.6773   54.3174   57.2057 H   0  0  0  0  0  0  0  0  0  0  0  0
  -28.4714   54.0036   54.9746 H   0  0  0  0  0  0  0  0  0  0  0  0
  -27.3876   55.2874   54.4137 H   0  0  0  0  0  0  0  0  0  0  0  0
  -29.6564   56.0771   54.6218 H   0  0  0  0  0  0  0  0  0  0  0  0
  -28.5390   56.8699   55.7640 H   0  0  0  0  0  0  0  0  0  0  0  0
  -29.3722   55.5441   57.5473 H   0  0  0  0  0  0  0  0  0  0  0  0
  -30.4714   54.7244   56.4215 H   0  0  0  0  0  0  0  0  0  0  0  0
  -31.6281   56.3827   57.7381 H   0  0  0  0  0  0  0  0  0  0  0  0
  -31.6019   56.7733   56.0043 H   0  0  0  0  0  0  0  0  0  0  0  0
  -29.8761   58.3812   56.3652 H   0  0  0  0  0  0  0  0  0  0  0  0
  -29.8811   57.9828   58.0968 H   0  0  0  0  0  0  0  0  0  0  0  0
  -32.1068   58.8054   58.3066 H   0  0  0  0  0  0  0  0  0  0  0  0
  -32.1073   59.1927   56.5655 H   0  0  0  0  0  0  0  0  0  0  0  0
  -30.4163   60.8277   56.8970 H   0  0  0  0  0  0  0  0  0  0  0  0
  -30.3865   60.4356   58.6307 H   0  0  0  0  0  0  0  0  0  0  0  0
  -32.6970   61.6008   57.1587 H   0  0  0  0  0  0  0  0  0  0  0  0
  -31.5661   62.4630   58.2285 H   0  0  0  0  0  0  0  0  0  0  0  0
  -32.3072   61.1712   60.0996 H   0  0  0  0  0  0  0  0  0  0  0  0
  -33.4136   60.2793   59.0551 H   0  0  0  0  0  0  0  0  0  0  0  0
  -34.0099   63.0293   58.7659 H   0  0  0  0  0  0  0  0  0  0  0  0
  -35.5691   63.0814   60.4023 H   0  0  0  0  0  0  0  0  0  0  0  0
  -37.3764   60.1530   63.2042 H   0  0  0  0  0  0  0  0  0  0  0  0
  -35.6979   59.6294   63.2434 H   0  0  0  0  0  0  0  0  0  0  0  0
  -37.8119   58.5833   61.4147 H   0  0  0  0  0  0  0  0  0  0  0  0
  -37.1476   57.7838   62.8677 H   0  0  0  0  0  0  0  0  0  0  0  0
  -35.6238   58.4067   60.3945 H   0  0  0  0  0  0  0  0  0  0  0  0
  -36.2729   56.8255   60.8717 H   0  0  0  0  0  0  0  0  0  0  0  0
  -34.2161   58.3779   62.3821 H   0  0  0  0  0  0  0  0  0  0  0  0
  -33.9192   56.9787   61.3420 H   0  0  0  0  0  0  0  0  0  0  0  0
  -35.5592   56.9942   63.8379 H   0  0  0  0  0  0  0  0  0  0  0  0
  -31.5782   53.3337   63.9805 H   0  0  0  0  0  0  0  0  0  0  0  0
  -32.2619   53.9779   65.4538 H   0  0  0  0  0  0  0  0  0  0  0  0
  -30.5303   53.8044   65.2971 H   0  0  0  0  0  0  0  0  0  0  0  0
  -31.8001   57.3274   65.1618 H   0  0  0  0  0  0  0  0  0  0  0  0
  -31.3518   56.1135   66.2794 H   0  0  0  0  0  0  0  0  0  0  0  0
  -28.1149   55.7383   61.6778 H   0  0  0  0  0  0  0  0  0  0  0  0
  -25.7904   56.0464   61.1246 H   0  0  0  0  0  0  0  0  0  0  0  0
  -24.3319   57.2410   62.6175 H   0  0  0  0  0  0  0  0  0  0  0  0
  -25.1809   58.1307   64.6921 H   0  0  0  0  0  0  0  0  0  0  0  0
  -35.6573   52.6835   63.4245 H   0  0  0  0  0  0  0  0  0  0  0  0
  -33.0769   53.6667   64.5481 H   0  0  0  0  0  0  0  0  0  0  0  0
  -34.0805   52.4052   65.2223 H   0  0  0  0  0  0  0  0  0  0  0  0
  -34.6735   54.0471   65.1474 H   0  0  0  0  0  0  0  0  0  0  0  0
  -34.2878   51.8977   61.5390 H   0  0  0  0  0  0  0  0  0  0  0  0
  -33.8831   51.0963   63.0677 H   0  0  0  0  0  0  0  0  0  0  0  0
  -29.7477   52.3432   63.6338 H   0  0  0  0  0  0  0  0  0  0  0  0
  -29.3996   50.0557   61.7493 H   0  0  0  0  0  0  0  0  0  0  0  0
  -29.7709   49.8191   63.4719 H   0  0  0  0  0  0  0  0  0  0  0  0
  -27.4204   49.5990   63.0838 H   0  0  0  0  0  0  0  0  0  0  0  0
  -27.8141   51.0524   64.0554 H   0  0  0  0  0  0  0  0  0  0  0  0
  -27.1285   51.0856   61.1746 H   0  0  0  0  0  0  0  0  0  0  0  0
  -26.0150   51.4162   62.5263 H   0  0  0  0  0  0  0  0  0  0  0  0
  -27.5928   53.2145   63.1948 H   0  0  0  0  0  0  0  0  0  0  0  0
  -26.6335   53.4597   61.7133 H   0  0  0  0  0  0  0  0  0  0  0  0
  1 33  1  0  0  0  0
  1 34  1  0  0  0  0
  1 61  1  0  0  0  0
  2  4  1  0  0  0  0
  2 62  1  0  0  0  0
  2 63  1  0  0  0  0
  2 64  1  0  0  0  0
  3 33  2  0  0  0  0
  4  7  1  0  0  0  0
  4 65  1  0  0  0  0
  4 66  1  0  0  0  0
  5 38  1  0  0  0  0
  5 39  1  0  0  0  0
  5 67  1  0  0  0  0
  6 39  2  0  0  0  0
  7 10  1  0  0  0  0
  7 68  1  0  0  0  0
  7 69  1  0  0  0  0
  8 40  1  0  0  0  0
  8 43  2  0  0  0  0
  9 42  1  0  0  0  0
  9 43  1  0  0  0  0
 10 13  1  0  0  0  0
 10 70  1  0  0  0  0
 10 71  1  0  0  0  0
 11 54  1  0  0  0  0
 11 55  1  0  0  0  0
 11 72  1  0  0  0  0
 12 49  1  0  0  0  0
 12 73  1  0  0  0  0
 13 16  1  0  0  0  0
 13 74  1  0  0  0  0
 13 75  1  0  0  0  0
 14 59  1  0  0  0  0
 14 60  1  0  0  0  0
 14 76  1  0  0  0  0
 15 50  2  0  0  0  0
 16 18  1  0  0  0  0
 16 77  1  0  0  0  0
 16 78  1  0  0  0  0
 17 50  1  0  0  0  0
 17 51  1  0  0  0  0
 18 20  1  0  0  0  0
 18 79  1  0  0  0  0
 18 80  1  0  0  0  0
 19 54  2  0  0  0  0
 20 22  1  0  0  0  0
 20 81  1  0  0  0  0
 20 82  1  0  0  0  0
 21 60  2  0  0  0  0
 22 23  1  0  0  0  0
 22 83  1  0  0  0  0
 22 84  1  0  0  0  0
 23 24  1  0  0  0  0
 23 85  1  0  0  0  0
 23 86  1  0  0  0  0
 24 25  1  0  0  0  0
 24 87  1  0  0  0  0
 24 88  1  0  0  0  0
 25 26  1  0  0  0  0
 25 89  1  0  0  0  0
 25 90  1  0  0  0  0
 26 27  1  0  0  0  0
 26 91  1  0  0  0  0
 26 92  1  0  0  0  0
 27 28  1  0  0  0  0
 27 93  1  0  0  0  0
 27 94  1  0  0  0  0
 28 29  1  0  0  0  0
 28 95  1  0  0  0  0
 28 96  1  0  0  0  0
 29 30  1  0  0  0  0
 29 97  1  0  0  0  0
 29 98  1  0  0  0  0
 30 31  1  0  0  0  0
 30 99  1  0  0  0  0
 30100  1  0  0  0  0
 31 32  2  0  0  0  0
 31101  1  0  0  0  0
 32 33  1  0  0  0  0
 32102  1  0  0  0  0
 34 35  1  0  0  0  0
 34103  1  0  0  0  0
 34104  1  0  0  0  0
 35 36  1  0  0  0  0
 35105  1  0  0  0  0
 35106  1  0  0  0  0
 36 37  1  0  0  0  0
 36107  1  0  0  0  0
 36108  1  0  0  0  0
 37 38  1  0  0  0  0
 37109  1  0  0  0  0
 37110  1  0  0  0  0
 38 50  1  0  0  0  0
 38111  1  1  0  0  0
 40 39  1  6  0  0  0
 40 41  1  0  0  0  0
 40 42  1  0  0  0  0
 41112  1  0  0  0  0
 41113  1  0  0  0  0
 41114  1  0  0  0  0
 42115  1  0  0  0  0
 42116  1  0  0  0  0
 43 44  1  0  0  0  0
 44 45  2  0  0  0  0
 44 49  1  0  0  0  0
 45 46  1  0  0  0  0
 45117  1  0  0  0  0
 46 47  2  0  0  0  0
 46118  1  0  0  0  0
 47 48  1  0  0  0  0
 47119  1  0  0  0  0
 48 49  2  0  0  0  0
 48120  1  0  0  0  0
 51 52  1  0  0  0  0
 51 53  1  0  0  0  0
 51121  1  1  0  0  0
 52122  1  0  0  0  0
 52123  1  0  0  0  0
 52124  1  0  0  0  0
 53 54  1  0  0  0  0
 53125  1  0  0  0  0
 53126  1  0  0  0  0
 55 56  1  0  0  0  0
 55 60  1  0  0  0  0
 55127  1  1  0  0  0
 56 57  1  0  0  0  0
 56128  1  0  0  0  0
 56129  1  0  0  0  0
 57 58  1  0  0  0  0
 57130  1  0  0  0  0
 57131  1  0  0  0  0
 58 59  1  0  0  0  0
 58132  1  0  0  0  0
 58133  1  0  0  0  0
 59134  1  0  0  0  0
 59135  1  0  0  0  0
M  END
$$$$