/media/chris/experiments/cd1a-new-docking/inputs/ligands/7ryo_ligand.pdb
 OpenBabel07032304133D

135137  0  0  1  0  0  0  0  0999 V2000
  -39.2043   59.3899   62.1545 N   0  0  0  0  0  0  0  0  0  0  0  0
  -44.0009   58.8608   64.5589 C   0  0  0  0  0  0  0  0  0  0  0  0
  -40.9220   60.8288   62.4244 O   0  0  0  0  0  0  0  0  0  0  0  0
  -44.1495   57.3700   64.4046 C   0  0  0  0  0  0  0  0  0  0  0  0
  -33.1324   57.6580   60.0424 N   0  0  0  0  0  0  0  0  0  0  0  0
  -31.0300   56.8635   59.9912 O   0  0  0  0  0  0  0  0  0  0  0  0
  -43.0325   56.5851   65.0682 C   0  0  0  0  0  0  0  0  0  0  0  0
  -32.7474   58.8490   57.6020 N   0  0  0  0  0  0  0  0  0  0  0  0
  -31.9159   60.8799   58.1192 O   0  0  0  0  0  0  0  0  0  0  0  0
  -42.9209   56.7964   66.5695 C   0  0  0  0  0  0  0  0  0  0  0  0
  -30.9512   53.1888   57.2043 N   0  0  0  0  0  0  0  0  0  0  0  0
  -32.8048   62.9653   57.1559 O   0  0  0  0  0  0  0  0  0  0  0  0
  -42.6753   58.2473   66.9603 C   0  0  0  0  0  0  0  0  0  0  0  0
  -27.6764   54.4673   56.3473 N   0  0  0  0  0  0  0  0  0  0  0  0
  -35.0867   54.9771   60.8192 O   0  0  0  0  0  0  0  0  0  0  0  0
  -42.5449   58.4687   68.4593 C   0  0  0  0  0  0  0  0  0  0  0  0
  -32.9977   54.8137   59.9886 O   0  0  0  0  0  0  0  0  0  0  0  0
  -42.3165   59.9163   68.8581 C   0  0  0  0  0  0  0  0  0  0  0  0
  -33.0266   52.6180   57.8592 O   0  0  0  0  0  0  0  0  0  0  0  0
  -41.0632   60.5354   68.2614 C   0  0  0  0  0  0  0  0  0  0  0  0
  -29.2213   53.3168   55.1982 O   0  0  0  0  0  0  0  0  0  0  0  0
  -40.8469   61.9743   68.6865 C   0  0  0  0  0  0  0  0  0  0  0  0
  -39.6029   62.5862   68.0714 C   0  0  0  0  0  0  0  0  0  0  0  0
  -39.6127   62.6333   66.5566 C   0  0  0  0  0  0  0  0  0  0  0  0
  -38.3495   63.2343   65.9719 C   0  0  0  0  0  0  0  0  0  0  0  0
  -38.3560   63.3019   64.4537 C   0  0  0  0  0  0  0  0  0  0  0  0
  -39.4801   64.1516   63.8915 C   0  0  0  0  0  0  0  0  0  0  0  0
  -39.5158   64.2196   62.3738 C   0  0  0  0  0  0  0  0  0  0  0  0
  -39.7067   62.8673   61.7091 C   0  0  0  0  0  0  0  0  0  0  0  0
  -39.7263   62.9273   60.1866 C   0  0  0  0  0  0  0  0  0  0  0  0
  -39.9336   61.5741   59.5813 C   0  0  0  0  0  0  0  0  0  0  0  0
  -40.0893   60.4176   60.2115 C   0  0  0  0  0  0  0  0  0  0  0  0
  -40.1043   60.2597   61.6829 C   0  0  0  0  0  0  0  0  0  0  0  0
  -38.2360   58.7337   61.2903 C   0  0  0  0  0  0  0  0  0  0  0  0
  -36.9560   58.4330   62.0390 C   0  0  0  0  0  0  0  0  0  0  0  0
  -35.8780   57.7610   61.2090 C   0  0  0  0  0  0  0  0  0  0  0  0
  -34.6110   57.4590   62.0020 C   0  0  0  0  0  0  0  0  0  0  0  0
  -33.5311   56.7980   61.1441 C   0  0  1  0  0  0  0  0  0  0  0  0
  -31.8905   57.6129   59.5539 C   0  0  0  0  0  0  0  0  0  0  0  0
  -31.5439   58.5726   58.4037 C   0  0  1  0  0  0  0  0  0  0  0  0
  -30.4933   57.9165   57.5130 C   0  0  0  0  0  0  0  0  0  0  0  0
  -31.0947   59.9608   58.8833 C   0  0  0  0  0  0  0  0  0  0  0  0
  -32.8564   60.1098   57.5124 C   0  0  0  0  0  0  0  0  0  0  0  0
  -33.9104   60.8375   56.8017 C   0  0  0  0  0  0  0  0  0  0  0  0
  -34.9204   60.1384   56.1396 C   0  0  0  0  0  0  0  0  0  0  0  0
  -35.7740   60.7941   55.2693 C   0  0  0  0  0  0  0  0  0  0  0  0
  -35.6379   62.1468   55.0452 C   0  0  0  0  0  0  0  0  0  0  0  0
  -34.6422   62.8621   55.6853 C   0  0  0  0  0  0  0  0  0  0  0  0
  -33.7731   62.2203   56.5620 C   0  0  0  0  0  0  0  0  0  0  0  0
  -33.9929   55.4382   60.6419 C   0  0  0  0  0  0  0  0  0  0  0  0
  -32.5346   53.5221   60.5056 C   0  0  2  0  0  0  0  0  0  0  0  0
  -32.0506   53.7303   61.9184 C   0  0  0  0  0  0  0  0  0  0  0  0
  -31.4216   53.0853   59.5729 C   0  0  0  0  0  0  0  0  0  0  0  0
  -31.8763   52.9454   58.1372 C   0  0  0  0  0  0  0  0  0  0  0  0
  -29.5908   53.5605   57.5517 C   0  0  1  0  0  0  0  0  0  0  0  0
  -28.9328   52.4448   58.3713 C   0  0  0  0  0  0  0  0  0  0  0  0
  -27.7078   52.9034   59.1551 C   0  0  0  0  0  0  0  0  0  0  0  0
  -26.5560   53.4236   58.3181 C   0  0  0  0  0  0  0  0  0  0  0  0
  -26.8723   54.6866   57.5448 C   0  0  0  0  0  0  0  0  0  0  0  0
  -28.8122   53.7711   56.2627 C   0  0  0  0  0  0  0  0  0  0  0  0
  -39.1971   59.1874   63.1179 H   0  0  0  0  0  0  0  0  0  0  0  0
  -44.8163   59.3529   64.0711 H   0  0  0  0  0  0  0  0  0  0  0  0
  -43.0786   59.1750   64.1166 H   0  0  0  0  0  0  0  0  0  0  0  0
  -44.0022   59.1137   65.5986 H   0  0  0  0  0  0  0  0  0  0  0  0
  -44.1561   57.1353   63.3607 H   0  0  0  0  0  0  0  0  0  0  0  0
  -45.0634   57.0904   64.8857 H   0  0  0  0  0  0  0  0  0  0  0  0
  -33.7861   58.2817   59.6515 H   0  0  0  0  0  0  0  0  0  0  0  0
  -42.1061   56.8773   64.6195 H   0  0  0  0  0  0  0  0  0  0  0  0
  -43.2591   55.5496   64.9221 H   0  0  0  0  0  0  0  0  0  0  0  0
  -42.1083   56.2045   66.9357 H   0  0  0  0  0  0  0  0  0  0  0  0
  -43.8576   56.5083   66.9991 H   0  0  0  0  0  0  0  0  0  0  0  0
  -31.1988   53.1140   56.2544 H   0  0  0  0  0  0  0  0  0  0  0  0
  -32.2035   62.5632   57.7514 H   0  0  0  0  0  0  0  0  0  0  0  0
  -43.4944   58.8357   66.6029 H   0  0  0  0  0  0  0  0  0  0  0  0
  -41.7419   58.5330   66.5220 H   0  0  0  0  0  0  0  0  0  0  0  0
  -27.3468   54.8756   55.5143 H   0  0  0  0  0  0  0  0  0  0  0  0
  -41.7183   57.8888   68.8133 H   0  0  0  0  0  0  0  0  0  0  0  0
  -43.4762   58.1732   68.8956 H   0  0  0  0  0  0  0  0  0  0  0  0
  -42.2390   59.9626   69.9243 H   0  0  0  0  0  0  0  0  0  0  0  0
  -43.1465   60.4749   68.4787 H   0  0  0  0  0  0  0  0  0  0  0  0
  -41.1433   60.5043   67.1948 H   0  0  0  0  0  0  0  0  0  0  0  0
  -40.2282   59.9695   68.6186 H   0  0  0  0  0  0  0  0  0  0  0  0
  -40.7528   62.0060   69.7519 H   0  0  0  0  0  0  0  0  0  0  0  0
  -41.6879   62.5415   68.3462 H   0  0  0  0  0  0  0  0  0  0  0  0
  -38.7571   62.0097   68.3830 H   0  0  0  0  0  0  0  0  0  0  0  0
  -39.5627   63.6009   68.4085 H   0  0  0  0  0  0  0  0  0  0  0  0
  -40.4482   63.2219   66.2396 H   0  0  0  0  0  0  0  0  0  0  0  0
  -39.6776   61.6243   66.2065 H   0  0  0  0  0  0  0  0  0  0  0  0
  -37.5165   62.6379   66.2807 H   0  0  0  0  0  0  0  0  0  0  0  0
  -38.2844   64.2401   66.3312 H   0  0  0  0  0  0  0  0  0  0  0  0
  -38.4583   62.3081   64.0707 H   0  0  0  0  0  0  0  0  0  0  0  0
  -37.4358   63.7588   64.1547 H   0  0  0  0  0  0  0  0  0  0  0  0
  -39.3684   65.1467   64.2687 H   0  0  0  0  0  0  0  0  0  0  0  0
  -40.3952   63.6899   64.1985 H   0  0  0  0  0  0  0  0  0  0  0  0
  -38.5919   64.6372   62.0320 H   0  0  0  0  0  0  0  0  0  0  0  0
  -40.3584   64.8225   62.1065 H   0  0  0  0  0  0  0  0  0  0  0  0
  -40.6365   62.4559   62.0424 H   0  0  0  0  0  0  0  0  0  0  0  0
  -38.8684   62.2629   61.9862 H   0  0  0  0  0  0  0  0  0  0  0  0
  -38.7927   63.3214   59.8431 H   0  0  0  0  0  0  0  0  0  0  0  0
  -40.5405   63.5542   59.8881 H   0  0  0  0  0  0  0  0  0  0  0  0
  -39.9582   61.5365   58.5503 H   0  0  0  0  0  0  0  0  0  0  0  0
  -40.2084   59.5693   59.6360 H   0  0  0  0  0  0  0  0  0  0  0  0
  -38.0148   59.3748   60.4627 H   0  0  0  0  0  0  0  0  0  0  0  0
  -38.6554   57.8106   60.9484 H   0  0  0  0  0  0  0  0  0  0  0  0
  -37.1937   57.7896   62.8603 H   0  0  0  0  0  0  0  0  0  0  0  0
  -36.5565   59.3772   62.3453 H   0  0  0  0  0  0  0  0  0  0  0  0
  -35.6238   58.4067   60.3945 H   0  0  0  0  0  0  0  0  0  0  0  0
  -36.2729   56.8255   60.8717 H   0  0  0  0  0  0  0  0  0  0  0  0
  -34.8590   56.8018   62.8091 H   0  0  0  0  0  0  0  0  0  0  0  0
  -34.2203   58.3886   62.3599 H   0  0  0  0  0  0  0  0  0  0  0  0
  -32.6704   56.6456   61.7612 H   0  0  0  0  0  0  0  0  0  0  0  0
  -30.8415   56.9544   57.2000 H   0  0  0  0  0  0  0  0  0  0  0  0
  -29.5808   57.8047   58.0606 H   0  0  0  0  0  0  0  0  0  0  0  0
  -30.3206   58.5302   56.6536 H   0  0  0  0  0  0  0  0  0  0  0  0
  -31.2707   60.0759   59.9324 H   0  0  0  0  0  0  0  0  0  0  0  0
  -30.0476   60.1271   58.7387 H   0  0  0  0  0  0  0  0  0  0  0  0
  -35.0317   59.1250   56.3000 H   0  0  0  0  0  0  0  0  0  0  0  0
  -36.5172   60.2664   54.7852 H   0  0  0  0  0  0  0  0  0  0  0  0
  -36.2812   62.6280   54.3973 H   0  0  0  0  0  0  0  0  0  0  0  0
  -34.5437   63.8747   55.5122 H   0  0  0  0  0  0  0  0  0  0  0  0
  -33.2952   52.7702   60.5372 H   0  0  0  0  0  0  0  0  0  0  0  0
  -31.2859   54.4787   61.9268 H   0  0  0  0  0  0  0  0  0  0  0  0
  -31.6548   52.8118   62.2988 H   0  0  0  0  0  0  0  0  0  0  0  0
  -32.8674   54.0480   62.5321 H   0  0  0  0  0  0  0  0  0  0  0  0
  -31.0486   52.1395   59.9064 H   0  0  0  0  0  0  0  0  0  0  0  0
  -30.6666   53.8430   59.5977 H   0  0  0  0  0  0  0  0  0  0  0  0
  -29.5957   54.4563   58.1368 H   0  0  0  0  0  0  0  0  0  0  0  0
  -28.6337   51.6651   57.7022 H   0  0  0  0  0  0  0  0  0  0  0  0
  -29.6562   52.1127   59.0863 H   0  0  0  0  0  0  0  0  0  0  0  0
  -27.3513   52.0718   59.7262 H   0  0  0  0  0  0  0  0  0  0  0  0
  -28.0333   53.7289   59.7531 H   0  0  0  0  0  0  0  0  0  0  0  0
  -26.2785   52.6626   57.6190 H   0  0  0  0  0  0  0  0  0  0  0  0
  -25.7673   53.6687   58.9984 H   0  0  0  0  0  0  0  0  0  0  0  0
  -27.4067   55.3512   58.1910 H   0  0  0  0  0  0  0  0  0  0  0  0
  -25.9368   55.0904   57.2181 H   0  0  0  0  0  0  0  0  0  0  0  0
  1 33  1  0  0  0  0
  1 34  1  0  0  0  0
  1 61  1  0  0  0  0
  2  4  1  0  0  0  0
  2 62  1  0  0  0  0
  2 63  1  0  0  0  0
  2 64  1  0  0  0  0
  3 33  2  0  0  0  0
  4  7  1  0  0  0  0
  4 65  1  0  0  0  0
  4 66  1  0  0  0  0
  5 38  1  0  0  0  0
  5 39  1  0  0  0  0
  5 67  1  0  0  0  0
  6 39  2  0  0  0  0
  7 10  1  0  0  0  0
  7 68  1  0  0  0  0
  7 69  1  0  0  0  0
  8 40  1  0  0  0  0
  8 43  2  0  0  0  0
  9 42  1  0  0  0  0
  9 43  1  0  0  0  0
 10 13  1  0  0  0  0
 10 70  1  0  0  0  0
 10 71  1  0  0  0  0
 11 54  1  0  0  0  0
 11 55  1  0  0  0  0
 11 72  1  0  0  0  0
 12 49  1  0  0  0  0
 12 73  1  0  0  0  0
 13 16  1  0  0  0  0
 13 74  1  0  0  0  0
 13 75  1  0  0  0  0
 14 59  1  0  0  0  0
 14 60  1  0  0  0  0
 14 76  1  0  0  0  0
 15 50  2  0  0  0  0
 16 18  1  0  0  0  0
 16 77  1  0  0  0  0
 16 78  1  0  0  0  0
 17 50  1  0  0  0  0
 17 51  1  0  0  0  0
 18 20  1  0  0  0  0
 18 79  1  0  0  0  0
 18 80  1  0  0  0  0
 19 54  2  0  0  0  0
 20 22  1  0  0  0  0
 20 81  1  0  0  0  0
 20 82  1  0  0  0  0
 21 60  2  0  0  0  0
 22 23  1  0  0  0  0
 22 83  1  0  0  0  0
 22 84  1  0  0  0  0
 23 24  1  0  0  0  0
 23 85  1  0  0  0  0
 23 86  1  0  0  0  0
 24 25  1  0  0  0  0
 24 87  1  0  0  0  0
 24 88  1  0  0  0  0
 25 26  1  0  0  0  0
 25 89  1  0  0  0  0
 25 90  1  0  0  0  0
 26 27  1  0  0  0  0
 26 91  1  0  0  0  0
 26 92  1  0  0  0  0
 27 28  1  0  0  0  0
 27 93  1  0  0  0  0
 27 94  1  0  0  0  0
 28 29  1  0  0  0  0
 28 95  1  0  0  0  0
 28 96  1  0  0  0  0
 29 30  1  0  0  0  0
 29 97  1  0  0  0  0
 29 98  1  0  0  0  0
 30 31  1  0  0  0  0
 30 99  1  0  0  0  0
 30100  1  0  0  0  0
 31 32  2  0  0  0  0
 31101  1  0  0  0  0
 32 33  1  0  0  0  0
 32102  1  0  0  0  0
 34 35  1  0  0  0  0
 34103  1  0  0  0  0
 34104  1  0  0  0  0
 35 36  1  0  0  0  0
 35105  1  0  0  0  0
 35106  1  0  0  0  0
 36 37  1  0  0  0  0
 36107  1  0  0  0  0
 36108  1  0  0  0  0
 37 38  1  0  0  0  0
 37109  1  0  0  0  0
 37110  1  0  0  0  0
 38 50  1  0  0  0  0
 38111  1  1  0  0  0
 40 39  1  1  0  0  0
 40 41  1  0  0  0  0
 40 42  1  0  0  0  0
 41112  1  0  0  0  0
 41113  1  0  0  0  0
 41114  1  0  0  0  0
 42115  1  0  0  0  0
 42116  1  0  0  0  0
 43 44  1  0  0  0  0
 44 45  2  0  0  0  0
 44 49  1  0  0  0  0
 45 46  1  0  0  0  0
 45117  1  0  0  0  0
 46 47  2  0  0  0  0
 46118  1  0  0  0  0
 47 48  1  0  0  0  0
 47119  1  0  0  0  0
 48 49  2  0  0  0  0
 48120  1  0  0  0  0
 51 52  1  0  0  0  0
 51 53  1  0  0  0  0
 51121  1  6  0  0  0
 52122  1  0  0  0  0
 52123  1  0  0  0  0
 52124  1  0  0  0  0
 53 54  1  0  0  0  0
 53125  1  0  0  0  0
 53126  1  0  0  0  0
 55 56  1  0  0  0  0
 55 60  1  0  0  0  0
 55127  1  1  0  0  0
 56 57  1  0  0  0  0
 56128  1  0  0  0  0
 56129  1  0  0  0  0
 57 58  1  0  0  0  0
 57130  1  0  0  0  0
 57131  1  0  0  0  0
 58 59  1  0  0  0  0
 58132  1  0  0  0  0
 58133  1  0  0  0  0
 59134  1  0  0  0  0
 59135  1  0  0  0  0
M  END
$$$$