/media/chris/experiments/cd1a-new-docking/inputs/ligands/7ryo_ligand.pdb
 OpenBabel07032304133D

135137  0  0  1  0  0  0  0  0999 V2000
  -37.6438   60.3330   63.4177 N   0  0  0  0  0  0  0  0  0  0  0  0
  -30.5193   61.0896   72.7354 C   0  0  0  0  0  0  0  0  0  0  0  0
  -39.1160   61.9983   63.8087 O   0  0  0  0  0  0  0  0  0  0  0  0
  -29.6048   62.1475   72.1758 C   0  0  0  0  0  0  0  0  0  0  0  0
  -35.8432   57.0722   64.0991 N   0  0  0  0  0  0  0  0  0  0  0  0
  -37.8403   56.8763   65.1126 O   0  0  0  0  0  0  0  0  0  0  0  0
  -29.8037   62.3859   70.6900 C   0  0  0  0  0  0  0  0  0  0  0  0
  -35.9269   54.4131   63.4326 N   0  0  0  0  0  0  0  0  0  0  0  0
  -37.1910   52.8769   64.4934 O   0  0  0  0  0  0  0  0  0  0  0  0
  -31.1980   62.8574   70.3096 C   0  0  0  0  0  0  0  0  0  0  0  0
  -30.6755   60.1383   65.3610 N   0  0  0  0  0  0  0  0  0  0  0  0
  -33.8649   53.2411   62.0046 O   0  0  0  0  0  0  0  0  0  0  0  0
  -32.2969   61.8816   70.7073 C   0  0  0  0  0  0  0  0  0  0  0  0
  -29.9617   57.7600   67.9932 N   0  0  0  0  0  0  0  0  0  0  0  0
  -33.3308   55.0981   64.3873 O   0  0  0  0  0  0  0  0  0  0  0  0
  -33.6951   62.3347   70.3167 C   0  0  0  0  0  0  0  0  0  0  0  0
  -32.7405   57.2180   63.8989 O   0  0  0  0  0  0  0  0  0  0  0  0
  -33.8948   62.5228   68.8228 C   0  0  0  0  0  0  0  0  0  0  0  0
  -31.8534   60.0951   63.4447 O   0  0  0  0  0  0  0  0  0  0  0  0
  -35.2878   62.9919   68.4358 C   0  0  0  0  0  0  0  0  0  0  0  0
  -31.7743   58.9758   67.4764 O   0  0  0  0  0  0  0  0  0  0  0  0
  -35.6551   64.3338   69.0377 C   0  0  0  0  0  0  0  0  0  0  0  0
  -34.7238   65.4474   68.5988 C   0  0  0  0  0  0  0  0  0  0  0  0
  -34.7035   65.6927   67.1033 C   0  0  0  0  0  0  0  0  0  0  0  0
  -36.0563   66.0928   66.5477 C   0  0  0  0  0  0  0  0  0  0  0  0
  -36.0510   66.3248   65.0458 C   0  0  0  0  0  0  0  0  0  0  0  0
  -35.6565   65.0973   64.2462 C   0  0  0  0  0  0  0  0  0  0  0  0
  -36.5778   63.9035   64.4347 C   0  0  0  0  0  0  0  0  0  0  0  0
  -38.0132   64.1714   64.0164 C   0  0  0  0  0  0  0  0  0  0  0  0
  -38.1671   64.5403   62.5460 C   0  0  0  0  0  0  0  0  0  0  0  0
  -37.6878   63.4439   61.6466 C   0  0  0  0  0  0  0  0  0  0  0  0
  -37.6882   62.1394   61.8848 C   0  0  0  0  0  0  0  0  0  0  0  0
  -38.2001   61.5133   63.1244 C   0  0  0  0  0  0  0  0  0  0  0  0
  -36.5610   59.7701   62.6268 C   0  0  0  0  0  0  0  0  0  0  0  0
  -36.9560   58.4330   62.0390 C   0  0  0  0  0  0  0  0  0  0  0  0
  -35.8780   57.7610   61.2090 C   0  0  0  0  0  0  0  0  0  0  0  0
  -34.6110   57.4590   62.0020 C   0  0  0  0  0  0  0  0  0  0  0  0
  -34.8704   56.5130   63.1754 C   0  0  1  0  0  0  0  0  0  0  0  0
  -36.9896   56.4367   64.3534 C   0  0  0  0  0  0  0  0  0  0  0  0
  -37.2183   55.0807   63.6655 C   0  0  1  0  0  0  0  0  0  0  0  0
  -37.9046   55.3174   62.3236 C   0  0  0  0  0  0  0  0  0  0  0  0
  -37.9976   54.0814   64.5333 C   0  0  0  0  0  0  0  0  0  0  0  0
  -36.0176   53.2432   63.9150 C   0  0  0  0  0  0  0  0  0  0  0  0
  -34.9678   52.2217   63.9071 C   0  0  0  0  0  0  0  0  0  0  0  0
  -34.8991   51.2798   64.9345 C   0  0  0  0  0  0  0  0  0  0  0  0
  -33.7841   50.4711   65.0723 C   0  0  0  0  0  0  0  0  0  0  0  0
  -32.7268   50.5853   64.1962 C   0  0  0  0  0  0  0  0  0  0  0  0
  -32.7680   51.5140   63.1722 C   0  0  0  0  0  0  0  0  0  0  0  0
  -33.8790   52.3372   63.0186 C   0  0  0  0  0  0  0  0  0  0  0  0
  -33.5727   56.1622   63.8877 C   0  0  0  0  0  0  0  0  0  0  0  0
  -31.4434   57.0690   64.5660 C   0  0  2  0  0  0  0  0  0  0  0  0
  -31.6581   57.2370   66.0490 C   0  0  0  0  0  0  0  0  0  0  0  0
  -30.5591   58.1549   63.9844 C   0  0  0  0  0  0  0  0  0  0  0  0
  -31.0920   59.5477   64.2372 C   0  0  0  0  0  0  0  0  0  0  0  0
  -29.7624   59.4813   66.2800 C   0  0  1  0  0  0  0  0  0  0  0  0
  -28.8956   60.5231   66.9960 C   0  0  0  0  0  0  0  0  0  0  0  0
  -27.6313   59.9417   67.6194 C   0  0  0  0  0  0  0  0  0  0  0  0
  -27.8561   58.8999   68.6973 C   0  0  0  0  0  0  0  0  0  0  0  0
  -28.5238   57.6328   68.2053 C   0  0  0  0  0  0  0  0  0  0  0  0
  -30.5871   58.7164   67.3031 C   0  0  0  0  0  0  0  0  0  0  0  0
  -37.9782   59.8288   64.1944 H   0  0  0  0  0  0  0  0  0  0  0  0
  -30.3290   60.9708   73.7817 H   0  0  0  0  0  0  0  0  0  0  0  0
  -30.3411   60.1619   72.2329 H   0  0  0  0  0  0  0  0  0  0  0  0
  -31.5374   61.3846   72.5893 H   0  0  0  0  0  0  0  0  0  0  0  0
  -28.5923   61.8422   72.3385 H   0  0  0  0  0  0  0  0  0  0  0  0
  -29.8345   63.0639   72.6781 H   0  0  0  0  0  0  0  0  0  0  0  0
  -35.6545   57.9305   64.5430 H   0  0  0  0  0  0  0  0  0  0  0  0
  -29.6088   61.4685   70.1750 H   0  0  0  0  0  0  0  0  0  0  0  0
  -29.1307   63.1708   70.4145 H   0  0  0  0  0  0  0  0  0  0  0  0
  -31.2324   62.9926   69.2487 H   0  0  0  0  0  0  0  0  0  0  0  0
  -31.3784   63.7690   70.8401 H   0  0  0  0  0  0  0  0  0  0  0  0
  -30.9967   61.0446   65.5723 H   0  0  0  0  0  0  0  0  0  0  0  0
  -34.5977   53.8103   61.8742 H   0  0  0  0  0  0  0  0  0  0  0  0
  -32.2679   61.7564   71.7696 H   0  0  0  0  0  0  0  0  0  0  0  0
  -32.1077   60.9696   70.1807 H   0  0  0  0  0  0  0  0  0  0  0  0
  -30.5303   57.0679   68.4018 H   0  0  0  0  0  0  0  0  0  0  0  0
  -33.8931   63.2677   70.8016 H   0  0  0  0  0  0  0  0  0  0  0  0
  -34.3658   61.5584   70.6208 H   0  0  0  0  0  0  0  0  0  0  0  0
  -33.7092   61.5867   68.3388 H   0  0  0  0  0  0  0  0  0  0  0  0
  -33.2151   63.2898   68.5154 H   0  0  0  0  0  0  0  0  0  0  0  0
  -35.9969   62.2637   68.7702 H   0  0  0  0  0  0  0  0  0  0  0  0
  -35.3004   63.1065   67.3720 H   0  0  0  0  0  0  0  0  0  0  0  0
  -35.6139   64.2535   70.1038 H   0  0  0  0  0  0  0  0  0  0  0  0
  -36.6386   64.5822   68.6970 H   0  0  0  0  0  0  0  0  0  0  0  0
  -33.7315   65.1962   68.9103 H   0  0  0  0  0  0  0  0  0  0  0  0
  -35.0876   66.3463   69.0511 H   0  0  0  0  0  0  0  0  0  0  0  0
  -34.3871   64.7946   66.6152 H   0  0  0  0  0  0  0  0  0  0  0  0
  -34.0313   66.5053   66.9224 H   0  0  0  0  0  0  0  0  0  0  0  0
  -36.3658   66.9970   67.0288 H   0  0  0  0  0  0  0  0  0  0  0  0
  -36.7270   65.2812   66.7382 H   0  0  0  0  0  0  0  0  0  0  0  0
  -35.3573   67.1094   64.8265 H   0  0  0  0  0  0  0  0  0  0  0  0
  -37.0514   66.5773   64.7624 H   0  0  0  0  0  0  0  0  0  0  0  0
  -34.6695   64.8083   64.5416 H   0  0  0  0  0  0  0  0  0  0  0  0
  -35.7191   65.3717   63.2139 H   0  0  0  0  0  0  0  0  0  0  0  0
  -36.5721   63.6318   65.4696 H   0  0  0  0  0  0  0  0  0  0  0  0
  -36.2088   63.1200   63.8063 H   0  0  0  0  0  0  0  0  0  0  0  0
  -38.3918   64.9786   64.6080 H   0  0  0  0  0  0  0  0  0  0  0  0
  -38.5566   63.2623   64.1680 H   0  0  0  0  0  0  0  0  0  0  0  0
  -37.5974   65.4243   62.3489 H   0  0  0  0  0  0  0  0  0  0  0  0
  -39.2065   64.7019   62.3499 H   0  0  0  0  0  0  0  0  0  0  0  0
  -37.3122   63.7385   60.7317 H   0  0  0  0  0  0  0  0  0  0  0  0
  -37.3051   61.5178   61.1556 H   0  0  0  0  0  0  0  0  0  0  0  0
  -35.7032   59.6374   63.2524 H   0  0  0  0  0  0  0  0  0  0  0  0
  -36.3399   60.4428   61.8246 H   0  0  0  0  0  0  0  0  0  0  0  0
  -37.8119   58.5833   61.4147 H   0  0  0  0  0  0  0  0  0  0  0  0
  -37.1476   57.7838   62.8677 H   0  0  0  0  0  0  0  0  0  0  0  0
  -35.6238   58.4067   60.3945 H   0  0  0  0  0  0  0  0  0  0  0  0
  -36.2729   56.8255   60.8717 H   0  0  0  0  0  0  0  0  0  0  0  0
  -34.2161   58.3779   62.3821 H   0  0  0  0  0  0  0  0  0  0  0  0
  -33.9192   56.9787   61.3420 H   0  0  0  0  0  0  0  0  0  0  0  0
  -35.2841   55.6083   62.7813 H   0  0  0  0  0  0  0  0  0  0  0  0
  -37.3336   56.0168   61.7495 H   0  0  0  0  0  0  0  0  0  0  0  0
  -38.8864   55.7092   62.4893 H   0  0  0  0  0  0  0  0  0  0  0  0
  -37.9751   54.3921   61.7910 H   0  0  0  0  0  0  0  0  0  0  0  0
  -38.0928   54.4422   65.5361 H   0  0  0  0  0  0  0  0  0  0  0  0
  -38.9949   53.9206   64.1805 H   0  0  0  0  0  0  0  0  0  0  0  0
  -35.6853   51.1855   65.5963 H   0  0  0  0  0  0  0  0  0  0  0  0
  -33.7445   49.7783   65.8361 H   0  0  0  0  0  0  0  0  0  0  0  0
  -31.9011   49.9757   64.3045 H   0  0  0  0  0  0  0  0  0  0  0  0
  -31.9723   51.5965   62.5201 H   0  0  0  0  0  0  0  0  0  0  0  0
  -30.9866   56.1130   64.4167 H   0  0  0  0  0  0  0  0  0  0  0  0
  -32.1152   58.1858   66.2380 H   0  0  0  0  0  0  0  0  0  0  0  0
  -30.7158   57.1882   66.5536 H   0  0  0  0  0  0  0  0  0  0  0  0
  -32.2956   56.4561   66.4078 H   0  0  0  0  0  0  0  0  0  0  0  0
  -30.4844   58.0047   62.9277 H   0  0  0  0  0  0  0  0  0  0  0  0
  -29.6059   58.0841   64.4655 H   0  0  0  0  0  0  0  0  0  0  0  0
  -29.1208   58.8149   65.7423 H   0  0  0  0  0  0  0  0  0  0  0  0
  -29.4791   60.9730   67.7719 H   0  0  0  0  0  0  0  0  0  0  0  0
  -28.5837   61.2322   66.2579 H   0  0  0  0  0  0  0  0  0  0  0  0
  -27.0754   60.7479   68.0507 H   0  0  0  0  0  0  0  0  0  0  0  0
  -27.1169   59.4392   66.8272 H   0  0  0  0  0  0  0  0  0  0  0  0
  -28.4732   59.3312   69.4575 H   0  0  0  0  0  0  0  0  0  0  0  0
  -26.8894   58.6178   69.0590 H   0  0  0  0  0  0  0  0  0  0  0  0
  -28.0709   57.3531   67.2772 H   0  0  0  0  0  0  0  0  0  0  0  0
  -28.3891   56.8966   68.9700 H   0  0  0  0  0  0  0  0  0  0  0  0
  1 33  1  0  0  0  0
  1 34  1  0  0  0  0
  1 61  1  0  0  0  0
  2  4  1  0  0  0  0
  2 62  1  0  0  0  0
  2 63  1  0  0  0  0
  2 64  1  0  0  0  0
  3 33  2  0  0  0  0
  4  7  1  0  0  0  0
  4 65  1  0  0  0  0
  4 66  1  0  0  0  0
  5 38  1  0  0  0  0
  5 39  1  0  0  0  0
  5 67  1  0  0  0  0
  6 39  2  0  0  0  0
  7 10  1  0  0  0  0
  7 68  1  0  0  0  0
  7 69  1  0  0  0  0
  8 40  1  0  0  0  0
  8 43  2  0  0  0  0
  9 42  1  0  0  0  0
  9 43  1  0  0  0  0
 10 13  1  0  0  0  0
 10 70  1  0  0  0  0
 10 71  1  0  0  0  0
 11 54  1  0  0  0  0
 11 55  1  0  0  0  0
 11 72  1  0  0  0  0
 12 49  1  0  0  0  0
 12 73  1  0  0  0  0
 13 16  1  0  0  0  0
 13 74  1  0  0  0  0
 13 75  1  0  0  0  0
 14 59  1  0  0  0  0
 14 60  1  0  0  0  0
 14 76  1  0  0  0  0
 15 50  2  0  0  0  0
 16 18  1  0  0  0  0
 16 77  1  0  0  0  0
 16 78  1  0  0  0  0
 17 50  1  0  0  0  0
 17 51  1  0  0  0  0
 18 20  1  0  0  0  0
 18 79  1  0  0  0  0
 18 80  1  0  0  0  0
 19 54  2  0  0  0  0
 20 22  1  0  0  0  0
 20 81  1  0  0  0  0
 20 82  1  0  0  0  0
 21 60  2  0  0  0  0
 22 23  1  0  0  0  0
 22 83  1  0  0  0  0
 22 84  1  0  0  0  0
 23 24  1  0  0  0  0
 23 85  1  0  0  0  0
 23 86  1  0  0  0  0
 24 25  1  0  0  0  0
 24 87  1  0  0  0  0
 24 88  1  0  0  0  0
 25 26  1  0  0  0  0
 25 89  1  0  0  0  0
 25 90  1  0  0  0  0
 26 27  1  0  0  0  0
 26 91  1  0  0  0  0
 26 92  1  0  0  0  0
 27 28  1  0  0  0  0
 27 93  1  0  0  0  0
 27 94  1  0  0  0  0
 28 29  1  0  0  0  0
 28 95  1  0  0  0  0
 28 96  1  0  0  0  0
 29 30  1  0  0  0  0
 29 97  1  0  0  0  0
 29 98  1  0  0  0  0
 30 31  1  0  0  0  0
 30 99  1  0  0  0  0
 30100  1  0  0  0  0
 31 32  2  0  0  0  0
 31101  1  0  0  0  0
 32 33  1  0  0  0  0
 32102  1  0  0  0  0
 34 35  1  0  0  0  0
 34103  1  0  0  0  0
 34104  1  0  0  0  0
 35 36  1  0  0  0  0
 35105  1  0  0  0  0
 35106  1  0  0  0  0
 36 37  1  0  0  0  0
 36107  1  0  0  0  0
 36108  1  0  0  0  0
 37 38  1  0  0  0  0
 37109  1  0  0  0  0
 37110  1  0  0  0  0
 38 50  1  0  0  0  0
 38111  1  6  0  0  0
 40 39  1  1  0  0  0
 40 41  1  0  0  0  0
 40 42  1  0  0  0  0
 41112  1  0  0  0  0
 41113  1  0  0  0  0
 41114  1  0  0  0  0
 42115  1  0  0  0  0
 42116  1  0  0  0  0
 43 44  1  0  0  0  0
 44 45  2  0  0  0  0
 44 49  1  0  0  0  0
 45 46  1  0  0  0  0
 45117  1  0  0  0  0
 46 47  2  0  0  0  0
 46118  1  0  0  0  0
 47 48  1  0  0  0  0
 47119  1  0  0  0  0
 48 49  2  0  0  0  0
 48120  1  0  0  0  0
 51 52  1  0  0  0  0
 51 53  1  0  0  0  0
 51121  1  6  0  0  0
 52122  1  0  0  0  0
 52123  1  0  0  0  0
 52124  1  0  0  0  0
 53 54  1  0  0  0  0
 53125  1  0  0  0  0
 53126  1  0  0  0  0
 55 56  1  0  0  0  0
 55 60  1  0  0  0  0
 55127  1  6  0  0  0
 56 57  1  0  0  0  0
 56128  1  0  0  0  0
 56129  1  0  0  0  0
 57 58  1  0  0  0  0
 57130  1  0  0  0  0
 57131  1  0  0  0  0
 58 59  1  0  0  0  0
 58132  1  0  0  0  0
 58133  1  0  0  0  0
 59134  1  0  0  0  0
 59135  1  0  0  0  0
M  END
$$$$