/media/chris/experiments/cd1a-new-docking/inputs/ligands/7ryo_ligand.pdb
 OpenBabel07032304133D

135137  0  0  1  0  0  0  0  0999 V2000
  -37.9843   59.6092   60.1567 N   0  0  0  0  0  0  0  0  0  0  0  0
  -30.3513   52.9596   53.7619 C   0  0  0  0  0  0  0  0  0  0  0  0
  -40.0184   60.5836   60.2387 O   0  0  0  0  0  0  0  0  0  0  0  0
  -30.8470   52.2453   54.9917 C   0  0  0  0  0  0  0  0  0  0  0  0
  -35.3848   55.2330   62.7177 N   0  0  0  0  0  0  0  0  0  0  0  0
  -37.1877   56.1448   61.7319 O   0  0  0  0  0  0  0  0  0  0  0  0
  -31.1339   53.1803   56.1525 C   0  0  0  0  0  0  0  0  0  0  0  0
  -38.3372   53.5020   62.1721 N   0  0  0  0  0  0  0  0  0  0  0  0
  -38.5651   53.0768   59.9697 O   0  0  0  0  0  0  0  0  0  0  0  0
  -32.2024   54.2242   55.8701 C   0  0  0  0  0  0  0  0  0  0  0  0
  -39.2456   57.0338   64.8350 N   0  0  0  0  0  0  0  0  0  0  0  0
  -40.2714   52.2120   63.6752 O   0  0  0  0  0  0  0  0  0  0  0  0
  -33.5603   53.6248   55.5314 C   0  0  0  0  0  0  0  0  0  0  0  0
  -41.6378   54.3998   64.1768 N   0  0  0  0  0  0  0  0  0  0  0  0
  -36.1056   56.6655   65.2470 O   0  0  0  0  0  0  0  0  0  0  0  0
  -34.1509   52.7690   56.6413 C   0  0  0  0  0  0  0  0  0  0  0  0
  -36.2688   58.3271   63.7327 O   0  0  0  0  0  0  0  0  0  0  0  0
  -35.4980   52.1537   56.3043 C   0  0  0  0  0  0  0  0  0  0  0  0
  -39.5842   59.1471   64.1415 O   0  0  0  0  0  0  0  0  0  0  0  0
  -36.5806   53.1688   55.9757 C   0  0  0  0  0  0  0  0  0  0  0  0
  -39.4934   54.3933   64.8342 O   0  0  0  0  0  0  0  0  0  0  0  0
  -37.9198   52.5329   55.6593 C   0  0  0  0  0  0  0  0  0  0  0  0
  -38.9870   53.5545   55.3165 C   0  0  0  0  0  0  0  0  0  0  0  0
  -39.2625   54.5631   56.4136 C   0  0  0  0  0  0  0  0  0  0  0  0
  -40.3451   55.5594   56.0476 C   0  0  0  0  0  0  0  0  0  0  0  0
  -40.6176   56.5862   57.1344 C   0  0  0  0  0  0  0  0  0  0  0  0
  -41.7129   57.5719   56.7734 C   0  0  0  0  0  0  0  0  0  0  0  0
  -41.9906   58.6187   57.8394 C   0  0  0  0  0  0  0  0  0  0  0  0
  -40.7924   59.4970   58.1556 C   0  0  0  0  0  0  0  0  0  0  0  0
  -40.2838   60.2970   56.9626 C   0  0  0  0  0  0  0  0  0  0  0  0
  -39.0943   61.1317   57.3216 C   0  0  0  0  0  0  0  0  0  0  0  0
  -38.4935   61.2251   58.5001 C   0  0  0  0  0  0  0  0  0  0  0  0
  -38.8996   60.4762   59.7103 C   0  0  0  0  0  0  0  0  0  0  0  0
  -38.2360   58.7337   61.2903 C   0  0  0  0  0  0  0  0  0  0  0  0
  -36.9560   58.4330   62.0390 C   0  0  0  0  0  0  0  0  0  0  0  0
  -35.8780   57.7610   61.2090 C   0  0  0  0  0  0  0  0  0  0  0  0
  -34.6110   57.4590   62.0020 C   0  0  0  0  0  0  0  0  0  0  0  0
  -34.8704   56.5130   63.1754 C   0  0  1  0  0  0  0  0  0  0  0  0
  -36.5221   55.1618   62.0217 C   0  0  0  0  0  0  0  0  0  0  0  0
  -37.0085   53.7669   61.5957 C   0  0  1  0  0  0  0  0  0  0  0  0
  -36.0249   52.7217   62.1132 C   0  0  0  0  0  0  0  0  0  0  0  0
  -37.2316   53.6358   60.0818 C   0  0  0  0  0  0  0  0  0  0  0  0
  -39.0939   53.1427   61.2194 C   0  0  0  0  0  0  0  0  0  0  0  0
  -40.5081   52.7773   61.3300 C   0  0  0  0  0  0  0  0  0  0  0  0
  -41.3771   53.0085   60.2630 C   0  0  0  0  0  0  0  0  0  0  0  0
  -42.7461   52.8978   60.4355 C   0  0  0  0  0  0  0  0  0  0  0  0
  -43.2692   52.5574   61.6639 C   0  0  0  0  0  0  0  0  0  0  0  0
  -42.4299   52.3274   62.7388 C   0  0  0  0  0  0  0  0  0  0  0  0
  -41.0513   52.4358   62.5857 C   0  0  0  0  0  0  0  0  0  0  0  0
  -35.8061   57.1511   64.1912 C   0  0  0  0  0  0  0  0  0  0  0  0
  -36.6237   59.3595   64.7114 C   0  0  2  0  0  0  0  0  0  0  0  0
  -35.3856   59.7000   65.5018 C   0  0  0  0  0  0  0  0  0  0  0  0
  -37.7091   58.7466   65.5749 C   0  0  0  0  0  0  0  0  0  0  0  0
  -38.9284   58.3307   64.7825 C   0  0  0  0  0  0  0  0  0  0  0  0
  -40.3973   56.4966   64.1315 C   0  0  1  0  0  0  0  0  0  0  0  0
  -40.2490   56.7289   62.6237 C   0  0  0  0  0  0  0  0  0  0  0  0
  -41.5629   56.6231   61.8570 C   0  0  0  0  0  0  0  0  0  0  0  0
  -42.2463   55.2715   61.9188 C   0  0  0  0  0  0  0  0  0  0  0  0
  -42.7077   54.8728   63.3050 C   0  0  0  0  0  0  0  0  0  0  0  0
  -40.4707   55.0038   64.4111 C   0  0  0  0  0  0  0  0  0  0  0  0
  -37.1118   59.5621   59.7031 H   0  0  0  0  0  0  0  0  0  0  0  0
  -30.1689   52.2471   52.9847 H   0  0  0  0  0  0  0  0  0  0  0  0
  -29.4433   53.4771   53.9916 H   0  0  0  0  0  0  0  0  0  0  0  0
  -31.0895   53.6621   53.4356 H   0  0  0  0  0  0  0  0  0  0  0  0
  -30.1025   51.5407   55.2988 H   0  0  0  0  0  0  0  0  0  0  0  0
  -31.7692   51.7688   54.7322 H   0  0  0  0  0  0  0  0  0  0  0  0
  -34.8884   54.4081   62.9233 H   0  0  0  0  0  0  0  0  0  0  0  0
  -30.2271   53.6894   56.4039 H   0  0  0  0  0  0  0  0  0  0  0  0
  -31.5059   52.5713   56.9497 H   0  0  0  0  0  0  0  0  0  0  0  0
  -31.8808   54.8235   55.0441 H   0  0  0  0  0  0  0  0  0  0  0  0
  -32.3255   54.7993   56.7640 H   0  0  0  0  0  0  0  0  0  0  0  0
  -38.6827   56.4249   65.3656 H   0  0  0  0  0  0  0  0  0  0  0  0
  -39.3393   52.2771   63.6054 H   0  0  0  0  0  0  0  0  0  0  0  0
  -33.4514   53.0159   54.6584 H   0  0  0  0  0  0  0  0  0  0  0  0
  -34.2321   54.4438   55.3802 H   0  0  0  0  0  0  0  0  0  0  0  0
  -41.7929   53.5455   64.6410 H   0  0  0  0  0  0  0  0  0  0  0  0
  -34.2702   53.3820   57.5102 H   0  0  0  0  0  0  0  0  0  0  0  0
  -33.4724   51.9564   56.7967 H   0  0  0  0  0  0  0  0  0  0  0  0
  -35.8230   51.5763   57.1444 H   0  0  0  0  0  0  0  0  0  0  0  0
  -35.3545   51.5610   55.4251 H   0  0  0  0  0  0  0  0  0  0  0  0
  -36.2658   53.7388   55.1266 H   0  0  0  0  0  0  0  0  0  0  0  0
  -36.7163   53.7807   56.8429 H   0  0  0  0  0  0  0  0  0  0  0  0
  -38.2430   51.9734   56.5122 H   0  0  0  0  0  0  0  0  0  0  0  0
  -37.7854   51.9063   54.8024 H   0  0  0  0  0  0  0  0  0  0  0  0
  -39.8964   53.0311   55.1068 H   0  0  0  0  0  0  0  0  0  0  0  0
  -38.6218   54.1082   54.4769 H   0  0  0  0  0  0  0  0  0  0  0  0
  -38.3598   55.1004   56.6167 H   0  0  0  0  0  0  0  0  0  0  0  0
  -39.6058   54.0187   57.2685 H   0  0  0  0  0  0  0  0  0  0  0  0
  -41.2498   55.0212   55.8559 H   0  0  0  0  0  0  0  0  0  0  0  0
  -40.0014   56.0954   55.1877 H   0  0  0  0  0  0  0  0  0  0  0  0
  -39.7164   57.1331   57.3175 H   0  0  0  0  0  0  0  0  0  0  0  0
  -40.9489   56.0497   57.9989 H   0  0  0  0  0  0  0  0  0  0  0  0
  -42.6146   57.0222   56.6010 H   0  0  0  0  0  0  0  0  0  0  0  0
  -41.3749   58.1005   55.9066 H   0  0  0  0  0  0  0  0  0  0  0  0
  -42.2886   58.1173   58.7364 H   0  0  0  0  0  0  0  0  0  0  0  0
  -42.7575   59.2597   57.4575 H   0  0  0  0  0  0  0  0  0  0  0  0
  -39.9982   58.8710   58.5052 H   0  0  0  0  0  0  0  0  0  0  0  0
  -41.1108   60.2048   58.8923 H   0  0  0  0  0  0  0  0  0  0  0  0
  -41.0665   60.9395   56.6169 H   0  0  0  0  0  0  0  0  0  0  0  0
  -39.9889   59.6070   56.1998 H   0  0  0  0  0  0  0  0  0  0  0  0
  -38.6938   61.7027   56.5610 H   0  0  0  0  0  0  0  0  0  0  0  0
  -37.6870   61.8642   58.5788 H   0  0  0  0  0  0  0  0  0  0  0  0
  -38.6582   57.8163   60.9368 H   0  0  0  0  0  0  0  0  0  0  0  0
  -38.9129   59.2259   61.9570 H   0  0  0  0  0  0  0  0  0  0  0  0
  -37.1937   57.7896   62.8603 H   0  0  0  0  0  0  0  0  0  0  0  0
  -36.5565   59.3772   62.3453 H   0  0  0  0  0  0  0  0  0  0  0  0
  -35.6238   58.4067   60.3945 H   0  0  0  0  0  0  0  0  0  0  0  0
  -36.2729   56.8255   60.8717 H   0  0  0  0  0  0  0  0  0  0  0  0
  -34.2161   58.3779   62.3821 H   0  0  0  0  0  0  0  0  0  0  0  0
  -33.9192   56.9787   61.3420 H   0  0  0  0  0  0  0  0  0  0  0  0
  -33.9347   56.3288   63.6606 H   0  0  0  0  0  0  0  0  0  0  0  0
  -35.8959   52.8448   63.1683 H   0  0  0  0  0  0  0  0  0  0  0  0
  -35.0824   52.8447   61.6219 H   0  0  0  0  0  0  0  0  0  0  0  0
  -36.4066   51.7424   61.9125 H   0  0  0  0  0  0  0  0  0  0  0  0
  -37.1793   54.5926   59.6056 H   0  0  0  0  0  0  0  0  0  0  0  0
  -36.4895   53.0281   59.6077 H   0  0  0  0  0  0  0  0  0  0  0  0
  -40.9963   53.2639   59.3384 H   0  0  0  0  0  0  0  0  0  0  0  0
  -43.3789   53.0714   59.6390 H   0  0  0  0  0  0  0  0  0  0  0  0
  -44.2910   52.4737   61.7823 H   0  0  0  0  0  0  0  0  0  0  0  0
  -42.8273   52.0747   63.6571 H   0  0  0  0  0  0  0  0  0  0  0  0
  -36.9812   60.2677   64.2728 H   0  0  0  0  0  0  0  0  0  0  0  0
  -34.9979   58.8127   65.9571 H   0  0  0  0  0  0  0  0  0  0  0  0
  -35.6321   60.4122   66.2615 H   0  0  0  0  0  0  0  0  0  0  0  0
  -34.6483   60.1168   64.8479 H   0  0  0  0  0  0  0  0  0  0  0  0
  -38.0080   59.4656   66.3088 H   0  0  0  0  0  0  0  0  0  0  0  0
  -37.3020   57.8645   66.0235 H   0  0  0  0  0  0  0  0  0  0  0  0
  -41.2890   56.9845   64.4659 H   0  0  0  0  0  0  0  0  0  0  0  0
  -39.5705   55.9989   62.2342 H   0  0  0  0  0  0  0  0  0  0  0  0
  -39.8901   57.7286   62.4943 H   0  0  0  0  0  0  0  0  0  0  0  0
  -41.3639   56.8455   60.8294 H   0  0  0  0  0  0  0  0  0  0  0  0
  -42.2331   57.3134   62.3252 H   0  0  0  0  0  0  0  0  0  0  0  0
  -41.5581   54.5310   61.5682 H   0  0  0  0  0  0  0  0  0  0  0  0
  -43.1239   55.3423   61.3108 H   0  0  0  0  0  0  0  0  0  0  0  0
  -43.1640   55.7244   63.7649 H   0  0  0  0  0  0  0  0  0  0  0  0
  -43.3875   54.0560   63.1804 H   0  0  0  0  0  0  0  0  0  0  0  0
  1 33  1  0  0  0  0
  1 34  1  0  0  0  0
  1 61  1  0  0  0  0
  2  4  1  0  0  0  0
  2 62  1  0  0  0  0
  2 63  1  0  0  0  0
  2 64  1  0  0  0  0
  3 33  2  0  0  0  0
  4  7  1  0  0  0  0
  4 65  1  0  0  0  0
  4 66  1  0  0  0  0
  5 38  1  0  0  0  0
  5 39  1  0  0  0  0
  5 67  1  0  0  0  0
  6 39  2  0  0  0  0
  7 10  1  0  0  0  0
  7 68  1  0  0  0  0
  7 69  1  0  0  0  0
  8 40  1  0  0  0  0
  8 43  2  0  0  0  0
  9 42  1  0  0  0  0
  9 43  1  0  0  0  0
 10 13  1  0  0  0  0
 10 70  1  0  0  0  0
 10 71  1  0  0  0  0
 11 54  1  0  0  0  0
 11 55  1  0  0  0  0
 11 72  1  0  0  0  0
 12 49  1  0  0  0  0
 12 73  1  0  0  0  0
 13 16  1  0  0  0  0
 13 74  1  0  0  0  0
 13 75  1  0  0  0  0
 14 59  1  0  0  0  0
 14 60  1  0  0  0  0
 14 76  1  0  0  0  0
 15 50  2  0  0  0  0
 16 18  1  0  0  0  0
 16 77  1  0  0  0  0
 16 78  1  0  0  0  0
 17 50  1  0  0  0  0
 17 51  1  0  0  0  0
 18 20  1  0  0  0  0
 18 79  1  0  0  0  0
 18 80  1  0  0  0  0
 19 54  2  0  0  0  0
 20 22  1  0  0  0  0
 20 81  1  0  0  0  0
 20 82  1  0  0  0  0
 21 60  2  0  0  0  0
 22 23  1  0  0  0  0
 22 83  1  0  0  0  0
 22 84  1  0  0  0  0
 23 24  1  0  0  0  0
 23 85  1  0  0  0  0
 23 86  1  0  0  0  0
 24 25  1  0  0  0  0
 24 87  1  0  0  0  0
 24 88  1  0  0  0  0
 25 26  1  0  0  0  0
 25 89  1  0  0  0  0
 25 90  1  0  0  0  0
 26 27  1  0  0  0  0
 26 91  1  0  0  0  0
 26 92  1  0  0  0  0
 27 28  1  0  0  0  0
 27 93  1  0  0  0  0
 27 94  1  0  0  0  0
 28 29  1  0  0  0  0
 28 95  1  0  0  0  0
 28 96  1  0  0  0  0
 29 30  1  0  0  0  0
 29 97  1  0  0  0  0
 29 98  1  0  0  0  0
 30 31  1  0  0  0  0
 30 99  1  0  0  0  0
 30100  1  0  0  0  0
 31 32  2  0  0  0  0
 31101  1  0  0  0  0
 32 33  1  0  0  0  0
 32102  1  0  0  0  0
 34 35  1  0  0  0  0
 34103  1  0  0  0  0
 34104  1  0  0  0  0
 35 36  1  0  0  0  0
 35105  1  0  0  0  0
 35106  1  0  0  0  0
 36 37  1  0  0  0  0
 36107  1  0  0  0  0
 36108  1  0  0  0  0
 37 38  1  0  0  0  0
 37109  1  0  0  0  0
 37110  1  0  0  0  0
 38 50  1  0  0  0  0
 38111  1  1  0  0  0
 40 39  1  1  0  0  0
 40 41  1  0  0  0  0
 40 42  1  0  0  0  0
 41112  1  0  0  0  0
 41113  1  0  0  0  0
 41114  1  0  0  0  0
 42115  1  0  0  0  0
 42116  1  0  0  0  0
 43 44  1  0  0  0  0
 44 45  2  0  0  0  0
 44 49  1  0  0  0  0
 45 46  1  0  0  0  0
 45117  1  0  0  0  0
 46 47  2  0  0  0  0
 46118  1  0  0  0  0
 47 48  1  0  0  0  0
 47119  1  0  0  0  0
 48 49  2  0  0  0  0
 48120  1  0  0  0  0
 51 52  1  0  0  0  0
 51 53  1  0  0  0  0
 51121  1  6  0  0  0
 52122  1  0  0  0  0
 52123  1  0  0  0  0
 52124  1  0  0  0  0
 53 54  1  0  0  0  0
 53125  1  0  0  0  0
 53126  1  0  0  0  0
 55 56  1  0  0  0  0
 55 60  1  0  0  0  0
 55127  1  1  0  0  0
 56 57  1  0  0  0  0
 56128  1  0  0  0  0
 56129  1  0  0  0  0
 57 58  1  0  0  0  0
 57130  1  0  0  0  0
 57131  1  0  0  0  0
 58 59  1  0  0  0  0
 58132  1  0  0  0  0
 58133  1  0  0  0  0
 59134  1  0  0  0  0
 59135  1  0  0  0  0
M  END
$$$$