/media/chris/experiments/cd1a-new-docking/inputs/ligands/7ryo_ligand.pdb
 OpenBabel07032304133D

135137  0  0  1  0  0  0  0  0999 V2000
  -38.8442   57.5132   60.7850 N   0  0  0  0  0  0  0  0  0  0  0  0
  -40.7548   51.5064   70.9655 C   0  0  0  0  0  0  0  0  0  0  0  0
  -39.7733   58.5162   58.9894 O   0  0  0  0  0  0  0  0  0  0  0  0
  -40.1812   52.8783   71.2050 C   0  0  0  0  0  0  0  0  0  0  0  0
  -35.3848   55.2330   62.7177 N   0  0  0  0  0  0  0  0  0  0  0  0
  -35.5611   54.3952   64.7963 O   0  0  0  0  0  0  0  0  0  0  0  0
  -39.2523   53.3407   70.0972 C   0  0  0  0  0  0  0  0  0  0  0  0
  -35.3076   51.8395   63.4168 N   0  0  0  0  0  0  0  0  0  0  0  0
  -37.3672   51.1474   64.0188 O   0  0  0  0  0  0  0  0  0  0  0  0
  -39.9069   53.4427   68.7289 C   0  0  0  0  0  0  0  0  0  0  0  0
  -39.2456   57.0338   64.8350 N   0  0  0  0  0  0  0  0  0  0  0  0
  -33.5575   49.7167   63.1087 O   0  0  0  0  0  0  0  0  0  0  0  0
  -41.0624   54.4330   68.6825 C   0  0  0  0  0  0  0  0  0  0  0  0
  -42.1664   54.9051   64.6562 N   0  0  0  0  0  0  0  0  0  0  0  0
  -36.1056   56.6655   65.2470 O   0  0  0  0  0  0  0  0  0  0  0  0
  -40.6641   55.8617   69.0192 C   0  0  0  0  0  0  0  0  0  0  0  0
  -36.2688   58.3271   63.7327 O   0  0  0  0  0  0  0  0  0  0  0  0
  -41.8148   56.8526   68.9915 C   0  0  0  0  0  0  0  0  0  0  0  0
  -39.5842   59.1471   64.1415 O   0  0  0  0  0  0  0  0  0  0  0  0
  -42.5195   56.9498   67.6483 C   0  0  0  0  0  0  0  0  0  0  0  0
  -40.2151   54.7412   65.7502 O   0  0  0  0  0  0  0  0  0  0  0  0
  -43.6528   57.9566   67.6396 C   0  0  0  0  0  0  0  0  0  0  0  0
  -44.3590   58.0322   66.2995 C   0  0  0  0  0  0  0  0  0  0  0  0
  -43.4615   58.4171   65.1406 C   0  0  0  0  0  0  0  0  0  0  0  0
  -44.1995   58.5007   63.8189 C   0  0  0  0  0  0  0  0  0  0  0  0
  -43.3053   58.8695   62.6467 C   0  0  0  0  0  0  0  0  0  0  0  0
  -44.0484   58.9693   61.3278 C   0  0  0  0  0  0  0  0  0  0  0  0
  -43.1704   59.3207   60.1384 C   0  0  0  0  0  0  0  0  0  0  0  0
  -42.0753   58.3031   59.8695 C   0  0  0  0  0  0  0  0  0  0  0  0
  -42.5970   56.9062   59.5556 C   0  0  0  0  0  0  0  0  0  0  0  0
  -41.4804   55.9387   59.3155 C   0  0  0  0  0  0  0  0  0  0  0  0
  -40.1765   56.1781   59.3506 C   0  0  0  0  0  0  0  0  0  0  0  0
  -39.5734   57.4928   59.6640 C   0  0  0  0  0  0  0  0  0  0  0  0
  -38.2360   58.7337   61.2903 C   0  0  0  0  0  0  0  0  0  0  0  0
  -36.9560   58.4330   62.0390 C   0  0  0  0  0  0  0  0  0  0  0  0
  -35.8780   57.7610   61.2090 C   0  0  0  0  0  0  0  0  0  0  0  0
  -34.6110   57.4590   62.0020 C   0  0  0  0  0  0  0  0  0  0  0  0
  -34.8704   56.5130   63.1754 C   0  0  1  0  0  0  0  0  0  0  0  0
  -35.6907   54.2677   63.5879 C   0  0  0  0  0  0  0  0  0  0  0  0
  -36.2067   52.9355   63.0194 C   0  0  1  0  0  0  0  0  0  0  0  0
  -36.2361   53.0270   61.4967 C   0  0  0  0  0  0  0  0  0  0  0  0
  -37.5703   52.5176   63.5893 C   0  0  0  0  0  0  0  0  0  0  0  0
  -36.0273   50.9366   63.9425 C   0  0  0  0  0  0  0  0  0  0  0  0
  -35.5541   49.6595   64.4817 C   0  0  0  0  0  0  0  0  0  0  0  0
  -36.2301   49.0528   65.5411 C   0  0  0  0  0  0  0  0  0  0  0  0
  -35.6639   47.9849   66.2158 C   0  0  0  0  0  0  0  0  0  0  0  0
  -34.4246   47.5064   65.8499 C   0  0  0  0  0  0  0  0  0  0  0  0
  -33.7319   48.0928   64.8064 C   0  0  0  0  0  0  0  0  0  0  0  0
  -34.2835   49.1685   64.1175 C   0  0  0  0  0  0  0  0  0  0  0  0
  -35.8061   57.1511   64.1912 C   0  0  0  0  0  0  0  0  0  0  0  0
  -36.6237   59.3595   64.7114 C   0  0  2  0  0  0  0  0  0  0  0  0
  -35.3856   59.7000   65.5018 C   0  0  0  0  0  0  0  0  0  0  0  0
  -37.7091   58.7466   65.5749 C   0  0  0  0  0  0  0  0  0  0  0  0
  -38.9284   58.3307   64.7825 C   0  0  0  0  0  0  0  0  0  0  0  0
  -40.3973   56.4966   64.1315 C   0  0  1  0  0  0  0  0  0  0  0  0
  -39.9916   56.0461   62.7237 C   0  0  0  0  0  0  0  0  0  0  0  0
  -41.1693   55.8979   61.7665 C   0  0  0  0  0  0  0  0  0  0  0  0
  -42.2034   54.8622   62.1611 C   0  0  0  0  0  0  0  0  0  0  0  0
  -42.9371   55.1775   63.4478 C   0  0  0  0  0  0  0  0  0  0  0  0
  -40.9191   55.3035   64.9165 C   0  0  0  0  0  0  0  0  0  0  0  0
  -38.7149   56.6746   61.2843 H   0  0  0  0  0  0  0  0  0  0  0  0
  -41.3975   51.2415   71.7789 H   0  0  0  0  0  0  0  0  0  0  0  0
  -39.9590   50.7947   70.8934 H   0  0  0  0  0  0  0  0  0  0  0  0
  -41.3153   51.5083   70.0541 H   0  0  0  0  0  0  0  0  0  0  0  0
  -39.6328   52.8618   72.1237 H   0  0  0  0  0  0  0  0  0  0  0  0
  -41.0017   53.5642   71.2385 H   0  0  0  0  0  0  0  0  0  0  0  0
  -35.5092   55.0758   61.7538 H   0  0  0  0  0  0  0  0  0  0  0  0
  -38.4413   52.6461   70.0290 H   0  0  0  0  0  0  0  0  0  0  0  0
  -38.9352   54.3289   70.3578 H   0  0  0  0  0  0  0  0  0  0  0  0
  -40.2776   52.4763   68.4576 H   0  0  0  0  0  0  0  0  0  0  0  0
  -39.1610   53.7961   68.0480 H   0  0  0  0  0  0  0  0  0  0  0  0
  -38.6827   56.4249   65.3656 H   0  0  0  0  0  0  0  0  0  0  0  0
  -33.9006   50.4422   62.6252 H   0  0  0  0  0  0  0  0  0  0  0  0
  -41.8057   54.1164   69.3840 H   0  0  0  0  0  0  0  0  0  0  0  0
  -41.4242   54.4408   67.6756 H   0  0  0  0  0  0  0  0  0  0  0  0
  -42.6129   54.3716   65.3528 H   0  0  0  0  0  0  0  0  0  0  0  0
  -39.9293   56.1810   68.3099 H   0  0  0  0  0  0  0  0  0  0  0  0
  -40.2939   55.8489   70.0230 H   0  0  0  0  0  0  0  0  0  0  0  0
  -41.4309   57.8199   69.2400 H   0  0  0  0  0  0  0  0  0  0  0  0
  -42.5403   56.5017   69.6953 H   0  0  0  0  0  0  0  0  0  0  0  0
  -42.9177   55.9875   67.4028 H   0  0  0  0  0  0  0  0  0  0  0  0
  -41.7957   57.2799   66.9328 H   0  0  0  0  0  0  0  0  0  0  0  0
  -43.2546   58.9222   67.8715 H   0  0  0  0  0  0  0  0  0  0  0  0
  -44.3718   57.6399   68.3661 H   0  0  0  0  0  0  0  0  0  0  0  0
  -45.1406   58.7592   66.3735 H   0  0  0  0  0  0  0  0  0  0  0  0
  -44.7235   57.0482   66.0901 H   0  0  0  0  0  0  0  0  0  0  0  0
  -42.6865   57.6846   65.0522 H   0  0  0  0  0  0  0  0  0  0  0  0
  -43.0704   59.3909   65.3498 H   0  0  0  0  0  0  0  0  0  0  0  0
  -44.9666   59.2416   63.9057 H   0  0  0  0  0  0  0  0  0  0  0  0
  -44.5957   57.5273   63.6179 H   0  0  0  0  0  0  0  0  0  0  0  0
  -42.5455   58.1221   62.5518 H   0  0  0  0  0  0  0  0  0  0  0  0
  -42.8983   59.8373   62.8531 H   0  0  0  0  0  0  0  0  0  0  0  0
  -44.8004   59.7245   61.4235 H   0  0  0  0  0  0  0  0  0  0  0  0
  -44.4548   57.9991   61.1317 H   0  0  0  0  0  0  0  0  0  0  0  0
  -42.7121   60.2695   60.3248 H   0  0  0  0  0  0  0  0  0  0  0  0
  -43.8027   59.3368   59.2754 H   0  0  0  0  0  0  0  0  0  0  0  0
  -41.4506   58.2430   60.7361 H   0  0  0  0  0  0  0  0  0  0  0  0
  -41.5438   58.6389   59.0037 H   0  0  0  0  0  0  0  0  0  0  0  0
  -43.2091   56.9536   58.6793 H   0  0  0  0  0  0  0  0  0  0  0  0
  -43.1597   56.5633   60.3986 H   0  0  0  0  0  0  0  0  0  0  0  0
  -41.7585   54.9693   59.0964 H   0  0  0  0  0  0  0  0  0  0  0  0
  -39.5383   55.3936   59.1453 H   0  0  0  0  0  0  0  0  0  0  0  0
  -38.9228   59.2185   61.9523 H   0  0  0  0  0  0  0  0  0  0  0  0
  -38.0041   59.3676   60.4601 H   0  0  0  0  0  0  0  0  0  0  0  0
  -37.1937   57.7896   62.8603 H   0  0  0  0  0  0  0  0  0  0  0  0
  -36.5565   59.3772   62.3453 H   0  0  0  0  0  0  0  0  0  0  0  0
  -35.6238   58.4067   60.3945 H   0  0  0  0  0  0  0  0  0  0  0  0
  -36.2729   56.8255   60.8717 H   0  0  0  0  0  0  0  0  0  0  0  0
  -34.2161   58.3779   62.3821 H   0  0  0  0  0  0  0  0  0  0  0  0
  -33.9192   56.9787   61.3420 H   0  0  0  0  0  0  0  0  0  0  0  0
  -33.9347   56.3288   63.6606 H   0  0  0  0  0  0  0  0  0  0  0  0
  -35.2713   53.3197   61.1383 H   0  0  0  0  0  0  0  0  0  0  0  0
  -36.9632   53.7525   61.1969 H   0  0  0  0  0  0  0  0  0  0  0  0
  -36.4943   52.0729   61.0870 H   0  0  0  0  0  0  0  0  0  0  0  0
  -37.8431   53.1389   64.4167 H   0  0  0  0  0  0  0  0  0  0  0  0
  -38.3612   52.6118   62.8748 H   0  0  0  0  0  0  0  0  0  0  0  0
  -37.1589   49.4028   65.8236 H   0  0  0  0  0  0  0  0  0  0  0  0
  -36.1731   47.5444   66.9978 H   0  0  0  0  0  0  0  0  0  0  0  0
  -34.0119   46.7075   66.3563 H   0  0  0  0  0  0  0  0  0  0  0  0
  -32.8032   47.7316   64.5379 H   0  0  0  0  0  0  0  0  0  0  0  0
  -36.9812   60.2677   64.2728 H   0  0  0  0  0  0  0  0  0  0  0  0
  -34.9979   58.8127   65.9571 H   0  0  0  0  0  0  0  0  0  0  0  0
  -35.6321   60.4122   66.2615 H   0  0  0  0  0  0  0  0  0  0  0  0
  -34.6483   60.1168   64.8479 H   0  0  0  0  0  0  0  0  0  0  0  0
  -38.0080   59.4656   66.3088 H   0  0  0  0  0  0  0  0  0  0  0  0
  -37.3020   57.8645   66.0235 H   0  0  0  0  0  0  0  0  0  0  0  0
  -41.1544   57.2478   64.0446 H   0  0  0  0  0  0  0  0  0  0  0  0
  -39.4973   55.1002   62.8007 H   0  0  0  0  0  0  0  0  0  0  0  0
  -39.3551   56.8068   62.3223 H   0  0  0  0  0  0  0  0  0  0  0  0
  -40.7819   55.6279   60.8063 H   0  0  0  0  0  0  0  0  0  0  0  0
  -41.6772   56.8396   61.7768 H   0  0  0  0  0  0  0  0  0  0  0  0
  -41.7079   53.9212   62.2792 H   0  0  0  0  0  0  0  0  0  0  0  0
  -42.9380   54.8488   61.3833 H   0  0  0  0  0  0  0  0  0  0  0  0
  -43.1955   56.2158   63.4412 H   0  0  0  0  0  0  0  0  0  0  0  0
  -43.7944   54.5380   63.4784 H   0  0  0  0  0  0  0  0  0  0  0  0
  1 33  1  0  0  0  0
  1 34  1  0  0  0  0
  1 61  1  0  0  0  0
  2  4  1  0  0  0  0
  2 62  1  0  0  0  0
  2 63  1  0  0  0  0
  2 64  1  0  0  0  0
  3 33  2  0  0  0  0
  4  7  1  0  0  0  0
  4 65  1  0  0  0  0
  4 66  1  0  0  0  0
  5 38  1  0  0  0  0
  5 39  1  0  0  0  0
  5 67  1  0  0  0  0
  6 39  2  0  0  0  0
  7 10  1  0  0  0  0
  7 68  1  0  0  0  0
  7 69  1  0  0  0  0
  8 40  1  0  0  0  0
  8 43  2  0  0  0  0
  9 42  1  0  0  0  0
  9 43  1  0  0  0  0
 10 13  1  0  0  0  0
 10 70  1  0  0  0  0
 10 71  1  0  0  0  0
 11 54  1  0  0  0  0
 11 55  1  0  0  0  0
 11 72  1  0  0  0  0
 12 49  1  0  0  0  0
 12 73  1  0  0  0  0
 13 16  1  0  0  0  0
 13 74  1  0  0  0  0
 13 75  1  0  0  0  0
 14 59  1  0  0  0  0
 14 60  1  0  0  0  0
 14 76  1  0  0  0  0
 15 50  2  0  0  0  0
 16 18  1  0  0  0  0
 16 77  1  0  0  0  0
 16 78  1  0  0  0  0
 17 50  1  0  0  0  0
 17 51  1  0  0  0  0
 18 20  1  0  0  0  0
 18 79  1  0  0  0  0
 18 80  1  0  0  0  0
 19 54  2  0  0  0  0
 20 22  1  0  0  0  0
 20 81  1  0  0  0  0
 20 82  1  0  0  0  0
 21 60  2  0  0  0  0
 22 23  1  0  0  0  0
 22 83  1  0  0  0  0
 22 84  1  0  0  0  0
 23 24  1  0  0  0  0
 23 85  1  0  0  0  0
 23 86  1  0  0  0  0
 24 25  1  0  0  0  0
 24 87  1  0  0  0  0
 24 88  1  0  0  0  0
 25 26  1  0  0  0  0
 25 89  1  0  0  0  0
 25 90  1  0  0  0  0
 26 27  1  0  0  0  0
 26 91  1  0  0  0  0
 26 92  1  0  0  0  0
 27 28  1  0  0  0  0
 27 93  1  0  0  0  0
 27 94  1  0  0  0  0
 28 29  1  0  0  0  0
 28 95  1  0  0  0  0
 28 96  1  0  0  0  0
 29 30  1  0  0  0  0
 29 97  1  0  0  0  0
 29 98  1  0  0  0  0
 30 31  1  0  0  0  0
 30 99  1  0  0  0  0
 30100  1  0  0  0  0
 31 32  2  0  0  0  0
 31101  1  0  0  0  0
 32 33  1  0  0  0  0
 32102  1  0  0  0  0
 34 35  1  0  0  0  0
 34103  1  0  0  0  0
 34104  1  0  0  0  0
 35 36  1  0  0  0  0
 35105  1  0  0  0  0
 35106  1  0  0  0  0
 36 37  1  0  0  0  0
 36107  1  0  0  0  0
 36108  1  0  0  0  0
 37 38  1  0  0  0  0
 37109  1  0  0  0  0
 37110  1  0  0  0  0
 38 50  1  0  0  0  0
 38111  1  1  0  0  0
 40 39  1  1  0  0  0
 40 41  1  0  0  0  0
 40 42  1  0  0  0  0
 41112  1  0  0  0  0
 41113  1  0  0  0  0
 41114  1  0  0  0  0
 42115  1  0  0  0  0
 42116  1  0  0  0  0
 43 44  1  0  0  0  0
 44 45  2  0  0  0  0
 44 49  1  0  0  0  0
 45 46  1  0  0  0  0
 45117  1  0  0  0  0
 46 47  2  0  0  0  0
 46118  1  0  0  0  0
 47 48  1  0  0  0  0
 47119  1  0  0  0  0
 48 49  2  0  0  0  0
 48120  1  0  0  0  0
 51 52  1  0  0  0  0
 51 53  1  0  0  0  0
 51121  1  6  0  0  0
 52122  1  0  0  0  0
 52123  1  0  0  0  0
 52124  1  0  0  0  0
 53 54  1  0  0  0  0
 53125  1  0  0  0  0
 53126  1  0  0  0  0
 55 56  1  0  0  0  0
 55 60  1  0  0  0  0
 55127  1  6  0  0  0
 56 57  1  0  0  0  0
 56128  1  0  0  0  0
 56129  1  0  0  0  0
 57 58  1  0  0  0  0
 57130  1  0  0  0  0
 57131  1  0  0  0  0
 58 59  1  0  0  0  0
 58132  1  0  0  0  0
 58133  1  0  0  0  0
 59134  1  0  0  0  0
 59135  1  0  0  0  0
M  END
$$$$