/media/chris/experiments/cd1a-new-docking/inputs/ligands/7ryo_ligand.pdb
 OpenBabel07032304133D

135137  0  0  1  0  0  0  0  0999 V2000
  -39.2043   59.3899   62.1545 N   0  0  0  0  0  0  0  0  0  0  0  0
  -40.1421   65.2073   59.9055 C   0  0  0  0  0  0  0  0  0  0  0  0
  -40.4946   59.3767   64.0061 O   0  0  0  0  0  0  0  0  0  0  0  0
  -39.2415   65.1168   61.1093 C   0  0  0  0  0  0  0  0  0  0  0  0
  -35.3848   55.2330   62.7177 N   0  0  0  0  0  0  0  0  0  0  0  0
  -35.3373   55.8241   60.5492 O   0  0  0  0  0  0  0  0  0  0  0  0
  -38.1272   66.1475   61.1023 C   0  0  0  0  0  0  0  0  0  0  0  0
  -37.4732   53.4392   61.6277 N   0  0  0  0  0  0  0  0  0  0  0  0
  -37.7727   53.0020   59.4363 O   0  0  0  0  0  0  0  0  0  0  0  0
  -37.1908   66.0698   62.2974 C   0  0  0  0  0  0  0  0  0  0  0  0
  -33.6498   60.7880   66.4178 N   0  0  0  0  0  0  0  0  0  0  0  0
  -40.1266   53.3088   58.5068 O   0  0  0  0  0  0  0  0  0  0  0  0
  -36.4635   64.7371   62.4115 C   0  0  0  0  0  0  0  0  0  0  0  0
  -32.0886   64.0301   66.7985 N   0  0  0  0  0  0  0  0  0  0  0  0
  -36.1056   56.6655   65.2470 O   0  0  0  0  0  0  0  0  0  0  0  0
  -37.3899   63.5382   62.5431 C   0  0  0  0  0  0  0  0  0  0  0  0
  -36.2688   58.3271   63.7327 O   0  0  0  0  0  0  0  0  0  0  0  0
  -38.3086   63.5900   63.7514 C   0  0  0  0  0  0  0  0  0  0  0  0
  -35.5619   60.5285   67.5745 O   0  0  0  0  0  0  0  0  0  0  0  0
  -39.2218   62.3830   63.8906 C   0  0  0  0  0  0  0  0  0  0  0  0
  -31.8498   62.3810   65.2972 O   0  0  0  0  0  0  0  0  0  0  0  0
  -40.1410   62.4645   65.0933 C   0  0  0  0  0  0  0  0  0  0  0  0
  -39.3839   62.5785   66.4025 C   0  0  0  0  0  0  0  0  0  0  0  0
  -40.2675   62.6456   67.6320 C   0  0  0  0  0  0  0  0  0  0  0  0
  -41.1381   61.4166   67.8067 C   0  0  0  0  0  0  0  0  0  0  0  0
  -40.3460   60.1295   67.9668 C   0  0  0  0  0  0  0  0  0  0  0  0
  -41.2188   58.8986   68.1245 C   0  0  0  0  0  0  0  0  0  0  0  0
  -40.4473   57.6017   68.3030 C   0  0  0  0  0  0  0  0  0  0  0  0
  -39.5176   57.2830   67.1449 C   0  0  0  0  0  0  0  0  0  0  0  0
  -40.2284   57.1512   65.8035 C   0  0  0  0  0  0  0  0  0  0  0  0
  -39.2726   56.8208   64.7000 C   0  0  0  0  0  0  0  0  0  0  0  0
  -39.0228   57.5242   63.6039 C   0  0  0  0  0  0  0  0  0  0  0  0
  -39.6580   58.8202   63.2762 C   0  0  0  0  0  0  0  0  0  0  0  0
  -38.2360   58.7337   61.2903 C   0  0  0  0  0  0  0  0  0  0  0  0
  -36.9560   58.4330   62.0390 C   0  0  0  0  0  0  0  0  0  0  0  0
  -35.8780   57.7610   61.2090 C   0  0  0  0  0  0  0  0  0  0  0  0
  -34.6110   57.4590   62.0020 C   0  0  0  0  0  0  0  0  0  0  0  0
  -34.8704   56.5130   63.1754 C   0  0  1  0  0  0  0  0  0  0  0  0
  -35.5764   54.9979   61.4173 C   0  0  0  0  0  0  0  0  0  0  0  0
  -36.1457   53.6262   61.0193 C   0  0  1  0  0  0  0  0  0  0  0  0
  -35.2076   52.5359   61.5283 C   0  0  0  0  0  0  0  0  0  0  0  0
  -36.4093   53.4903   59.5124 C   0  0  0  0  0  0  0  0  0  0  0  0
  -38.2692   53.1101   60.6963 C   0  0  0  0  0  0  0  0  0  0  0  0
  -39.6979   52.8220   60.8422 C   0  0  0  0  0  0  0  0  0  0  0  0
  -40.1878   52.2948   62.0378 C   0  0  0  0  0  0  0  0  0  0  0  0
  -41.4761   51.7935   62.1085 C   0  0  0  0  0  0  0  0  0  0  0  0
  -42.2926   51.8088   60.9987 C   0  0  0  0  0  0  0  0  0  0  0  0
  -41.8298   52.3216   59.8006 C   0  0  0  0  0  0  0  0  0  0  0  0
  -40.5372   52.8280   59.7091 C   0  0  0  0  0  0  0  0  0  0  0  0
  -35.8061   57.1511   64.1912 C   0  0  0  0  0  0  0  0  0  0  0  0
  -35.9836   59.5345   64.5141 C   0  0  2  0  0  0  0  0  0  0  0  0
  -35.1952   60.4798   63.6432 C   0  0  0  0  0  0  0  0  0  0  0  0
  -35.1916   59.0630   65.7182 C   0  0  0  0  0  0  0  0  0  0  0  0
  -34.8198   60.1889   66.6572 C   0  0  0  0  0  0  0  0  0  0  0  0
  -33.1716   61.8909   67.2330 C   0  0  1  0  0  0  0  0  0  0  0  0
  -32.3337   61.3582   68.4007 C   0  0  0  0  0  0  0  0  0  0  0  0
  -32.1709   62.3569   69.5415 C   0  0  0  0  0  0  0  0  0  0  0  0
  -31.4582   63.6456   69.1826 C   0  0  0  0  0  0  0  0  0  0  0  0
  -32.1958   64.5022   68.1749 C   0  0  0  0  0  0  0  0  0  0  0  0
  -32.3116   62.7897   66.3586 C   0  0  0  0  0  0  0  0  0  0  0  0
  -39.5365   60.2827   61.9057 H   0  0  0  0  0  0  0  0  0  0  0  0
  -40.9024   64.4573   59.9717 H   0  0  0  0  0  0  0  0  0  0  0  0
  -39.5662   65.0540   59.0169 H   0  0  0  0  0  0  0  0  0  0  0  0
  -40.5976   66.1750   59.8729 H   0  0  0  0  0  0  0  0  0  0  0  0
  -38.8022   64.1414   61.1326 H   0  0  0  0  0  0  0  0  0  0  0  0
  -39.8447   65.3071   61.9723 H   0  0  0  0  0  0  0  0  0  0  0  0
  -35.5946   54.5304   63.3747 H   0  0  0  0  0  0  0  0  0  0  0  0
  -38.5718   67.1206   61.0885 H   0  0  0  0  0  0  0  0  0  0  0  0
  -37.5324   65.9476   60.2356 H   0  0  0  0  0  0  0  0  0  0  0  0
  -37.7646   66.2201   63.1880 H   0  0  0  0  0  0  0  0  0  0  0  0
  -36.4453   66.8256   62.1636 H   0  0  0  0  0  0  0  0  0  0  0  0
  -33.0959   60.4727   65.6674 H   0  0  0  0  0  0  0  0  0  0  0  0
  -39.2618   53.6568   58.4119 H   0  0  0  0  0  0  0  0  0  0  0  0
  -35.8318   64.7710   63.2744 H   0  0  0  0  0  0  0  0  0  0  0  0
  -35.9126   64.6055   61.5037 H   0  0  0  0  0  0  0  0  0  0  0  0
  -31.8240   64.6962   66.1236 H   0  0  0  0  0  0  0  0  0  0  0  0
  -36.7887   62.6562   62.6164 H   0  0  0  0  0  0  0  0  0  0  0  0
  -38.0198   63.5403   61.6781 H   0  0  0  0  0  0  0  0  0  0  0  0
  -38.9188   64.4654   63.6720 H   0  0  0  0  0  0  0  0  0  0  0  0
  -37.6792   63.6013   64.6166 H   0  0  0  0  0  0  0  0  0  0  0  0
  -38.6151   61.5067   63.9851 H   0  0  0  0  0  0  0  0  0  0  0  0
  -39.8414   62.3510   63.0188 H   0  0  0  0  0  0  0  0  0  0  0  0
  -40.7449   61.5817   65.1230 H   0  0  0  0  0  0  0  0  0  0  0  0
  -40.7356   63.3476   64.9861 H   0  0  0  0  0  0  0  0  0  0  0  0
  -38.7890   63.4672   66.3689 H   0  0  0  0  0  0  0  0  0  0  0  0
  -38.7980   61.6880   66.4954 H   0  0  0  0  0  0  0  0  0  0  0  0
  -40.9019   63.5032   67.5490 H   0  0  0  0  0  0  0  0  0  0  0  0
  -39.6238   62.7043   68.4846 H   0  0  0  0  0  0  0  0  0  0  0  0
  -41.7671   61.3223   66.9463 H   0  0  0  0  0  0  0  0  0  0  0  0
  -41.6994   61.5544   68.7071 H   0  0  0  0  0  0  0  0  0  0  0  0
  -39.7261   60.2188   68.8343 H   0  0  0  0  0  0  0  0  0  0  0  0
  -39.7743   59.9979   67.0719 H   0  0  0  0  0  0  0  0  0  0  0  0
  -41.8297   58.8072   67.2508 H   0  0  0  0  0  0  0  0  0  0  0  0
  -41.7890   59.0407   69.0187 H   0  0  0  0  0  0  0  0  0  0  0  0
  -41.1500   56.8010   68.4029 H   0  0  0  0  0  0  0  0  0  0  0  0
  -39.8359   57.7175   69.1735 H   0  0  0  0  0  0  0  0  0  0  0  0
  -39.0209   56.3590   67.3556 H   0  0  0  0  0  0  0  0  0  0  0  0
  -38.8366   58.1036   67.0572 H   0  0  0  0  0  0  0  0  0  0  0  0
  -40.7138   58.0772   65.5759 H   0  0  0  0  0  0  0  0  0  0  0  0
  -40.9384   56.3543   65.8793 H   0  0  0  0  0  0  0  0  0  0  0  0
  -38.7448   55.9402   64.8047 H   0  0  0  0  0  0  0  0  0  0  0  0
  -38.3383   57.1415   62.9331 H   0  0  0  0  0  0  0  0  0  0  0  0
  -38.0148   59.3748   60.4627 H   0  0  0  0  0  0  0  0  0  0  0  0
  -38.6554   57.8106   60.9484 H   0  0  0  0  0  0  0  0  0  0  0  0
  -37.1937   57.7896   62.8603 H   0  0  0  0  0  0  0  0  0  0  0  0
  -36.5565   59.3772   62.3453 H   0  0  0  0  0  0  0  0  0  0  0  0
  -35.6238   58.4067   60.3945 H   0  0  0  0  0  0  0  0  0  0  0  0
  -36.2729   56.8255   60.8717 H   0  0  0  0  0  0  0  0  0  0  0  0
  -34.2161   58.3779   62.3821 H   0  0  0  0  0  0  0  0  0  0  0  0
  -33.9192   56.9787   61.3420 H   0  0  0  0  0  0  0  0  0  0  0  0
  -33.9347   56.3288   63.6606 H   0  0  0  0  0  0  0  0  0  0  0  0
  -35.0487   52.6639   62.5787 H   0  0  0  0  0  0  0  0  0  0  0  0
  -34.2711   52.6029   61.0151 H   0  0  0  0  0  0  0  0  0  0  0  0
  -35.6452   51.5762   61.3481 H   0  0  0  0  0  0  0  0  0  0  0  0
  -36.3169   54.4375   59.0233 H   0  0  0  0  0  0  0  0  0  0  0  0
  -35.7113   52.8385   59.0298 H   0  0  0  0  0  0  0  0  0  0  0  0
  -39.5851   52.2785   62.8754 H   0  0  0  0  0  0  0  0  0  0  0  0
  -41.8274   51.4060   62.9981 H   0  0  0  0  0  0  0  0  0  0  0  0
  -43.2530   51.4362   61.0618 H   0  0  0  0  0  0  0  0  0  0  0  0
  -42.4450   52.3286   58.9720 H   0  0  0  0  0  0  0  0  0  0  0  0
  -36.8589   60.0567   64.8397 H   0  0  0  0  0  0  0  0  0  0  0  0
  -34.3087   59.9906   63.2972 H   0  0  0  0  0  0  0  0  0  0  0  0
  -34.9262   61.3466   64.2100 H   0  0  0  0  0  0  0  0  0  0  0  0
  -35.7913   60.7731   62.8044 H   0  0  0  0  0  0  0  0  0  0  0  0
  -34.2930   58.5953   65.3736 H   0  0  0  0  0  0  0  0  0  0  0  0
  -35.8116   58.3823   66.2633 H   0  0  0  0  0  0  0  0  0  0  0  0
  -34.0014   62.4375   67.6298 H   0  0  0  0  0  0  0  0  0  0  0  0
  -31.3617   61.1050   68.0317 H   0  0  0  0  0  0  0  0  0  0  0  0
  -32.8521   60.5106   68.7976 H   0  0  0  0  0  0  0  0  0  0  0  0
  -31.6156   61.8791   70.3214 H   0  0  0  0  0  0  0  0  0  0  0  0
  -33.1621   62.6391   69.8292 H   0  0  0  0  0  0  0  0  0  0  0  0
  -30.5005   63.3974   68.7750 H   0  0  0  0  0  0  0  0  0  0  0  0
  -31.3890   64.2201   70.0827 H   0  0  0  0  0  0  0  0  0  0  0  0
  -33.2313   64.5207   68.4439 H   0  0  0  0  0  0  0  0  0  0  0  0
  -31.7433   65.4713   68.2043 H   0  0  0  0  0  0  0  0  0  0  0  0
  1 33  1  0  0  0  0
  1 34  1  0  0  0  0
  1 61  1  0  0  0  0
  2  4  1  0  0  0  0
  2 62  1  0  0  0  0
  2 63  1  0  0  0  0
  2 64  1  0  0  0  0
  3 33  2  0  0  0  0
  4  7  1  0  0  0  0
  4 65  1  0  0  0  0
  4 66  1  0  0  0  0
  5 38  1  0  0  0  0
  5 39  1  0  0  0  0
  5 67  1  0  0  0  0
  6 39  2  0  0  0  0
  7 10  1  0  0  0  0
  7 68  1  0  0  0  0
  7 69  1  0  0  0  0
  8 40  1  0  0  0  0
  8 43  2  0  0  0  0
  9 42  1  0  0  0  0
  9 43  1  0  0  0  0
 10 13  1  0  0  0  0
 10 70  1  0  0  0  0
 10 71  1  0  0  0  0
 11 54  1  0  0  0  0
 11 55  1  0  0  0  0
 11 72  1  0  0  0  0
 12 49  1  0  0  0  0
 12 73  1  0  0  0  0
 13 16  1  0  0  0  0
 13 74  1  0  0  0  0
 13 75  1  0  0  0  0
 14 59  1  0  0  0  0
 14 60  1  0  0  0  0
 14 76  1  0  0  0  0
 15 50  2  0  0  0  0
 16 18  1  0  0  0  0
 16 77  1  0  0  0  0
 16 78  1  0  0  0  0
 17 50  1  0  0  0  0
 17 51  1  0  0  0  0
 18 20  1  0  0  0  0
 18 79  1  0  0  0  0
 18 80  1  0  0  0  0
 19 54  2  0  0  0  0
 20 22  1  0  0  0  0
 20 81  1  0  0  0  0
 20 82  1  0  0  0  0
 21 60  2  0  0  0  0
 22 23  1  0  0  0  0
 22 83  1  0  0  0  0
 22 84  1  0  0  0  0
 23 24  1  0  0  0  0
 23 85  1  0  0  0  0
 23 86  1  0  0  0  0
 24 25  1  0  0  0  0
 24 87  1  0  0  0  0
 24 88  1  0  0  0  0
 25 26  1  0  0  0  0
 25 89  1  0  0  0  0
 25 90  1  0  0  0  0
 26 27  1  0  0  0  0
 26 91  1  0  0  0  0
 26 92  1  0  0  0  0
 27 28  1  0  0  0  0
 27 93  1  0  0  0  0
 27 94  1  0  0  0  0
 28 29  1  0  0  0  0
 28 95  1  0  0  0  0
 28 96  1  0  0  0  0
 29 30  1  0  0  0  0
 29 97  1  0  0  0  0
 29 98  1  0  0  0  0
 30 31  1  0  0  0  0
 30 99  1  0  0  0  0
 30100  1  0  0  0  0
 31 32  2  0  0  0  0
 31101  1  0  0  0  0
 32 33  1  0  0  0  0
 32102  1  0  0  0  0
 34 35  1  0  0  0  0
 34103  1  0  0  0  0
 34104  1  0  0  0  0
 35 36  1  0  0  0  0
 35105  1  0  0  0  0
 35106  1  0  0  0  0
 36 37  1  0  0  0  0
 36107  1  0  0  0  0
 36108  1  0  0  0  0
 37 38  1  0  0  0  0
 37109  1  0  0  0  0
 37110  1  0  0  0  0
 38 50  1  0  0  0  0
 38111  1  1  0  0  0
 40 39  1  1  0  0  0
 40 41  1  0  0  0  0
 40 42  1  0  0  0  0
 41112  1  0  0  0  0
 41113  1  0  0  0  0
 41114  1  0  0  0  0
 42115  1  0  0  0  0
 42116  1  0  0  0  0
 43 44  1  0  0  0  0
 44 45  2  0  0  0  0
 44 49  1  0  0  0  0
 45 46  1  0  0  0  0
 45117  1  0  0  0  0
 46 47  2  0  0  0  0
 46118  1  0  0  0  0
 47 48  1  0  0  0  0
 47119  1  0  0  0  0
 48 49  2  0  0  0  0
 48120  1  0  0  0  0
 51 52  1  0  0  0  0
 51 53  1  0  0  0  0
 51121  1  1  0  0  0
 52122  1  0  0  0  0
 52123  1  0  0  0  0
 52124  1  0  0  0  0
 53 54  1  0  0  0  0
 53125  1  0  0  0  0
 53126  1  0  0  0  0
 55 56  1  0  0  0  0
 55 60  1  0  0  0  0
 55127  1  1  0  0  0
 56 57  1  0  0  0  0
 56128  1  0  0  0  0
 56129  1  0  0  0  0
 57 58  1  0  0  0  0
 57130  1  0  0  0  0
 57131  1  0  0  0  0
 58 59  1  0  0  0  0
 58132  1  0  0  0  0
 58133  1  0  0  0  0
 59134  1  0  0  0  0
 59135  1  0  0  0  0
M  END
$$$$