/media/chris/experiments/cd1a-new-docking/inputs/ligands/7ryo_ligand.pdb
 OpenBabel07032304133D

135137  0  0  1  0  0  0  0  0999 V2000
  -39.2043   59.3899   62.1545 N   0  0  0  0  0  0  0  0  0  0  0  0
  -35.9792   67.1338   62.5168 C   0  0  0  0  0  0  0  0  0  0  0  0
  -37.8840   61.1734   62.5667 O   0  0  0  0  0  0  0  0  0  0  0  0
  -35.5294   67.7819   63.7999 C   0  0  0  0  0  0  0  0  0  0  0  0
  -33.1324   57.6580   60.0424 N   0  0  0  0  0  0  0  0  0  0  0  0
  -35.2034   57.7505   59.1729 O   0  0  0  0  0  0  0  0  0  0  0  0
  -34.5118   66.9544   64.5640 C   0  0  0  0  0  0  0  0  0  0  0  0
  -34.5838   59.8665   57.5491 N   0  0  0  0  0  0  0  0  0  0  0  0
  -32.8084   61.2004   57.9387 O   0  0  0  0  0  0  0  0  0  0  0  0
  -33.2208   66.6886   63.8066 C   0  0  0  0  0  0  0  0  0  0  0  0
  -31.6738   51.4976   63.5702 N   0  0  0  0  0  0  0  0  0  0  0  0
  -33.2946   63.6414   58.4906 O   0  0  0  0  0  0  0  0  0  0  0  0
  -32.2238   65.8429   64.5870 C   0  0  0  0  0  0  0  0  0  0  0  0
  -30.9998   51.2873   67.1191 N   0  0  0  0  0  0  0  0  0  0  0  0
  -34.9053   55.2614   59.8825 O   0  0  0  0  0  0  0  0  0  0  0  0
  -31.7982   66.4568   65.9118 C   0  0  0  0  0  0  0  0  0  0  0  0
  -33.2496   54.4578   61.1839 O   0  0  0  0  0  0  0  0  0  0  0  0
  -32.9378   66.6775   66.8913 C   0  0  0  0  0  0  0  0  0  0  0  0
  -31.1792   53.5169   62.7102 O   0  0  0  0  0  0  0  0  0  0  0  0
  -33.6644   65.4055   67.2967 C   0  0  0  0  0  0  0  0  0  0  0  0
  -32.8560   51.7133   65.9343 O   0  0  0  0  0  0  0  0  0  0  0  0
  -34.8079   65.6520   68.2610 C   0  0  0  0  0  0  0  0  0  0  0  0
  -35.5139   64.3740   68.6713 C   0  0  0  0  0  0  0  0  0  0  0  0
  -36.1124   63.5926   67.5189 C   0  0  0  0  0  0  0  0  0  0  0  0
  -36.8253   62.3302   67.9627 C   0  0  0  0  0  0  0  0  0  0  0  0
  -37.4147   61.5299   66.8131 C   0  0  0  0  0  0  0  0  0  0  0  0
  -38.4278   62.3064   65.9932 C   0  0  0  0  0  0  0  0  0  0  0  0
  -37.8723   63.5557   65.3299 C   0  0  0  0  0  0  0  0  0  0  0  0
  -38.9050   64.3285   64.5278 C   0  0  0  0  0  0  0  0  0  0  0  0
  -39.5414   63.5205   63.4034 C   0  0  0  0  0  0  0  0  0  0  0  0
  -40.2614   62.3164   63.9251 C   0  0  0  0  0  0  0  0  0  0  0  0
  -40.0265   61.0427   63.6401 C   0  0  0  0  0  0  0  0  0  0  0  0
  -38.9564   60.5697   62.7336 C   0  0  0  0  0  0  0  0  0  0  0  0
  -38.2360   58.7337   61.2903 C   0  0  0  0  0  0  0  0  0  0  0  0
  -36.9560   58.4330   62.0390 C   0  0  0  0  0  0  0  0  0  0  0  0
  -35.8780   57.7610   61.2090 C   0  0  0  0  0  0  0  0  0  0  0  0
  -34.6110   57.4590   62.0020 C   0  0  0  0  0  0  0  0  0  0  0  0
  -33.5311   56.7980   61.1441 C   0  0  1  0  0  0  0  0  0  0  0  0
  -34.0234   58.0662   59.1357 C   0  0  0  0  0  0  0  0  0  0  0  0
  -33.5145   58.9550   57.9889 C   0  0  1  0  0  0  0  0  0  0  0  0
  -33.1071   58.0653   56.8183 C   0  0  0  0  0  0  0  0  0  0  0  0
  -32.3769   59.8978   58.4081 C   0  0  0  0  0  0  0  0  0  0  0  0
  -34.1033   61.0405   57.5603 C   0  0  0  0  0  0  0  0  0  0  0  0
  -34.8133   62.2681   57.1933 C   0  0  0  0  0  0  0  0  0  0  0  0
  -35.8392   62.2282   56.2482 C   0  0  0  0  0  0  0  0  0  0  0  0
  -36.3489   63.3997   55.7152 C   0  0  0  0  0  0  0  0  0  0  0  0
  -35.8500   64.6215   56.1113 C   0  0  0  0  0  0  0  0  0  0  0  0
  -34.8302   64.6884   57.0431 C   0  0  0  0  0  0  0  0  0  0  0  0
  -34.3033   63.5219   57.5886 C   0  0  0  0  0  0  0  0  0  0  0  0
  -33.9929   55.4382   60.6419 C   0  0  0  0  0  0  0  0  0  0  0  0
  -33.8810   53.1533   61.4055 C   0  0  2  0  0  0  0  0  0  0  0  0
  -34.6843   53.2328   62.6791 C   0  0  0  0  0  0  0  0  0  0  0  0
  -32.7397   52.1597   61.5044 C   0  0  0  0  0  0  0  0  0  0  0  0
  -31.7964   52.4572   62.6486 C   0  0  0  0  0  0  0  0  0  0  0  0
  -30.7948   51.6432   64.7173 C   0  0  1  0  0  0  0  0  0  0  0  0
  -30.0897   53.0035   64.6712 C   0  0  0  0  0  0  0  0  0  0  0  0
  -28.8419   53.0749   65.5448 C   0  0  0  0  0  0  0  0  0  0  0  0
  -29.0731   52.8711   67.0289 C   0  0  0  0  0  0  0  0  0  0  0  0
  -29.5816   51.4921   67.3937 C   0  0  0  0  0  0  0  0  0  0  0  0
  -31.6400   51.5512   65.9779 C   0  0  0  0  0  0  0  0  0  0  0  0
  -40.0704   58.9515   62.3184 H   0  0  0  0  0  0  0  0  0  0  0  0
  -36.6924   67.7651   62.0293 H   0  0  0  0  0  0  0  0  0  0  0  0
  -36.4298   66.1879   62.7339 H   0  0  0  0  0  0  0  0  0  0  0  0
  -35.1350   66.9880   61.8758 H   0  0  0  0  0  0  0  0  0  0  0  0
  -36.3855   67.9294   64.4245 H   0  0  0  0  0  0  0  0  0  0  0  0
  -35.0567   68.7060   63.5402 H   0  0  0  0  0  0  0  0  0  0  0  0
  -32.1934   57.9432   59.9638 H   0  0  0  0  0  0  0  0  0  0  0  0
  -34.9589   66.0124   64.8037 H   0  0  0  0  0  0  0  0  0  0  0  0
  -34.2454   67.5229   65.4304 H   0  0  0  0  0  0  0  0  0  0  0  0
  -32.7624   67.6280   63.5777 H   0  0  0  0  0  0  0  0  0  0  0  0
  -33.4793   66.1388   62.9258 H   0  0  0  0  0  0  0  0  0  0  0  0
  -32.1941   50.6680   63.4687 H   0  0  0  0  0  0  0  0  0  0  0  0
  -32.9180   62.8751   58.8764 H   0  0  0  0  0  0  0  0  0  0  0  0
  -31.3512   65.7076   63.9827 H   0  0  0  0  0  0  0  0  0  0  0  0
  -32.7127   64.9191   64.8159 H   0  0  0  0  0  0  0  0  0  0  0  0
  -31.5414   50.9155   67.8524 H   0  0  0  0  0  0  0  0  0  0  0  0
  -31.3403   67.4029   65.7113 H   0  0  0  0  0  0  0  0  0  0  0  0
  -31.1283   65.7608   66.3717 H   0  0  0  0  0  0  0  0  0  0  0  0
  -33.6464   67.3391   66.4385 H   0  0  0  0  0  0  0  0  0  0  0  0
  -32.5044   67.0819   67.7820 H   0  0  0  0  0  0  0  0  0  0  0  0
  -32.9621   64.7468   67.7634 H   0  0  0  0  0  0  0  0  0  0  0  0
  -34.0837   64.9820   66.4081 H   0  0  0  0  0  0  0  0  0  0  0  0
  -35.5182   66.2997   67.7911 H   0  0  0  0  0  0  0  0  0  0  0  0
  -34.3957   66.0914   69.1452 H   0  0  0  0  0  0  0  0  0  0  0  0
  -36.3026   64.6296   69.3478 H   0  0  0  0  0  0  0  0  0  0  0  0
  -34.7719   63.7438   69.1153 H   0  0  0  0  0  0  0  0  0  0  0  0
  -35.3254   63.3208   66.8468 H   0  0  0  0  0  0  0  0  0  0  0  0
  -36.8400   64.2219   67.0505 H   0  0  0  0  0  0  0  0  0  0  0  0
  -37.6188   62.6049   68.6258 H   0  0  0  0  0  0  0  0  0  0  0  0
  -36.0961   61.7078   68.4378 H   0  0  0  0  0  0  0  0  0  0  0  0
  -37.8969   60.6636   67.2155 H   0  0  0  0  0  0  0  0  0  0  0  0
  -36.6069   61.2769   66.1585 H   0  0  0  0  0  0  0  0  0  0  0  0
  -39.2286   62.5986   66.6399 H   0  0  0  0  0  0  0  0  0  0  0  0
  -38.7451   61.6568   65.2043 H   0  0  0  0  0  0  0  0  0  0  0  0
  -37.0804   63.2655   64.6714 H   0  0  0  0  0  0  0  0  0  0  0  0
  -37.5343   64.2026   66.1123 H   0  0  0  0  0  0  0  0  0  0  0  0
  -38.4275   65.1848   64.0993 H   0  0  0  0  0  0  0  0  0  0  0  0
  -39.6906   64.5931   65.2044 H   0  0  0  0  0  0  0  0  0  0  0  0
  -38.7744   63.2008   62.7293 H   0  0  0  0  0  0  0  0  0  0  0  0
  -40.2536   64.1452   62.9059 H   0  0  0  0  0  0  0  0  0  0  0  0
  -41.0328   62.4992   64.5858 H   0  0  0  0  0  0  0  0  0  0  0  0
  -40.6317   60.3323   64.0807 H   0  0  0  0  0  0  0  0  0  0  0  0
  -38.0148   59.3748   60.4627 H   0  0  0  0  0  0  0  0  0  0  0  0
  -38.6554   57.8106   60.9484 H   0  0  0  0  0  0  0  0  0  0  0  0
  -37.1937   57.7896   62.8603 H   0  0  0  0  0  0  0  0  0  0  0  0
  -36.5565   59.3772   62.3453 H   0  0  0  0  0  0  0  0  0  0  0  0
  -35.6238   58.4067   60.3945 H   0  0  0  0  0  0  0  0  0  0  0  0
  -36.2729   56.8255   60.8717 H   0  0  0  0  0  0  0  0  0  0  0  0
  -34.8590   56.8018   62.8091 H   0  0  0  0  0  0  0  0  0  0  0  0
  -34.2203   58.3886   62.3599 H   0  0  0  0  0  0  0  0  0  0  0  0
  -32.6704   56.6456   61.7612 H   0  0  0  0  0  0  0  0  0  0  0  0
  -33.9232   57.4248   56.5562 H   0  0  0  0  0  0  0  0  0  0  0  0
  -32.2630   57.4707   57.0991 H   0  0  0  0  0  0  0  0  0  0  0  0
  -32.8494   58.6764   55.9787 H   0  0  0  0  0  0  0  0  0  0  0  0
  -32.2554   59.8979   59.4712 H   0  0  0  0  0  0  0  0  0  0  0  0
  -31.4307   59.6069   58.0019 H   0  0  0  0  0  0  0  0  0  0  0  0
  -36.2207   61.3187   55.9443 H   0  0  0  0  0  0  0  0  0  0  0  0
  -37.1075   63.3577   55.0168 H   0  0  0  0  0  0  0  0  0  0  0  0
  -36.2387   65.4897   55.7112 H   0  0  0  0  0  0  0  0  0  0  0  0
  -34.4590   65.6061   57.3346 H   0  0  0  0  0  0  0  0  0  0  0  0
  -34.5504   52.8576   60.6249 H   0  0  0  0  0  0  0  0  0  0  0  0
  -34.0458   53.5270   63.4857 H   0  0  0  0  0  0  0  0  0  0  0  0
  -35.1102   52.2747   62.8926 H   0  0  0  0  0  0  0  0  0  0  0  0
  -35.4669   53.9531   62.5628 H   0  0  0  0  0  0  0  0  0  0  0  0
  -32.1852   52.1849   60.5896 H   0  0  0  0  0  0  0  0  0  0  0  0
  -33.1683   51.1960   61.6844 H   0  0  0  0  0  0  0  0  0  0  0  0
  -30.0519   50.8733   64.7074 H   0  0  0  0  0  0  0  0  0  0  0  0
  -30.7780   53.7526   65.0030 H   0  0  0  0  0  0  0  0  0  0  0  0
  -29.7743   53.1591   63.6607 H   0  0  0  0  0  0  0  0  0  0  0  0
  -28.3992   54.0395   65.4093 H   0  0  0  0  0  0  0  0  0  0  0  0
  -28.2162   52.2657   65.2306 H   0  0  0  0  0  0  0  0  0  0  0  0
  -29.7917   53.5919   67.3588 H   0  0  0  0  0  0  0  0  0  0  0  0
  -28.1226   52.9850   67.5069 H   0  0  0  0  0  0  0  0  0  0  0  0
  -29.0236   50.7698   66.8352 H   0  0  0  0  0  0  0  0  0  0  0  0
  -29.4539   51.3862   68.4508 H   0  0  0  0  0  0  0  0  0  0  0  0
  1 33  1  0  0  0  0
  1 34  1  0  0  0  0
  1 61  1  0  0  0  0
  2  4  1  0  0  0  0
  2 62  1  0  0  0  0
  2 63  1  0  0  0  0
  2 64  1  0  0  0  0
  3 33  2  0  0  0  0
  4  7  1  0  0  0  0
  4 65  1  0  0  0  0
  4 66  1  0  0  0  0
  5 38  1  0  0  0  0
  5 39  1  0  0  0  0
  5 67  1  0  0  0  0
  6 39  2  0  0  0  0
  7 10  1  0  0  0  0
  7 68  1  0  0  0  0
  7 69  1  0  0  0  0
  8 40  1  0  0  0  0
  8 43  2  0  0  0  0
  9 42  1  0  0  0  0
  9 43  1  0  0  0  0
 10 13  1  0  0  0  0
 10 70  1  0  0  0  0
 10 71  1  0  0  0  0
 11 54  1  0  0  0  0
 11 55  1  0  0  0  0
 11 72  1  0  0  0  0
 12 49  1  0  0  0  0
 12 73  1  0  0  0  0
 13 16  1  0  0  0  0
 13 74  1  0  0  0  0
 13 75  1  0  0  0  0
 14 59  1  0  0  0  0
 14 60  1  0  0  0  0
 14 76  1  0  0  0  0
 15 50  2  0  0  0  0
 16 18  1  0  0  0  0
 16 77  1  0  0  0  0
 16 78  1  0  0  0  0
 17 50  1  0  0  0  0
 17 51  1  0  0  0  0
 18 20  1  0  0  0  0
 18 79  1  0  0  0  0
 18 80  1  0  0  0  0
 19 54  2  0  0  0  0
 20 22  1  0  0  0  0
 20 81  1  0  0  0  0
 20 82  1  0  0  0  0
 21 60  2  0  0  0  0
 22 23  1  0  0  0  0
 22 83  1  0  0  0  0
 22 84  1  0  0  0  0
 23 24  1  0  0  0  0
 23 85  1  0  0  0  0
 23 86  1  0  0  0  0
 24 25  1  0  0  0  0
 24 87  1  0  0  0  0
 24 88  1  0  0  0  0
 25 26  1  0  0  0  0
 25 89  1  0  0  0  0
 25 90  1  0  0  0  0
 26 27  1  0  0  0  0
 26 91  1  0  0  0  0
 26 92  1  0  0  0  0
 27 28  1  0  0  0  0
 27 93  1  0  0  0  0
 27 94  1  0  0  0  0
 28 29  1  0  0  0  0
 28 95  1  0  0  0  0
 28 96  1  0  0  0  0
 29 30  1  0  0  0  0
 29 97  1  0  0  0  0
 29 98  1  0  0  0  0
 30 31  1  0  0  0  0
 30 99  1  0  0  0  0
 30100  1  0  0  0  0
 31 32  2  0  0  0  0
 31101  1  0  0  0  0
 32 33  1  0  0  0  0
 32102  1  0  0  0  0
 34 35  1  0  0  0  0
 34103  1  0  0  0  0
 34104  1  0  0  0  0
 35 36  1  0  0  0  0
 35105  1  0  0  0  0
 35106  1  0  0  0  0
 36 37  1  0  0  0  0
 36107  1  0  0  0  0
 36108  1  0  0  0  0
 37 38  1  0  0  0  0
 37109  1  0  0  0  0
 37110  1  0  0  0  0
 38 50  1  0  0  0  0
 38111  1  1  0  0  0
 40 39  1  1  0  0  0
 40 41  1  0  0  0  0
 40 42  1  0  0  0  0
 41112  1  0  0  0  0
 41113  1  0  0  0  0
 41114  1  0  0  0  0
 42115  1  0  0  0  0
 42116  1  0  0  0  0
 43 44  1  0  0  0  0
 44 45  2  0  0  0  0
 44 49  1  0  0  0  0
 45 46  1  0  0  0  0
 45117  1  0  0  0  0
 46 47  2  0  0  0  0
 46118  1  0  0  0  0
 47 48  1  0  0  0  0
 47119  1  0  0  0  0
 48 49  2  0  0  0  0
 48120  1  0  0  0  0
 51 52  1  0  0  0  0
 51 53  1  0  0  0  0
 51121  1  6  0  0  0
 52122  1  0  0  0  0
 52123  1  0  0  0  0
 52124  1  0  0  0  0
 53 54  1  0  0  0  0
 53125  1  0  0  0  0
 53126  1  0  0  0  0
 55 56  1  0  0  0  0
 55 60  1  0  0  0  0
 55127  1  6  0  0  0
 56 57  1  0  0  0  0
 56128  1  0  0  0  0
 56129  1  0  0  0  0
 57 58  1  0  0  0  0
 57130  1  0  0  0  0
 57131  1  0  0  0  0
 58 59  1  0  0  0  0
 58132  1  0  0  0  0
 58133  1  0  0  0  0
 59134  1  0  0  0  0
 59135  1  0  0  0  0
M  END
$$$$