/media/chris/experiments/cd1a-new-docking/inputs/ligands/7ryo_ligand.pdb
 OpenBabel07032304133D

135137  0  0  1  0  0  0  0  0999 V2000
  -39.2043   59.3899   62.1545 N   0  0  0  0  0  0  0  0  0  0  0  0
  -35.1477   52.5326   72.9318 C   0  0  0  0  0  0  0  0  0  0  0  0
  -40.1500   57.4612   62.8468 O   0  0  0  0  0  0  0  0  0  0  0  0
  -34.4558   53.4306   73.9234 C   0  0  0  0  0  0  0  0  0  0  0  0
  -32.3413   56.5057   61.9259 N   0  0  0  0  0  0  0  0  0  0  0  0
  -33.2064   57.3412   63.8252 O   0  0  0  0  0  0  0  0  0  0  0  0
  -33.5279   54.4397   73.2718 C   0  0  0  0  0  0  0  0  0  0  0  0
  -31.1065   56.8752   65.3883 N   0  0  0  0  0  0  0  0  0  0  0  0
  -30.3998   54.7347   65.4326 O   0  0  0  0  0  0  0  0  0  0  0  0
  -32.4128   53.8246   72.4416 C   0  0  0  0  0  0  0  0  0  0  0  0
  -35.3141   62.3163   61.8323 N   0  0  0  0  0  0  0  0  0  0  0  0
  -30.9446   53.3797   67.5223 O   0  0  0  0  0  0  0  0  0  0  0  0
  -32.9179   52.9799   71.2799 C   0  0  0  0  0  0  0  0  0  0  0  0
  -36.7468   64.1635   64.5943 N   0  0  0  0  0  0  0  0  0  0  0  0
  -32.4502   57.3368   59.0507 O   0  0  0  0  0  0  0  0  0  0  0  0
  -33.7565   53.7531   70.2740 C   0  0  0  0  0  0  0  0  0  0  0  0
  -33.8402   58.8359   60.0001 O   0  0  0  0  0  0  0  0  0  0  0  0
  -34.9999   54.3965   70.8627 C   0  0  0  0  0  0  0  0  0  0  0  0
  -35.2000   60.0696   61.8702 O   0  0  0  0  0  0  0  0  0  0  0  0
  -35.8456   55.1546   69.8526 C   0  0  0  0  0  0  0  0  0  0  0  0
  -34.7984   64.3178   63.4940 O   0  0  0  0  0  0  0  0  0  0  0  0
  -37.0715   55.8022   70.4657 C   0  0  0  0  0  0  0  0  0  0  0  0
  -37.9160   56.5409   69.4453 C   0  0  0  0  0  0  0  0  0  0  0  0
  -39.1436   57.2174   70.0216 C   0  0  0  0  0  0  0  0  0  0  0  0
  -39.9754   57.9324   68.9750 C   0  0  0  0  0  0  0  0  0  0  0  0
  -41.2001   58.6288   69.5448 C   0  0  0  0  0  0  0  0  0  0  0  0
  -42.0405   59.3295   68.4938 C   0  0  0  0  0  0  0  0  0  0  0  0
  -42.6013   58.4084   67.4231 C   0  0  0  0  0  0  0  0  0  0  0  0
  -41.5330   57.6614   66.6435 C   0  0  0  0  0  0  0  0  0  0  0  0
  -40.5486   58.5724   65.9204 C   0  0  0  0  0  0  0  0  0  0  0  0
  -41.2401   59.4701   64.9424 C   0  0  0  0  0  0  0  0  0  0  0  0
  -41.0506   59.5426   63.6318 C   0  0  0  0  0  0  0  0  0  0  0  0
  -40.0967   58.7017   62.8746 C   0  0  0  0  0  0  0  0  0  0  0  0
  -38.2360   58.7337   61.2903 C   0  0  0  0  0  0  0  0  0  0  0  0
  -36.9560   58.4330   62.0390 C   0  0  0  0  0  0  0  0  0  0  0  0
  -35.8780   57.7610   61.2090 C   0  0  0  0  0  0  0  0  0  0  0  0
  -34.6110   57.4590   62.0020 C   0  0  0  0  0  0  0  0  0  0  0  0
  -33.5311   56.7980   61.1441 C   0  0  1  0  0  0  0  0  0  0  0  0
  -32.2841   56.8100   63.2248 C   0  0  0  0  0  0  0  0  0  0  0  0
  -30.9801   56.4887   63.9733 C   0  0  1  0  0  0  0  0  0  0  0  0
  -29.8400   57.2816   63.3415 C   0  0  0  0  0  0  0  0  0  0  0  0
  -30.6642   54.9867   64.0291 C   0  0  0  0  0  0  0  0  0  0  0  0
  -30.7759   55.8665   66.0831 C   0  0  0  0  0  0  0  0  0  0  0  0
  -30.7508   55.7957   67.5460 C   0  0  0  0  0  0  0  0  0  0  0  0
  -30.4967   56.9430   68.2986 C   0  0  0  0  0  0  0  0  0  0  0  0
  -30.2295   56.8490   69.6536 C   0  0  0  0  0  0  0  0  0  0  0  0
  -30.2111   55.6206   70.2776 C   0  0  0  0  0  0  0  0  0  0  0  0
  -30.4553   54.4679   69.5535 C   0  0  0  0  0  0  0  0  0  0  0  0
  -30.7237   54.5418   68.1903 C   0  0  0  0  0  0  0  0  0  0  0  0
  -33.1974   57.6570   59.9336 C   0  0  0  0  0  0  0  0  0  0  0  0
  -33.0359   60.0613   60.0318 C   0  0  2  0  0  0  0  0  0  0  0  0
  -32.1363   59.9992   61.2404 C   0  0  0  0  0  0  0  0  0  0  0  0
  -34.0328   61.2011   60.1127 C   0  0  0  0  0  0  0  0  0  0  0  0
  -34.8979   61.1410   61.3520 C   0  0  0  0  0  0  0  0  0  0  0  0
  -36.1594   62.4078   63.0099 C   0  0  1  0  0  0  0  0  0  0  0  0
  -35.8808   61.2305   63.9511 C   0  0  0  0  0  0  0  0  0  0  0  0
  -36.9942   60.9801   64.9626 C   0  0  0  0  0  0  0  0  0  0  0  0
  -37.2669   62.1179   65.9262 C   0  0  0  0  0  0  0  0  0  0  0  0
  -37.7789   63.3808   65.2657 C   0  0  0  0  0  0  0  0  0  0  0  0
  -35.8424   63.7136   63.7216 C   0  0  0  0  0  0  0  0  0  0  0  0
  -39.2028   60.3728   62.2112 H   0  0  0  0  0  0  0  0  0  0  0  0
  -35.7837   51.8483   73.4534 H   0  0  0  0  0  0  0  0  0  0  0  0
  -34.4158   51.9856   72.3749 H   0  0  0  0  0  0  0  0  0  0  0  0
  -35.7349   53.1259   72.2625 H   0  0  0  0  0  0  0  0  0  0  0  0
  -33.8816   52.8220   74.5903 H   0  0  0  0  0  0  0  0  0  0  0  0
  -35.2157   53.9827   74.4360 H   0  0  0  0  0  0  0  0  0  0  0  0
  -31.5678   56.0779   61.4924 H   0  0  0  0  0  0  0  0  0  0  0  0
  -33.0825   55.0318   74.0437 H   0  0  0  0  0  0  0  0  0  0  0  0
  -34.1279   55.0148   72.5979 H   0  0  0  0  0  0  0  0  0  0  0  0
  -31.8187   53.2036   73.0790 H   0  0  0  0  0  0  0  0  0  0  0  0
  -31.8491   54.6319   72.0229 H   0  0  0  0  0  0  0  0  0  0  0  0
  -35.0400   63.1438   61.3749 H   0  0  0  0  0  0  0  0  0  0  0  0
  -31.1280   53.3951   66.6035 H   0  0  0  0  0  0  0  0  0  0  0  0
  -33.5149   52.1851   71.6759 H   0  0  0  0  0  0  0  0  0  0  0  0
  -32.0550   52.6243   70.7565 H   0  0  0  0  0  0  0  0  0  0  0  0
  -36.7139   65.1241   64.8073 H   0  0  0  0  0  0  0  0  0  0  0  0
  -34.0617   53.0778   69.5022 H   0  0  0  0  0  0  0  0  0  0  0  0
  -33.1419   54.5495   69.9094 H   0  0  0  0  0  0  0  0  0  0  0  0
  -34.6943   55.0813   71.6260 H   0  0  0  0  0  0  0  0  0  0  0  0
  -35.6091   53.6016   71.2395 H   0  0  0  0  0  0  0  0  0  0  0  0
  -36.1656   54.4700   69.0951 H   0  0  0  0  0  0  0  0  0  0  0  0
  -35.2372   55.9395   69.4542 H   0  0  0  0  0  0  0  0  0  0  0  0
  -36.7532   56.4974   71.2142 H   0  0  0  0  0  0  0  0  0  0  0  0
  -37.6752   55.0223   70.8807 H   0  0  0  0  0  0  0  0  0  0  0  0
  -38.2374   55.8384   68.7050 H   0  0  0  0  0  0  0  0  0  0  0  0
  -37.2995   57.3175   69.0430 H   0  0  0  0  0  0  0  0  0  0  0  0
  -38.8271   57.9326   70.7519 H   0  0  0  0  0  0  0  0  0  0  0  0
  -39.7578   56.4528   70.4495 H   0  0  0  0  0  0  0  0  0  0  0  0
  -40.3004   57.2138   68.2519 H   0  0  0  0  0  0  0  0  0  0  0  0
  -39.3549   58.6902   68.5441 H   0  0  0  0  0  0  0  0  0  0  0  0
  -40.8748   59.3563   70.2588 H   0  0  0  0  0  0  0  0  0  0  0  0
  -41.8149   57.8731   69.9875 H   0  0  0  0  0  0  0  0  0  0  0  0
  -41.4311   60.0673   68.0151 H   0  0  0  0  0  0  0  0  0  0  0  0
  -42.8806   59.7508   69.0052 H   0  0  0  0  0  0  0  0  0  0  0  0
  -43.1723   58.9970   66.7358 H   0  0  0  0  0  0  0  0  0  0  0  0
  -43.1974   57.6733   67.9223 H   0  0  0  0  0  0  0  0  0  0  0  0
  -42.0166   57.0428   65.9165 H   0  0  0  0  0  0  0  0  0  0  0  0
  -40.9685   57.0941   67.3537 H   0  0  0  0  0  0  0  0  0  0  0  0
  -39.8389   57.9683   65.3948 H   0  0  0  0  0  0  0  0  0  0  0  0
  -40.0638   59.1859   66.6509 H   0  0  0  0  0  0  0  0  0  0  0  0
  -41.9491   60.1091   65.3349 H   0  0  0  0  0  0  0  0  0  0  0  0
  -41.6066   60.2330   63.1035 H   0  0  0  0  0  0  0  0  0  0  0  0
  -38.0148   59.3748   60.4627 H   0  0  0  0  0  0  0  0  0  0  0  0
  -38.6554   57.8106   60.9484 H   0  0  0  0  0  0  0  0  0  0  0  0
  -37.1937   57.7896   62.8603 H   0  0  0  0  0  0  0  0  0  0  0  0
  -36.5565   59.3772   62.3453 H   0  0  0  0  0  0  0  0  0  0  0  0
  -35.6238   58.4067   60.3945 H   0  0  0  0  0  0  0  0  0  0  0  0
  -36.2729   56.8255   60.8717 H   0  0  0  0  0  0  0  0  0  0  0  0
  -34.8590   56.8018   62.8091 H   0  0  0  0  0  0  0  0  0  0  0  0
  -34.2203   58.3886   62.3599 H   0  0  0  0  0  0  0  0  0  0  0  0
  -33.9197   55.8664   60.7890 H   0  0  0  0  0  0  0  0  0  0  0  0
  -30.0966   58.3202   63.3205 H   0  0  0  0  0  0  0  0  0  0  0  0
  -29.6749   56.9348   62.3428 H   0  0  0  0  0  0  0  0  0  0  0  0
  -28.9489   57.1460   63.9180 H   0  0  0  0  0  0  0  0  0  0  0  0
  -31.4991   54.4098   63.6899 H   0  0  0  0  0  0  0  0  0  0  0  0
  -29.8419   54.7156   63.4005 H   0  0  0  0  0  0  0  0  0  0  0  0
  -30.5080   57.8683   67.8418 H   0  0  0  0  0  0  0  0  0  0  0  0
  -30.0428   57.7044   70.1999 H   0  0  0  0  0  0  0  0  0  0  0  0
  -30.0145   55.5606   71.2889 H   0  0  0  0  0  0  0  0  0  0  0  0
  -30.4383   53.5504   70.0256 H   0  0  0  0  0  0  0  0  0  0  0  0
  -32.4088   60.1904   59.1745 H   0  0  0  0  0  0  0  0  0  0  0  0
  -32.7303   59.8700   62.1209 H   0  0  0  0  0  0  0  0  0  0  0  0
  -31.5783   60.9090   61.3168 H   0  0  0  0  0  0  0  0  0  0  0  0
  -31.4619   59.1745   61.1409 H   0  0  0  0  0  0  0  0  0  0  0  0
  -34.6669   61.1615   59.2518 H   0  0  0  0  0  0  0  0  0  0  0  0
  -33.4746   62.1129   60.1553 H   0  0  0  0  0  0  0  0  0  0  0  0
  -37.1896   62.3786   62.7224 H   0  0  0  0  0  0  0  0  0  0  0  0
  -34.9766   61.4322   64.4865 H   0  0  0  0  0  0  0  0  0  0  0  0
  -35.8069   60.3534   63.3427 H   0  0  0  0  0  0  0  0  0  0  0  0
  -36.7297   60.1173   65.5374 H   0  0  0  0  0  0  0  0  0  0  0  0
  -37.8899   60.8583   64.3900 H   0  0  0  0  0  0  0  0  0  0  0  0
  -36.3558   62.3516   66.4363 H   0  0  0  0  0  0  0  0  0  0  0  0
  -38.0379   61.7825   66.5881 H   0  0  0  0  0  0  0  0  0  0  0  0
  -38.5163   63.1054   64.5408 H   0  0  0  0  0  0  0  0  0  0  0  0
  -38.1751   63.9974   66.0452 H   0  0  0  0  0  0  0  0  0  0  0  0
  1 33  1  0  0  0  0
  1 34  1  0  0  0  0
  1 61  1  0  0  0  0
  2  4  1  0  0  0  0
  2 62  1  0  0  0  0
  2 63  1  0  0  0  0
  2 64  1  0  0  0  0
  3 33  2  0  0  0  0
  4  7  1  0  0  0  0
  4 65  1  0  0  0  0
  4 66  1  0  0  0  0
  5 38  1  0  0  0  0
  5 39  1  0  0  0  0
  5 67  1  0  0  0  0
  6 39  2  0  0  0  0
  7 10  1  0  0  0  0
  7 68  1  0  0  0  0
  7 69  1  0  0  0  0
  8 40  1  0  0  0  0
  8 43  2  0  0  0  0
  9 42  1  0  0  0  0
  9 43  1  0  0  0  0
 10 13  1  0  0  0  0
 10 70  1  0  0  0  0
 10 71  1  0  0  0  0
 11 54  1  0  0  0  0
 11 55  1  0  0  0  0
 11 72  1  0  0  0  0
 12 49  1  0  0  0  0
 12 73  1  0  0  0  0
 13 16  1  0  0  0  0
 13 74  1  0  0  0  0
 13 75  1  0  0  0  0
 14 59  1  0  0  0  0
 14 60  1  0  0  0  0
 14 76  1  0  0  0  0
 15 50  2  0  0  0  0
 16 18  1  0  0  0  0
 16 77  1  0  0  0  0
 16 78  1  0  0  0  0
 17 50  1  0  0  0  0
 17 51  1  0  0  0  0
 18 20  1  0  0  0  0
 18 79  1  0  0  0  0
 18 80  1  0  0  0  0
 19 54  2  0  0  0  0
 20 22  1  0  0  0  0
 20 81  1  0  0  0  0
 20 82  1  0  0  0  0
 21 60  2  0  0  0  0
 22 23  1  0  0  0  0
 22 83  1  0  0  0  0
 22 84  1  0  0  0  0
 23 24  1  0  0  0  0
 23 85  1  0  0  0  0
 23 86  1  0  0  0  0
 24 25  1  0  0  0  0
 24 87  1  0  0  0  0
 24 88  1  0  0  0  0
 25 26  1  0  0  0  0
 25 89  1  0  0  0  0
 25 90  1  0  0  0  0
 26 27  1  0  0  0  0
 26 91  1  0  0  0  0
 26 92  1  0  0  0  0
 27 28  1  0  0  0  0
 27 93  1  0  0  0  0
 27 94  1  0  0  0  0
 28 29  1  0  0  0  0
 28 95  1  0  0  0  0
 28 96  1  0  0  0  0
 29 30  1  0  0  0  0
 29 97  1  0  0  0  0
 29 98  1  0  0  0  0
 30 31  1  0  0  0  0
 30 99  1  0  0  0  0
 30100  1  0  0  0  0
 31 32  2  0  0  0  0
 31101  1  0  0  0  0
 32 33  1  0  0  0  0
 32102  1  0  0  0  0
 34 35  1  0  0  0  0
 34103  1  0  0  0  0
 34104  1  0  0  0  0
 35 36  1  0  0  0  0
 35105  1  0  0  0  0
 35106  1  0  0  0  0
 36 37  1  0  0  0  0
 36107  1  0  0  0  0
 36108  1  0  0  0  0
 37 38  1  0  0  0  0
 37109  1  0  0  0  0
 37110  1  0  0  0  0
 38 50  1  0  0  0  0
 38111  1  6  0  0  0
 40 39  1  6  0  0  0
 40 41  1  0  0  0  0
 40 42  1  0  0  0  0
 41112  1  0  0  0  0
 41113  1  0  0  0  0
 41114  1  0  0  0  0
 42115  1  0  0  0  0
 42116  1  0  0  0  0
 43 44  1  0  0  0  0
 44 45  2  0  0  0  0
 44 49  1  0  0  0  0
 45 46  1  0  0  0  0
 45117  1  0  0  0  0
 46 47  2  0  0  0  0
 46118  1  0  0  0  0
 47 48  1  0  0  0  0
 47119  1  0  0  0  0
 48 49  2  0  0  0  0
 48120  1  0  0  0  0
 51 52  1  0  0  0  0
 51 53  1  0  0  0  0
 51121  1  6  0  0  0
 52122  1  0  0  0  0
 52123  1  0  0  0  0
 52124  1  0  0  0  0
 53 54  1  0  0  0  0
 53125  1  0  0  0  0
 53126  1  0  0  0  0
 55 56  1  0  0  0  0
 55 60  1  0  0  0  0
 55127  1  6  0  0  0
 56 57  1  0  0  0  0
 56128  1  0  0  0  0
 56129  1  0  0  0  0
 57 58  1  0  0  0  0
 57130  1  0  0  0  0
 57131  1  0  0  0  0
 58 59  1  0  0  0  0
 58132  1  0  0  0  0
 58133  1  0  0  0  0
 59134  1  0  0  0  0
 59135  1  0  0  0  0
M  END
$$$$