/media/chris/experiments/cd1a-new-docking/inputs/ligands/7ryo_ligand.pdb
 OpenBabel07032304133D

135137  0  0  1  0  0  0  0  0999 V2000
  -38.8442   57.5132   60.7850 N   0  0  0  0  0  0  0  0  0  0  0  0
  -40.7548   51.5064   70.9655 C   0  0  0  0  0  0  0  0  0  0  0  0
  -39.7733   58.5162   58.9894 O   0  0  0  0  0  0  0  0  0  0  0  0
  -40.1812   52.8783   71.2050 C   0  0  0  0  0  0  0  0  0  0  0  0
  -35.3848   55.2330   62.7177 N   0  0  0  0  0  0  0  0  0  0  0  0
  -35.5611   54.3952   64.7963 O   0  0  0  0  0  0  0  0  0  0  0  0
  -39.2523   53.3407   70.0972 C   0  0  0  0  0  0  0  0  0  0  0  0
  -35.3076   51.8395   63.4168 N   0  0  0  0  0  0  0  0  0  0  0  0
  -37.3672   51.1474   64.0188 O   0  0  0  0  0  0  0  0  0  0  0  0
  -39.9069   53.4427   68.7289 C   0  0  0  0  0  0  0  0  0  0  0  0
  -39.2456   57.0338   64.8350 N   0  0  0  0  0  0  0  0  0  0  0  0
  -33.5575   49.7167   63.1087 O   0  0  0  0  0  0  0  0  0  0  0  0
  -41.0624   54.4330   68.6825 C   0  0  0  0  0  0  0  0  0  0  0  0
  -42.1664   54.9051   64.6562 N   0  0  0  0  0  0  0  0  0  0  0  0
  -36.1056   56.6655   65.2470 O   0  0  0  0  0  0  0  0  0  0  0  0
  -40.6641   55.8617   69.0192 C   0  0  0  0  0  0  0  0  0  0  0  0
  -36.2688   58.3271   63.7327 O   0  0  0  0  0  0  0  0  0  0  0  0
  -41.8148   56.8526   68.9915 C   0  0  0  0  0  0  0  0  0  0  0  0
  -39.5842   59.1471   64.1415 O   0  0  0  0  0  0  0  0  0  0  0  0
  -42.5195   56.9498   67.6483 C   0  0  0  0  0  0  0  0  0  0  0  0
  -40.2151   54.7412   65.7502 O   0  0  0  0  0  0  0  0  0  0  0  0
  -43.6528   57.9566   67.6396 C   0  0  0  0  0  0  0  0  0  0  0  0
  -44.3590   58.0322   66.2995 C   0  0  0  0  0  0  0  0  0  0  0  0
  -43.4615   58.4171   65.1406 C   0  0  0  0  0  0  0  0  0  0  0  0
  -44.1995   58.5007   63.8189 C   0  0  0  0  0  0  0  0  0  0  0  0
  -43.3053   58.8695   62.6467 C   0  0  0  0  0  0  0  0  0  0  0  0
  -44.0484   58.9693   61.3278 C   0  0  0  0  0  0  0  0  0  0  0  0
  -43.1704   59.3207   60.1384 C   0  0  0  0  0  0  0  0  0  0  0  0
  -42.0753   58.3031   59.8695 C   0  0  0  0  0  0  0  0  0  0  0  0
  -42.5970   56.9062   59.5556 C   0  0  0  0  0  0  0  0  0  0  0  0
  -41.4804   55.9387   59.3155 C   0  0  0  0  0  0  0  0  0  0  0  0
  -40.1765   56.1781   59.3506 C   0  0  0  0  0  0  0  0  0  0  0  0
  -39.5734   57.4928   59.6640 C   0  0  0  0  0  0  0  0  0  0  0  0
  -38.2360   58.7337   61.2903 C   0  0  0  0  0  0  0  0  0  0  0  0
  -36.9560   58.4330   62.0390 C   0  0  0  0  0  0  0  0  0  0  0  0
  -35.8780   57.7610   61.2090 C   0  0  0  0  0  0  0  0  0  0  0  0
  -34.6110   57.4590   62.0020 C   0  0  0  0  0  0  0  0  0  0  0  0
  -34.8704   56.5130   63.1754 C   0  0  1  0  0  0  0  0  0  0  0  0
  -35.6907   54.2677   63.5879 C   0  0  0  0  0  0  0  0  0  0  0  0
  -36.2067   52.9355   63.0194 C   0  0  1  0  0  0  0  0  0  0  0  0
  -36.2361   53.0270   61.4967 C   0  0  0  0  0  0  0  0  0  0  0  0
  -37.5703   52.5176   63.5893 C   0  0  0  0  0  0  0  0  0  0  0  0
  -36.0273   50.9366   63.9425 C   0  0  0  0  0  0  0  0  0  0  0  0
  -35.5541   49.6595   64.4817 C   0  0  0  0  0  0  0  0  0  0  0  0
  -36.2301   49.0528   65.5411 C   0  0  0  0  0  0  0  0  0  0  0  0
  -35.6639   47.9849   66.2158 C   0  0  0  0  0  0  0  0  0  0  0  0
  -34.4246   47.5064   65.8499 C   0  0  0  0  0  0  0  0  0  0  0  0
  -33.7319   48.0928   64.8064 C   0  0  0  0  0  0  0  0  0  0  0  0
  -34.2835   49.1685   64.1175 C   0  0  0  0  0  0  0  0  0  0  0  0
  -35.8061   57.1511   64.1912 C   0  0  0  0  0  0  0  0  0  0  0  0
  -36.6237   59.3595   64.7114 C   0  0  2  0  0  0  0  0  0  0  0  0
  -35.3856   59.7000   65.5018 C   0  0  0  0  0  0  0  0  0  0  0  0
  -37.7091   58.7466   65.5749 C   0  0  0  0  0  0  0  0  0  0  0  0
  -38.9284   58.3307   64.7825 C   0  0  0  0  0  0  0  0  0  0  0  0
  -40.3973   56.4966   64.1315 C   0  0  1  0  0  0  0  0  0  0  0  0
  -39.9916   56.0461   62.7237 C   0  0  0  0  0  0  0  0  0  0  0  0
  -41.1693   55.8979   61.7665 C   0  0  0  0  0  0  0  0  0  0  0  0
  -42.2034   54.8622   62.1611 C   0  0  0  0  0  0  0  0  0  0  0  0
  -42.9371   55.1775   63.4478 C   0  0  0  0  0  0  0  0  0  0  0  0
  -40.9191   55.3035   64.9165 C   0  0  0  0  0  0  0  0  0  0  0  0
  -38.7149   56.6746   61.2843 H   0  0  0  0  0  0  0  0  0  0  0  0
  -41.3975   51.2415   71.7789 H   0  0  0  0  0  0  0  0  0  0  0  0
  -39.9590   50.7947   70.8934 H   0  0  0  0  0  0  0  0  0  0  0  0
  -41.3153   51.5083   70.0541 H   0  0  0  0  0  0  0  0  0  0  0  0
  -39.6328   52.8618   72.1237 H   0  0  0  0  0  0  0  0  0  0  0  0
  -41.0017   53.5642   71.2385 H   0  0  0  0  0  0  0  0  0  0  0  0
  -35.5092   55.0758   61.7538 H   0  0  0  0  0  0  0  0  0  0  0  0
  -38.4413   52.6461   70.0290 H   0  0  0  0  0  0  0  0  0  0  0  0
  -38.9352   54.3289   70.3578 H   0  0  0  0  0  0  0  0  0  0  0  0
  -40.2776   52.4763   68.4576 H   0  0  0  0  0  0  0  0  0  0  0  0
  -39.1610   53.7961   68.0480 H   0  0  0  0  0  0  0  0  0  0  0  0
  -38.6827   56.4249   65.3656 H   0  0  0  0  0  0  0  0  0  0  0  0
  -33.9006   50.4422   62.6252 H   0  0  0  0  0  0  0  0  0  0  0  0
  -41.8057   54.1164   69.3840 H   0  0  0  0  0  0  0  0  0  0  0  0
  -41.4242   54.4408   67.6756 H   0  0  0  0  0  0  0  0  0  0  0  0
  -42.6129   54.3716   65.3528 H   0  0  0  0  0  0  0  0  0  0  0  0
  -39.9293   56.1810   68.3099 H   0  0  0  0  0  0  0  0  0  0  0  0
  -40.2939   55.8489   70.0230 H   0  0  0  0  0  0  0  0  0  0  0  0
  -41.4309   57.8199   69.2400 H   0  0  0  0  0  0  0  0  0  0  0  0
  -42.5403   56.5017   69.6953 H   0  0  0  0  0  0  0  0  0  0  0  0
  -42.9177   55.9875   67.4028 H   0  0  0  0  0  0  0  0  0  0  0  0
  -41.7957   57.2799   66.9328 H   0  0  0  0  0  0  0  0  0  0  0  0
  -43.2546   58.9222   67.8715 H   0  0  0  0  0  0  0  0  0  0  0  0
  -44.3718   57.6399   68.3661 H   0  0  0  0  0  0  0  0  0  0  0  0
  -45.1406   58.7592   66.3735 H   0  0  0  0  0  0  0  0  0  0  0  0
  -44.7235   57.0482   66.0901 H   0  0  0  0  0  0  0  0  0  0  0  0
  -42.6865   57.6846   65.0522 H   0  0  0  0  0  0  0  0  0  0  0  0
  -43.0704   59.3909   65.3498 H   0  0  0  0  0  0  0  0  0  0  0  0
  -44.9666   59.2416   63.9057 H   0  0  0  0  0  0  0  0  0  0  0  0
  -44.5957   57.5273   63.6179 H   0  0  0  0  0  0  0  0  0  0  0  0
  -42.5455   58.1221   62.5518 H   0  0  0  0  0  0  0  0  0  0  0  0
  -42.8983   59.8373   62.8531 H   0  0  0  0  0  0  0  0  0  0  0  0
  -44.8004   59.7245   61.4235 H   0  0  0  0  0  0  0  0  0  0  0  0
  -44.4548   57.9991   61.1317 H   0  0  0  0  0  0  0  0  0  0  0  0
  -42.7121   60.2695   60.3248 H   0  0  0  0  0  0  0  0  0  0  0  0
  -43.8027   59.3368   59.2754 H   0  0  0  0  0  0  0  0  0  0  0  0
  -41.4506   58.2430   60.7361 H   0  0  0  0  0  0  0  0  0  0  0  0
  -41.5438   58.6389   59.0037 H   0  0  0  0  0  0  0  0  0  0  0  0
  -43.2091   56.9536   58.6793 H   0  0  0  0  0  0  0  0  0  0  0  0
  -43.1597   56.5633   60.3986 H   0  0  0  0  0  0  0  0  0  0  0  0
  -41.7585   54.9693   59.0964 H   0  0  0  0  0  0  0  0  0  0  0  0
  -39.5383   55.3936   59.1453 H   0  0  0  0  0  0  0  0  0  0  0  0
  -38.9228   59.2185   61.9523 H   0  0  0  0  0  0  0  0  0  0  0  0
  -38.0041   59.3676   60.4601 H   0  0  0  0  0  0  0  0  0  0  0  0
  -37.1937   57.7896   62.8603 H   0  0  0  0  0  0  0  0  0  0  0  0
  -36.5565   59.3772   62.3453 H   0  0  0  0  0  0  0  0  0  0  0  0
  -35.6238   58.4067   60.3945 H   0  0  0  0  0  0  0  0  0  0  0  0
  -36.2729   56.8255   60.8717 H   0  0  0  0  0  0  0  0  0  0  0  0
  -34.2161   58.3779   62.3821 H   0  0  0  0  0  0  0  0  0  0  0  0
  -33.9192   56.9787   61.3420 H   0  0  0  0  0  0  0  0  0  0  0  0
  -33.9347   56.3288   63.6606 H   0  0  0  0  0  0  0  0  0  0  0  0
  -35.2713   53.3197   61.1383 H   0  0  0  0  0  0  0  0  0  0  0  0
  -36.9632   53.7525   61.1969 H   0  0  0  0  0  0  0  0  0  0  0  0
  -36.4943   52.0729   61.0870 H   0  0  0  0  0  0  0  0  0  0  0  0
  -37.8431   53.1389   64.4167 H   0  0  0  0  0  0  0  0  0  0  0  0
  -38.3612   52.6118   62.8748 H   0  0  0  0  0  0  0  0  0  0  0  0
  -37.1589   49.4028   65.8236 H   0  0  0  0  0  0  0  0  0  0  0  0
  -36.1731   47.5444   66.9978 H   0  0  0  0  0  0  0  0  0  0  0  0
  -34.0119   46.7075   66.3563 H   0  0  0  0  0  0  0  0  0  0  0  0
  -32.8032   47.7316   64.5379 H   0  0  0  0  0  0  0  0  0  0  0  0
  -36.9812   60.2677   64.2728 H   0  0  0  0  0  0  0  0  0  0  0  0
  -34.9979   58.8127   65.9571 H   0  0  0  0  0  0  0  0  0  0  0  0
  -35.6321   60.4122   66.2615 H   0  0  0  0  0  0  0  0  0  0  0  0
  -34.6483   60.1168   64.8479 H   0  0  0  0  0  0  0  0  0  0  0  0
  -38.0080   59.4656   66.3088 H   0  0  0  0  0  0  0  0  0  0  0  0
  -37.3020   57.8645   66.0235 H   0  0  0  0  0  0  0  0  0  0  0  0
  -41.1544   57.2478   64.0446 H   0  0  0  0  0  0  0  0  0  0  0  0
  -39.4973   55.1002   62.8007 H   0  0  0  0  0  0  0  0  0  0  0  0
  -39.3551   56.8068   62.3223 H   0  0  0  0  0  0  0  0  0  0  0  0
  -40.7819   55.6279   60.8063 H   0  0  0  0  0  0  0  0  0  0  0  0
  -41.6772   56.8396   61.7768 H   0  0  0  0  0  0  0  0  0  0  0  0
  -41.7079   53.9212   62.2792 H   0  0  0  0  0  0  0  0  0  0  0  0
  -42.9380   54.8488   61.3833 H   0  0  0  0  0  0  0  0  0  0  0  0
  -43.1955   56.2158   63.4412 H   0  0  0  0  0  0  0  0  0  0  0  0
  -43.7944   54.5380   63.4784 H   0  0  0  0  0  0  0  0  0  0  0  0
  1 33  1  0  0  0  0
  1 34  1  0  0  0  0
  1 61  1  0  0  0  0
  2  4  1  0  0  0  0
  2 62  1  0  0  0  0
  2 63  1  0  0  0  0
  2 64  1  0  0  0  0
  3 33  2  0  0  0  0
  4  7  1  0  0  0  0
  4 65  1  0  0  0  0
  4 66  1  0  0  0  0
  5 38  1  0  0  0  0
  5 39  1  0  0  0  0
  5 67  1  0  0  0  0
  6 39  2  0  0  0  0
  7 10  1  0  0  0  0
  7 68  1  0  0  0  0
  7 69  1  0  0  0  0
  8 40  1  0  0  0  0
  8 43  2  0  0  0  0
  9 42  1  0  0  0  0
  9 43  1  0  0  0  0
 10 13  1  0  0  0  0
 10 70  1  0  0  0  0
 10 71  1  0  0  0  0
 11 54  1  0  0  0  0
 11 55  1  0  0  0  0
 11 72  1  0  0  0  0
 12 49  1  0  0  0  0
 12 73  1  0  0  0  0
 13 16  1  0  0  0  0
 13 74  1  0  0  0  0
 13 75  1  0  0  0  0
 14 59  1  0  0  0  0
 14 60  1  0  0  0  0
 14 76  1  0  0  0  0
 15 50  2  0  0  0  0
 16 18  1  0  0  0  0
 16 77  1  0  0  0  0
 16 78  1  0  0  0  0
 17 50  1  0  0  0  0
 17 51  1  0  0  0  0
 18 20  1  0  0  0  0
 18 79  1  0  0  0  0
 18 80  1  0  0  0  0
 19 54  2  0  0  0  0
 20 22  1  0  0  0  0
 20 81  1  0  0  0  0
 20 82  1  0  0  0  0
 21 60  2  0  0  0  0
 22 23  1  0  0  0  0
 22 83  1  0  0  0  0
 22 84  1  0  0  0  0
 23 24  1  0  0  0  0
 23 85  1  0  0  0  0
 23 86  1  0  0  0  0
 24 25  1  0  0  0  0
 24 87  1  0  0  0  0
 24 88  1  0  0  0  0
 25 26  1  0  0  0  0
 25 89  1  0  0  0  0
 25 90  1  0  0  0  0
 26 27  1  0  0  0  0
 26 91  1  0  0  0  0
 26 92  1  0  0  0  0
 27 28  1  0  0  0  0
 27 93  1  0  0  0  0
 27 94  1  0  0  0  0
 28 29  1  0  0  0  0
 28 95  1  0  0  0  0
 28 96  1  0  0  0  0
 29 30  1  0  0  0  0
 29 97  1  0  0  0  0
 29 98  1  0  0  0  0
 30 31  1  0  0  0  0
 30 99  1  0  0  0  0
 30100  1  0  0  0  0
 31 32  2  0  0  0  0
 31101  1  0  0  0  0
 32 33  1  0  0  0  0
 32102  1  0  0  0  0
 34 35  1  0  0  0  0
 34103  1  0  0  0  0
 34104  1  0  0  0  0
 35 36  1  0  0  0  0
 35105  1  0  0  0  0
 35106  1  0  0  0  0
 36 37  1  0  0  0  0
 36107  1  0  0  0  0
 36108  1  0  0  0  0
 37 38  1  0  0  0  0
 37109  1  0  0  0  0
 37110  1  0  0  0  0
 38 50  1  0  0  0  0
 38111  1  1  0  0  0
 40 39  1  1  0  0  0
 40 41  1  0  0  0  0
 40 42  1  0  0  0  0
 41112  1  0  0  0  0
 41113  1  0  0  0  0
 41114  1  0  0  0  0
 42115  1  0  0  0  0
 42116  1  0  0  0  0
 43 44  1  0  0  0  0
 44 45  2  0  0  0  0
 44 49  1  0  0  0  0
 45 46  1  0  0  0  0
 45117  1  0  0  0  0
 46 47  2  0  0  0  0
 46118  1  0  0  0  0
 47 48  1  0  0  0  0
 47119  1  0  0  0  0
 48 49  2  0  0  0  0
 48120  1  0  0  0  0
 51 52  1  0  0  0  0
 51 53  1  0  0  0  0
 51121  1  6  0  0  0
 52122  1  0  0  0  0
 52123  1  0  0  0  0
 52124  1  0  0  0  0
 53 54  1  0  0  0  0
 53125  1  0  0  0  0
 53126  1  0  0  0  0
 55 56  1  0  0  0  0
 55 60  1  0  0  0  0
 55127  1  6  0  0  0
 56 57  1  0  0  0  0
 56128  1  0  0  0  0
 56129  1  0  0  0  0
 57 58  1  0  0  0  0
 57130  1  0  0  0  0
 57131  1  0  0  0  0
 58 59  1  0  0  0  0
 58132  1  0  0  0  0
 58133  1  0  0  0  0
 59134  1  0  0  0  0
 59135  1  0  0  0  0
M  END
$$$$
/media/chris/experiments/cd1a-new-docking/inputs/ligands/7ryo_ligand.pdb
 OpenBabel07032304133D

135137  0  0  1  0  0  0  0  0999 V2000
  -38.4618   58.3450   63.9648 N   0  0  0  0  0  0  0  0  0  0  0  0
  -33.5033   61.6080   56.4898 C   0  0  0  0  0  0  0  0  0  0  0  0
  -39.8911   58.3837   62.2185 O   0  0  0  0  0  0  0  0  0  0  0  0
  -33.0143   60.1858   56.4062 C   0  0  0  0  0  0  0  0  0  0  0  0
  -33.6307   59.6738   61.5549 N   0  0  0  0  0  0  0  0  0  0  0  0
  -32.7891   61.1696   63.0068 O   0  0  0  0  0  0  0  0  0  0  0  0
  -33.1922   59.4143   57.7013 C   0  0  0  0  0  0  0  0  0  0  0  0
  -31.5492   62.6054   61.0321 N   0  0  0  0  0  0  0  0  0  0  0  0
  -31.1115   61.7272   59.0023 O   0  0  0  0  0  0  0  0  0  0  0  0
  -34.6345   59.2874   58.1649 C   0  0  0  0  0  0  0  0  0  0  0  0
  -30.9877   60.5153   68.7405 N   0  0  0  0  0  0  0  0  0  0  0  0
  -29.6946   63.4944   57.5718 O   0  0  0  0  0  0  0  0  0  0  0  0
  -35.5279   58.5571   57.1717 C   0  0  0  0  0  0  0  0  0  0  0  0
  -30.5235   58.6341   71.7966 N   0  0  0  0  0  0  0  0  0  0  0  0
  -32.0144   57.4691   63.2340 O   0  0  0  0  0  0  0  0  0  0  0  0
  -35.0942   57.1274   56.8874 C   0  0  0  0  0  0  0  0  0  0  0  0
  -32.6856   59.2067   64.5032 O   0  0  0  0  0  0  0  0  0  0  0  0
  -35.0876   56.2236   58.1080 C   0  0  0  0  0  0  0  0  0  0  0  0
  -31.6073   58.3635   68.5219 O   0  0  0  0  0  0  0  0  0  0  0  0
  -36.4454   56.0663   58.7727 C   0  0  0  0  0  0  0  0  0  0  0  0
  -32.2474   58.8528   70.3785 O   0  0  0  0  0  0  0  0  0  0  0  0
  -36.4112   55.1742   59.9978 C   0  0  0  0  0  0  0  0  0  0  0  0
  -37.7745   55.0113   60.6421 C   0  0  0  0  0  0  0  0  0  0  0  0
  -37.7802   54.1390   61.8815 C   0  0  0  0  0  0  0  0  0  0  0  0
  -39.1591   53.9819   62.4920 C   0  0  0  0  0  0  0  0  0  0  0  0
  -39.7927   55.2994   62.9073 C   0  0  0  0  0  0  0  0  0  0  0  0
  -41.1651   55.1389   63.5336 C   0  0  0  0  0  0  0  0  0  0  0  0
  -41.8250   56.4456   63.9413 C   0  0  0  0  0  0  0  0  0  0  0  0
  -42.0574   57.3973   62.7805 C   0  0  0  0  0  0  0  0  0  0  0  0
  -42.7034   58.7165   63.1862 C   0  0  0  0  0  0  0  0  0  0  0  0
  -41.8538   59.4736   64.1585 C   0  0  0  0  0  0  0  0  0  0  0  0
  -40.5322   59.4572   64.2670 C   0  0  0  0  0  0  0  0  0  0  0  0
  -39.6292   58.6694   63.3984 C   0  0  0  0  0  0  0  0  0  0  0  0
  -37.4201   57.6362   63.2386 C   0  0  0  0  0  0  0  0  0  0  0  0
  -36.9560   58.4330   62.0390 C   0  0  0  0  0  0  0  0  0  0  0  0
  -35.8780   57.7610   61.2090 C   0  0  0  0  0  0  0  0  0  0  0  0
  -34.6110   57.4590   62.0020 C   0  0  0  0  0  0  0  0  0  0  0  0
  -33.9807   58.7203   62.5945 C   0  0  1  0  0  0  0  0  0  0  0  0
  -33.0537   60.8384   61.8606 C   0  0  0  0  0  0  0  0  0  0  0  0
  -32.7373   61.8002   60.7036 C   0  0  1  0  0  0  0  0  0  0  0  0
  -33.9275   62.7321   60.4968 C   0  0  0  0  0  0  0  0  0  0  0  0
  -32.3465   61.0815   59.4038 C   0  0  0  0  0  0  0  0  0  0  0  0
  -30.7419   62.4958   60.0597 C   0  0  0  0  0  0  0  0  0  0  0  0
  -29.4263   63.1312   59.9532 C   0  0  0  0  0  0  0  0  0  0  0  0
  -28.6852   63.4047   61.1035 C   0  0  0  0  0  0  0  0  0  0  0  0
  -27.5649   64.2154   61.0408 C   0  0  0  0  0  0  0  0  0  0  0  0
  -27.1663   64.7631   59.8410 C   0  0  0  0  0  0  0  0  0  0  0  0
  -27.8859   64.5113   58.6871 C   0  0  0  0  0  0  0  0  0  0  0  0
  -29.0160   63.7007   58.7303 C   0  0  0  0  0  0  0  0  0  0  0  0
  -32.7733   58.3728   63.4524 C   0  0  0  0  0  0  0  0  0  0  0  0
  -32.0961   58.6954   65.7444 C   0  0  2  0  0  0  0  0  0  0  0  0
  -32.9198   57.5189   66.2034 C   0  0  0  0  0  0  0  0  0  0  0  0
  -32.1446   59.8512   66.7249 C   0  0  0  0  0  0  0  0  0  0  0  0
  -31.5542   59.5054   68.0738 C   0  0  0  0  0  0  0  0  0  0  0  0
  -30.3910   60.3299   70.0517 C   0  0  1  0  0  0  0  0  0  0  0  0
  -30.5109   61.6192   70.8720 C   0  0  0  0  0  0  0  0  0  0  0  0
  -29.5459   61.6854   72.0509 C   0  0  0  0  0  0  0  0  0  0  0  0
  -29.7248   60.6065   73.1005 C   0  0  0  0  0  0  0  0  0  0  0  0
  -29.4482   59.2038   72.6014 C   0  0  0  0  0  0  0  0  0  0  0  0
  -31.1350   59.2073   70.7576 C   0  0  0  0  0  0  0  0  0  0  0  0
  -38.3025   58.5942   64.9038 H   0  0  0  0  0  0  0  0  0  0  0  0
  -33.3498   62.0938   55.5489 H   0  0  0  0  0  0  0  0  0  0  0  0
  -32.9609   62.1273   57.2521 H   0  0  0  0  0  0  0  0  0  0  0  0
  -34.5464   61.6131   56.7279 H   0  0  0  0  0  0  0  0  0  0  0  0
  -31.9735   60.1982   56.1582 H   0  0  0  0  0  0  0  0  0  0  0  0
  -33.6001   59.6920   55.6593 H   0  0  0  0  0  0  0  0  0  0  0  0
  -33.8215   59.4582   60.6134 H   0  0  0  0  0  0  0  0  0  0  0  0
  -32.6375   59.9145   58.4674 H   0  0  0  0  0  0  0  0  0  0  0  0
  -32.8435   58.4202   57.5143 H   0  0  0  0  0  0  0  0  0  0  0  0
  -35.0293   60.2701   58.3172 H   0  0  0  0  0  0  0  0  0  0  0  0
  -34.6265   58.7101   59.0657 H   0  0  0  0  0  0  0  0  0  0  0  0
  -30.9743   61.4106   68.3313 H   0  0  0  0  0  0  0  0  0  0  0  0
  -30.4598   62.9536   57.5670 H   0  0  0  0  0  0  0  0  0  0  0  0
  -35.5215   59.1006   56.2500 H   0  0  0  0  0  0  0  0  0  0  0  0
  -36.5021   58.5044   57.6110 H   0  0  0  0  0  0  0  0  0  0  0  0
  -30.8302   57.7324   72.0458 H   0  0  0  0  0  0  0  0  0  0  0  0
  -34.1041   57.1514   56.4824 H   0  0  0  0  0  0  0  0  0  0  0  0
  -35.8112   56.7186   56.2064 H   0  0  0  0  0  0  0  0  0  0  0  0
  -34.4079   56.6334   58.8256 H   0  0  0  0  0  0  0  0  0  0  0  0
  -34.7958   55.2513   57.7697 H   0  0  0  0  0  0  0  0  0  0  0  0
  -37.1246   55.6428   58.0626 H   0  0  0  0  0  0  0  0  0  0  0  0
  -36.7555   57.0381   59.0958 H   0  0  0  0  0  0  0  0  0  0  0  0
  -35.7429   55.6030   60.7149 H   0  0  0  0  0  0  0  0  0  0  0  0
  -36.0851   54.2050   59.6826 H   0  0  0  0  0  0  0  0  0  0  0  0
  -38.4349   54.5746   59.9224 H   0  0  0  0  0  0  0  0  0  0  0  0
  -38.0839   55.9870   60.9536 H   0  0  0  0  0  0  0  0  0  0  0  0
  -37.1330   54.5795   62.6109 H   0  0  0  0  0  0  0  0  0  0  0  0
  -37.4486   53.1651   61.5876 H   0  0  0  0  0  0  0  0  0  0  0  0
  -39.0770   53.3580   63.3575 H   0  0  0  0  0  0  0  0  0  0  0  0
  -39.7887   53.5533   61.7405 H   0  0  0  0  0  0  0  0  0  0  0  0
  -39.8863   55.9187   62.0398 H   0  0  0  0  0  0  0  0  0  0  0  0
  -39.1566   55.7348   63.6494 H   0  0  0  0  0  0  0  0  0  0  0  0
  -41.0656   54.5276   64.4061 H   0  0  0  0  0  0  0  0  0  0  0  0
  -41.7926   54.6996   62.7864 H   0  0  0  0  0  0  0  0  0  0  0  0
  -41.1969   56.9327   64.6576 H   0  0  0  0  0  0  0  0  0  0  0  0
  -42.7858   56.2001   64.3430 H   0  0  0  0  0  0  0  0  0  0  0  0
  -42.6951   56.9138   62.0704 H   0  0  0  0  0  0  0  0  0  0  0  0
  -41.0961   57.6333   62.3740 H   0  0  0  0  0  0  0  0  0  0  0  0
  -43.6514   58.5134   63.6389 H   0  0  0  0  0  0  0  0  0  0  0  0
  -42.8184   59.3155   62.3071 H   0  0  0  0  0  0  0  0  0  0  0  0
  -42.3567   60.0811   64.8242 H   0  0  0  0  0  0  0  0  0  0  0  0
  -40.1038   60.0335   65.0082 H   0  0  0  0  0  0  0  0  0  0  0  0
  -37.8045   56.6947   62.9057 H   0  0  0  0  0  0  0  0  0  0  0  0
  -36.5868   57.4908   63.8939 H   0  0  0  0  0  0  0  0  0  0  0  0
  -36.5724   59.3687   62.3887 H   0  0  0  0  0  0  0  0  0  0  0  0
  -37.8072   58.5391   61.3994 H   0  0  0  0  0  0  0  0  0  0  0  0
  -35.6238   58.4067   60.3945 H   0  0  0  0  0  0  0  0  0  0  0  0
  -36.2729   56.8255   60.8717 H   0  0  0  0  0  0  0  0  0  0  0  0
  -33.9009   56.9930   61.3512 H   0  0  0  0  0  0  0  0  0  0  0  0
  -34.8793   56.8156   62.8138 H   0  0  0  0  0  0  0  0  0  0  0  0
  -34.7094   59.1851   63.2253 H   0  0  0  0  0  0  0  0  0  0  0  0
  -34.1689   63.2129   61.4217 H   0  0  0  0  0  0  0  0  0  0  0  0
  -34.7698   62.1653   60.1590 H   0  0  0  0  0  0  0  0  0  0  0  0
  -33.6785   63.4717   59.7647 H   0  0  0  0  0  0  0  0  0  0  0  0
  -32.1903   60.0376   59.5788 H   0  0  0  0  0  0  0  0  0  0  0  0
  -33.1069   61.1455   58.6537 H   0  0  0  0  0  0  0  0  0  0  0  0
  -28.9745   62.9997   62.0076 H   0  0  0  0  0  0  0  0  0  0  0  0
  -27.0249   64.4108   61.8982 H   0  0  0  0  0  0  0  0  0  0  0  0
  -26.3277   65.3634   59.8032 H   0  0  0  0  0  0  0  0  0  0  0  0
  -27.5839   64.9257   57.7916 H   0  0  0  0  0  0  0  0  0  0  0  0
  -31.0873   58.3553   65.6371 H   0  0  0  0  0  0  0  0  0  0  0  0
  -33.9392   57.8218   66.3223 H   0  0  0  0  0  0  0  0  0  0  0  0
  -32.5423   57.1624   67.1390 H   0  0  0  0  0  0  0  0  0  0  0  0
  -32.8627   56.7375   65.4747 H   0  0  0  0  0  0  0  0  0  0  0  0
  -33.1659   60.1388   66.8630 H   0  0  0  0  0  0  0  0  0  0  0  0
  -31.5588   60.6461   66.3127 H   0  0  0  0  0  0  0  0  0  0  0  0
  -29.3543   60.0857   69.9493 H   0  0  0  0  0  0  0  0  0  0  0  0
  -31.5100   61.6888   71.2485 H   0  0  0  0  0  0  0  0  0  0  0  0
  -30.2643   62.4303   70.2191 H   0  0  0  0  0  0  0  0  0  0  0  0
  -29.6731   62.6345   72.5283 H   0  0  0  0  0  0  0  0  0  0  0  0
  -28.5691   61.5372   71.6402 H   0  0  0  0  0  0  0  0  0  0  0  0
  -30.7346   60.6446   73.4524 H   0  0  0  0  0  0  0  0  0  0  0  0
  -29.0098   60.8055   73.8713 H   0  0  0  0  0  0  0  0  0  0  0  0
  -28.5597   59.2284   72.0057 H   0  0  0  0  0  0  0  0  0  0  0  0
  -29.3490   58.5827   73.4670 H   0  0  0  0  0  0  0  0  0  0  0  0
  1 33  1  0  0  0  0
  1 34  1  0  0  0  0
  1 61  1  0  0  0  0
  2  4  1  0  0  0  0
  2 62  1  0  0  0  0
  2 63  1  0  0  0  0
  2 64  1  0  0  0  0
  3 33  2  0  0  0  0
  4  7  1  0  0  0  0
  4 65  1  0  0  0  0
  4 66  1  0  0  0  0
  5 38  1  0  0  0  0
  5 39  1  0  0  0  0
  5 67  1  0  0  0  0
  6 39  2  0  0  0  0
  7 10  1  0  0  0  0
  7 68  1  0  0  0  0
  7 69  1  0  0  0  0
  8 40  1  0  0  0  0
  8 43  2  0  0  0  0
  9 42  1  0  0  0  0
  9 43  1  0  0  0  0
 10 13  1  0  0  0  0
 10 70  1  0  0  0  0
 10 71  1  0  0  0  0
 11 54  1  0  0  0  0
 11 55  1  0  0  0  0
 11 72  1  0  0  0  0
 12 49  1  0  0  0  0
 12 73  1  0  0  0  0
 13 16  1  0  0  0  0
 13 74  1  0  0  0  0
 13 75  1  0  0  0  0
 14 59  1  0  0  0  0
 14 60  1  0  0  0  0
 14 76  1  0  0  0  0
 15 50  2  0  0  0  0
 16 18  1  0  0  0  0
 16 77  1  0  0  0  0
 16 78  1  0  0  0  0
 17 50  1  0  0  0  0
 17 51  1  0  0  0  0
 18 20  1  0  0  0  0
 18 79  1  0  0  0  0
 18 80  1  0  0  0  0
 19 54  2  0  0  0  0
 20 22  1  0  0  0  0
 20 81  1  0  0  0  0
 20 82  1  0  0  0  0
 21 60  2  0  0  0  0
 22 23  1  0  0  0  0
 22 83  1  0  0  0  0
 22 84  1  0  0  0  0
 23 24  1  0  0  0  0
 23 85  1  0  0  0  0
 23 86  1  0  0  0  0
 24 25  1  0  0  0  0
 24 87  1  0  0  0  0
 24 88  1  0  0  0  0
 25 26  1  0  0  0  0
 25 89  1  0  0  0  0
 25 90  1  0  0  0  0
 26 27  1  0  0  0  0
 26 91  1  0  0  0  0
 26 92  1  0  0  0  0
 27 28  1  0  0  0  0
 27 93  1  0  0  0  0
 27 94  1  0  0  0  0
 28 29  1  0  0  0  0
 28 95  1  0  0  0  0
 28 96  1  0  0  0  0
 29 30  1  0  0  0  0
 29 97  1  0  0  0  0
 29 98  1  0  0  0  0
 30 31  1  0  0  0  0
 30 99  1  0  0  0  0
 30100  1  0  0  0  0
 31 32  2  0  0  0  0
 31101  1  0  0  0  0
 32 33  1  0  0  0  0
 32102  1  0  0  0  0
 34 35  1  0  0  0  0
 34103  1  0  0  0  0
 34104  1  0  0  0  0
 35 36  1  0  0  0  0
 35105  1  0  0  0  0
 35106  1  0  0  0  0
 36 37  1  0  0  0  0
 36107  1  0  0  0  0
 36108  1  0  0  0  0
 37 38  1  0  0  0  0
 37109  1  0  0  0  0
 37110  1  0  0  0  0
 38 50  1  0  0  0  0
 38111  1  1  0  0  0
 40 39  1  1  0  0  0
 40 41  1  0  0  0  0
 40 42  1  0  0  0  0
 41112  1  0  0  0  0
 41113  1  0  0  0  0
 41114  1  0  0  0  0
 42115  1  0  0  0  0
 42116  1  0  0  0  0
 43 44  1  0  0  0  0
 44 45  2  0  0  0  0
 44 49  1  0  0  0  0
 45 46  1  0  0  0  0
 45117  1  0  0  0  0
 46 47  2  0  0  0  0
 46118  1  0  0  0  0
 47 48  1  0  0  0  0
 47119  1  0  0  0  0
 48 49  2  0  0  0  0
 48120  1  0  0  0  0
 51 52  1  0  0  0  0
 51 53  1  0  0  0  0
 51121  1  6  0  0  0
 52122  1  0  0  0  0
 52123  1  0  0  0  0
 52124  1  0  0  0  0
 53 54  1  0  0  0  0
 53125  1  0  0  0  0
 53126  1  0  0  0  0
 55 56  1  0  0  0  0
 55 60  1  0  0  0  0
 55127  1  6  0  0  0
 56 57  1  0  0  0  0
 56128  1  0  0  0  0
 56129  1  0  0  0  0
 57 58  1  0  0  0  0
 57130  1  0  0  0  0
 57131  1  0  0  0  0
 58 59  1  0  0  0  0
 58132  1  0  0  0  0
 58133  1  0  0  0  0
 59134  1  0  0  0  0
 59135  1  0  0  0  0
M  END
$$$$
/media/chris/experiments/cd1a-new-docking/inputs/ligands/7ryo_ligand.pdb
 OpenBabel07032304133D

135137  0  0  1  0  0  0  0  0999 V2000
  -37.9573   56.3471   62.8329 N   0  0  0  0  0  0  0  0  0  0  0  0
  -41.6482   57.8832   64.5148 C   0  0  0  0  0  0  0  0  0  0  0  0
  -39.5674   57.2370   61.5255 O   0  0  0  0  0  0  0  0  0  0  0  0
  -40.2239   58.3164   64.2863 C   0  0  0  0  0  0  0  0  0  0  0  0
  -33.1324   57.6580   60.0424 N   0  0  0  0  0  0  0  0  0  0  0  0
  -35.2034   57.7505   59.1729 O   0  0  0  0  0  0  0  0  0  0  0  0
  -39.8611   59.5935   65.0220 C   0  0  0  0  0  0  0  0  0  0  0  0
  -32.4979   58.2313   57.2076 N   0  0  0  0  0  0  0  0  0  0  0  0
  -33.9877   58.9649   55.6827 O   0  0  0  0  0  0  0  0  0  0  0  0
  -38.4336   60.0653   64.7970 C   0  0  0  0  0  0  0  0  0  0  0  0
  -36.2461   53.3287   55.7231 N   0  0  0  0  0  0  0  0  0  0  0  0
  -31.5015   55.7543   56.1385 O   0  0  0  0  0  0  0  0  0  0  0  0
  -38.1205   60.3745   63.3395 C   0  0  0  0  0  0  0  0  0  0  0  0
  -37.6889   50.2689   54.4388 N   0  0  0  0  0  0  0  0  0  0  0  0
  -33.8850   54.4096   61.2508 O   0  0  0  0  0  0  0  0  0  0  0  0
  -38.9821   61.4772   62.7440 C   0  0  0  0  0  0  0  0  0  0  0  0
  -34.5209   55.5446   59.4101 O   0  0  0  0  0  0  0  0  0  0  0  0
  -38.6870   61.7797   61.2852 C   0  0  0  0  0  0  0  0  0  0  0  0
  -33.9965   53.2978   55.7168 O   0  0  0  0  0  0  0  0  0  0  0  0
  -38.9056   60.6022   60.3494 C   0  0  0  0  0  0  0  0  0  0  0  0
  -37.2458   51.0022   56.5116 O   0  0  0  0  0  0  0  0  0  0  0  0
  -38.5889   60.9224   58.9019 C   0  0  0  0  0  0  0  0  0  0  0  0
  -38.8270   59.7452   57.9758 C   0  0  0  0  0  0  0  0  0  0  0  0
  -38.0116   58.5121   58.3095 C   0  0  0  0  0  0  0  0  0  0  0  0
  -38.2592   57.3593   57.3564 C   0  0  0  0  0  0  0  0  0  0  0  0
  -39.7082   56.9027   57.3196 C   0  0  0  0  0  0  0  0  0  0  0  0
  -39.9510   55.7381   56.3781 C   0  0  0  0  0  0  0  0  0  0  0  0
  -39.1734   54.4792   56.7244 C   0  0  0  0  0  0  0  0  0  0  0  0
  -39.5031   53.9195   58.0974 C   0  0  0  0  0  0  0  0  0  0  0  0
  -39.2321   54.8912   59.2394 C   0  0  0  0  0  0  0  0  0  0  0  0
  -39.5567   54.2870   60.5699 C   0  0  0  0  0  0  0  0  0  0  0  0
  -39.4536   54.8518   61.7653 C   0  0  0  0  0  0  0  0  0  0  0  0
  -38.9986   56.2403   62.0005 C   0  0  0  0  0  0  0  0  0  0  0  0
  -37.4201   57.6362   63.2386 C   0  0  0  0  0  0  0  0  0  0  0  0
  -36.9560   58.4330   62.0390 C   0  0  0  0  0  0  0  0  0  0  0  0
  -35.8780   57.7610   61.2090 C   0  0  0  0  0  0  0  0  0  0  0  0
  -34.6110   57.4590   62.0020 C   0  0  0  0  0  0  0  0  0  0  0  0
  -33.5311   56.7980   61.1441 C   0  0  1  0  0  0  0  0  0  0  0  0
  -34.0234   58.0662   59.1357 C   0  0  0  0  0  0  0  0  0  0  0  0
  -33.5145   58.9550   57.9889 C   0  0  1  0  0  0  0  0  0  0  0  0
  -32.8843   60.2121   58.5810 C   0  0  0  0  0  0  0  0  0  0  0  0
  -34.5984   59.2961   56.9557 C   0  0  0  0  0  0  0  0  0  0  0  0
  -32.8468   58.2943   55.9895 C   0  0  0  0  0  0  0  0  0  0  0  0
  -32.1281   57.7119   54.8538 C   0  0  0  0  0  0  0  0  0  0  0  0
  -32.1948   58.3165   53.5979 C   0  0  0  0  0  0  0  0  0  0  0  0
  -31.7298   57.6549   52.4744 C   0  0  0  0  0  0  0  0  0  0  0  0
  -31.1943   56.3898   52.5813 C   0  0  0  0  0  0  0  0  0  0  0  0
  -31.1209   55.7665   53.8137 C   0  0  0  0  0  0  0  0  0  0  0  0
  -31.5850   56.4145   54.9542 C   0  0  0  0  0  0  0  0  0  0  0  0
  -33.9929   55.4382   60.6419 C   0  0  0  0  0  0  0  0  0  0  0  0
  -34.3952   54.3999   58.5026 C   0  0  2  0  0  0  0  0  0  0  0  0
  -32.9272   54.1129   58.3123 C   0  0  0  0  0  0  0  0  0  0  0  0
  -35.0717   54.8255   57.2139 C   0  0  0  0  0  0  0  0  0  0  0  0
  -35.0524   53.7468   56.1538 C   0  0  0  0  0  0  0  0  0  0  0  0
  -36.3775   52.3059   54.7002 C   0  0  1  0  0  0  0  0  0  0  0  0
  -34.9916   51.8350   54.2451 C   0  0  0  0  0  0  0  0  0  0  0  0
  -35.0007   51.1218   52.8973 C   0  0  0  0  0  0  0  0  0  0  0  0
  -35.8194   49.8475   52.8400 C   0  0  0  0  0  0  0  0  0  0  0  0
  -37.3051   50.0550   53.0475 C   0  0  0  0  0  0  0  0  0  0  0  0
  -37.1423   51.1343   55.2956 C   0  0  0  0  0  0  0  0  0  0  0  0
  -37.5409   55.5263   63.1824 H   0  0  0  0  0  0  0  0  0  0  0  0
  -41.8384   56.9814   63.9710 H   0  0  0  0  0  0  0  0  0  0  0  0
  -42.3130   58.6504   64.1767 H   0  0  0  0  0  0  0  0  0  0  0  0
  -41.8052   57.7099   65.5589 H   0  0  0  0  0  0  0  0  0  0  0  0
  -40.0812   58.4758   63.2379 H   0  0  0  0  0  0  0  0  0  0  0  0
  -39.5914   57.5409   64.6651 H   0  0  0  0  0  0  0  0  0  0  0  0
  -32.1934   57.9432   59.9638 H   0  0  0  0  0  0  0  0  0  0  0  0
  -39.9966   59.4257   66.0700 H   0  0  0  0  0  0  0  0  0  0  0  0
  -40.5000   60.3599   64.6356 H   0  0  0  0  0  0  0  0  0  0  0  0
  -37.7664   59.2987   65.1318 H   0  0  0  0  0  0  0  0  0  0  0  0
  -38.3121   60.9758   65.3457 H   0  0  0  0  0  0  0  0  0  0  0  0
  -37.0599   53.7251   56.1102 H   0  0  0  0  0  0  0  0  0  0  0  0
  -31.8053   56.1629   56.9251 H   0  0  0  0  0  0  0  0  0  0  0  0
  -38.2704   59.4834   62.7664 H   0  0  0  0  0  0  0  0  0  0  0  0
  -37.1081   60.7193   63.3059 H   0  0  0  0  0  0  0  0  0  0  0  0
  -38.4287   49.7170   54.7816 H   0  0  0  0  0  0  0  0  0  0  0  0
  -38.8224   62.3706   63.3108 H   0  0  0  0  0  0  0  0  0  0  0  0
  -39.9944   61.1335   62.7878 H   0  0  0  0  0  0  0  0  0  0  0  0
  -37.6650   62.0864   61.2059 H   0  0  0  0  0  0  0  0  0  0  0  0
  -39.3730   62.5438   60.9843 H   0  0  0  0  0  0  0  0  0  0  0  0
  -39.9305   60.3017   60.4147 H   0  0  0  0  0  0  0  0  0  0  0  0
  -38.2381   59.8242   60.6562 H   0  0  0  0  0  0  0  0  0  0  0  0
  -37.5606   61.2101   58.8322 H   0  0  0  0  0  0  0  0  0  0  0  0
  -39.2426   61.7120   58.5952 H   0  0  0  0  0  0  0  0  0  0  0  0
  -38.5828   60.0485   56.9792 H   0  0  0  0  0  0  0  0  0  0  0  0
  -39.8553   59.4713   58.0879 H   0  0  0  0  0  0  0  0  0  0  0  0
  -38.2634   58.1951   59.3000 H   0  0  0  0  0  0  0  0  0  0  0  0
  -36.9791   58.7799   58.2248 H   0  0  0  0  0  0  0  0  0  0  0  0
  -37.6513   56.5326   57.6598 H   0  0  0  0  0  0  0  0  0  0  0  0
  -38.0135   57.7052   56.3741 H   0  0  0  0  0  0  0  0  0  0  0  0
  -40.3149   57.7256   57.0041 H   0  0  0  0  0  0  0  0  0  0  0  0
  -39.9586   56.5689   58.3049 H   0  0  0  0  0  0  0  0  0  0  0  0
  -39.6730   56.0423   55.3906 H   0  0  0  0  0  0  0  0  0  0  0  0
  -40.9883   55.4891   56.4609 H   0  0  0  0  0  0  0  0  0  0  0  0
  -38.1286   54.7080   56.6943 H   0  0  0  0  0  0  0  0  0  0  0  0
  -39.4476   53.7338   56.0075 H   0  0  0  0  0  0  0  0  0  0  0  0
  -38.9123   53.0413   58.2544 H   0  0  0  0  0  0  0  0  0  0  0  0
  -40.5531   53.7138   58.1060 H   0  0  0  0  0  0  0  0  0  0  0  0
  -39.8325   55.7659   59.1002 H   0  0  0  0  0  0  0  0  0  0  0  0
  -38.1904   55.1353   59.2293 H   0  0  0  0  0  0  0  0  0  0  0  0
  -39.9019   53.3146   60.5551 H   0  0  0  0  0  0  0  0  0  0  0  0
  -39.7083   54.2839   62.5885 H   0  0  0  0  0  0  0  0  0  0  0  0
  -36.5906   57.4783   63.8958 H   0  0  0  0  0  0  0  0  0  0  0  0
  -38.1924   58.1861   63.7346 H   0  0  0  0  0  0  0  0  0  0  0  0
  -36.5724   59.3687   62.3887 H   0  0  0  0  0  0  0  0  0  0  0  0
  -37.8072   58.5391   61.3994 H   0  0  0  0  0  0  0  0  0  0  0  0
  -35.6238   58.4067   60.3945 H   0  0  0  0  0  0  0  0  0  0  0  0
  -36.2729   56.8255   60.8717 H   0  0  0  0  0  0  0  0  0  0  0  0
  -34.8590   56.8018   62.8091 H   0  0  0  0  0  0  0  0  0  0  0  0
  -34.2203   58.3886   62.3599 H   0  0  0  0  0  0  0  0  0  0  0  0
  -32.6704   56.6456   61.7612 H   0  0  0  0  0  0  0  0  0  0  0  0
  -32.1365   59.9342   59.2941 H   0  0  0  0  0  0  0  0  0  0  0  0
  -33.6395   60.7955   59.0650 H   0  0  0  0  0  0  0  0  0  0  0  0
  -32.4351   60.7880   57.7991 H   0  0  0  0  0  0  0  0  0  0  0  0
  -35.4779   58.7091   57.1196 H   0  0  0  0  0  0  0  0  0  0  0  0
  -34.9103   60.3182   57.0088 H   0  0  0  0  0  0  0  0  0  0  0  0
  -32.5937   59.2638   53.5060 H   0  0  0  0  0  0  0  0  0  0  0  0
  -31.7845   58.1121   51.5508 H   0  0  0  0  0  0  0  0  0  0  0  0
  -30.8469   55.9056   51.7388 H   0  0  0  0  0  0  0  0  0  0  0  0
  -30.7207   54.8181   53.8877 H   0  0  0  0  0  0  0  0  0  0  0  0
  -34.8498   53.5037   58.8700 H   0  0  0  0  0  0  0  0  0  0  0  0
  -32.4372   54.9899   57.9441 H   0  0  0  0  0  0  0  0  0  0  0  0
  -32.8080   53.3157   57.6086 H   0  0  0  0  0  0  0  0  0  0  0  0
  -32.4949   53.8294   59.2491 H   0  0  0  0  0  0  0  0  0  0  0  0
  -34.5667   55.6881   56.8322 H   0  0  0  0  0  0  0  0  0  0  0  0
  -36.0964   55.0319   57.4427 H   0  0  0  0  0  0  0  0  0  0  0  0
  -36.8985   52.7017   53.8536 H   0  0  0  0  0  0  0  0  0  0  0  0
  -34.6046   51.1618   54.9812 H   0  0  0  0  0  0  0  0  0  0  0  0
  -34.3846   52.7090   54.1332 H   0  0  0  0  0  0  0  0  0  0  0  0
  -33.9898   50.8759   52.6474 H   0  0  0  0  0  0  0  0  0  0  0  0
  -35.4619   51.7991   52.2092 H   0  0  0  0  0  0  0  0  0  0  0  0
  -35.4634   49.1852   53.6013 H   0  0  0  0  0  0  0  0  0  0  0  0
  -35.6992   49.4484   51.8545 H   0  0  0  0  0  0  0  0  0  0  0  0
  -37.6071   50.9107   52.4805 H   0  0  0  0  0  0  0  0  0  0  0  0
  -37.7893   49.1556   52.7290 H   0  0  0  0  0  0  0  0  0  0  0  0
  1 33  1  0  0  0  0
  1 34  1  0  0  0  0
  1 61  1  0  0  0  0
  2  4  1  0  0  0  0
  2 62  1  0  0  0  0
  2 63  1  0  0  0  0
  2 64  1  0  0  0  0
  3 33  2  0  0  0  0
  4  7  1  0  0  0  0
  4 65  1  0  0  0  0
  4 66  1  0  0  0  0
  5 38  1  0  0  0  0
  5 39  1  0  0  0  0
  5 67  1  0  0  0  0
  6 39  2  0  0  0  0
  7 10  1  0  0  0  0
  7 68  1  0  0  0  0
  7 69  1  0  0  0  0
  8 40  1  0  0  0  0
  8 43  2  0  0  0  0
  9 42  1  0  0  0  0
  9 43  1  0  0  0  0
 10 13  1  0  0  0  0
 10 70  1  0  0  0  0
 10 71  1  0  0  0  0
 11 54  1  0  0  0  0
 11 55  1  0  0  0  0
 11 72  1  0  0  0  0
 12 49  1  0  0  0  0
 12 73  1  0  0  0  0
 13 16  1  0  0  0  0
 13 74  1  0  0  0  0
 13 75  1  0  0  0  0
 14 59  1  0  0  0  0
 14 60  1  0  0  0  0
 14 76  1  0  0  0  0
 15 50  2  0  0  0  0
 16 18  1  0  0  0  0
 16 77  1  0  0  0  0
 16 78  1  0  0  0  0
 17 50  1  0  0  0  0
 17 51  1  0  0  0  0
 18 20  1  0  0  0  0
 18 79  1  0  0  0  0
 18 80  1  0  0  0  0
 19 54  2  0  0  0  0
 20 22  1  0  0  0  0
 20 81  1  0  0  0  0
 20 82  1  0  0  0  0
 21 60  2  0  0  0  0
 22 23  1  0  0  0  0
 22 83  1  0  0  0  0
 22 84  1  0  0  0  0
 23 24  1  0  0  0  0
 23 85  1  0  0  0  0
 23 86  1  0  0  0  0
 24 25  1  0  0  0  0
 24 87  1  0  0  0  0
 24 88  1  0  0  0  0
 25 26  1  0  0  0  0
 25 89  1  0  0  0  0
 25 90  1  0  0  0  0
 26 27  1  0  0  0  0
 26 91  1  0  0  0  0
 26 92  1  0  0  0  0
 27 28  1  0  0  0  0
 27 93  1  0  0  0  0
 27 94  1  0  0  0  0
 28 29  1  0  0  0  0
 28 95  1  0  0  0  0
 28 96  1  0  0  0  0
 29 30  1  0  0  0  0
 29 97  1  0  0  0  0
 29 98  1  0  0  0  0
 30 31  1  0  0  0  0
 30 99  1  0  0  0  0
 30100  1  0  0  0  0
 31 32  2  0  0  0  0
 31101  1  0  0  0  0
 32 33  1  0  0  0  0
 32102  1  0  0  0  0
 34 35  1  0  0  0  0
 34103  1  0  0  0  0
 34104  1  0  0  0  0
 35 36  1  0  0  0  0
 35105  1  0  0  0  0
 35106  1  0  0  0  0
 36 37  1  0  0  0  0
 36107  1  0  0  0  0
 36108  1  0  0  0  0
 37 38  1  0  0  0  0
 37109  1  0  0  0  0
 37110  1  0  0  0  0
 38 50  1  0  0  0  0
 38111  1  1  0  0  0
 40 39  1  1  0  0  0
 40 41  1  0  0  0  0
 40 42  1  0  0  0  0
 41112  1  0  0  0  0
 41113  1  0  0  0  0
 41114  1  0  0  0  0
 42115  1  0  0  0  0
 42116  1  0  0  0  0
 43 44  1  0  0  0  0
 44 45  2  0  0  0  0
 44 49  1  0  0  0  0
 45 46  1  0  0  0  0
 45117  1  0  0  0  0
 46 47  2  0  0  0  0
 46118  1  0  0  0  0
 47 48  1  0  0  0  0
 47119  1  0  0  0  0
 48 49  2  0  0  0  0
 48120  1  0  0  0  0
 51 52  1  0  0  0  0
 51 53  1  0  0  0  0
 51121  1  1  0  0  0
 52122  1  0  0  0  0
 52123  1  0  0  0  0
 52124  1  0  0  0  0
 53 54  1  0  0  0  0
 53125  1  0  0  0  0
 53126  1  0  0  0  0
 55 56  1  0  0  0  0
 55 60  1  0  0  0  0
 55127  1  6  0  0  0
 56 57  1  0  0  0  0
 56128  1  0  0  0  0
 56129  1  0  0  0  0
 57 58  1  0  0  0  0
 57130  1  0  0  0  0
 57131  1  0  0  0  0
 58 59  1  0  0  0  0
 58132  1  0  0  0  0
 58133  1  0  0  0  0
 59134  1  0  0  0  0
 59135  1  0  0  0  0
M  END
$$$$
/media/chris/experiments/cd1a-new-docking/inputs/ligands/7ryo_ligand.pdb
 OpenBabel07032304133D

135137  0  0  1  0  0  0  0  0999 V2000
  -37.9843   59.6092   60.1567 N   0  0  0  0  0  0  0  0  0  0  0  0
  -30.3513   52.9596   53.7619 C   0  0  0  0  0  0  0  0  0  0  0  0
  -40.0184   60.5836   60.2387 O   0  0  0  0  0  0  0  0  0  0  0  0
  -30.8470   52.2453   54.9917 C   0  0  0  0  0  0  0  0  0  0  0  0
  -35.3848   55.2330   62.7177 N   0  0  0  0  0  0  0  0  0  0  0  0
  -37.1877   56.1448   61.7319 O   0  0  0  0  0  0  0  0  0  0  0  0
  -31.1339   53.1803   56.1525 C   0  0  0  0  0  0  0  0  0  0  0  0
  -38.3372   53.5020   62.1721 N   0  0  0  0  0  0  0  0  0  0  0  0
  -38.5651   53.0768   59.9697 O   0  0  0  0  0  0  0  0  0  0  0  0
  -32.2024   54.2242   55.8701 C   0  0  0  0  0  0  0  0  0  0  0  0
  -39.2456   57.0338   64.8350 N   0  0  0  0  0  0  0  0  0  0  0  0
  -40.2714   52.2120   63.6752 O   0  0  0  0  0  0  0  0  0  0  0  0
  -33.5603   53.6248   55.5314 C   0  0  0  0  0  0  0  0  0  0  0  0
  -41.6378   54.3998   64.1768 N   0  0  0  0  0  0  0  0  0  0  0  0
  -36.1056   56.6655   65.2470 O   0  0  0  0  0  0  0  0  0  0  0  0
  -34.1509   52.7690   56.6413 C   0  0  0  0  0  0  0  0  0  0  0  0
  -36.2688   58.3271   63.7327 O   0  0  0  0  0  0  0  0  0  0  0  0
  -35.4980   52.1537   56.3043 C   0  0  0  0  0  0  0  0  0  0  0  0
  -39.5842   59.1471   64.1415 O   0  0  0  0  0  0  0  0  0  0  0  0
  -36.5806   53.1688   55.9757 C   0  0  0  0  0  0  0  0  0  0  0  0
  -39.4934   54.3933   64.8342 O   0  0  0  0  0  0  0  0  0  0  0  0
  -37.9198   52.5329   55.6593 C   0  0  0  0  0  0  0  0  0  0  0  0
  -38.9870   53.5545   55.3165 C   0  0  0  0  0  0  0  0  0  0  0  0
  -39.2625   54.5631   56.4136 C   0  0  0  0  0  0  0  0  0  0  0  0
  -40.3451   55.5594   56.0476 C   0  0  0  0  0  0  0  0  0  0  0  0
  -40.6176   56.5862   57.1344 C   0  0  0  0  0  0  0  0  0  0  0  0
  -41.7129   57.5719   56.7734 C   0  0  0  0  0  0  0  0  0  0  0  0
  -41.9906   58.6187   57.8394 C   0  0  0  0  0  0  0  0  0  0  0  0
  -40.7924   59.4970   58.1556 C   0  0  0  0  0  0  0  0  0  0  0  0
  -40.2838   60.2970   56.9626 C   0  0  0  0  0  0  0  0  0  0  0  0
  -39.0943   61.1317   57.3216 C   0  0  0  0  0  0  0  0  0  0  0  0
  -38.4935   61.2251   58.5001 C   0  0  0  0  0  0  0  0  0  0  0  0
  -38.8996   60.4762   59.7103 C   0  0  0  0  0  0  0  0  0  0  0  0
  -38.2360   58.7337   61.2903 C   0  0  0  0  0  0  0  0  0  0  0  0
  -36.9560   58.4330   62.0390 C   0  0  0  0  0  0  0  0  0  0  0  0
  -35.8780   57.7610   61.2090 C   0  0  0  0  0  0  0  0  0  0  0  0
  -34.6110   57.4590   62.0020 C   0  0  0  0  0  0  0  0  0  0  0  0
  -34.8704   56.5130   63.1754 C   0  0  1  0  0  0  0  0  0  0  0  0
  -36.5221   55.1618   62.0217 C   0  0  0  0  0  0  0  0  0  0  0  0
  -37.0085   53.7669   61.5957 C   0  0  1  0  0  0  0  0  0  0  0  0
  -36.0249   52.7217   62.1132 C   0  0  0  0  0  0  0  0  0  0  0  0
  -37.2316   53.6358   60.0818 C   0  0  0  0  0  0  0  0  0  0  0  0
  -39.0939   53.1427   61.2194 C   0  0  0  0  0  0  0  0  0  0  0  0
  -40.5081   52.7773   61.3300 C   0  0  0  0  0  0  0  0  0  0  0  0
  -41.3771   53.0085   60.2630 C   0  0  0  0  0  0  0  0  0  0  0  0
  -42.7461   52.8978   60.4355 C   0  0  0  0  0  0  0  0  0  0  0  0
  -43.2692   52.5574   61.6639 C   0  0  0  0  0  0  0  0  0  0  0  0
  -42.4299   52.3274   62.7388 C   0  0  0  0  0  0  0  0  0  0  0  0
  -41.0513   52.4358   62.5857 C   0  0  0  0  0  0  0  0  0  0  0  0
  -35.8061   57.1511   64.1912 C   0  0  0  0  0  0  0  0  0  0  0  0
  -36.6237   59.3595   64.7114 C   0  0  2  0  0  0  0  0  0  0  0  0
  -35.3856   59.7000   65.5018 C   0  0  0  0  0  0  0  0  0  0  0  0
  -37.7091   58.7466   65.5749 C   0  0  0  0  0  0  0  0  0  0  0  0
  -38.9284   58.3307   64.7825 C   0  0  0  0  0  0  0  0  0  0  0  0
  -40.3973   56.4966   64.1315 C   0  0  1  0  0  0  0  0  0  0  0  0
  -40.2490   56.7289   62.6237 C   0  0  0  0  0  0  0  0  0  0  0  0
  -41.5629   56.6231   61.8570 C   0  0  0  0  0  0  0  0  0  0  0  0
  -42.2463   55.2715   61.9188 C   0  0  0  0  0  0  0  0  0  0  0  0
  -42.7077   54.8728   63.3050 C   0  0  0  0  0  0  0  0  0  0  0  0
  -40.4707   55.0038   64.4111 C   0  0  0  0  0  0  0  0  0  0  0  0
  -37.1118   59.5621   59.7031 H   0  0  0  0  0  0  0  0  0  0  0  0
  -30.1689   52.2471   52.9847 H   0  0  0  0  0  0  0  0  0  0  0  0
  -29.4433   53.4771   53.9916 H   0  0  0  0  0  0  0  0  0  0  0  0
  -31.0895   53.6621   53.4356 H   0  0  0  0  0  0  0  0  0  0  0  0
  -30.1025   51.5407   55.2988 H   0  0  0  0  0  0  0  0  0  0  0  0
  -31.7692   51.7688   54.7322 H   0  0  0  0  0  0  0  0  0  0  0  0
  -34.8884   54.4081   62.9233 H   0  0  0  0  0  0  0  0  0  0  0  0
  -30.2271   53.6894   56.4039 H   0  0  0  0  0  0  0  0  0  0  0  0
  -31.5059   52.5713   56.9497 H   0  0  0  0  0  0  0  0  0  0  0  0
  -31.8808   54.8235   55.0441 H   0  0  0  0  0  0  0  0  0  0  0  0
  -32.3255   54.7993   56.7640 H   0  0  0  0  0  0  0  0  0  0  0  0
  -38.6827   56.4249   65.3656 H   0  0  0  0  0  0  0  0  0  0  0  0
  -39.3393   52.2771   63.6054 H   0  0  0  0  0  0  0  0  0  0  0  0
  -33.4514   53.0159   54.6584 H   0  0  0  0  0  0  0  0  0  0  0  0
  -34.2321   54.4438   55.3802 H   0  0  0  0  0  0  0  0  0  0  0  0
  -41.7929   53.5455   64.6410 H   0  0  0  0  0  0  0  0  0  0  0  0
  -34.2702   53.3820   57.5102 H   0  0  0  0  0  0  0  0  0  0  0  0
  -33.4724   51.9564   56.7967 H   0  0  0  0  0  0  0  0  0  0  0  0
  -35.8230   51.5763   57.1444 H   0  0  0  0  0  0  0  0  0  0  0  0
  -35.3545   51.5610   55.4251 H   0  0  0  0  0  0  0  0  0  0  0  0
  -36.2658   53.7388   55.1266 H   0  0  0  0  0  0  0  0  0  0  0  0
  -36.7163   53.7807   56.8429 H   0  0  0  0  0  0  0  0  0  0  0  0
  -38.2430   51.9734   56.5122 H   0  0  0  0  0  0  0  0  0  0  0  0
  -37.7854   51.9063   54.8024 H   0  0  0  0  0  0  0  0  0  0  0  0
  -39.8964   53.0311   55.1068 H   0  0  0  0  0  0  0  0  0  0  0  0
  -38.6218   54.1082   54.4769 H   0  0  0  0  0  0  0  0  0  0  0  0
  -38.3598   55.1004   56.6167 H   0  0  0  0  0  0  0  0  0  0  0  0
  -39.6058   54.0187   57.2685 H   0  0  0  0  0  0  0  0  0  0  0  0
  -41.2498   55.0212   55.8559 H   0  0  0  0  0  0  0  0  0  0  0  0
  -40.0014   56.0954   55.1877 H   0  0  0  0  0  0  0  0  0  0  0  0
  -39.7164   57.1331   57.3175 H   0  0  0  0  0  0  0  0  0  0  0  0
  -40.9489   56.0497   57.9989 H   0  0  0  0  0  0  0  0  0  0  0  0
  -42.6146   57.0222   56.6010 H   0  0  0  0  0  0  0  0  0  0  0  0
  -41.3749   58.1005   55.9066 H   0  0  0  0  0  0  0  0  0  0  0  0
  -42.2886   58.1173   58.7364 H   0  0  0  0  0  0  0  0  0  0  0  0
  -42.7575   59.2597   57.4575 H   0  0  0  0  0  0  0  0  0  0  0  0
  -39.9982   58.8710   58.5052 H   0  0  0  0  0  0  0  0  0  0  0  0
  -41.1108   60.2048   58.8923 H   0  0  0  0  0  0  0  0  0  0  0  0
  -41.0665   60.9395   56.6169 H   0  0  0  0  0  0  0  0  0  0  0  0
  -39.9889   59.6070   56.1998 H   0  0  0  0  0  0  0  0  0  0  0  0
  -38.6938   61.7027   56.5610 H   0  0  0  0  0  0  0  0  0  0  0  0
  -37.6870   61.8642   58.5788 H   0  0  0  0  0  0  0  0  0  0  0  0
  -38.6582   57.8163   60.9368 H   0  0  0  0  0  0  0  0  0  0  0  0
  -38.9129   59.2259   61.9570 H   0  0  0  0  0  0  0  0  0  0  0  0
  -37.1937   57.7896   62.8603 H   0  0  0  0  0  0  0  0  0  0  0  0
  -36.5565   59.3772   62.3453 H   0  0  0  0  0  0  0  0  0  0  0  0
  -35.6238   58.4067   60.3945 H   0  0  0  0  0  0  0  0  0  0  0  0
  -36.2729   56.8255   60.8717 H   0  0  0  0  0  0  0  0  0  0  0  0
  -34.2161   58.3779   62.3821 H   0  0  0  0  0  0  0  0  0  0  0  0
  -33.9192   56.9787   61.3420 H   0  0  0  0  0  0  0  0  0  0  0  0
  -33.9347   56.3288   63.6606 H   0  0  0  0  0  0  0  0  0  0  0  0
  -35.8959   52.8448   63.1683 H   0  0  0  0  0  0  0  0  0  0  0  0
  -35.0824   52.8447   61.6219 H   0  0  0  0  0  0  0  0  0  0  0  0
  -36.4066   51.7424   61.9125 H   0  0  0  0  0  0  0  0  0  0  0  0
  -37.1793   54.5926   59.6056 H   0  0  0  0  0  0  0  0  0  0  0  0
  -36.4895   53.0281   59.6077 H   0  0  0  0  0  0  0  0  0  0  0  0
  -40.9963   53.2639   59.3384 H   0  0  0  0  0  0  0  0  0  0  0  0
  -43.3789   53.0714   59.6390 H   0  0  0  0  0  0  0  0  0  0  0  0
  -44.2910   52.4737   61.7823 H   0  0  0  0  0  0  0  0  0  0  0  0
  -42.8273   52.0747   63.6571 H   0  0  0  0  0  0  0  0  0  0  0  0
  -36.9812   60.2677   64.2728 H   0  0  0  0  0  0  0  0  0  0  0  0
  -34.9979   58.8127   65.9571 H   0  0  0  0  0  0  0  0  0  0  0  0
  -35.6321   60.4122   66.2615 H   0  0  0  0  0  0  0  0  0  0  0  0
  -34.6483   60.1168   64.8479 H   0  0  0  0  0  0  0  0  0  0  0  0
  -38.0080   59.4656   66.3088 H   0  0  0  0  0  0  0  0  0  0  0  0
  -37.3020   57.8645   66.0235 H   0  0  0  0  0  0  0  0  0  0  0  0
  -41.2890   56.9845   64.4659 H   0  0  0  0  0  0  0  0  0  0  0  0
  -39.5705   55.9989   62.2342 H   0  0  0  0  0  0  0  0  0  0  0  0
  -39.8901   57.7286   62.4943 H   0  0  0  0  0  0  0  0  0  0  0  0
  -41.3639   56.8455   60.8294 H   0  0  0  0  0  0  0  0  0  0  0  0
  -42.2331   57.3134   62.3252 H   0  0  0  0  0  0  0  0  0  0  0  0
  -41.5581   54.5310   61.5682 H   0  0  0  0  0  0  0  0  0  0  0  0
  -43.1239   55.3423   61.3108 H   0  0  0  0  0  0  0  0  0  0  0  0
  -43.1640   55.7244   63.7649 H   0  0  0  0  0  0  0  0  0  0  0  0
  -43.3875   54.0560   63.1804 H   0  0  0  0  0  0  0  0  0  0  0  0
  1 33  1  0  0  0  0
  1 34  1  0  0  0  0
  1 61  1  0  0  0  0
  2  4  1  0  0  0  0
  2 62  1  0  0  0  0
  2 63  1  0  0  0  0
  2 64  1  0  0  0  0
  3 33  2  0  0  0  0
  4  7  1  0  0  0  0
  4 65  1  0  0  0  0
  4 66  1  0  0  0  0
  5 38  1  0  0  0  0
  5 39  1  0  0  0  0
  5 67  1  0  0  0  0
  6 39  2  0  0  0  0
  7 10  1  0  0  0  0
  7 68  1  0  0  0  0
  7 69  1  0  0  0  0
  8 40  1  0  0  0  0
  8 43  2  0  0  0  0
  9 42  1  0  0  0  0
  9 43  1  0  0  0  0
 10 13  1  0  0  0  0
 10 70  1  0  0  0  0
 10 71  1  0  0  0  0
 11 54  1  0  0  0  0
 11 55  1  0  0  0  0
 11 72  1  0  0  0  0
 12 49  1  0  0  0  0
 12 73  1  0  0  0  0
 13 16  1  0  0  0  0
 13 74  1  0  0  0  0
 13 75  1  0  0  0  0
 14 59  1  0  0  0  0
 14 60  1  0  0  0  0
 14 76  1  0  0  0  0
 15 50  2  0  0  0  0
 16 18  1  0  0  0  0
 16 77  1  0  0  0  0
 16 78  1  0  0  0  0
 17 50  1  0  0  0  0
 17 51  1  0  0  0  0
 18 20  1  0  0  0  0
 18 79  1  0  0  0  0
 18 80  1  0  0  0  0
 19 54  2  0  0  0  0
 20 22  1  0  0  0  0
 20 81  1  0  0  0  0
 20 82  1  0  0  0  0
 21 60  2  0  0  0  0
 22 23  1  0  0  0  0
 22 83  1  0  0  0  0
 22 84  1  0  0  0  0
 23 24  1  0  0  0  0
 23 85  1  0  0  0  0
 23 86  1  0  0  0  0
 24 25  1  0  0  0  0
 24 87  1  0  0  0  0
 24 88  1  0  0  0  0
 25 26  1  0  0  0  0
 25 89  1  0  0  0  0
 25 90  1  0  0  0  0
 26 27  1  0  0  0  0
 26 91  1  0  0  0  0
 26 92  1  0  0  0  0
 27 28  1  0  0  0  0
 27 93  1  0  0  0  0
 27 94  1  0  0  0  0
 28 29  1  0  0  0  0
 28 95  1  0  0  0  0
 28 96  1  0  0  0  0
 29 30  1  0  0  0  0
 29 97  1  0  0  0  0
 29 98  1  0  0  0  0
 30 31  1  0  0  0  0
 30 99  1  0  0  0  0
 30100  1  0  0  0  0
 31 32  2  0  0  0  0
 31101  1  0  0  0  0
 32 33  1  0  0  0  0
 32102  1  0  0  0  0
 34 35  1  0  0  0  0
 34103  1  0  0  0  0
 34104  1  0  0  0  0
 35 36  1  0  0  0  0
 35105  1  0  0  0  0
 35106  1  0  0  0  0
 36 37  1  0  0  0  0
 36107  1  0  0  0  0
 36108  1  0  0  0  0
 37 38  1  0  0  0  0
 37109  1  0  0  0  0
 37110  1  0  0  0  0
 38 50  1  0  0  0  0
 38111  1  1  0  0  0
 40 39  1  1  0  0  0
 40 41  1  0  0  0  0
 40 42  1  0  0  0  0
 41112  1  0  0  0  0
 41113  1  0  0  0  0
 41114  1  0  0  0  0
 42115  1  0  0  0  0
 42116  1  0  0  0  0
 43 44  1  0  0  0  0
 44 45  2  0  0  0  0
 44 49  1  0  0  0  0
 45 46  1  0  0  0  0
 45117  1  0  0  0  0
 46 47  2  0  0  0  0
 46118  1  0  0  0  0
 47 48  1  0  0  0  0
 47119  1  0  0  0  0
 48 49  2  0  0  0  0
 48120  1  0  0  0  0
 51 52  1  0  0  0  0
 51 53  1  0  0  0  0
 51121  1  6  0  0  0
 52122  1  0  0  0  0
 52123  1  0  0  0  0
 52124  1  0  0  0  0
 53 54  1  0  0  0  0
 53125  1  0  0  0  0
 53126  1  0  0  0  0
 55 56  1  0  0  0  0
 55 60  1  0  0  0  0
 55127  1  1  0  0  0
 56 57  1  0  0  0  0
 56128  1  0  0  0  0
 56129  1  0  0  0  0
 57 58  1  0  0  0  0
 57130  1  0  0  0  0
 57131  1  0  0  0  0
 58 59  1  0  0  0  0
 58132  1  0  0  0  0
 58133  1  0  0  0  0
 59134  1  0  0  0  0
 59135  1  0  0  0  0
M  END
$$$$
/media/chris/experiments/cd1a-new-docking/inputs/ligands/7ryo_ligand.pdb
 OpenBabel07032304133D

135137  0  0  1  0  0  0  0  0999 V2000
  -37.9573   56.3471   62.8329 N   0  0  0  0  0  0  0  0  0  0  0  0
  -40.6644   49.3344   60.5842 C   0  0  0  0  0  0  0  0  0  0  0  0
  -36.4560   55.1543   64.0234 O   0  0  0  0  0  0  0  0  0  0  0  0
  -40.4974   47.8396   60.6616 C   0  0  0  0  0  0  0  0  0  0  0  0
  -33.1324   57.6580   60.0424 N   0  0  0  0  0  0  0  0  0  0  0  0
  -31.4954   58.6525   61.2194 O   0  0  0  0  0  0  0  0  0  0  0  0
  -39.8831   47.2400   59.4097 C   0  0  0  0  0  0  0  0  0  0  0  0
  -30.3491   59.7390   58.9825 N   0  0  0  0  0  0  0  0  0  0  0  0
  -30.7522   58.9355   56.9149 O   0  0  0  0  0  0  0  0  0  0  0  0
  -38.4907   47.7556   59.0832 C   0  0  0  0  0  0  0  0  0  0  0  0
  -33.1206   52.2795   58.5188 N   0  0  0  0  0  0  0  0  0  0  0  0
  -29.1978   60.2272   55.1563 O   0  0  0  0  0  0  0  0  0  0  0  0
  -37.4674   47.4683   60.1734 C   0  0  0  0  0  0  0  0  0  0  0  0
  -33.3143   54.4401   55.6226 N   0  0  0  0  0  0  0  0  0  0  0  0
  -34.8171   54.7521   61.1807 O   0  0  0  0  0  0  0  0  0  0  0  0
  -36.0741   47.9944   59.8655 C   0  0  0  0  0  0  0  0  0  0  0  0
  -33.3336   55.1008   59.5200 O   0  0  0  0  0  0  0  0  0  0  0  0
  -35.0437   47.6968   60.9409 C   0  0  0  0  0  0  0  0  0  0  0  0
  -34.8294   51.6660   59.8475 O   0  0  0  0  0  0  0  0  0  0  0  0
  -35.3855   48.2718   62.3057 C   0  0  0  0  0  0  0  0  0  0  0  0
  -34.3038   52.4991   56.1555 O   0  0  0  0  0  0  0  0  0  0  0  0
  -34.3353   47.9770   63.3585 C   0  0  0  0  0  0  0  0  0  0  0  0
  -34.6956   48.5409   64.7194 C   0  0  0  0  0  0  0  0  0  0  0  0
  -33.6620   48.2818   65.7972 C   0  0  0  0  0  0  0  0  0  0  0  0
  -34.0586   48.8426   67.1488 C   0  0  0  0  0  0  0  0  0  0  0  0
  -34.2832   50.3457   67.1402 C   0  0  0  0  0  0  0  0  0  0  0  0
  -35.3921   50.7855   66.2028 C   0  0  0  0  0  0  0  0  0  0  0  0
  -35.6228   52.2870   66.1655 C   0  0  0  0  0  0  0  0  0  0  0  0
  -36.7475   52.7063   65.2347 C   0  0  0  0  0  0  0  0  0  0  0  0
  -36.5324   52.2923   63.7841 C   0  0  0  0  0  0  0  0  0  0  0  0
  -37.6582   52.7429   62.9065 C   0  0  0  0  0  0  0  0  0  0  0  0
  -38.0620   53.9850   62.6769 C   0  0  0  0  0  0  0  0  0  0  0  0
  -37.4329   55.1923   63.2575 C   0  0  0  0  0  0  0  0  0  0  0  0
  -37.4201   57.6362   63.2386 C   0  0  0  0  0  0  0  0  0  0  0  0
  -36.9560   58.4330   62.0390 C   0  0  0  0  0  0  0  0  0  0  0  0
  -35.8780   57.7610   61.2090 C   0  0  0  0  0  0  0  0  0  0  0  0
  -34.6110   57.4590   62.0020 C   0  0  0  0  0  0  0  0  0  0  0  0
  -33.5311   56.7980   61.1441 C   0  0  1  0  0  0  0  0  0  0  0  0
  -32.1284   58.5272   60.1816 C   0  0  0  0  0  0  0  0  0  0  0  0
  -31.7856   59.4163   58.9749 C   0  0  1  0  0  0  0  0  0  0  0  0
  -32.5864   60.7113   59.0725 C   0  0  0  0  0  0  0  0  0  0  0  0
  -31.9984   58.7178   57.6238 C   0  0  0  0  0  0  0  0  0  0  0  0
  -29.8925   59.4422   57.8367 C   0  0  0  0  0  0  0  0  0  0  0  0
  -28.5054   59.5984   57.3924 C   0  0  0  0  0  0  0  0  0  0  0  0
  -27.4605   59.5073   58.3128 C   0  0  0  0  0  0  0  0  0  0  0  0
  -26.1781   59.8906   57.9595 C   0  0  0  0  0  0  0  0  0  0  0  0
  -25.9162   60.3673   56.6935 C   0  0  0  0  0  0  0  0  0  0  0  0
  -26.9350   60.4718   55.7641 C   0  0  0  0  0  0  0  0  0  0  0  0
  -28.2309   60.0936   56.1010 C   0  0  0  0  0  0  0  0  0  0  0  0
  -33.9929   55.4382   60.6419 C   0  0  0  0  0  0  0  0  0  0  0  0
  -34.1161   54.8618   58.3033 C   0  0  2  0  0  0  0  0  0  0  0  0
  -34.8537   56.1325   57.9645 C   0  0  0  0  0  0  0  0  0  0  0  0
  -35.0566   53.7214   58.6412 C   0  0  0  0  0  0  0  0  0  0  0  0
  -34.3303   52.4613   59.0562 C   0  0  0  0  0  0  0  0  0  0  0  0
  -32.5393   53.2385   57.5957 C   0  0  1  0  0  0  0  0  0  0  0  0
  -31.1594   52.7560   57.1345 C   0  0  0  0  0  0  0  0  0  0  0  0
  -30.2904   53.8622   56.5460 C   0  0  0  0  0  0  0  0  0  0  0  0
  -30.8409   54.5309   55.3020 C   0  0  0  0  0  0  0  0  0  0  0  0
  -32.1322   55.2897   55.5257 C   0  0  0  0  0  0  0  0  0  0  0  0
  -33.4628   53.3608   56.3940 C   0  0  0  0  0  0  0  0  0  0  0  0
  -38.7321   56.3237   62.2260 H   0  0  0  0  0  0  0  0  0  0  0  0
  -41.1002   49.6922   61.4936 H   0  0  0  0  0  0  0  0  0  0  0  0
  -41.3034   49.5798   59.7618 H   0  0  0  0  0  0  0  0  0  0  0  0
  -39.7082   49.7933   60.4422 H   0  0  0  0  0  0  0  0  0  0  0  0
  -41.4599   47.3974   60.8133 H   0  0  0  0  0  0  0  0  0  0  0  0
  -39.8290   47.6362   61.4721 H   0  0  0  0  0  0  0  0  0  0  0  0
  -33.6085   57.5990   59.1827 H   0  0  0  0  0  0  0  0  0  0  0  0
  -40.5246   47.4627   58.5828 H   0  0  0  0  0  0  0  0  0  0  0  0
  -39.7847   46.1901   59.5912 H   0  0  0  0  0  0  0  0  0  0  0  0
  -38.5461   48.8146   58.9409 H   0  0  0  0  0  0  0  0  0  0  0  0
  -38.1640   47.2449   58.2015 H   0  0  0  0  0  0  0  0  0  0  0  0
  -32.6086   51.4726   58.7553 H   0  0  0  0  0  0  0  0  0  0  0  0
  -30.0807   59.9814   55.3515 H   0  0  0  0  0  0  0  0  0  0  0  0
  -37.4055   46.4084   60.3063 H   0  0  0  0  0  0  0  0  0  0  0  0
  -37.8025   47.9742   61.0547 H   0  0  0  0  0  0  0  0  0  0  0  0
  -34.0830   54.6888   55.0600 H   0  0  0  0  0  0  0  0  0  0  0  0
  -36.1355   49.0557   59.7443 H   0  0  0  0  0  0  0  0  0  0  0  0
  -35.7458   47.4937   58.9786 H   0  0  0  0  0  0  0  0  0  0  0  0
  -34.1054   48.1063   60.6295 H   0  0  0  0  0  0  0  0  0  0  0  0
  -35.0143   46.6332   61.0534 H   0  0  0  0  0  0  0  0  0  0  0  0
  -36.3162   47.8535   62.6275 H   0  0  0  0  0  0  0  0  0  0  0  0
  -35.4381   49.3351   62.1985 H   0  0  0  0  0  0  0  0  0  0  0  0
  -33.4066   48.4062   63.0451 H   0  0  0  0  0  0  0  0  0  0  0  0
  -34.2667   46.9137   63.4573 H   0  0  0  0  0  0  0  0  0  0  0  0
  -35.6204   48.1013   65.0299 H   0  0  0  0  0  0  0  0  0  0  0  0
  -34.7570   49.6028   64.6038 H   0  0  0  0  0  0  0  0  0  0  0  0
  -32.7387   48.7329   65.4990 H   0  0  0  0  0  0  0  0  0  0  0  0
  -33.5732   47.2211   65.9056 H   0  0  0  0  0  0  0  0  0  0  0  0
  -33.2805   48.6206   67.8490 H   0  0  0  0  0  0  0  0  0  0  0  0
  -34.9889   48.3873   67.4175 H   0  0  0  0  0  0  0  0  0  0  0  0
  -33.3744   50.8223   66.8372 H   0  0  0  0  0  0  0  0  0  0  0  0
  -34.5775   50.6260   68.1299 H   0  0  0  0  0  0  0  0  0  0  0  0
  -36.3008   50.3148   66.5151 H   0  0  0  0  0  0  0  0  0  0  0  0
  -35.0911   50.4978   65.2171 H   0  0  0  0  0  0  0  0  0  0  0  0
  -34.7200   52.7600   65.8397 H   0  0  0  0  0  0  0  0  0  0  0  0
  -35.9050   52.5858   67.1534 H   0  0  0  0  0  0  0  0  0  0  0  0
  -36.8363   53.7720   65.2718 H   0  0  0  0  0  0  0  0  0  0  0  0
  -37.6328   52.2093   65.5724 H   0  0  0  0  0  0  0  0  0  0  0  0
  -36.4600   51.2259   63.7350 H   0  0  0  0  0  0  0  0  0  0  0  0
  -35.6325   52.7545   63.4355 H   0  0  0  0  0  0  0  0  0  0  0  0
  -38.1829   51.9978   62.4223 H   0  0  0  0  0  0  0  0  0  0  0  0
  -38.8708   54.1191   62.0500 H   0  0  0  0  0  0  0  0  0  0  0  0
  -36.5906   57.4783   63.8958 H   0  0  0  0  0  0  0  0  0  0  0  0
  -38.1924   58.1861   63.7346 H   0  0  0  0  0  0  0  0  0  0  0  0
  -36.5724   59.3687   62.3887 H   0  0  0  0  0  0  0  0  0  0  0  0
  -37.8072   58.5391   61.3994 H   0  0  0  0  0  0  0  0  0  0  0  0
  -35.6238   58.4067   60.3945 H   0  0  0  0  0  0  0  0  0  0  0  0
  -36.2729   56.8255   60.8717 H   0  0  0  0  0  0  0  0  0  0  0  0
  -34.8590   56.8018   62.8091 H   0  0  0  0  0  0  0  0  0  0  0  0
  -34.2203   58.3886   62.3599 H   0  0  0  0  0  0  0  0  0  0  0  0
  -32.6704   56.6456   61.7612 H   0  0  0  0  0  0  0  0  0  0  0  0
  -32.4125   61.1673   60.0248 H   0  0  0  0  0  0  0  0  0  0  0  0
  -33.6288   60.4950   58.9657 H   0  0  0  0  0  0  0  0  0  0  0  0
  -32.2794   61.3799   58.2956 H   0  0  0  0  0  0  0  0  0  0  0  0
  -32.1802   57.6723   57.7608 H   0  0  0  0  0  0  0  0  0  0  0  0
  -32.8458   59.0986   57.0928 H   0  0  0  0  0  0  0  0  0  0  0  0
  -27.6450   59.1515   59.2637 H   0  0  0  0  0  0  0  0  0  0  0  0
  -25.4133   59.8188   58.6487 H   0  0  0  0  0  0  0  0  0  0  0  0
  -24.9564   60.6473   56.4379 H   0  0  0  0  0  0  0  0  0  0  0  0
  -26.7335   60.8314   54.8180 H   0  0  0  0  0  0  0  0  0  0  0  0
  -33.5236   54.6008   57.4514 H   0  0  0  0  0  0  0  0  0  0  0  0
  -35.4594   56.4259   58.7963 H   0  0  0  0  0  0  0  0  0  0  0  0
  -35.4767   55.9664   57.1106 H   0  0  0  0  0  0  0  0  0  0  0  0
  -34.1484   56.9070   57.7461 H   0  0  0  0  0  0  0  0  0  0  0  0
  -35.6524   53.5037   57.7795 H   0  0  0  0  0  0  0  0  0  0  0  0
  -35.6551   54.0345   59.4710 H   0  0  0  0  0  0  0  0  0  0  0  0
  -32.4254   54.1866   58.0786 H   0  0  0  0  0  0  0  0  0  0  0  0
  -31.2970   52.0011   56.3887 H   0  0  0  0  0  0  0  0  0  0  0  0
  -30.6514   52.3853   58.0003 H   0  0  0  0  0  0  0  0  0  0  0  0
  -29.3393   53.4385   56.2994 H   0  0  0  0  0  0  0  0  0  0  0  0
  -30.2408   54.6264   57.2934 H   0  0  0  0  0  0  0  0  0  0  0  0
  -31.0188   53.7753   54.5656 H   0  0  0  0  0  0  0  0  0  0  0  0
  -30.1117   55.2493   54.9906 H   0  0  0  0  0  0  0  0  0  0  0  0
  -32.0421   55.8449   56.4359 H   0  0  0  0  0  0  0  0  0  0  0  0
  -32.2729   55.9172   54.6705 H   0  0  0  0  0  0  0  0  0  0  0  0
  1 33  1  0  0  0  0
  1 34  1  0  0  0  0
  1 61  1  0  0  0  0
  2  4  1  0  0  0  0
  2 62  1  0  0  0  0
  2 63  1  0  0  0  0
  2 64  1  0  0  0  0
  3 33  2  0  0  0  0
  4  7  1  0  0  0  0
  4 65  1  0  0  0  0
  4 66  1  0  0  0  0
  5 38  1  0  0  0  0
  5 39  1  0  0  0  0
  5 67  1  0  0  0  0
  6 39  2  0  0  0  0
  7 10  1  0  0  0  0
  7 68  1  0  0  0  0
  7 69  1  0  0  0  0
  8 40  1  0  0  0  0
  8 43  2  0  0  0  0
  9 42  1  0  0  0  0
  9 43  1  0  0  0  0
 10 13  1  0  0  0  0
 10 70  1  0  0  0  0
 10 71  1  0  0  0  0
 11 54  1  0  0  0  0
 11 55  1  0  0  0  0
 11 72  1  0  0  0  0
 12 49  1  0  0  0  0
 12 73  1  0  0  0  0
 13 16  1  0  0  0  0
 13 74  1  0  0  0  0
 13 75  1  0  0  0  0
 14 59  1  0  0  0  0
 14 60  1  0  0  0  0
 14 76  1  0  0  0  0
 15 50  2  0  0  0  0
 16 18  1  0  0  0  0
 16 77  1  0  0  0  0
 16 78  1  0  0  0  0
 17 50  1  0  0  0  0
 17 51  1  0  0  0  0
 18 20  1  0  0  0  0
 18 79  1  0  0  0  0
 18 80  1  0  0  0  0
 19 54  2  0  0  0  0
 20 22  1  0  0  0  0
 20 81  1  0  0  0  0
 20 82  1  0  0  0  0
 21 60  2  0  0  0  0
 22 23  1  0  0  0  0
 22 83  1  0  0  0  0
 22 84  1  0  0  0  0
 23 24  1  0  0  0  0
 23 85  1  0  0  0  0
 23 86  1  0  0  0  0
 24 25  1  0  0  0  0
 24 87  1  0  0  0  0
 24 88  1  0  0  0  0
 25 26  1  0  0  0  0
 25 89  1  0  0  0  0
 25 90  1  0  0  0  0
 26 27  1  0  0  0  0
 26 91  1  0  0  0  0
 26 92  1  0  0  0  0
 27 28  1  0  0  0  0
 27 93  1  0  0  0  0
 27 94  1  0  0  0  0
 28 29  1  0  0  0  0
 28 95  1  0  0  0  0
 28 96  1  0  0  0  0
 29 30  1  0  0  0  0
 29 97  1  0  0  0  0
 29 98  1  0  0  0  0
 30 31  1  0  0  0  0
 30 99  1  0  0  0  0
 30100  1  0  0  0  0
 31 32  2  0  0  0  0
 31101  1  0  0  0  0
 32 33  1  0  0  0  0
 32102  1  0  0  0  0
 34 35  1  0  0  0  0
 34103  1  0  0  0  0
 34104  1  0  0  0  0
 35 36  1  0  0  0  0
 35105  1  0  0  0  0
 35106  1  0  0  0  0
 36 37  1  0  0  0  0
 36107  1  0  0  0  0
 36108  1  0  0  0  0
 37 38  1  0  0  0  0
 37109  1  0  0  0  0
 37110  1  0  0  0  0
 38 50  1  0  0  0  0
 38111  1  1  0  0  0
 40 39  1  1  0  0  0
 40 41  1  0  0  0  0
 40 42  1  0  0  0  0
 41112  1  0  0  0  0
 41113  1  0  0  0  0
 41114  1  0  0  0  0
 42115  1  0  0  0  0
 42116  1  0  0  0  0
 43 44  1  0  0  0  0
 44 45  2  0  0  0  0
 44 49  1  0  0  0  0
 45 46  1  0  0  0  0
 45117  1  0  0  0  0
 46 47  2  0  0  0  0
 46118  1  0  0  0  0
 47 48  1  0  0  0  0
 47119  1  0  0  0  0
 48 49  2  0  0  0  0
 48120  1  0  0  0  0
 51 52  1  0  0  0  0
 51 53  1  0  0  0  0
 51121  1  6  0  0  0
 52122  1  0  0  0  0
 52123  1  0  0  0  0
 52124  1  0  0  0  0
 53 54  1  0  0  0  0
 53125  1  0  0  0  0
 53126  1  0  0  0  0
 55 56  1  0  0  0  0
 55 60  1  0  0  0  0
 55127  1  1  0  0  0
 56 57  1  0  0  0  0
 56128  1  0  0  0  0
 56129  1  0  0  0  0
 57 58  1  0  0  0  0
 57130  1  0  0  0  0
 57131  1  0  0  0  0
 58 59  1  0  0  0  0
 58132  1  0  0  0  0
 58133  1  0  0  0  0
 59134  1  0  0  0  0
 59135  1  0  0  0  0
M  END
$$$$
/media/chris/experiments/cd1a-new-docking/inputs/ligands/7ryo_ligand.pdb
 OpenBabel07032304133D

135137  0  0  1  0  0  0  0  0999 V2000
  -37.9843   59.6092   60.1567 N   0  0  0  0  0  0  0  0  0  0  0  0
  -24.2699   65.4295   48.8102 C   0  0  0  0  0  0  0  0  0  0  0  0
  -37.1331   61.2779   61.4155 O   0  0  0  0  0  0  0  0  0  0  0  0
  -24.8537   66.0274   50.0633 C   0  0  0  0  0  0  0  0  0  0  0  0
  -33.1324   57.6580   60.0424 N   0  0  0  0  0  0  0  0  0  0  0  0
  -35.2034   57.7505   59.1729 O   0  0  0  0  0  0  0  0  0  0  0  0
  -25.6680   65.0372   50.8760 C   0  0  0  0  0  0  0  0  0  0  0  0
  -32.4979   58.2313   57.2076 N   0  0  0  0  0  0  0  0  0  0  0  0
  -33.9877   58.9649   55.6827 O   0  0  0  0  0  0  0  0  0  0  0  0
  -26.2845   65.6165   52.1391 C   0  0  0  0  0  0  0  0  0  0  0  0
  -35.9449   53.6934   56.0210 N   0  0  0  0  0  0  0  0  0  0  0  0
  -32.6916   59.5842   53.4213 O   0  0  0  0  0  0  0  0  0  0  0  0
  -27.0816   64.6002   52.9452 C   0  0  0  0  0  0  0  0  0  0  0  0
  -35.2488   50.4942   54.4802 N   0  0  0  0  0  0  0  0  0  0  0  0
  -33.8850   54.4096   61.2508 O   0  0  0  0  0  0  0  0  0  0  0  0
  -28.2373   63.9752   52.1791 C   0  0  0  0  0  0  0  0  0  0  0  0
  -34.5209   55.5446   59.4101 O   0  0  0  0  0  0  0  0  0  0  0  0
  -29.0477   62.9725   52.9822 C   0  0  0  0  0  0  0  0  0  0  0  0
  -34.0989   54.6804   56.8456 O   0  0  0  0  0  0  0  0  0  0  0  0
  -29.7062   63.5556   54.2218 C   0  0  0  0  0  0  0  0  0  0  0  0
  -35.9588   51.0893   56.5228 O   0  0  0  0  0  0  0  0  0  0  0  0
  -30.4951   62.5335   55.0161 C   0  0  0  0  0  0  0  0  0  0  0  0
  -31.1612   63.1306   56.2408 C   0  0  0  0  0  0  0  0  0  0  0  0
  -30.2017   63.7637   57.2284 C   0  0  0  0  0  0  0  0  0  0  0  0
  -30.8958   64.3360   58.4488 C   0  0  0  0  0  0  0  0  0  0  0  0
  -31.9199   65.4088   58.1173 C   0  0  0  0  0  0  0  0  0  0  0  0
  -33.0481   64.9142   57.2318 C   0  0  0  0  0  0  0  0  0  0  0  0
  -33.8714   63.7885   57.8355 C   0  0  0  0  0  0  0  0  0  0  0  0
  -34.5606   64.1685   59.1346 C   0  0  0  0  0  0  0  0  0  0  0  0
  -35.3739   63.0381   59.7533 C   0  0  0  0  0  0  0  0  0  0  0  0
  -36.4467   62.5562   58.8273 C   0  0  0  0  0  0  0  0  0  0  0  0
  -37.3399   61.6008   59.0464 C   0  0  0  0  0  0  0  0  0  0  0  0
  -37.4477   60.8255   60.3025 C   0  0  0  0  0  0  0  0  0  0  0  0
  -38.2360   58.7337   61.2903 C   0  0  0  0  0  0  0  0  0  0  0  0
  -36.9560   58.4330   62.0390 C   0  0  0  0  0  0  0  0  0  0  0  0
  -35.8780   57.7610   61.2090 C   0  0  0  0  0  0  0  0  0  0  0  0
  -34.6110   57.4590   62.0020 C   0  0  0  0  0  0  0  0  0  0  0  0
  -33.5311   56.7980   61.1441 C   0  0  1  0  0  0  0  0  0  0  0  0
  -34.0234   58.0662   59.1357 C   0  0  0  0  0  0  0  0  0  0  0  0
  -33.5145   58.9550   57.9889 C   0  0  1  0  0  0  0  0  0  0  0  0
  -32.8843   60.2121   58.5810 C   0  0  0  0  0  0  0  0  0  0  0  0
  -34.5984   59.2961   56.9557 C   0  0  0  0  0  0  0  0  0  0  0  0
  -32.8468   58.2943   55.9895 C   0  0  0  0  0  0  0  0  0  0  0  0
  -32.1281   57.7119   54.8538 C   0  0  0  0  0  0  0  0  0  0  0  0
  -31.3620   56.5584   55.0265 C   0  0  0  0  0  0  0  0  0  0  0  0
  -30.4910   56.1389   54.0357 C   0  0  0  0  0  0  0  0  0  0  0  0
  -30.3690   56.8552   52.8649 C   0  0  0  0  0  0  0  0  0  0  0  0
  -31.1136   58.0044   52.6707 C   0  0  0  0  0  0  0  0  0  0  0  0
  -31.9928   58.4431   53.6558 C   0  0  0  0  0  0  0  0  0  0  0  0
  -33.9929   55.4382   60.6419 C   0  0  0  0  0  0  0  0  0  0  0  0
  -35.9156   55.1352   59.2178 C   0  0  2  0  0  0  0  0  0  0  0  0
  -36.0348   53.6834   59.6071 C   0  0  0  0  0  0  0  0  0  0  0  0
  -36.2084   55.3642   57.7477 C   0  0  0  0  0  0  0  0  0  0  0  0
  -35.3196   54.5484   56.8354 C   0  0  0  0  0  0  0  0  0  0  0  0
  -35.2176   52.8546   55.0845 C   0  0  1  0  0  0  0  0  0  0  0  0
  -33.7121   53.1181   55.2007 C   0  0  0  0  0  0  0  0  0  0  0  0
  -32.9141   52.6480   53.9893 C   0  0  0  0  0  0  0  0  0  0  0  0
  -32.9697   51.1591   53.7104 C   0  0  0  0  0  0  0  0  0  0  0  0
  -34.3472   50.6480   53.3435 C   0  0  0  0  0  0  0  0  0  0  0  0
  -35.5070   51.4012   55.4249 C   0  0  0  0  0  0  0  0  0  0  0  0
  -38.2165   59.2963   59.2526 H   0  0  0  0  0  0  0  0  0  0  0  0
  -23.7105   66.1760   48.2860 H   0  0  0  0  0  0  0  0  0  0  0  0
  -25.0602   65.0710   48.1844 H   0  0  0  0  0  0  0  0  0  0  0  0
  -23.6241   64.6169   49.0700 H   0  0  0  0  0  0  0  0  0  0  0  0
  -25.4881   66.8434   49.7870 H   0  0  0  0  0  0  0  0  0  0  0  0
  -24.0351   66.3436   50.6756 H   0  0  0  0  0  0  0  0  0  0  0  0
  -32.1934   57.9432   59.9638 H   0  0  0  0  0  0  0  0  0  0  0  0
  -25.0267   64.2282   51.1576 H   0  0  0  0  0  0  0  0  0  0  0  0
  -26.4816   64.7282   50.2537 H   0  0  0  0  0  0  0  0  0  0  0  0
  -26.9383   66.4166   51.8610 H   0  0  0  0  0  0  0  0  0  0  0  0
  -25.4787   65.9491   52.7596 H   0  0  0  0  0  0  0  0  0  0  0  0
  -36.9267   53.6301   56.0568 H   0  0  0  0  0  0  0  0  0  0  0  0
  -33.2919   59.9065   54.0646 H   0  0  0  0  0  0  0  0  0  0  0  0
  -27.4770   65.0913   53.8096 H   0  0  0  0  0  0  0  0  0  0  0  0
  -26.4094   63.8061   53.1950 H   0  0  0  0  0  0  0  0  0  0  0  0
  -35.7158   49.6310   54.5586 H   0  0  0  0  0  0  0  0  0  0  0  0
  -27.8393   63.4745   51.3213 H   0  0  0  0  0  0  0  0  0  0  0  0
  -28.9028   64.7728   51.9225 H   0  0  0  0  0  0  0  0  0  0  0  0
  -28.3950   62.1821   53.2889 H   0  0  0  0  0  0  0  0  0  0  0  0
  -29.8373   62.6335   52.3446 H   0  0  0  0  0  0  0  0  0  0  0  0
  -30.3711   64.3369   53.9179 H   0  0  0  0  0  0  0  0  0  0  0  0
  -28.9245   63.9170   54.8567 H   0  0  0  0  0  0  0  0  0  0  0  0
  -29.8293   61.7580   55.3326 H   0  0  0  0  0  0  0  0  0  0  0  0
  -31.2681   62.1564   54.3796 H   0  0  0  0  0  0  0  0  0  0  0  0
  -31.6950   62.3520   56.7447 H   0  0  0  0  0  0  0  0  0  0  0  0
  -31.7999   63.9141   55.8900 H   0  0  0  0  0  0  0  0  0  0  0  0
  -29.6761   64.5537   56.7339 H   0  0  0  0  0  0  0  0  0  0  0  0
  -29.5407   62.9943   57.5689 H   0  0  0  0  0  0  0  0  0  0  0  0
  -30.1541   64.7629   59.0910 H   0  0  0  0  0  0  0  0  0  0  0  0
  -31.4237   63.5313   58.9166 H   0  0  0  0  0  0  0  0  0  0  0  0
  -31.4204   66.2100   57.6138 H   0  0  0  0  0  0  0  0  0  0  0  0
  -32.3588   65.7219   59.0415 H   0  0  0  0  0  0  0  0  0  0  0  0
  -32.6244   64.5639   56.3139 H   0  0  0  0  0  0  0  0  0  0  0  0
  -33.7140   65.7404   57.0949 H   0  0  0  0  0  0  0  0  0  0  0  0
  -33.2223   62.9596   58.0267 H   0  0  0  0  0  0  0  0  0  0  0  0
  -34.6401   63.5491   57.1307 H   0  0  0  0  0  0  0  0  0  0  0  0
  -35.2183   64.9898   58.9398 H   0  0  0  0  0  0  0  0  0  0  0  0
  -33.7905   64.4174   59.8345 H   0  0  0  0  0  0  0  0  0  0  0  0
  -35.8277   63.3912   60.6556 H   0  0  0  0  0  0  0  0  0  0  0  0
  -34.7122   62.2208   59.9509 H   0  0  0  0  0  0  0  0  0  0  0  0
  -36.4973   63.0233   57.9085 H   0  0  0  0  0  0  0  0  0  0  0  0
  -38.0058   61.3828   58.2887 H   0  0  0  0  0  0  0  0  0  0  0  0
  -38.6582   57.8163   60.9368 H   0  0  0  0  0  0  0  0  0  0  0  0
  -38.9129   59.2259   61.9570 H   0  0  0  0  0  0  0  0  0  0  0  0
  -37.1937   57.7896   62.8603 H   0  0  0  0  0  0  0  0  0  0  0  0
  -36.5565   59.3772   62.3453 H   0  0  0  0  0  0  0  0  0  0  0  0
  -35.6238   58.4067   60.3945 H   0  0  0  0  0  0  0  0  0  0  0  0
  -36.2729   56.8255   60.8717 H   0  0  0  0  0  0  0  0  0  0  0  0
  -34.8590   56.8018   62.8091 H   0  0  0  0  0  0  0  0  0  0  0  0
  -34.2203   58.3886   62.3599 H   0  0  0  0  0  0  0  0  0  0  0  0
  -32.6704   56.6456   61.7612 H   0  0  0  0  0  0  0  0  0  0  0  0
  -32.1365   59.9342   59.2941 H   0  0  0  0  0  0  0  0  0  0  0  0
  -33.6395   60.7955   59.0650 H   0  0  0  0  0  0  0  0  0  0  0  0
  -32.4351   60.7880   57.7991 H   0  0  0  0  0  0  0  0  0  0  0  0
  -35.4779   58.7091   57.1196 H   0  0  0  0  0  0  0  0  0  0  0  0
  -34.9103   60.3182   57.0088 H   0  0  0  0  0  0  0  0  0  0  0  0
  -31.4454   56.0140   55.8992 H   0  0  0  0  0  0  0  0  0  0  0  0
  -29.9295   55.2844   54.1748 H   0  0  0  0  0  0  0  0  0  0  0  0
  -29.7198   56.5329   52.1303 H   0  0  0  0  0  0  0  0  0  0  0  0
  -31.0167   58.5380   51.7927 H   0  0  0  0  0  0  0  0  0  0  0  0
  -36.6143   55.6833   59.8147 H   0  0  0  0  0  0  0  0  0  0  0  0
  -35.3481   53.1014   59.0286 H   0  0  0  0  0  0  0  0  0  0  0  0
  -37.0330   53.3453   59.4221 H   0  0  0  0  0  0  0  0  0  0  0  0
  -35.8079   53.5732   60.6470 H   0  0  0  0  0  0  0  0  0  0  0  0
  -36.0625   56.4012   57.5282 H   0  0  0  0  0  0  0  0  0  0  0  0
  -37.2179   55.0572   57.5702 H   0  0  0  0  0  0  0  0  0  0  0  0
  -35.5261   53.0734   54.0835 H   0  0  0  0  0  0  0  0  0  0  0  0
  -33.3452   52.6073   56.0663 H   0  0  0  0  0  0  0  0  0  0  0  0
  -33.5836   54.1782   55.2685 H   0  0  0  0  0  0  0  0  0  0  0  0
  -31.8900   52.9165   54.1445 H   0  0  0  0  0  0  0  0  0  0  0  0
  -33.3602   53.1231   53.1407 H   0  0  0  0  0  0  0  0  0  0  0  0
  -32.6420   50.6408   54.5873 H   0  0  0  0  0  0  0  0  0  0  0  0
  -32.3398   50.9807   52.8641 H   0  0  0  0  0  0  0  0  0  0  0  0
  -34.7890   51.3379   52.6552 H   0  0  0  0  0  0  0  0  0  0  0  0
  -34.2123   49.6733   52.9231 H   0  0  0  0  0  0  0  0  0  0  0  0
  1 33  1  0  0  0  0
  1 34  1  0  0  0  0
  1 61  1  0  0  0  0
  2  4  1  0  0  0  0
  2 62  1  0  0  0  0
  2 63  1  0  0  0  0
  2 64  1  0  0  0  0
  3 33  2  0  0  0  0
  4  7  1  0  0  0  0
  4 65  1  0  0  0  0
  4 66  1  0  0  0  0
  5 38  1  0  0  0  0
  5 39  1  0  0  0  0
  5 67  1  0  0  0  0
  6 39  2  0  0  0  0
  7 10  1  0  0  0  0
  7 68  1  0  0  0  0
  7 69  1  0  0  0  0
  8 40  1  0  0  0  0
  8 43  2  0  0  0  0
  9 42  1  0  0  0  0
  9 43  1  0  0  0  0
 10 13  1  0  0  0  0
 10 70  1  0  0  0  0
 10 71  1  0  0  0  0
 11 54  1  0  0  0  0
 11 55  1  0  0  0  0
 11 72  1  0  0  0  0
 12 49  1  0  0  0  0
 12 73  1  0  0  0  0
 13 16  1  0  0  0  0
 13 74  1  0  0  0  0
 13 75  1  0  0  0  0
 14 59  1  0  0  0  0
 14 60  1  0  0  0  0
 14 76  1  0  0  0  0
 15 50  2  0  0  0  0
 16 18  1  0  0  0  0
 16 77  1  0  0  0  0
 16 78  1  0  0  0  0
 17 50  1  0  0  0  0
 17 51  1  0  0  0  0
 18 20  1  0  0  0  0
 18 79  1  0  0  0  0
 18 80  1  0  0  0  0
 19 54  2  0  0  0  0
 20 22  1  0  0  0  0
 20 81  1  0  0  0  0
 20 82  1  0  0  0  0
 21 60  2  0  0  0  0
 22 23  1  0  0  0  0
 22 83  1  0  0  0  0
 22 84  1  0  0  0  0
 23 24  1  0  0  0  0
 23 85  1  0  0  0  0
 23 86  1  0  0  0  0
 24 25  1  0  0  0  0
 24 87  1  0  0  0  0
 24 88  1  0  0  0  0
 25 26  1  0  0  0  0
 25 89  1  0  0  0  0
 25 90  1  0  0  0  0
 26 27  1  0  0  0  0
 26 91  1  0  0  0  0
 26 92  1  0  0  0  0
 27 28  1  0  0  0  0
 27 93  1  0  0  0  0
 27 94  1  0  0  0  0
 28 29  1  0  0  0  0
 28 95  1  0  0  0  0
 28 96  1  0  0  0  0
 29 30  1  0  0  0  0
 29 97  1  0  0  0  0
 29 98  1  0  0  0  0
 30 31  1  0  0  0  0
 30 99  1  0  0  0  0
 30100  1  0  0  0  0
 31 32  2  0  0  0  0
 31101  1  0  0  0  0
 32 33  1  0  0  0  0
 32102  1  0  0  0  0
 34 35  1  0  0  0  0
 34103  1  0  0  0  0
 34104  1  0  0  0  0
 35 36  1  0  0  0  0
 35105  1  0  0  0  0
 35106  1  0  0  0  0
 36 37  1  0  0  0  0
 36107  1  0  0  0  0
 36108  1  0  0  0  0
 37 38  1  0  0  0  0
 37109  1  0  0  0  0
 37110  1  0  0  0  0
 38 50  1  0  0  0  0
 38111  1  1  0  0  0
 40 39  1  1  0  0  0
 40 41  1  0  0  0  0
 40 42  1  0  0  0  0
 41112  1  0  0  0  0
 41113  1  0  0  0  0
 41114  1  0  0  0  0
 42115  1  0  0  0  0
 42116  1  0  0  0  0
 43 44  1  0  0  0  0
 44 45  2  0  0  0  0
 44 49  1  0  0  0  0
 45 46  1  0  0  0  0
 45117  1  0  0  0  0
 46 47  2  0  0  0  0
 46118  1  0  0  0  0
 47 48  1  0  0  0  0
 47119  1  0  0  0  0
 48 49  2  0  0  0  0
 48120  1  0  0  0  0
 51 52  1  0  0  0  0
 51 53  1  0  0  0  0
 51121  1  1  0  0  0
 52122  1  0  0  0  0
 52123  1  0  0  0  0
 52124  1  0  0  0  0
 53 54  1  0  0  0  0
 53125  1  0  0  0  0
 53126  1  0  0  0  0
 55 56  1  0  0  0  0
 55 60  1  0  0  0  0
 55127  1  6  0  0  0
 56 57  1  0  0  0  0
 56128  1  0  0  0  0
 56129  1  0  0  0  0
 57 58  1  0  0  0  0
 57130  1  0  0  0  0
 57131  1  0  0  0  0
 58 59  1  0  0  0  0
 58132  1  0  0  0  0
 58133  1  0  0  0  0
 59134  1  0  0  0  0
 59135  1  0  0  0  0
M  END
$$$$
/media/chris/experiments/cd1a-new-docking/inputs/ligands/7ryo_ligand.pdb
 OpenBabel07032304133D

135137  0  0  1  0  0  0  0  0999 V2000
  -39.2043   59.3899   62.1545 N   0  0  0  0  0  0  0  0  0  0  0  0
  -40.1421   65.2073   59.9055 C   0  0  0  0  0  0  0  0  0  0  0  0
  -40.4946   59.3767   64.0061 O   0  0  0  0  0  0  0  0  0  0  0  0
  -39.2415   65.1168   61.1093 C   0  0  0  0  0  0  0  0  0  0  0  0
  -35.3848   55.2330   62.7177 N   0  0  0  0  0  0  0  0  0  0  0  0
  -35.3373   55.8241   60.5492 O   0  0  0  0  0  0  0  0  0  0  0  0
  -38.1272   66.1475   61.1023 C   0  0  0  0  0  0  0  0  0  0  0  0
  -37.4732   53.4392   61.6277 N   0  0  0  0  0  0  0  0  0  0  0  0
  -37.7727   53.0020   59.4363 O   0  0  0  0  0  0  0  0  0  0  0  0
  -37.1908   66.0698   62.2974 C   0  0  0  0  0  0  0  0  0  0  0  0
  -33.6498   60.7880   66.4178 N   0  0  0  0  0  0  0  0  0  0  0  0
  -40.1266   53.3088   58.5068 O   0  0  0  0  0  0  0  0  0  0  0  0
  -36.4635   64.7371   62.4115 C   0  0  0  0  0  0  0  0  0  0  0  0
  -32.0886   64.0301   66.7985 N   0  0  0  0  0  0  0  0  0  0  0  0
  -36.1056   56.6655   65.2470 O   0  0  0  0  0  0  0  0  0  0  0  0
  -37.3899   63.5382   62.5431 C   0  0  0  0  0  0  0  0  0  0  0  0
  -36.2688   58.3271   63.7327 O   0  0  0  0  0  0  0  0  0  0  0  0
  -38.3086   63.5900   63.7514 C   0  0  0  0  0  0  0  0  0  0  0  0
  -35.5619   60.5285   67.5745 O   0  0  0  0  0  0  0  0  0  0  0  0
  -39.2218   62.3830   63.8906 C   0  0  0  0  0  0  0  0  0  0  0  0
  -31.8498   62.3810   65.2972 O   0  0  0  0  0  0  0  0  0  0  0  0
  -40.1410   62.4645   65.0933 C   0  0  0  0  0  0  0  0  0  0  0  0
  -39.3839   62.5785   66.4025 C   0  0  0  0  0  0  0  0  0  0  0  0
  -40.2675   62.6456   67.6320 C   0  0  0  0  0  0  0  0  0  0  0  0
  -41.1381   61.4166   67.8067 C   0  0  0  0  0  0  0  0  0  0  0  0
  -40.3460   60.1295   67.9668 C   0  0  0  0  0  0  0  0  0  0  0  0
  -41.2188   58.8986   68.1245 C   0  0  0  0  0  0  0  0  0  0  0  0
  -40.4473   57.6017   68.3030 C   0  0  0  0  0  0  0  0  0  0  0  0
  -39.5176   57.2830   67.1449 C   0  0  0  0  0  0  0  0  0  0  0  0
  -40.2284   57.1512   65.8035 C   0  0  0  0  0  0  0  0  0  0  0  0
  -39.2726   56.8208   64.7000 C   0  0  0  0  0  0  0  0  0  0  0  0
  -39.0228   57.5242   63.6039 C   0  0  0  0  0  0  0  0  0  0  0  0
  -39.6580   58.8202   63.2762 C   0  0  0  0  0  0  0  0  0  0  0  0
  -38.2360   58.7337   61.2903 C   0  0  0  0  0  0  0  0  0  0  0  0
  -36.9560   58.4330   62.0390 C   0  0  0  0  0  0  0  0  0  0  0  0
  -35.8780   57.7610   61.2090 C   0  0  0  0  0  0  0  0  0  0  0  0
  -34.6110   57.4590   62.0020 C   0  0  0  0  0  0  0  0  0  0  0  0
  -34.8704   56.5130   63.1754 C   0  0  1  0  0  0  0  0  0  0  0  0
  -35.5764   54.9979   61.4173 C   0  0  0  0  0  0  0  0  0  0  0  0
  -36.1457   53.6262   61.0193 C   0  0  1  0  0  0  0  0  0  0  0  0
  -35.2076   52.5359   61.5283 C   0  0  0  0  0  0  0  0  0  0  0  0
  -36.4093   53.4903   59.5124 C   0  0  0  0  0  0  0  0  0  0  0  0
  -38.2692   53.1101   60.6963 C   0  0  0  0  0  0  0  0  0  0  0  0
  -39.6979   52.8220   60.8422 C   0  0  0  0  0  0  0  0  0  0  0  0
  -40.1878   52.2948   62.0378 C   0  0  0  0  0  0  0  0  0  0  0  0
  -41.4761   51.7935   62.1085 C   0  0  0  0  0  0  0  0  0  0  0  0
  -42.2926   51.8088   60.9987 C   0  0  0  0  0  0  0  0  0  0  0  0
  -41.8298   52.3216   59.8006 C   0  0  0  0  0  0  0  0  0  0  0  0
  -40.5372   52.8280   59.7091 C   0  0  0  0  0  0  0  0  0  0  0  0
  -35.8061   57.1511   64.1912 C   0  0  0  0  0  0  0  0  0  0  0  0
  -35.9836   59.5345   64.5141 C   0  0  2  0  0  0  0  0  0  0  0  0
  -35.1952   60.4798   63.6432 C   0  0  0  0  0  0  0  0  0  0  0  0
  -35.1916   59.0630   65.7182 C   0  0  0  0  0  0  0  0  0  0  0  0
  -34.8198   60.1889   66.6572 C   0  0  0  0  0  0  0  0  0  0  0  0
  -33.1716   61.8909   67.2330 C   0  0  1  0  0  0  0  0  0  0  0  0
  -32.3337   61.3582   68.4007 C   0  0  0  0  0  0  0  0  0  0  0  0
  -32.1709   62.3569   69.5415 C   0  0  0  0  0  0  0  0  0  0  0  0
  -31.4582   63.6456   69.1826 C   0  0  0  0  0  0  0  0  0  0  0  0
  -32.1958   64.5022   68.1749 C   0  0  0  0  0  0  0  0  0  0  0  0
  -32.3116   62.7897   66.3586 C   0  0  0  0  0  0  0  0  0  0  0  0
  -39.5365   60.2827   61.9057 H   0  0  0  0  0  0  0  0  0  0  0  0
  -40.9024   64.4573   59.9717 H   0  0  0  0  0  0  0  0  0  0  0  0
  -39.5662   65.0540   59.0169 H   0  0  0  0  0  0  0  0  0  0  0  0
  -40.5976   66.1750   59.8729 H   0  0  0  0  0  0  0  0  0  0  0  0
  -38.8022   64.1414   61.1326 H   0  0  0  0  0  0  0  0  0  0  0  0
  -39.8447   65.3071   61.9723 H   0  0  0  0  0  0  0  0  0  0  0  0
  -35.5946   54.5304   63.3747 H   0  0  0  0  0  0  0  0  0  0  0  0
  -38.5718   67.1206   61.0885 H   0  0  0  0  0  0  0  0  0  0  0  0
  -37.5324   65.9476   60.2356 H   0  0  0  0  0  0  0  0  0  0  0  0
  -37.7646   66.2201   63.1880 H   0  0  0  0  0  0  0  0  0  0  0  0
  -36.4453   66.8256   62.1636 H   0  0  0  0  0  0  0  0  0  0  0  0
  -33.0959   60.4727   65.6674 H   0  0  0  0  0  0  0  0  0  0  0  0
  -39.2618   53.6568   58.4119 H   0  0  0  0  0  0  0  0  0  0  0  0
  -35.8318   64.7710   63.2744 H   0  0  0  0  0  0  0  0  0  0  0  0
  -35.9126   64.6055   61.5037 H   0  0  0  0  0  0  0  0  0  0  0  0
  -31.8240   64.6962   66.1236 H   0  0  0  0  0  0  0  0  0  0  0  0
  -36.7887   62.6562   62.6164 H   0  0  0  0  0  0  0  0  0  0  0  0
  -38.0198   63.5403   61.6781 H   0  0  0  0  0  0  0  0  0  0  0  0
  -38.9188   64.4654   63.6720 H   0  0  0  0  0  0  0  0  0  0  0  0
  -37.6792   63.6013   64.6166 H   0  0  0  0  0  0  0  0  0  0  0  0
  -38.6151   61.5067   63.9851 H   0  0  0  0  0  0  0  0  0  0  0  0
  -39.8414   62.3510   63.0188 H   0  0  0  0  0  0  0  0  0  0  0  0
  -40.7449   61.5817   65.1230 H   0  0  0  0  0  0  0  0  0  0  0  0
  -40.7356   63.3476   64.9861 H   0  0  0  0  0  0  0  0  0  0  0  0
  -38.7890   63.4672   66.3689 H   0  0  0  0  0  0  0  0  0  0  0  0
  -38.7980   61.6880   66.4954 H   0  0  0  0  0  0  0  0  0  0  0  0
  -40.9019   63.5032   67.5490 H   0  0  0  0  0  0  0  0  0  0  0  0
  -39.6238   62.7043   68.4846 H   0  0  0  0  0  0  0  0  0  0  0  0
  -41.7671   61.3223   66.9463 H   0  0  0  0  0  0  0  0  0  0  0  0
  -41.6994   61.5544   68.7071 H   0  0  0  0  0  0  0  0  0  0  0  0
  -39.7261   60.2188   68.8343 H   0  0  0  0  0  0  0  0  0  0  0  0
  -39.7743   59.9979   67.0719 H   0  0  0  0  0  0  0  0  0  0  0  0
  -41.8297   58.8072   67.2508 H   0  0  0  0  0  0  0  0  0  0  0  0
  -41.7890   59.0407   69.0187 H   0  0  0  0  0  0  0  0  0  0  0  0
  -41.1500   56.8010   68.4029 H   0  0  0  0  0  0  0  0  0  0  0  0
  -39.8359   57.7175   69.1735 H   0  0  0  0  0  0  0  0  0  0  0  0
  -39.0209   56.3590   67.3556 H   0  0  0  0  0  0  0  0  0  0  0  0
  -38.8366   58.1036   67.0572 H   0  0  0  0  0  0  0  0  0  0  0  0
  -40.7138   58.0772   65.5759 H   0  0  0  0  0  0  0  0  0  0  0  0
  -40.9384   56.3543   65.8793 H   0  0  0  0  0  0  0  0  0  0  0  0
  -38.7448   55.9402   64.8047 H   0  0  0  0  0  0  0  0  0  0  0  0
  -38.3383   57.1415   62.9331 H   0  0  0  0  0  0  0  0  0  0  0  0
  -38.0148   59.3748   60.4627 H   0  0  0  0  0  0  0  0  0  0  0  0
  -38.6554   57.8106   60.9484 H   0  0  0  0  0  0  0  0  0  0  0  0
  -37.1937   57.7896   62.8603 H   0  0  0  0  0  0  0  0  0  0  0  0
  -36.5565   59.3772   62.3453 H   0  0  0  0  0  0  0  0  0  0  0  0
  -35.6238   58.4067   60.3945 H   0  0  0  0  0  0  0  0  0  0  0  0
  -36.2729   56.8255   60.8717 H   0  0  0  0  0  0  0  0  0  0  0  0
  -34.2161   58.3779   62.3821 H   0  0  0  0  0  0  0  0  0  0  0  0
  -33.9192   56.9787   61.3420 H   0  0  0  0  0  0  0  0  0  0  0  0
  -33.9347   56.3288   63.6606 H   0  0  0  0  0  0  0  0  0  0  0  0
  -35.0487   52.6639   62.5787 H   0  0  0  0  0  0  0  0  0  0  0  0
  -34.2711   52.6029   61.0151 H   0  0  0  0  0  0  0  0  0  0  0  0
  -35.6452   51.5762   61.3481 H   0  0  0  0  0  0  0  0  0  0  0  0
  -36.3169   54.4375   59.0233 H   0  0  0  0  0  0  0  0  0  0  0  0
  -35.7113   52.8385   59.0298 H   0  0  0  0  0  0  0  0  0  0  0  0
  -39.5851   52.2785   62.8754 H   0  0  0  0  0  0  0  0  0  0  0  0
  -41.8274   51.4060   62.9981 H   0  0  0  0  0  0  0  0  0  0  0  0
  -43.2530   51.4362   61.0618 H   0  0  0  0  0  0  0  0  0  0  0  0
  -42.4450   52.3286   58.9720 H   0  0  0  0  0  0  0  0  0  0  0  0
  -36.8589   60.0567   64.8397 H   0  0  0  0  0  0  0  0  0  0  0  0
  -34.3087   59.9906   63.2972 H   0  0  0  0  0  0  0  0  0  0  0  0
  -34.9262   61.3466   64.2100 H   0  0  0  0  0  0  0  0  0  0  0  0
  -35.7913   60.7731   62.8044 H   0  0  0  0  0  0  0  0  0  0  0  0
  -34.2930   58.5953   65.3736 H   0  0  0  0  0  0  0  0  0  0  0  0
  -35.8116   58.3823   66.2633 H   0  0  0  0  0  0  0  0  0  0  0  0
  -34.0014   62.4375   67.6298 H   0  0  0  0  0  0  0  0  0  0  0  0
  -31.3617   61.1050   68.0317 H   0  0  0  0  0  0  0  0  0  0  0  0
  -32.8521   60.5106   68.7976 H   0  0  0  0  0  0  0  0  0  0  0  0
  -31.6156   61.8791   70.3214 H   0  0  0  0  0  0  0  0  0  0  0  0
  -33.1621   62.6391   69.8292 H   0  0  0  0  0  0  0  0  0  0  0  0
  -30.5005   63.3974   68.7750 H   0  0  0  0  0  0  0  0  0  0  0  0
  -31.3890   64.2201   70.0827 H   0  0  0  0  0  0  0  0  0  0  0  0
  -33.2313   64.5207   68.4439 H   0  0  0  0  0  0  0  0  0  0  0  0
  -31.7433   65.4713   68.2043 H   0  0  0  0  0  0  0  0  0  0  0  0
  1 33  1  0  0  0  0
  1 34  1  0  0  0  0
  1 61  1  0  0  0  0
  2  4  1  0  0  0  0
  2 62  1  0  0  0  0
  2 63  1  0  0  0  0
  2 64  1  0  0  0  0
  3 33  2  0  0  0  0
  4  7  1  0  0  0  0
  4 65  1  0  0  0  0
  4 66  1  0  0  0  0
  5 38  1  0  0  0  0
  5 39  1  0  0  0  0
  5 67  1  0  0  0  0
  6 39  2  0  0  0  0
  7 10  1  0  0  0  0
  7 68  1  0  0  0  0
  7 69  1  0  0  0  0
  8 40  1  0  0  0  0
  8 43  2  0  0  0  0
  9 42  1  0  0  0  0
  9 43  1  0  0  0  0
 10 13  1  0  0  0  0
 10 70  1  0  0  0  0
 10 71  1  0  0  0  0
 11 54  1  0  0  0  0
 11 55  1  0  0  0  0
 11 72  1  0  0  0  0
 12 49  1  0  0  0  0
 12 73  1  0  0  0  0
 13 16  1  0  0  0  0
 13 74  1  0  0  0  0
 13 75  1  0  0  0  0
 14 59  1  0  0  0  0
 14 60  1  0  0  0  0
 14 76  1  0  0  0  0
 15 50  2  0  0  0  0
 16 18  1  0  0  0  0
 16 77  1  0  0  0  0
 16 78  1  0  0  0  0
 17 50  1  0  0  0  0
 17 51  1  0  0  0  0
 18 20  1  0  0  0  0
 18 79  1  0  0  0  0
 18 80  1  0  0  0  0
 19 54  2  0  0  0  0
 20 22  1  0  0  0  0
 20 81  1  0  0  0  0
 20 82  1  0  0  0  0
 21 60  2  0  0  0  0
 22 23  1  0  0  0  0
 22 83  1  0  0  0  0
 22 84  1  0  0  0  0
 23 24  1  0  0  0  0
 23 85  1  0  0  0  0
 23 86  1  0  0  0  0
 24 25  1  0  0  0  0
 24 87  1  0  0  0  0
 24 88  1  0  0  0  0
 25 26  1  0  0  0  0
 25 89  1  0  0  0  0
 25 90  1  0  0  0  0
 26 27  1  0  0  0  0
 26 91  1  0  0  0  0
 26 92  1  0  0  0  0
 27 28  1  0  0  0  0
 27 93  1  0  0  0  0
 27 94  1  0  0  0  0
 28 29  1  0  0  0  0
 28 95  1  0  0  0  0
 28 96  1  0  0  0  0
 29 30  1  0  0  0  0
 29 97  1  0  0  0  0
 29 98  1  0  0  0  0
 30 31  1  0  0  0  0
 30 99  1  0  0  0  0
 30100  1  0  0  0  0
 31 32  2  0  0  0  0
 31101  1  0  0  0  0
 32 33  1  0  0  0  0
 32102  1  0  0  0  0
 34 35  1  0  0  0  0
 34103  1  0  0  0  0
 34104  1  0  0  0  0
 35 36  1  0  0  0  0
 35105  1  0  0  0  0
 35106  1  0  0  0  0
 36 37  1  0  0  0  0
 36107  1  0  0  0  0
 36108  1  0  0  0  0
 37 38  1  0  0  0  0
 37109  1  0  0  0  0
 37110  1  0  0  0  0
 38 50  1  0  0  0  0
 38111  1  1  0  0  0
 40 39  1  1  0  0  0
 40 41  1  0  0  0  0
 40 42  1  0  0  0  0
 41112  1  0  0  0  0
 41113  1  0  0  0  0
 41114  1  0  0  0  0
 42115  1  0  0  0  0
 42116  1  0  0  0  0
 43 44  1  0  0  0  0
 44 45  2  0  0  0  0
 44 49  1  0  0  0  0
 45 46  1  0  0  0  0
 45117  1  0  0  0  0
 46 47  2  0  0  0  0
 46118  1  0  0  0  0
 47 48  1  0  0  0  0
 47119  1  0  0  0  0
 48 49  2  0  0  0  0
 48120  1  0  0  0  0
 51 52  1  0  0  0  0
 51 53  1  0  0  0  0
 51121  1  1  0  0  0
 52122  1  0  0  0  0
 52123  1  0  0  0  0
 52124  1  0  0  0  0
 53 54  1  0  0  0  0
 53125  1  0  0  0  0
 53126  1  0  0  0  0
 55 56  1  0  0  0  0
 55 60  1  0  0  0  0
 55127  1  1  0  0  0
 56 57  1  0  0  0  0
 56128  1  0  0  0  0
 56129  1  0  0  0  0
 57 58  1  0  0  0  0
 57130  1  0  0  0  0
 57131  1  0  0  0  0
 58 59  1  0  0  0  0
 58132  1  0  0  0  0
 58133  1  0  0  0  0
 59134  1  0  0  0  0
 59135  1  0  0  0  0
M  END
$$$$
/media/chris/experiments/cd1a-new-docking/inputs/ligands/7ryo_ligand.pdb
 OpenBabel07032304133D

135137  0  0  1  0  0  0  0  0999 V2000
  -39.2043   59.3899   62.1545 N   0  0  0  0  0  0  0  0  0  0  0  0
  -36.7348   59.7718   64.5980 C   0  0  0  0  0  0  0  0  0  0  0  0
  -39.2782   57.6966   63.6448 O   0  0  0  0  0  0  0  0  0  0  0  0
  -35.8435   60.9185   64.9969 C   0  0  0  0  0  0  0  0  0  0  0  0
  -33.6519   56.2542   63.9242 N   0  0  0  0  0  0  0  0  0  0  0  0
  -34.6659   54.8731   65.3795 O   0  0  0  0  0  0  0  0  0  0  0  0
  -35.3784   60.8415   66.4398 C   0  0  0  0  0  0  0  0  0  0  0  0
  -32.2911   53.8912   66.3251 N   0  0  0  0  0  0  0  0  0  0  0  0
  -30.3679   54.0724   65.1625 O   0  0  0  0  0  0  0  0  0  0  0  0
  -34.5646   59.6016   66.7732 C   0  0  0  0  0  0  0  0  0  0  0  0
  -36.6216   50.9151   65.6064 N   0  0  0  0  0  0  0  0  0  0  0  0
  -32.1203   51.9620   68.3034 O   0  0  0  0  0  0  0  0  0  0  0  0
  -35.3150   58.3000   66.5263 C   0  0  0  0  0  0  0  0  0  0  0  0
  -37.3375   48.2256   63.2939 N   0  0  0  0  0  0  0  0  0  0  0  0
  -36.1585   55.1020   61.6953 O   0  0  0  0  0  0  0  0  0  0  0  0
  -36.6016   58.1685   67.3266 C   0  0  0  0  0  0  0  0  0  0  0  0
  -35.2623   54.2216   63.5667 O   0  0  0  0  0  0  0  0  0  0  0  0
  -36.4086   58.2322   68.8318 C   0  0  0  0  0  0  0  0  0  0  0  0
  -36.2676   53.1218   65.8649 O   0  0  0  0  0  0  0  0  0  0  0  0
  -37.6934   58.0836   69.6303 C   0  0  0  0  0  0  0  0  0  0  0  0
  -38.6376   49.5556   64.5475 O   0  0  0  0  0  0  0  0  0  0  0  0
  -38.7233   59.1486   69.3089 C   0  0  0  0  0  0  0  0  0  0  0  0
  -39.1536   59.1275   67.8548 C   0  0  0  0  0  0  0  0  0  0  0  0
  -39.7968   57.8288   67.4118 C   0  0  0  0  0  0  0  0  0  0  0  0
  -40.2002   57.8329   65.9503 C   0  0  0  0  0  0  0  0  0  0  0  0
  -40.8618   56.5411   65.4996 C   0  0  0  0  0  0  0  0  0  0  0  0
  -42.1422   56.2244   66.2494 C   0  0  0  0  0  0  0  0  0  0  0  0
  -43.2323   57.2724   66.0990 C   0  0  0  0  0  0  0  0  0  0  0  0
  -43.6854   57.4766   64.6636 C   0  0  0  0  0  0  0  0  0  0  0  0
  -42.5696   57.9135   63.7224 C   0  0  0  0  0  0  0  0  0  0  0  0
  -41.9483   59.2030   64.1603 C   0  0  0  0  0  0  0  0  0  0  0  0
  -40.6964   59.6030   63.9828 C   0  0  0  0  0  0  0  0  0  0  0  0
  -39.6580   58.8202   63.2762 C   0  0  0  0  0  0  0  0  0  0  0  0
  -38.2360   58.7337   61.2903 C   0  0  0  0  0  0  0  0  0  0  0  0
  -36.9560   58.4330   62.0390 C   0  0  0  0  0  0  0  0  0  0  0  0
  -35.8780   57.7610   61.2090 C   0  0  0  0  0  0  0  0  0  0  0  0
  -34.6110   57.4590   62.0020 C   0  0  0  0  0  0  0  0  0  0  0  0
  -34.8704   56.5130   63.1754 C   0  0  1  0  0  0  0  0  0  0  0  0
  -33.6588   55.4398   64.9822 C   0  0  0  0  0  0  0  0  0  0  0  0
  -32.3321   55.2384   65.7328 C   0  0  1  0  0  0  0  0  0  0  0  0
  -32.2337   56.2749   66.8481 C   0  0  0  0  0  0  0  0  0  0  0  0
  -31.1015   55.2741   64.8146 C   0  0  0  0  0  0  0  0  0  0  0  0
  -31.2031   53.3529   65.9565 C   0  0  0  0  0  0  0  0  0  0  0  0
  -30.7404   52.0091   66.3112 C   0  0  0  0  0  0  0  0  0  0  0  0
  -29.9322   51.2909   65.4290 C   0  0  0  0  0  0  0  0  0  0  0  0
  -29.6909   49.9436   65.6361 C   0  0  0  0  0  0  0  0  0  0  0  0
  -30.2458   49.2935   66.7169 C   0  0  0  0  0  0  0  0  0  0  0  0
  -31.0541   49.9813   67.6036 C   0  0  0  0  0  0  0  0  0  0  0  0
  -31.3101   51.3353   67.4111 C   0  0  0  0  0  0  0  0  0  0  0  0
  -35.5090   55.2173   62.6978 C   0  0  0  0  0  0  0  0  0  0  0  0
  -35.2031   52.8510   63.0493 C   0  0  2  0  0  0  0  0  0  0  0  0
  -36.5305   52.5357   62.4074 C   0  0  0  0  0  0  0  0  0  0  0  0
  -34.9212   51.9729   64.2530 C   0  0  0  0  0  0  0  0  0  0  0  0
  -35.9983   52.0595   65.3112 C   0  0  0  0  0  0  0  0  0  0  0  0
  -36.2798   49.6644   64.9518 C   0  0  1  0  0  0  0  0  0  0  0  0
  -35.8106   48.6380   65.9892 C   0  0  0  0  0  0  0  0  0  0  0  0
  -35.0167   47.4824   65.3896 C   0  0  0  0  0  0  0  0  0  0  0  0
  -35.7680   46.6248   64.3907 C   0  0  0  0  0  0  0  0  0  0  0  0
  -36.1773   47.3564   63.1295 C   0  0  0  0  0  0  0  0  0  0  0  0
  -37.5215   49.1428   64.2462 C   0  0  0  0  0  0  0  0  0  0  0  0
  -39.5365   60.2827   61.9057 H   0  0  0  0  0  0  0  0  0  0  0  0
  -37.0260   59.8857   63.5747 H   0  0  0  0  0  0  0  0  0  0  0  0
  -37.6067   59.7653   65.2183 H   0  0  0  0  0  0  0  0  0  0  0  0
  -36.2051   58.8499   64.7177 H   0  0  0  0  0  0  0  0  0  0  0  0
  -36.3840   61.8320   64.8623 H   0  0  0  0  0  0  0  0  0  0  0  0
  -34.9710   60.8724   64.3792 H   0  0  0  0  0  0  0  0  0  0  0  0
  -32.8109   56.6849   63.6478 H   0  0  0  0  0  0  0  0  0  0  0  0
  -36.2425   60.8541   67.0708 H   0  0  0  0  0  0  0  0  0  0  0  0
  -34.7338   61.6808   66.5975 H   0  0  0  0  0  0  0  0  0  0  0  0
  -34.2903   59.6439   67.8066 H   0  0  0  0  0  0  0  0  0  0  0  0
  -33.7114   59.6012   66.1275 H   0  0  0  0  0  0  0  0  0  0  0  0
  -37.3330   50.9198   66.2870 H   0  0  0  0  0  0  0  0  0  0  0  0
  -32.3124   52.8734   68.2020 H   0  0  0  0  0  0  0  0  0  0  0  0
  -34.6716   57.4857   66.7867 H   0  0  0  0  0  0  0  0  0  0  0  0
  -35.5905   58.2919   65.4924 H   0  0  0  0  0  0  0  0  0  0  0  0
  -38.0605   48.1251   62.6333 H   0  0  0  0  0  0  0  0  0  0  0  0
  -37.0518   57.2282   67.0857 H   0  0  0  0  0  0  0  0  0  0  0  0
  -37.2158   59.0031   67.0601 H   0  0  0  0  0  0  0  0  0  0  0  0
  -35.9700   59.1775   69.0743 H   0  0  0  0  0  0  0  0  0  0  0  0
  -35.7836   57.4054   69.0974 H   0  0  0  0  0  0  0  0  0  0  0  0
  -37.4553   58.1441   70.6717 H   0  0  0  0  0  0  0  0  0  0  0  0
  -38.1218   57.1384   69.3699 H   0  0  0  0  0  0  0  0  0  0  0  0
  -38.3031   60.1080   69.5276 H   0  0  0  0  0  0  0  0  0  0  0  0
  -39.5895   58.9505   69.9050 H   0  0  0  0  0  0  0  0  0  0  0  0
  -38.2893   59.2973   67.2473 H   0  0  0  0  0  0  0  0  0  0  0  0
  -39.8965   59.8897   67.7448 H   0  0  0  0  0  0  0  0  0  0  0  0
  -40.6710   57.6617   68.0058 H   0  0  0  0  0  0  0  0  0  0  0  0
  -39.0709   57.0532   67.5401 H   0  0  0  0  0  0  0  0  0  0  0  0
  -39.3232   57.9888   65.3574 H   0  0  0  0  0  0  0  0  0  0  0  0
  -40.9196   58.6150   65.8249 H   0  0  0  0  0  0  0  0  0  0  0  0
  -40.1727   55.7366   65.6510 H   0  0  0  0  0  0  0  0  0  0  0  0
  -41.1221   56.6632   64.4690 H   0  0  0  0  0  0  0  0  0  0  0  0
  -41.9073   56.1326   67.2892 H   0  0  0  0  0  0  0  0  0  0  0  0
  -42.5276   55.3197   65.8277 H   0  0  0  0  0  0  0  0  0  0  0  0
  -42.8602   58.2037   66.4720 H   0  0  0  0  0  0  0  0  0  0  0  0
  -44.0810   56.9236   66.6494 H   0  0  0  0  0  0  0  0  0  0  0  0
  -44.4478   58.2273   64.6542 H   0  0  0  0  0  0  0  0  0  0  0  0
  -44.0379   56.5300   64.3106 H   0  0  0  0  0  0  0  0  0  0  0  0
  -42.9743   58.0397   62.7399 H   0  0  0  0  0  0  0  0  0  0  0  0
  -41.8115   57.1584   63.7309 H   0  0  0  0  0  0  0  0  0  0  0  0
  -42.5683   59.8593   64.6602 H   0  0  0  0  0  0  0  0  0  0  0  0
  -40.4277   60.5237   64.3637 H   0  0  0  0  0  0  0  0  0  0  0  0
  -38.0148   59.3748   60.4627 H   0  0  0  0  0  0  0  0  0  0  0  0
  -38.6554   57.8106   60.9484 H   0  0  0  0  0  0  0  0  0  0  0  0
  -37.1937   57.7896   62.8603 H   0  0  0  0  0  0  0  0  0  0  0  0
  -36.5565   59.3772   62.3453 H   0  0  0  0  0  0  0  0  0  0  0  0
  -35.6238   58.4067   60.3945 H   0  0  0  0  0  0  0  0  0  0  0  0
  -36.2729   56.8255   60.8717 H   0  0  0  0  0  0  0  0  0  0  0  0
  -34.2161   58.3779   62.3821 H   0  0  0  0  0  0  0  0  0  0  0  0
  -33.9192   56.9787   61.3420 H   0  0  0  0  0  0  0  0  0  0  0  0
  -35.5592   56.9942   63.8379 H   0  0  0  0  0  0  0  0  0  0  0  0
  -33.1065   56.2194   67.4646 H   0  0  0  0  0  0  0  0  0  0  0  0
  -32.1606   57.2530   66.4206 H   0  0  0  0  0  0  0  0  0  0  0  0
  -31.3650   56.0791   67.4413 H   0  0  0  0  0  0  0  0  0  0  0  0
  -31.3943   55.2562   63.7856 H   0  0  0  0  0  0  0  0  0  0  0  0
  -30.5191   56.1628   64.9414 H   0  0  0  0  0  0  0  0  0  0  0  0
  -29.5112   51.7676   64.6163 H   0  0  0  0  0  0  0  0  0  0  0  0
  -29.0917   49.4228   64.9769 H   0  0  0  0  0  0  0  0  0  0  0  0
  -30.0574   48.2897   66.8653 H   0  0  0  0  0  0  0  0  0  0  0  0
  -31.4687   49.4889   68.4102 H   0  0  0  0  0  0  0  0  0  0  0  0
  -34.4469   52.7003   62.3074 H   0  0  0  0  0  0  0  0  0  0  0  0
  -37.3145   52.6757   63.1220 H   0  0  0  0  0  0  0  0  0  0  0  0
  -36.5317   51.5199   62.0711 H   0  0  0  0  0  0  0  0  0  0  0  0
  -36.6873   53.1876   61.5735 H   0  0  0  0  0  0  0  0  0  0  0  0
  -33.9914   52.2767   64.6867 H   0  0  0  0  0  0  0  0  0  0  0  0
  -34.8891   50.9598   63.9102 H   0  0  0  0  0  0  0  0  0  0  0  0
  -35.4892   49.8249   64.2489 H   0  0  0  0  0  0  0  0  0  0  0  0
  -36.6718   48.2371   66.4816 H   0  0  0  0  0  0  0  0  0  0  0  0
  -35.1573   49.1505   66.6640 H   0  0  0  0  0  0  0  0  0  0  0  0
  -34.6969   46.8507   66.1919 H   0  0  0  0  0  0  0  0  0  0  0  0
  -34.2109   47.9297   64.8461 H   0  0  0  0  0  0  0  0  0  0  0  0
  -36.6521   46.2533   64.8652 H   0  0  0  0  0  0  0  0  0  0  0  0
  -35.0998   45.8447   64.0909 H   0  0  0  0  0  0  0  0  0  0  0  0
  -35.3519   47.9556   62.8060 H   0  0  0  0  0  0  0  0  0  0  0  0
  -36.4511   46.6088   62.4147 H   0  0  0  0  0  0  0  0  0  0  0  0
  1 33  1  0  0  0  0
  1 34  1  0  0  0  0
  1 61  1  0  0  0  0
  2  4  1  0  0  0  0
  2 62  1  0  0  0  0
  2 63  1  0  0  0  0
  2 64  1  0  0  0  0
  3 33  2  0  0  0  0
  4  7  1  0  0  0  0
  4 65  1  0  0  0  0
  4 66  1  0  0  0  0
  5 38  1  0  0  0  0
  5 39  1  0  0  0  0
  5 67  1  0  0  0  0
  6 39  2  0  0  0  0
  7 10  1  0  0  0  0
  7 68  1  0  0  0  0
  7 69  1  0  0  0  0
  8 40  1  0  0  0  0
  8 43  2  0  0  0  0
  9 42  1  0  0  0  0
  9 43  1  0  0  0  0
 10 13  1  0  0  0  0
 10 70  1  0  0  0  0
 10 71  1  0  0  0  0
 11 54  1  0  0  0  0
 11 55  1  0  0  0  0
 11 72  1  0  0  0  0
 12 49  1  0  0  0  0
 12 73  1  0  0  0  0
 13 16  1  0  0  0  0
 13 74  1  0  0  0  0
 13 75  1  0  0  0  0
 14 59  1  0  0  0  0
 14 60  1  0  0  0  0
 14 76  1  0  0  0  0
 15 50  2  0  0  0  0
 16 18  1  0  0  0  0
 16 77  1  0  0  0  0
 16 78  1  0  0  0  0
 17 50  1  0  0  0  0
 17 51  1  0  0  0  0
 18 20  1  0  0  0  0
 18 79  1  0  0  0  0
 18 80  1  0  0  0  0
 19 54  2  0  0  0  0
 20 22  1  0  0  0  0
 20 81  1  0  0  0  0
 20 82  1  0  0  0  0
 21 60  2  0  0  0  0
 22 23  1  0  0  0  0
 22 83  1  0  0  0  0
 22 84  1  0  0  0  0
 23 24  1  0  0  0  0
 23 85  1  0  0  0  0
 23 86  1  0  0  0  0
 24 25  1  0  0  0  0
 24 87  1  0  0  0  0
 24 88  1  0  0  0  0
 25 26  1  0  0  0  0
 25 89  1  0  0  0  0
 25 90  1  0  0  0  0
 26 27  1  0  0  0  0
 26 91  1  0  0  0  0
 26 92  1  0  0  0  0
 27 28  1  0  0  0  0
 27 93  1  0  0  0  0
 27 94  1  0  0  0  0
 28 29  1  0  0  0  0
 28 95  1  0  0  0  0
 28 96  1  0  0  0  0
 29 30  1  0  0  0  0
 29 97  1  0  0  0  0
 29 98  1  0  0  0  0
 30 31  1  0  0  0  0
 30 99  1  0  0  0  0
 30100  1  0  0  0  0
 31 32  2  0  0  0  0
 31101  1  0  0  0  0
 32 33  1  0  0  0  0
 32102  1  0  0  0  0
 34 35  1  0  0  0  0
 34103  1  0  0  0  0
 34104  1  0  0  0  0
 35 36  1  0  0  0  0
 35105  1  0  0  0  0
 35106  1  0  0  0  0
 36 37  1  0  0  0  0
 36107  1  0  0  0  0
 36108  1  0  0  0  0
 37 38  1  0  0  0  0
 37109  1  0  0  0  0
 37110  1  0  0  0  0
 38 50  1  0  0  0  0
 38111  1  1  0  0  0
 40 39  1  6  0  0  0
 40 41  1  0  0  0  0
 40 42  1  0  0  0  0
 41112  1  0  0  0  0
 41113  1  0  0  0  0
 41114  1  0  0  0  0
 42115  1  0  0  0  0
 42116  1  0  0  0  0
 43 44  1  0  0  0  0
 44 45  2  0  0  0  0
 44 49  1  0  0  0  0
 45 46  1  0  0  0  0
 45117  1  0  0  0  0
 46 47  2  0  0  0  0
 46118  1  0  0  0  0
 47 48  1  0  0  0  0
 47119  1  0  0  0  0
 48 49  2  0  0  0  0
 48120  1  0  0  0  0
 51 52  1  0  0  0  0
 51 53  1  0  0  0  0
 51121  1  6  0  0  0
 52122  1  0  0  0  0
 52123  1  0  0  0  0
 52124  1  0  0  0  0
 53 54  1  0  0  0  0
 53125  1  0  0  0  0
 53126  1  0  0  0  0
 55 56  1  0  0  0  0
 55 60  1  0  0  0  0
 55127  1  6  0  0  0
 56 57  1  0  0  0  0
 56128  1  0  0  0  0
 56129  1  0  0  0  0
 57 58  1  0  0  0  0
 57130  1  0  0  0  0
 57131  1  0  0  0  0
 58 59  1  0  0  0  0
 58132  1  0  0  0  0
 58133  1  0  0  0  0
 59134  1  0  0  0  0
 59135  1  0  0  0  0
M  END
$$$$
/media/chris/experiments/cd1a-new-docking/inputs/ligands/7ryo_ligand.pdb
 OpenBabel07032304133D

135137  0  0  1  0  0  0  0  0999 V2000
  -39.2043   59.3899   62.1545 N   0  0  0  0  0  0  0  0  0  0  0  0
  -42.1023   66.2361   64.6064 C   0  0  0  0  0  0  0  0  0  0  0  0
  -40.9220   60.8288   62.4244 O   0  0  0  0  0  0  0  0  0  0  0  0
  -43.2994   67.1412   64.4799 C   0  0  0  0  0  0  0  0  0  0  0  0
  -33.1324   57.6580   60.0424 N   0  0  0  0  0  0  0  0  0  0  0  0
  -30.9871   57.7601   60.7067 O   0  0  0  0  0  0  0  0  0  0  0  0
  -44.5404   66.5913   65.1594 C   0  0  0  0  0  0  0  0  0  0  0  0
  -32.4345   58.7123   57.6086 N   0  0  0  0  0  0  0  0  0  0  0  0
  -32.5874   60.9396   57.9228 O   0  0  0  0  0  0  0  0  0  0  0  0
  -44.3932   66.3728   66.6566 C   0  0  0  0  0  0  0  0  0  0  0  0
  -38.9077   55.4560   62.8527 N   0  0  0  0  0  0  0  0  0  0  0  0
  -33.7980   62.4213   56.3716 O   0  0  0  0  0  0  0  0  0  0  0  0
  -43.2768   65.4036   67.0205 C   0  0  0  0  0  0  0  0  0  0  0  0
  -42.2267   54.1475   62.2479 N   0  0  0  0  0  0  0  0  0  0  0  0
  -33.3116   54.6686   60.0224 O   0  0  0  0  0  0  0  0  0  0  0  0
  -43.1310   65.1639   68.5152 C   0  0  0  0  0  0  0  0  0  0  0  0
  -35.2791   55.2259   60.9704 O   0  0  0  0  0  0  0  0  0  0  0  0
  -42.0082   64.2110   68.8871 C   0  0  0  0  0  0  0  0  0  0  0  0
  -36.8117   56.2649   62.9726 O   0  0  0  0  0  0  0  0  0  0  0  0
  -42.1432   62.8240   68.2804 C   0  0  0  0  0  0  0  0  0  0  0  0
  -41.4276   55.7164   63.6374 O   0  0  0  0  0  0  0  0  0  0  0  0
  -42.1447   62.8323   66.7645 C   0  0  0  0  0  0  0  0  0  0  0  0
  -40.8651   63.3995   66.1806 C   0  0  0  0  0  0  0  0  0  0  0  0
  -39.6127   62.6333   66.5566 C   0  0  0  0  0  0  0  0  0  0  0  0
  -38.3495   63.2343   65.9719 C   0  0  0  0  0  0  0  0  0  0  0  0
  -38.3560   63.3019   64.4537 C   0  0  0  0  0  0  0  0  0  0  0  0
  -39.4801   64.1516   63.8915 C   0  0  0  0  0  0  0  0  0  0  0  0
  -39.5158   64.2196   62.3738 C   0  0  0  0  0  0  0  0  0  0  0  0
  -39.7067   62.8673   61.7091 C   0  0  0  0  0  0  0  0  0  0  0  0
  -39.7263   62.9273   60.1866 C   0  0  0  0  0  0  0  0  0  0  0  0
  -39.9336   61.5741   59.5813 C   0  0  0  0  0  0  0  0  0  0  0  0
  -40.0893   60.4176   60.2115 C   0  0  0  0  0  0  0  0  0  0  0  0
  -40.1043   60.2597   61.6829 C   0  0  0  0  0  0  0  0  0  0  0  0
  -38.2360   58.7337   61.2903 C   0  0  0  0  0  0  0  0  0  0  0  0
  -36.9560   58.4330   62.0390 C   0  0  0  0  0  0  0  0  0  0  0  0
  -35.8780   57.7610   61.2090 C   0  0  0  0  0  0  0  0  0  0  0  0
  -34.6110   57.4590   62.0020 C   0  0  0  0  0  0  0  0  0  0  0  0
  -33.5311   56.7980   61.1441 C   0  0  1  0  0  0  0  0  0  0  0  0
  -31.8686   58.0712   59.9196 C   0  0  0  0  0  0  0  0  0  0  0  0
  -31.5354   58.9980   58.7389 C   0  0  1  0  0  0  0  0  0  0  0  0
  -30.0949   58.7453   58.3042 C   0  0  0  0  0  0  0  0  0  0  0  0
  -31.7849   60.4830   59.0411 C   0  0  0  0  0  0  0  0  0  0  0  0
  -32.9475   59.8157   57.2499 C   0  0  0  0  0  0  0  0  0  0  0  0
  -33.9039   60.0093   56.1574 C   0  0  0  0  0  0  0  0  0  0  0  0
  -34.3325   58.9184   55.4000 C   0  0  0  0  0  0  0  0  0  0  0  0
  -35.0363   59.1131   54.2240 C   0  0  0  0  0  0  0  0  0  0  0  0
  -35.3234   60.3875   53.7855 C   0  0  0  0  0  0  0  0  0  0  0  0
  -34.9060   61.4856   54.5153 C   0  0  0  0  0  0  0  0  0  0  0  0
  -34.1957   61.3103   55.6987 C   0  0  0  0  0  0  0  0  0  0  0  0
  -33.9929   55.4382   60.6419 C   0  0  0  0  0  0  0  0  0  0  0  0
  -35.5958   54.0683   61.8127 C   0  0  2  0  0  0  0  0  0  0  0  0
  -35.1300   52.8265   61.0953 C   0  0  0  0  0  0  0  0  0  0  0  0
  -37.1006   54.0979   61.9970 C   0  0  0  0  0  0  0  0  0  0  0  0
  -37.5900   55.3725   62.6480 C   0  0  0  0  0  0  0  0  0  0  0  0
  -39.8122   54.3839   62.4758 C   0  0  1  0  0  0  0  0  0  0  0  0
  -39.4517   53.1003   63.2323 C   0  0  0  0  0  0  0  0  0  0  0  0
  -40.0205   51.8363   62.5967 C   0  0  0  0  0  0  0  0  0  0  0  0
  -41.5331   51.7663   62.5264 C   0  0  0  0  0  0  0  0  0  0  0  0
  -42.1622   52.8220   61.6416 C   0  0  0  0  0  0  0  0  0  0  0  0
  -41.2271   54.8069   62.8378 C   0  0  0  0  0  0  0  0  0  0  0  0
  -39.1971   59.1874   63.1179 H   0  0  0  0  0  0  0  0  0  0  0  0
  -41.2655   66.6797   64.1085 H   0  0  0  0  0  0  0  0  0  0  0  0
  -42.3222   65.2891   64.1594 H   0  0  0  0  0  0  0  0  0  0  0  0
  -41.8686   66.0964   65.6412 H   0  0  0  0  0  0  0  0  0  0  0  0
  -43.5136   67.2783   63.4405 H   0  0  0  0  0  0  0  0  0  0  0  0
  -43.0536   68.0627   64.9650 H   0  0  0  0  0  0  0  0  0  0  0  0
  -33.8025   57.9396   59.3784 H   0  0  0  0  0  0  0  0  0  0  0  0
  -44.7814   65.6523   64.7065 H   0  0  0  0  0  0  0  0  0  0  0  0
  -45.3082   67.3256   65.0325 H   0  0  0  0  0  0  0  0  0  0  0  0
  -45.3158   65.9846   67.0348 H   0  0  0  0  0  0  0  0  0  0  0  0
  -44.1437   67.3186   67.0904 H   0  0  0  0  0  0  0  0  0  0  0  0
  -39.2761   56.2676   63.2710 H   0  0  0  0  0  0  0  0  0  0  0  0
  -33.3178   62.3375   57.1719 H   0  0  0  0  0  0  0  0  0  0  0  0
  -42.3538   65.7991   66.6512 H   0  0  0  0  0  0  0  0  0  0  0  0
  -43.5269   64.4620   66.5781 H   0  0  0  0  0  0  0  0  0  0  0  0
  -43.0988   54.6034   62.2190 H   0  0  0  0  0  0  0  0  0  0  0  0
  -44.0508   64.7575   68.8811 H   0  0  0  0  0  0  0  0  0  0  0  0
  -42.8905   66.1088   68.9558 H   0  0  0  0  0  0  0  0  0  0  0  0
  -41.9914   64.1114   69.9523 H   0  0  0  0  0  0  0  0  0  0  0  0
  -41.1053   64.6316   68.4963 H   0  0  0  0  0  0  0  0  0  0  0  0
  -43.0621   62.3928   68.6190 H   0  0  0  0  0  0  0  0  0  0  0  0
  -41.2926   62.2557   68.5943 H   0  0  0  0  0  0  0  0  0  0  0  0
  -42.9679   63.4264   66.4264 H   0  0  0  0  0  0  0  0  0  0  0  0
  -42.2275   61.8174   66.4361 H   0  0  0  0  0  0  0  0  0  0  0  0
  -40.7575   64.4067   66.5251 H   0  0  0  0  0  0  0  0  0  0  0  0
  -40.9577   63.3306   65.1168 H   0  0  0  0  0  0  0  0  0  0  0  0
  -39.7083   61.6288   66.2006 H   0  0  0  0  0  0  0  0  0  0  0  0
  -39.5218   62.6739   67.6220 H   0  0  0  0  0  0  0  0  0  0  0  0
  -37.5165   62.6379   66.2807 H   0  0  0  0  0  0  0  0  0  0  0  0
  -38.2844   64.2401   66.3312 H   0  0  0  0  0  0  0  0  0  0  0  0
  -38.4583   62.3081   64.0707 H   0  0  0  0  0  0  0  0  0  0  0  0
  -37.4358   63.7588   64.1547 H   0  0  0  0  0  0  0  0  0  0  0  0
  -39.3684   65.1467   64.2687 H   0  0  0  0  0  0  0  0  0  0  0  0
  -40.3952   63.6899   64.1985 H   0  0  0  0  0  0  0  0  0  0  0  0
  -38.5919   64.6372   62.0320 H   0  0  0  0  0  0  0  0  0  0  0  0
  -40.3584   64.8225   62.1065 H   0  0  0  0  0  0  0  0  0  0  0  0
  -40.6365   62.4559   62.0424 H   0  0  0  0  0  0  0  0  0  0  0  0
  -38.8684   62.2629   61.9862 H   0  0  0  0  0  0  0  0  0  0  0  0
  -38.7927   63.3214   59.8431 H   0  0  0  0  0  0  0  0  0  0  0  0
  -40.5405   63.5542   59.8881 H   0  0  0  0  0  0  0  0  0  0  0  0
  -39.9582   61.5365   58.5503 H   0  0  0  0  0  0  0  0  0  0  0  0
  -40.2084   59.5693   59.6360 H   0  0  0  0  0  0  0  0  0  0  0  0
  -38.0148   59.3748   60.4627 H   0  0  0  0  0  0  0  0  0  0  0  0
  -38.6554   57.8106   60.9484 H   0  0  0  0  0  0  0  0  0  0  0  0
  -37.1937   57.7896   62.8603 H   0  0  0  0  0  0  0  0  0  0  0  0
  -36.5565   59.3772   62.3453 H   0  0  0  0  0  0  0  0  0  0  0  0
  -35.6238   58.4067   60.3945 H   0  0  0  0  0  0  0  0  0  0  0  0
  -36.2729   56.8255   60.8717 H   0  0  0  0  0  0  0  0  0  0  0  0
  -34.8590   56.8018   62.8091 H   0  0  0  0  0  0  0  0  0  0  0  0
  -34.2203   58.3886   62.3599 H   0  0  0  0  0  0  0  0  0  0  0  0
  -32.6704   56.6456   61.7612 H   0  0  0  0  0  0  0  0  0  0  0  0
  -29.9606   57.7030   58.1033 H   0  0  0  0  0  0  0  0  0  0  0  0
  -29.4286   59.0467   59.0853 H   0  0  0  0  0  0  0  0  0  0  0  0
  -29.8852   59.3091   57.4193 H   0  0  0  0  0  0  0  0  0  0  0  0
  -32.3160   60.5993   59.9627 H   0  0  0  0  0  0  0  0  0  0  0  0
  -30.8772   61.0388   59.1502 H   0  0  0  0  0  0  0  0  0  0  0  0
  -34.1233   57.9595   55.7189 H   0  0  0  0  0  0  0  0  0  0  0  0
  -35.3480   58.2987   53.6722 H   0  0  0  0  0  0  0  0  0  0  0  0
  -35.8517   60.5229   52.9094 H   0  0  0  0  0  0  0  0  0  0  0  0
  -35.1221   62.4378   54.1811 H   0  0  0  0  0  0  0  0  0  0  0  0
  -35.1147   54.0832   62.7684 H   0  0  0  0  0  0  0  0  0  0  0  0
  -35.5921   52.7770   60.1315 H   0  0  0  0  0  0  0  0  0  0  0  0
  -35.4007   51.9625   61.6655 H   0  0  0  0  0  0  0  0  0  0  0  0
  -34.0668   52.8589   60.9799 H   0  0  0  0  0  0  0  0  0  0  0  0
  -37.3855   53.2697   62.6117 H   0  0  0  0  0  0  0  0  0  0  0  0
  -37.5439   54.0439   61.0246 H   0  0  0  0  0  0  0  0  0  0  0  0
  -39.7351   54.1941   61.4256 H   0  0  0  0  0  0  0  0  0  0  0  0
  -39.8315   53.1777   64.2296 H   0  0  0  0  0  0  0  0  0  0  0  0
  -38.3857   53.0110   63.2081 H   0  0  0  0  0  0  0  0  0  0  0  0
  -39.6776   50.9978   63.1661 H   0  0  0  0  0  0  0  0  0  0  0  0
  -39.6786   51.8373   61.5828 H   0  0  0  0  0  0  0  0  0  0  0  0
  -41.9210   51.8836   63.5167 H   0  0  0  0  0  0  0  0  0  0  0  0
  -41.7776   50.8180   62.0954 H   0  0  0  0  0  0  0  0  0  0  0  0
  -41.5876   52.8920   60.7417 H   0  0  0  0  0  0  0  0  0  0  0  0
  -43.1718   52.5145   61.4651 H   0  0  0  0  0  0  0  0  0  0  0  0
  1 33  1  0  0  0  0
  1 34  1  0  0  0  0
  1 61  1  0  0  0  0
  2  4  1  0  0  0  0
  2 62  1  0  0  0  0
  2 63  1  0  0  0  0
  2 64  1  0  0  0  0
  3 33  2  0  0  0  0
  4  7  1  0  0  0  0
  4 65  1  0  0  0  0
  4 66  1  0  0  0  0
  5 38  1  0  0  0  0
  5 39  1  0  0  0  0
  5 67  1  0  0  0  0
  6 39  2  0  0  0  0
  7 10  1  0  0  0  0
  7 68  1  0  0  0  0
  7 69  1  0  0  0  0
  8 40  1  0  0  0  0
  8 43  2  0  0  0  0
  9 42  1  0  0  0  0
  9 43  1  0  0  0  0
 10 13  1  0  0  0  0
 10 70  1  0  0  0  0
 10 71  1  0  0  0  0
 11 54  1  0  0  0  0
 11 55  1  0  0  0  0
 11 72  1  0  0  0  0
 12 49  1  0  0  0  0
 12 73  1  0  0  0  0
 13 16  1  0  0  0  0
 13 74  1  0  0  0  0
 13 75  1  0  0  0  0
 14 59  1  0  0  0  0
 14 60  1  0  0  0  0
 14 76  1  0  0  0  0
 15 50  2  0  0  0  0
 16 18  1  0  0  0  0
 16 77  1  0  0  0  0
 16 78  1  0  0  0  0
 17 50  1  0  0  0  0
 17 51  1  0  0  0  0
 18 20  1  0  0  0  0
 18 79  1  0  0  0  0
 18 80  1  0  0  0  0
 19 54  2  0  0  0  0
 20 22  1  0  0  0  0
 20 81  1  0  0  0  0
 20 82  1  0  0  0  0
 21 60  2  0  0  0  0
 22 23  1  0  0  0  0
 22 83  1  0  0  0  0
 22 84  1  0  0  0  0
 23 24  1  0  0  0  0
 23 85  1  0  0  0  0
 23 86  1  0  0  0  0
 24 25  1  0  0  0  0
 24 87  1  0  0  0  0
 24 88  1  0  0  0  0
 25 26  1  0  0  0  0
 25 89  1  0  0  0  0
 25 90  1  0  0  0  0
 26 27  1  0  0  0  0
 26 91  1  0  0  0  0
 26 92  1  0  0  0  0
 27 28  1  0  0  0  0
 27 93  1  0  0  0  0
 27 94  1  0  0  0  0
 28 29  1  0  0  0  0
 28 95  1  0  0  0  0
 28 96  1  0  0  0  0
 29 30  1  0  0  0  0
 29 97  1  0  0  0  0
 29 98  1  0  0  0  0
 30 31  1  0  0  0  0
 30 99  1  0  0  0  0
 30100  1  0  0  0  0
 31 32  2  0  0  0  0
 31101  1  0  0  0  0
 32 33  1  0  0  0  0
 32102  1  0  0  0  0
 34 35  1  0  0  0  0
 34103  1  0  0  0  0
 34104  1  0  0  0  0
 35 36  1  0  0  0  0
 35105  1  0  0  0  0
 35106  1  0  0  0  0
 36 37  1  0  0  0  0
 36107  1  0  0  0  0
 36108  1  0  0  0  0
 37 38  1  0  0  0  0
 37109  1  0  0  0  0
 37110  1  0  0  0  0
 38 50  1  0  0  0  0
 38111  1  1  0  0  0
 40 39  1  1  0  0  0
 40 41  1  0  0  0  0
 40 42  1  0  0  0  0
 41112  1  0  0  0  0
 41113  1  0  0  0  0
 41114  1  0  0  0  0
 42115  1  0  0  0  0
 42116  1  0  0  0  0
 43 44  1  0  0  0  0
 44 45  2  0  0  0  0
 44 49  1  0  0  0  0
 45 46  1  0  0  0  0
 45117  1  0  0  0  0
 46 47  2  0  0  0  0
 46118  1  0  0  0  0
 47 48  1  0  0  0  0
 47119  1  0  0  0  0
 48 49  2  0  0  0  0
 48120  1  0  0  0  0
 51 52  1  0  0  0  0
 51 53  1  0  0  0  0
 51121  1  1  0  0  0
 52122  1  0  0  0  0
 52123  1  0  0  0  0
 52124  1  0  0  0  0
 53 54  1  0  0  0  0
 53125  1  0  0  0  0
 53126  1  0  0  0  0
 55 56  1  0  0  0  0
 55 60  1  0  0  0  0
 55127  1  6  0  0  0
 56 57  1  0  0  0  0
 56128  1  0  0  0  0
 56129  1  0  0  0  0
 57 58  1  0  0  0  0
 57130  1  0  0  0  0
 57131  1  0  0  0  0
 58 59  1  0  0  0  0
 58132  1  0  0  0  0
 58133  1  0  0  0  0
 59134  1  0  0  0  0
 59135  1  0  0  0  0
M  END
$$$$
/media/chris/experiments/cd1a-new-docking/inputs/ligands/7ryo_ligand.pdb
 OpenBabel07032304133D

135137  0  0  1  0  0  0  0  0999 V2000
  -36.2311   60.7237   61.5795 N   0  0  0  0  0  0  0  0  0  0  0  0
  -30.5353   53.9915   59.0097 C   0  0  0  0  0  0  0  0  0  0  0  0
  -34.1151   61.0407   62.2976 O   0  0  0  0  0  0  0  0  0  0  0  0
  -30.8038   52.5927   58.5199 C   0  0  0  0  0  0  0  0  0  0  0  0
  -33.6519   56.2542   63.9242 N   0  0  0  0  0  0  0  0  0  0  0  0
  -32.5700   55.3969   62.1499 O   0  0  0  0  0  0  0  0  0  0  0  0
  -29.5389   51.8182   58.1971 C   0  0  0  0  0  0  0  0  0  0  0  0
  -30.1289   55.5525   63.3804 N   0  0  0  0  0  0  0  0  0  0  0  0
  -29.7582   56.9020   65.1480 O   0  0  0  0  0  0  0  0  0  0  0  0
  -28.6656   52.4566   57.1289 C   0  0  0  0  0  0  0  0  0  0  0  0
  -31.5090   51.5497   62.8712 N   0  0  0  0  0  0  0  0  0  0  0  0
  -27.5770   57.9628   65.5768 O   0  0  0  0  0  0  0  0  0  0  0  0
  -27.4123   51.6527   56.8111 C   0  0  0  0  0  0  0  0  0  0  0  0
  -28.6384   53.2046   61.4171 N   0  0  0  0  0  0  0  0  0  0  0  0
  -36.6868   55.0519   62.5376 O   0  0  0  0  0  0  0  0  0  0  0  0
  -26.5219   52.2901   55.7557 C   0  0  0  0  0  0  0  0  0  0  0  0
  -34.5715   54.2744   62.4997 O   0  0  0  0  0  0  0  0  0  0  0  0
  -25.9914   53.6621   56.1337 C   0  0  0  0  0  0  0  0  0  0  0  0
  -32.0740   53.4246   61.7634 O   0  0  0  0  0  0  0  0  0  0  0  0
  -27.0736   54.6939   56.4065 C   0  0  0  0  0  0  0  0  0  0  0  0
  -30.6378   52.6024   60.5982 O   0  0  0  0  0  0  0  0  0  0  0  0
  -27.9897   54.9267   55.2213 C   0  0  0  0  0  0  0  0  0  0  0  0
  -29.0545   55.9701   55.5000 C   0  0  0  0  0  0  0  0  0  0  0  0
  -29.9674   55.6369   56.6629 C   0  0  0  0  0  0  0  0  0  0  0  0
  -31.0307   56.6901   56.9053 C   0  0  0  0  0  0  0  0  0  0  0  0
  -30.4633   58.0681   57.2031 C   0  0  0  0  0  0  0  0  0  0  0  0
  -31.5283   59.1170   57.4621 C   0  0  0  0  0  0  0  0  0  0  0  0
  -30.9836   60.5070   57.7457 C   0  0  0  0  0  0  0  0  0  0  0  0
  -32.0638   61.5392   58.0191 C   0  0  0  0  0  0  0  0  0  0  0  0
  -32.9300   61.2174   59.2308 C   0  0  0  0  0  0  0  0  0  0  0  0
  -33.9878   62.2542   59.4468 C   0  0  0  0  0  0  0  0  0  0  0  0
  -34.8999   62.2958   60.4086 C   0  0  0  0  0  0  0  0  0  0  0  0
  -35.0244   61.2934   61.4903 C   0  0  0  0  0  0  0  0  0  0  0  0
  -36.5610   59.7701   62.6268 C   0  0  0  0  0  0  0  0  0  0  0  0
  -36.9560   58.4330   62.0390 C   0  0  0  0  0  0  0  0  0  0  0  0
  -35.8780   57.7610   61.2090 C   0  0  0  0  0  0  0  0  0  0  0  0
  -34.6110   57.4590   62.0020 C   0  0  0  0  0  0  0  0  0  0  0  0
  -34.8704   56.5130   63.1754 C   0  0  1  0  0  0  0  0  0  0  0  0
  -32.5876   55.7075   63.3316 C   0  0  0  0  0  0  0  0  0  0  0  0
  -31.3467   55.4453   64.2008 C   0  0  1  0  0  0  0  0  0  0  0  0
  -31.4360   54.0350   64.7760 C   0  0  0  0  0  0  0  0  0  0  0  0
  -31.1418   56.4957   65.3023 C   0  0  0  0  0  0  0  0  0  0  0  0
  -29.3470   56.3562   63.9739 C   0  0  0  0  0  0  0  0  0  0  0  0
  -28.0151   56.7608   63.5180 C   0  0  0  0  0  0  0  0  0  0  0  0
  -27.4975   56.2511   62.3266 C   0  0  0  0  0  0  0  0  0  0  0  0
  -26.1619   56.4281   62.0085 C   0  0  0  0  0  0  0  0  0  0  0  0
  -25.3254   57.1108   62.8646 C   0  0  0  0  0  0  0  0  0  0  0  0
  -25.8124   57.6220   64.0538 C   0  0  0  0  0  0  0  0  0  0  0  0
  -27.1513   57.4524   64.3920 C   0  0  0  0  0  0  0  0  0  0  0  0
  -35.5090   55.2173   62.6978 C   0  0  0  0  0  0  0  0  0  0  0  0
  -34.6577   53.0381   63.2831 C   0  0  2  0  0  0  0  0  0  0  0  0
  -34.0802   53.3089   64.6494 C   0  0  0  0  0  0  0  0  0  0  0  0
  -33.8544   52.0095   62.5109 C   0  0  0  0  0  0  0  0  0  0  0  0
  -32.4012   52.3964   62.3493 C   0  0  0  0  0  0  0  0  0  0  0  0
  -30.0794   51.7894   62.7804 C   0  0  1  0  0  0  0  0  0  0  0  0
  -29.3234   50.4567   62.7384 C   0  0  0  0  0  0  0  0  0  0  0  0
  -27.8461   50.5806   63.0956 C   0  0  0  0  0  0  0  0  0  0  0  0
  -27.0239   51.4577   62.1724 C   0  0  0  0  0  0  0  0  0  0  0  0
  -27.4286   52.9169   62.1802 C   0  0  0  0  0  0  0  0  0  0  0  0
  -29.8086   52.5680   61.5027 C   0  0  0  0  0  0  0  0  0  0  0  0
  -36.9185   60.9574   60.9146 H   0  0  0  0  0  0  0  0  0  0  0  0
  -31.4638   54.4807   59.2183 H   0  0  0  0  0  0  0  0  0  0  0  0
  -30.0058   54.5374   58.2570 H   0  0  0  0  0  0  0  0  0  0  0  0
  -29.9457   53.9501   59.9016 H   0  0  0  0  0  0  0  0  0  0  0  0
  -31.4017   52.6515   57.6345 H   0  0  0  0  0  0  0  0  0  0  0  0
  -31.3034   52.0704   59.3088 H   0  0  0  0  0  0  0  0  0  0  0  0
  -33.6108   56.4850   64.8803 H   0  0  0  0  0  0  0  0  0  0  0  0
  -29.8209   50.8428   57.8595 H   0  0  0  0  0  0  0  0  0  0  0  0
  -28.9567   51.7975   59.0946 H   0  0  0  0  0  0  0  0  0  0  0  0
  -28.3689   53.4268   57.4689 H   0  0  0  0  0  0  0  0  0  0  0  0
  -29.2471   52.5022   56.2319 H   0  0  0  0  0  0  0  0  0  0  0  0
  -31.8299   50.7401   63.3303 H   0  0  0  0  0  0  0  0  0  0  0  0
  -28.4727   57.8656   65.8340 H   0  0  0  0  0  0  0  0  0  0  0  0
  -27.7115   50.6869   56.4607 H   0  0  0  0  0  0  0  0  0  0  0  0
  -26.8383   51.6032   57.7127 H   0  0  0  0  0  0  0  0  0  0  0  0
  -28.5862   53.9458   60.7713 H   0  0  0  0  0  0  0  0  0  0  0  0
  -27.0880   52.3865   54.8529 H   0  0  0  0  0  0  0  0  0  0  0  0
  -25.6706   51.6513   55.6455 H   0  0  0  0  0  0  0  0  0  0  0  0
  -25.3817   54.0195   55.3302 H   0  0  0  0  0  0  0  0  0  0  0  0
  -25.4449   53.5405   57.0455 H   0  0  0  0  0  0  0  0  0  0  0  0
  -26.6034   55.6210   56.6600 H   0  0  0  0  0  0  0  0  0  0  0  0
  -27.6773   54.3174   57.2057 H   0  0  0  0  0  0  0  0  0  0  0  0
  -28.4714   54.0036   54.9746 H   0  0  0  0  0  0  0  0  0  0  0  0
  -27.3876   55.2874   54.4137 H   0  0  0  0  0  0  0  0  0  0  0  0
  -29.6564   56.0771   54.6218 H   0  0  0  0  0  0  0  0  0  0  0  0
  -28.5390   56.8699   55.7640 H   0  0  0  0  0  0  0  0  0  0  0  0
  -29.3722   55.5441   57.5473 H   0  0  0  0  0  0  0  0  0  0  0  0
  -30.4714   54.7244   56.4215 H   0  0  0  0  0  0  0  0  0  0  0  0
  -31.6281   56.3827   57.7381 H   0  0  0  0  0  0  0  0  0  0  0  0
  -31.6019   56.7733   56.0043 H   0  0  0  0  0  0  0  0  0  0  0  0
  -29.8761   58.3812   56.3652 H   0  0  0  0  0  0  0  0  0  0  0  0
  -29.8811   57.9828   58.0968 H   0  0  0  0  0  0  0  0  0  0  0  0
  -32.1068   58.8054   58.3066 H   0  0  0  0  0  0  0  0  0  0  0  0
  -32.1073   59.1927   56.5655 H   0  0  0  0  0  0  0  0  0  0  0  0
  -30.4163   60.8277   56.8970 H   0  0  0  0  0  0  0  0  0  0  0  0
  -30.3865   60.4356   58.6307 H   0  0  0  0  0  0  0  0  0  0  0  0
  -32.6970   61.6008   57.1587 H   0  0  0  0  0  0  0  0  0  0  0  0
  -31.5661   62.4630   58.2285 H   0  0  0  0  0  0  0  0  0  0  0  0
  -32.3072   61.1712   60.0996 H   0  0  0  0  0  0  0  0  0  0  0  0
  -33.4136   60.2793   59.0551 H   0  0  0  0  0  0  0  0  0  0  0  0
  -34.0099   63.0293   58.7659 H   0  0  0  0  0  0  0  0  0  0  0  0
  -35.5691   63.0814   60.4023 H   0  0  0  0  0  0  0  0  0  0  0  0
  -37.3764   60.1530   63.2042 H   0  0  0  0  0  0  0  0  0  0  0  0
  -35.6979   59.6294   63.2434 H   0  0  0  0  0  0  0  0  0  0  0  0
  -37.8119   58.5833   61.4147 H   0  0  0  0  0  0  0  0  0  0  0  0
  -37.1476   57.7838   62.8677 H   0  0  0  0  0  0  0  0  0  0  0  0
  -35.6238   58.4067   60.3945 H   0  0  0  0  0  0  0  0  0  0  0  0
  -36.2729   56.8255   60.8717 H   0  0  0  0  0  0  0  0  0  0  0  0
  -34.2161   58.3779   62.3821 H   0  0  0  0  0  0  0  0  0  0  0  0
  -33.9192   56.9787   61.3420 H   0  0  0  0  0  0  0  0  0  0  0  0
  -35.5592   56.9942   63.8379 H   0  0  0  0  0  0  0  0  0  0  0  0
  -31.5782   53.3337   63.9805 H   0  0  0  0  0  0  0  0  0  0  0  0
  -32.2619   53.9779   65.4538 H   0  0  0  0  0  0  0  0  0  0  0  0
  -30.5303   53.8044   65.2971 H   0  0  0  0  0  0  0  0  0  0  0  0
  -31.8001   57.3274   65.1618 H   0  0  0  0  0  0  0  0  0  0  0  0
  -31.3518   56.1135   66.2794 H   0  0  0  0  0  0  0  0  0  0  0  0
  -28.1149   55.7383   61.6778 H   0  0  0  0  0  0  0  0  0  0  0  0
  -25.7904   56.0464   61.1246 H   0  0  0  0  0  0  0  0  0  0  0  0
  -24.3319   57.2410   62.6175 H   0  0  0  0  0  0  0  0  0  0  0  0
  -25.1809   58.1307   64.6921 H   0  0  0  0  0  0  0  0  0  0  0  0
  -35.6573   52.6835   63.4245 H   0  0  0  0  0  0  0  0  0  0  0  0
  -33.0769   53.6667   64.5481 H   0  0  0  0  0  0  0  0  0  0  0  0
  -34.0805   52.4052   65.2223 H   0  0  0  0  0  0  0  0  0  0  0  0
  -34.6735   54.0471   65.1474 H   0  0  0  0  0  0  0  0  0  0  0  0
  -34.2878   51.8977   61.5390 H   0  0  0  0  0  0  0  0  0  0  0  0
  -33.8831   51.0963   63.0677 H   0  0  0  0  0  0  0  0  0  0  0  0
  -29.7477   52.3432   63.6338 H   0  0  0  0  0  0  0  0  0  0  0  0
  -29.3996   50.0557   61.7493 H   0  0  0  0  0  0  0  0  0  0  0  0
  -29.7709   49.8191   63.4719 H   0  0  0  0  0  0  0  0  0  0  0  0
  -27.4204   49.5990   63.0838 H   0  0  0  0  0  0  0  0  0  0  0  0
  -27.8141   51.0524   64.0554 H   0  0  0  0  0  0  0  0  0  0  0  0
  -27.1285   51.0856   61.1746 H   0  0  0  0  0  0  0  0  0  0  0  0
  -26.0150   51.4162   62.5263 H   0  0  0  0  0  0  0  0  0  0  0  0
  -27.5928   53.2145   63.1948 H   0  0  0  0  0  0  0  0  0  0  0  0
  -26.6335   53.4597   61.7133 H   0  0  0  0  0  0  0  0  0  0  0  0
  1 33  1  0  0  0  0
  1 34  1  0  0  0  0
  1 61  1  0  0  0  0
  2  4  1  0  0  0  0
  2 62  1  0  0  0  0
  2 63  1  0  0  0  0
  2 64  1  0  0  0  0
  3 33  2  0  0  0  0
  4  7  1  0  0  0  0
  4 65  1  0  0  0  0
  4 66  1  0  0  0  0
  5 38  1  0  0  0  0
  5 39  1  0  0  0  0
  5 67  1  0  0  0  0
  6 39  2  0  0  0  0
  7 10  1  0  0  0  0
  7 68  1  0  0  0  0
  7 69  1  0  0  0  0
  8 40  1  0  0  0  0
  8 43  2  0  0  0  0
  9 42  1  0  0  0  0
  9 43  1  0  0  0  0
 10 13  1  0  0  0  0
 10 70  1  0  0  0  0
 10 71  1  0  0  0  0
 11 54  1  0  0  0  0
 11 55  1  0  0  0  0
 11 72  1  0  0  0  0
 12 49  1  0  0  0  0
 12 73  1  0  0  0  0
 13 16  1  0  0  0  0
 13 74  1  0  0  0  0
 13 75  1  0  0  0  0
 14 59  1  0  0  0  0
 14 60  1  0  0  0  0
 14 76  1  0  0  0  0
 15 50  2  0  0  0  0
 16 18  1  0  0  0  0
 16 77  1  0  0  0  0
 16 78  1  0  0  0  0
 17 50  1  0  0  0  0
 17 51  1  0  0  0  0
 18 20  1  0  0  0  0
 18 79  1  0  0  0  0
 18 80  1  0  0  0  0
 19 54  2  0  0  0  0
 20 22  1  0  0  0  0
 20 81  1  0  0  0  0
 20 82  1  0  0  0  0
 21 60  2  0  0  0  0
 22 23  1  0  0  0  0
 22 83  1  0  0  0  0
 22 84  1  0  0  0  0
 23 24  1  0  0  0  0
 23 85  1  0  0  0  0
 23 86  1  0  0  0  0
 24 25  1  0  0  0  0
 24 87  1  0  0  0  0
 24 88  1  0  0  0  0
 25 26  1  0  0  0  0
 25 89  1  0  0  0  0
 25 90  1  0  0  0  0
 26 27  1  0  0  0  0
 26 91  1  0  0  0  0
 26 92  1  0  0  0  0
 27 28  1  0  0  0  0
 27 93  1  0  0  0  0
 27 94  1  0  0  0  0
 28 29  1  0  0  0  0
 28 95  1  0  0  0  0
 28 96  1  0  0  0  0
 29 30  1  0  0  0  0
 29 97  1  0  0  0  0
 29 98  1  0  0  0  0
 30 31  1  0  0  0  0
 30 99  1  0  0  0  0
 30100  1  0  0  0  0
 31 32  2  0  0  0  0
 31101  1  0  0  0  0
 32 33  1  0  0  0  0
 32102  1  0  0  0  0
 34 35  1  0  0  0  0
 34103  1  0  0  0  0
 34104  1  0  0  0  0
 35 36  1  0  0  0  0
 35105  1  0  0  0  0
 35106  1  0  0  0  0
 36 37  1  0  0  0  0
 36107  1  0  0  0  0
 36108  1  0  0  0  0
 37 38  1  0  0  0  0
 37109  1  0  0  0  0
 37110  1  0  0  0  0
 38 50  1  0  0  0  0
 38111  1  1  0  0  0
 40 39  1  6  0  0  0
 40 41  1  0  0  0  0
 40 42  1  0  0  0  0
 41112  1  0  0  0  0
 41113  1  0  0  0  0
 41114  1  0  0  0  0
 42115  1  0  0  0  0
 42116  1  0  0  0  0
 43 44  1  0  0  0  0
 44 45  2  0  0  0  0
 44 49  1  0  0  0  0
 45 46  1  0  0  0  0
 45117  1  0  0  0  0
 46 47  2  0  0  0  0
 46118  1  0  0  0  0
 47 48  1  0  0  0  0
 47119  1  0  0  0  0
 48 49  2  0  0  0  0
 48120  1  0  0  0  0
 51 52  1  0  0  0  0
 51 53  1  0  0  0  0
 51121  1  1  0  0  0
 52122  1  0  0  0  0
 52123  1  0  0  0  0
 52124  1  0  0  0  0
 53 54  1  0  0  0  0
 53125  1  0  0  0  0
 53126  1  0  0  0  0
 55 56  1  0  0  0  0
 55 60  1  0  0  0  0
 55127  1  1  0  0  0
 56 57  1  0  0  0  0
 56128  1  0  0  0  0
 56129  1  0  0  0  0
 57 58  1  0  0  0  0
 57130  1  0  0  0  0
 57131  1  0  0  0  0
 58 59  1  0  0  0  0
 58132  1  0  0  0  0
 58133  1  0  0  0  0
 59134  1  0  0  0  0
 59135  1  0  0  0  0
M  END
$$$$
/media/chris/experiments/cd1a-new-docking/inputs/ligands/7ryo_ligand.pdb
 OpenBabel07032304133D

135137  0  0  1  0  0  0  0  0999 V2000
  -36.2311   60.7237   61.5795 N   0  0  0  0  0  0  0  0  0  0  0  0
  -30.7082   68.1888   55.7999 C   0  0  0  0  0  0  0  0  0  0  0  0
  -34.7486   62.1173   60.6028 O   0  0  0  0  0  0  0  0  0  0  0  0
  -30.9605   66.7479   56.1585 C   0  0  0  0  0  0  0  0  0  0  0  0
  -33.6519   56.2542   63.9242 N   0  0  0  0  0  0  0  0  0  0  0  0
  -32.3884   57.5620   62.6024 O   0  0  0  0  0  0  0  0  0  0  0  0
  -31.5470   65.9401   55.0151 C   0  0  0  0  0  0  0  0  0  0  0  0
  -31.4575   56.8643   65.7975 N   0  0  0  0  0  0  0  0  0  0  0  0
  -30.7988   54.7103   65.8930 O   0  0  0  0  0  0  0  0  0  0  0  0
  -32.8757   66.4621   54.4926 C   0  0  0  0  0  0  0  0  0  0  0  0
  -37.6045   55.1860   60.4294 N   0  0  0  0  0  0  0  0  0  0  0  0
  -31.0010   58.1873   68.1862 O   0  0  0  0  0  0  0  0  0  0  0  0
  -33.4513   65.6255   53.3581 C   0  0  0  0  0  0  0  0  0  0  0  0
  -37.5782   55.8360   56.8698 N   0  0  0  0  0  0  0  0  0  0  0  0
  -35.7068   54.9334   61.5487 O   0  0  0  0  0  0  0  0  0  0  0  0
  -33.7355   64.1810   53.7398 C   0  0  0  0  0  0  0  0  0  0  0  0
  -35.8412   54.4415   63.7442 O   0  0  0  0  0  0  0  0  0  0  0  0
  -32.5166   63.4111   54.2175 C   0  0  0  0  0  0  0  0  0  0  0  0
  -37.0817   53.1554   61.2448 O   0  0  0  0  0  0  0  0  0  0  0  0
  -32.7995   61.9630   54.5824 C   0  0  0  0  0  0  0  0  0  0  0  0
  -39.1062   56.1701   58.4775 O   0  0  0  0  0  0  0  0  0  0  0  0
  -33.8294   61.8146   55.6848 C   0  0  0  0  0  0  0  0  0  0  0  0
  -34.0904   60.3664   56.0517 C   0  0  0  0  0  0  0  0  0  0  0  0
  -32.8736   59.6220   56.5637 C   0  0  0  0  0  0  0  0  0  0  0  0
  -32.2910   60.2302   57.8243 C   0  0  0  0  0  0  0  0  0  0  0  0
  -33.2596   60.2440   58.9953 C   0  0  0  0  0  0  0  0  0  0  0  0
  -32.6807   60.8683   60.2510 C   0  0  0  0  0  0  0  0  0  0  0  0
  -32.2660   62.3218   60.0946 C   0  0  0  0  0  0  0  0  0  0  0  0
  -31.6734   62.9240   61.3569 C   0  0  0  0  0  0  0  0  0  0  0  0
  -32.6170   62.8974   62.5531 C   0  0  0  0  0  0  0  0  0  0  0  0
  -33.0044   61.4995   62.9223 C   0  0  0  0  0  0  0  0  0  0  0  0
  -34.0407   60.8001   62.4799 C   0  0  0  0  0  0  0  0  0  0  0  0
  -35.0244   61.2934   61.4903 C   0  0  0  0  0  0  0  0  0  0  0  0
  -36.5610   59.7701   62.6268 C   0  0  0  0  0  0  0  0  0  0  0  0
  -36.9560   58.4330   62.0390 C   0  0  0  0  0  0  0  0  0  0  0  0
  -35.8780   57.7610   61.2090 C   0  0  0  0  0  0  0  0  0  0  0  0
  -34.6110   57.4590   62.0020 C   0  0  0  0  0  0  0  0  0  0  0  0
  -34.8704   56.5130   63.1754 C   0  0  1  0  0  0  0  0  0  0  0  0
  -32.4948   56.8140   63.5629 C   0  0  0  0  0  0  0  0  0  0  0  0
  -31.2483   56.4696   64.3946 C   0  0  1  0  0  0  0  0  0  0  0  0
  -30.0541   57.2368   63.8351 C   0  0  0  0  0  0  0  0  0  0  0  0
  -30.9673   54.9618   64.4748 C   0  0  0  0  0  0  0  0  0  0  0  0
  -31.1927   55.8521   66.5149 C   0  0  0  0  0  0  0  0  0  0  0  0
  -31.2630   55.7868   67.9765 C   0  0  0  0  0  0  0  0  0  0  0  0
  -31.5733   54.5827   68.6100 C   0  0  0  0  0  0  0  0  0  0  0  0
  -31.8813   54.5581   69.9593 C   0  0  0  0  0  0  0  0  0  0  0  0
  -31.8854   55.7229   70.6954 C   0  0  0  0  0  0  0  0  0  0  0  0
  -31.5858   56.9300   70.0906 C   0  0  0  0  0  0  0  0  0  0  0  0
  -31.2758   56.9754   68.7350 C   0  0  0  0  0  0  0  0  0  0  0  0
  -35.5090   55.2173   62.6978 C   0  0  0  0  0  0  0  0  0  0  0  0
  -37.2520   54.0824   63.9186 C   0  0  2  0  0  0  0  0  0  0  0  0
  -37.3623   52.5796   63.8647 C   0  0  0  0  0  0  0  0  0  0  0  0
  -37.9881   54.7562   62.7768 C   0  0  0  0  0  0  0  0  0  0  0  0
  -37.5199   54.2895   61.4164 C   0  0  0  0  0  0  0  0  0  0  0  0
  -37.1804   54.8781   59.0748 C   0  0  1  0  0  0  0  0  0  0  0  0
  -37.3623   53.3824   58.7931 C   0  0  0  0  0  0  0  0  0  0  0  0
  -36.5491   52.8811   57.6045 C   0  0  0  0  0  0  0  0  0  0  0  0
  -36.8885   53.5138   56.2695 C   0  0  0  0  0  0  0  0  0  0  0  0
  -36.5942   54.9974   56.1938 C   0  0  0  0  0  0  0  0  0  0  0  0
  -38.0392   55.6845   58.1134 C   0  0  0  0  0  0  0  0  0  0  0  0
  -36.9185   60.9574   60.9146 H   0  0  0  0  0  0  0  0  0  0  0  0
  -30.2968   68.6999   56.6451 H   0  0  0  0  0  0  0  0  0  0  0  0
  -31.6299   68.6525   55.5165 H   0  0  0  0  0  0  0  0  0  0  0  0
  -30.0185   68.2375   54.9832 H   0  0  0  0  0  0  0  0  0  0  0  0
  -31.6434   66.7171   56.9817 H   0  0  0  0  0  0  0  0  0  0  0  0
  -30.0149   66.3113   56.4036 H   0  0  0  0  0  0  0  0  0  0  0  0
  -33.6801   55.6587   64.7076 H   0  0  0  0  0  0  0  0  0  0  0  0
  -31.6925   64.9360   55.3551 H   0  0  0  0  0  0  0  0  0  0  0  0
  -30.8520   66.0100   54.2045 H   0  0  0  0  0  0  0  0  0  0  0  0
  -32.7315   67.4611   54.1377 H   0  0  0  0  0  0  0  0  0  0  0  0
  -33.5730   66.4169   55.3030 H   0  0  0  0  0  0  0  0  0  0  0  0
  -37.9645   56.0810   60.6259 H   0  0  0  0  0  0  0  0  0  0  0  0
  -30.7885   58.2521   67.2759 H   0  0  0  0  0  0  0  0  0  0  0  0
  -32.7514   65.6286   52.5488 H   0  0  0  0  0  0  0  0  0  0  0  0
  -34.3892   66.0666   53.0922 H   0  0  0  0  0  0  0  0  0  0  0  0
  -37.9402   56.5930   56.3549 H   0  0  0  0  0  0  0  0  0  0  0  0
  -34.1341   63.6798   52.8826 H   0  0  0  0  0  0  0  0  0  0  0  0
  -34.4218   64.2095   54.5602 H   0  0  0  0  0  0  0  0  0  0  0  0
  -32.1252   63.9049   55.0823 H   0  0  0  0  0  0  0  0  0  0  0  0
  -31.8243   63.3936   53.4019 H   0  0  0  0  0  0  0  0  0  0  0  0
  -31.8863   61.5095   54.9070 H   0  0  0  0  0  0  0  0  0  0  0  0
  -33.1968   61.4873   53.7102 H   0  0  0  0  0  0  0  0  0  0  0  0
  -34.7475   62.2555   55.3569 H   0  0  0  0  0  0  0  0  0  0  0  0
  -33.4438   62.3038   56.5549 H   0  0  0  0  0  0  0  0  0  0  0  0
  -34.4507   59.8601   55.1806 H   0  0  0  0  0  0  0  0  0  0  0  0
  -34.8012   60.3770   56.8514 H   0  0  0  0  0  0  0  0  0  0  0  0
  -32.1224   59.6327   55.8018 H   0  0  0  0  0  0  0  0  0  0  0  0
  -33.1862   58.6273   56.8043 H   0  0  0  0  0  0  0  0  0  0  0  0
  -32.0025   61.2384   57.6117 H   0  0  0  0  0  0  0  0  0  0  0  0
  -31.4591   59.6216   58.1116 H   0  0  0  0  0  0  0  0  0  0  0  0
  -33.5386   59.2349   59.2162 H   0  0  0  0  0  0  0  0  0  0  0  0
  -34.0979   60.8417   58.7038 H   0  0  0  0  0  0  0  0  0  0  0  0
  -31.8188   60.3033   60.5390 H   0  0  0  0  0  0  0  0  0  0  0  0
  -33.4566   60.8493   60.9875 H   0  0  0  0  0  0  0  0  0  0  0  0
  -33.1288   62.8922   59.8205 H   0  0  0  0  0  0  0  0  0  0  0  0
  -31.5034   62.3517   59.3447 H   0  0  0  0  0  0  0  0  0  0  0  0
  -31.4135   63.9422   61.1549 H   0  0  0  0  0  0  0  0  0  0  0  0
  -30.8237   62.3281   61.6171 H   0  0  0  0  0  0  0  0  0  0  0  0
  -33.5008   63.4493   62.3099 H   0  0  0  0  0  0  0  0  0  0  0  0
  -32.1095   63.3341   63.3877 H   0  0  0  0  0  0  0  0  0  0  0  0
  -32.3917   61.0229   63.6023 H   0  0  0  0  0  0  0  0  0  0  0  0
  -34.1701   59.8461   62.8514 H   0  0  0  0  0  0  0  0  0  0  0  0
  -37.3764   60.1530   63.2042 H   0  0  0  0  0  0  0  0  0  0  0  0
  -35.6979   59.6294   63.2434 H   0  0  0  0  0  0  0  0  0  0  0  0
  -37.8119   58.5833   61.4147 H   0  0  0  0  0  0  0  0  0  0  0  0
  -37.1476   57.7838   62.8677 H   0  0  0  0  0  0  0  0  0  0  0  0
  -35.6238   58.4067   60.3945 H   0  0  0  0  0  0  0  0  0  0  0  0
  -36.2729   56.8255   60.8717 H   0  0  0  0  0  0  0  0  0  0  0  0
  -34.2161   58.3779   62.3821 H   0  0  0  0  0  0  0  0  0  0  0  0
  -33.9192   56.9787   61.3420 H   0  0  0  0  0  0  0  0  0  0  0  0
  -35.5592   56.9942   63.8379 H   0  0  0  0  0  0  0  0  0  0  0  0
  -30.2877   58.2803   63.7948 H   0  0  0  0  0  0  0  0  0  0  0  0
  -29.8324   56.8827   62.8501 H   0  0  0  0  0  0  0  0  0  0  0  0
  -29.2048   57.0857   64.4681 H   0  0  0  0  0  0  0  0  0  0  0  0
  -31.7902   54.4004   64.0842 H   0  0  0  0  0  0  0  0  0  0  0  0
  -30.1120   54.6717   63.9010 H   0  0  0  0  0  0  0  0  0  0  0  0
  -31.5732   53.7042   68.0685 H   0  0  0  0  0  0  0  0  0  0  0  0
  -32.1094   53.6617   70.4169 H   0  0  0  0  0  0  0  0  0  0  0  0
  -32.1127   55.6944   71.7017 H   0  0  0  0  0  0  0  0  0  0  0  0
  -31.5923   57.7996   70.6463 H   0  0  0  0  0  0  0  0  0  0  0  0
  -37.6675   54.3988   64.8525 H   0  0  0  0  0  0  0  0  0  0  0  0
  -36.9551   52.2250   62.9409 H   0  0  0  0  0  0  0  0  0  0  0  0
  -38.3914   52.2948   63.9336 H   0  0  0  0  0  0  0  0  0  0  0  0
  -36.8186   52.1526   64.6813 H   0  0  0  0  0  0  0  0  0  0  0  0
  -37.8330   55.8126   62.8471 H   0  0  0  0  0  0  0  0  0  0  0  0
  -39.0227   54.4983   62.8657 H   0  0  0  0  0  0  0  0  0  0  0  0
  -36.1467   55.1254   58.9512 H   0  0  0  0  0  0  0  0  0  0  0  0
  -38.3978   53.1989   58.5958 H   0  0  0  0  0  0  0  0  0  0  0  0
  -37.0127   52.8559   59.6565 H   0  0  0  0  0  0  0  0  0  0  0  0
  -36.7059   51.8261   57.5190 H   0  0  0  0  0  0  0  0  0  0  0  0
  -35.5337   53.1505   57.8081 H   0  0  0  0  0  0  0  0  0  0  0  0
  -37.9324   53.3688   56.0851 H   0  0  0  0  0  0  0  0  0  0  0  0
  -36.2687   53.0394   55.5377 H   0  0  0  0  0  0  0  0  0  0  0  0
  -35.6385   55.1735   56.6415 H   0  0  0  0  0  0  0  0  0  0  0  0
  -36.6214   55.2644   55.1580 H   0  0  0  0  0  0  0  0  0  0  0  0
  1 33  1  0  0  0  0
  1 34  1  0  0  0  0
  1 61  1  0  0  0  0
  2  4  1  0  0  0  0
  2 62  1  0  0  0  0
  2 63  1  0  0  0  0
  2 64  1  0  0  0  0
  3 33  2  0  0  0  0
  4  7  1  0  0  0  0
  4 65  1  0  0  0  0
  4 66  1  0  0  0  0
  5 38  1  0  0  0  0
  5 39  1  0  0  0  0
  5 67  1  0  0  0  0
  6 39  2  0  0  0  0
  7 10  1  0  0  0  0
  7 68  1  0  0  0  0
  7 69  1  0  0  0  0
  8 40  1  0  0  0  0
  8 43  2  0  0  0  0
  9 42  1  0  0  0  0
  9 43  1  0  0  0  0
 10 13  1  0  0  0  0
 10 70  1  0  0  0  0
 10 71  1  0  0  0  0
 11 54  1  0  0  0  0
 11 55  1  0  0  0  0
 11 72  1  0  0  0  0
 12 49  1  0  0  0  0
 12 73  1  0  0  0  0
 13 16  1  0  0  0  0
 13 74  1  0  0  0  0
 13 75  1  0  0  0  0
 14 59  1  0  0  0  0
 14 60  1  0  0  0  0
 14 76  1  0  0  0  0
 15 50  2  0  0  0  0
 16 18  1  0  0  0  0
 16 77  1  0  0  0  0
 16 78  1  0  0  0  0
 17 50  1  0  0  0  0
 17 51  1  0  0  0  0
 18 20  1  0  0  0  0
 18 79  1  0  0  0  0
 18 80  1  0  0  0  0
 19 54  2  0  0  0  0
 20 22  1  0  0  0  0
 20 81  1  0  0  0  0
 20 82  1  0  0  0  0
 21 60  2  0  0  0  0
 22 23  1  0  0  0  0
 22 83  1  0  0  0  0
 22 84  1  0  0  0  0
 23 24  1  0  0  0  0
 23 85  1  0  0  0  0
 23 86  1  0  0  0  0
 24 25  1  0  0  0  0
 24 87  1  0  0  0  0
 24 88  1  0  0  0  0
 25 26  1  0  0  0  0
 25 89  1  0  0  0  0
 25 90  1  0  0  0  0
 26 27  1  0  0  0  0
 26 91  1  0  0  0  0
 26 92  1  0  0  0  0
 27 28  1  0  0  0  0
 27 93  1  0  0  0  0
 27 94  1  0  0  0  0
 28 29  1  0  0  0  0
 28 95  1  0  0  0  0
 28 96  1  0  0  0  0
 29 30  1  0  0  0  0
 29 97  1  0  0  0  0
 29 98  1  0  0  0  0
 30 31  1  0  0  0  0
 30 99  1  0  0  0  0
 30100  1  0  0  0  0
 31 32  2  0  0  0  0
 31101  1  0  0  0  0
 32 33  1  0  0  0  0
 32102  1  0  0  0  0
 34 35  1  0  0  0  0
 34103  1  0  0  0  0
 34104  1  0  0  0  0
 35 36  1  0  0  0  0
 35105  1  0  0  0  0
 35106  1  0  0  0  0
 36 37  1  0  0  0  0
 36107  1  0  0  0  0
 36108  1  0  0  0  0
 37 38  1  0  0  0  0
 37109  1  0  0  0  0
 37110  1  0  0  0  0
 38 50  1  0  0  0  0
 38111  1  1  0  0  0
 40 39  1  6  0  0  0
 40 41  1  0  0  0  0
 40 42  1  0  0  0  0
 41112  1  0  0  0  0
 41113  1  0  0  0  0
 41114  1  0  0  0  0
 42115  1  0  0  0  0
 42116  1  0  0  0  0
 43 44  1  0  0  0  0
 44 45  2  0  0  0  0
 44 49  1  0  0  0  0
 45 46  1  0  0  0  0
 45117  1  0  0  0  0
 46 47  2  0  0  0  0
 46118  1  0  0  0  0
 47 48  1  0  0  0  0
 47119  1  0  0  0  0
 48 49  2  0  0  0  0
 48120  1  0  0  0  0
 51 52  1  0  0  0  0
 51 53  1  0  0  0  0
 51121  1  1  0  0  0
 52122  1  0  0  0  0
 52123  1  0  0  0  0
 52124  1  0  0  0  0
 53 54  1  0  0  0  0
 53125  1  0  0  0  0
 53126  1  0  0  0  0
 55 56  1  0  0  0  0
 55 60  1  0  0  0  0
 55127  1  6  0  0  0
 56 57  1  0  0  0  0
 56128  1  0  0  0  0
 56129  1  0  0  0  0
 57 58  1  0  0  0  0
 57130  1  0  0  0  0
 57131  1  0  0  0  0
 58 59  1  0  0  0  0
 58132  1  0  0  0  0
 58133  1  0  0  0  0
 59134  1  0  0  0  0
 59135  1  0  0  0  0
M  END
$$$$
/media/chris/experiments/cd1a-new-docking/inputs/ligands/7ryo_ligand.pdb
 OpenBabel07032304133D

135137  0  0  1  0  0  0  0  0999 V2000
  -39.2043   59.3899   62.1545 N   0  0  0  0  0  0  0  0  0  0  0  0
  -35.1477   52.5326   72.9318 C   0  0  0  0  0  0  0  0  0  0  0  0
  -40.1500   57.4612   62.8468 O   0  0  0  0  0  0  0  0  0  0  0  0
  -34.4558   53.4306   73.9234 C   0  0  0  0  0  0  0  0  0  0  0  0
  -32.3413   56.5057   61.9259 N   0  0  0  0  0  0  0  0  0  0  0  0
  -33.2064   57.3412   63.8252 O   0  0  0  0  0  0  0  0  0  0  0  0
  -33.5279   54.4397   73.2718 C   0  0  0  0  0  0  0  0  0  0  0  0
  -31.1065   56.8752   65.3883 N   0  0  0  0  0  0  0  0  0  0  0  0
  -30.3998   54.7347   65.4326 O   0  0  0  0  0  0  0  0  0  0  0  0
  -32.4128   53.8246   72.4416 C   0  0  0  0  0  0  0  0  0  0  0  0
  -35.3141   62.3163   61.8323 N   0  0  0  0  0  0  0  0  0  0  0  0
  -30.9446   53.3797   67.5223 O   0  0  0  0  0  0  0  0  0  0  0  0
  -32.9179   52.9799   71.2799 C   0  0  0  0  0  0  0  0  0  0  0  0
  -36.7468   64.1635   64.5943 N   0  0  0  0  0  0  0  0  0  0  0  0
  -32.4502   57.3368   59.0507 O   0  0  0  0  0  0  0  0  0  0  0  0
  -33.7565   53.7531   70.2740 C   0  0  0  0  0  0  0  0  0  0  0  0
  -33.8402   58.8359   60.0001 O   0  0  0  0  0  0  0  0  0  0  0  0
  -34.9999   54.3965   70.8627 C   0  0  0  0  0  0  0  0  0  0  0  0
  -35.2000   60.0696   61.8702 O   0  0  0  0  0  0  0  0  0  0  0  0
  -35.8456   55.1546   69.8526 C   0  0  0  0  0  0  0  0  0  0  0  0
  -34.7984   64.3178   63.4940 O   0  0  0  0  0  0  0  0  0  0  0  0
  -37.0715   55.8022   70.4657 C   0  0  0  0  0  0  0  0  0  0  0  0
  -37.9160   56.5409   69.4453 C   0  0  0  0  0  0  0  0  0  0  0  0
  -39.1436   57.2174   70.0216 C   0  0  0  0  0  0  0  0  0  0  0  0
  -39.9754   57.9324   68.9750 C   0  0  0  0  0  0  0  0  0  0  0  0
  -41.2001   58.6288   69.5448 C   0  0  0  0  0  0  0  0  0  0  0  0
  -42.0405   59.3295   68.4938 C   0  0  0  0  0  0  0  0  0  0  0  0
  -42.6013   58.4084   67.4231 C   0  0  0  0  0  0  0  0  0  0  0  0
  -41.5330   57.6614   66.6435 C   0  0  0  0  0  0  0  0  0  0  0  0
  -40.5486   58.5724   65.9204 C   0  0  0  0  0  0  0  0  0  0  0  0
  -41.2401   59.4701   64.9424 C   0  0  0  0  0  0  0  0  0  0  0  0
  -41.0506   59.5426   63.6318 C   0  0  0  0  0  0  0  0  0  0  0  0
  -40.0967   58.7017   62.8746 C   0  0  0  0  0  0  0  0  0  0  0  0
  -38.2360   58.7337   61.2903 C   0  0  0  0  0  0  0  0  0  0  0  0
  -36.9560   58.4330   62.0390 C   0  0  0  0  0  0  0  0  0  0  0  0
  -35.8780   57.7610   61.2090 C   0  0  0  0  0  0  0  0  0  0  0  0
  -34.6110   57.4590   62.0020 C   0  0  0  0  0  0  0  0  0  0  0  0
  -33.5311   56.7980   61.1441 C   0  0  1  0  0  0  0  0  0  0  0  0
  -32.2841   56.8100   63.2248 C   0  0  0  0  0  0  0  0  0  0  0  0
  -30.9801   56.4887   63.9733 C   0  0  1  0  0  0  0  0  0  0  0  0
  -29.8400   57.2816   63.3415 C   0  0  0  0  0  0  0  0  0  0  0  0
  -30.6642   54.9867   64.0291 C   0  0  0  0  0  0  0  0  0  0  0  0
  -30.7759   55.8665   66.0831 C   0  0  0  0  0  0  0  0  0  0  0  0
  -30.7508   55.7957   67.5460 C   0  0  0  0  0  0  0  0  0  0  0  0
  -30.4967   56.9430   68.2986 C   0  0  0  0  0  0  0  0  0  0  0  0
  -30.2295   56.8490   69.6536 C   0  0  0  0  0  0  0  0  0  0  0  0
  -30.2111   55.6206   70.2776 C   0  0  0  0  0  0  0  0  0  0  0  0
  -30.4553   54.4679   69.5535 C   0  0  0  0  0  0  0  0  0  0  0  0
  -30.7237   54.5418   68.1903 C   0  0  0  0  0  0  0  0  0  0  0  0
  -33.1974   57.6570   59.9336 C   0  0  0  0  0  0  0  0  0  0  0  0
  -33.0359   60.0613   60.0318 C   0  0  2  0  0  0  0  0  0  0  0  0
  -32.1363   59.9992   61.2404 C   0  0  0  0  0  0  0  0  0  0  0  0
  -34.0328   61.2011   60.1127 C   0  0  0  0  0  0  0  0  0  0  0  0
  -34.8979   61.1410   61.3520 C   0  0  0  0  0  0  0  0  0  0  0  0
  -36.1594   62.4078   63.0099 C   0  0  1  0  0  0  0  0  0  0  0  0
  -35.8808   61.2305   63.9511 C   0  0  0  0  0  0  0  0  0  0  0  0
  -36.9942   60.9801   64.9626 C   0  0  0  0  0  0  0  0  0  0  0  0
  -37.2669   62.1179   65.9262 C   0  0  0  0  0  0  0  0  0  0  0  0
  -37.7789   63.3808   65.2657 C   0  0  0  0  0  0  0  0  0  0  0  0
  -35.8424   63.7136   63.7216 C   0  0  0  0  0  0  0  0  0  0  0  0
  -39.2028   60.3728   62.2112 H   0  0  0  0  0  0  0  0  0  0  0  0
  -35.7837   51.8483   73.4534 H   0  0  0  0  0  0  0  0  0  0  0  0
  -34.4158   51.9856   72.3749 H   0  0  0  0  0  0  0  0  0  0  0  0
  -35.7349   53.1259   72.2625 H   0  0  0  0  0  0  0  0  0  0  0  0
  -33.8816   52.8220   74.5903 H   0  0  0  0  0  0  0  0  0  0  0  0
  -35.2157   53.9827   74.4360 H   0  0  0  0  0  0  0  0  0  0  0  0
  -31.5678   56.0779   61.4924 H   0  0  0  0  0  0  0  0  0  0  0  0
  -33.0825   55.0318   74.0437 H   0  0  0  0  0  0  0  0  0  0  0  0
  -34.1279   55.0148   72.5979 H   0  0  0  0  0  0  0  0  0  0  0  0
  -31.8187   53.2036   73.0790 H   0  0  0  0  0  0  0  0  0  0  0  0
  -31.8491   54.6319   72.0229 H   0  0  0  0  0  0  0  0  0  0  0  0
  -35.0400   63.1438   61.3749 H   0  0  0  0  0  0  0  0  0  0  0  0
  -31.1280   53.3951   66.6035 H   0  0  0  0  0  0  0  0  0  0  0  0
  -33.5149   52.1851   71.6759 H   0  0  0  0  0  0  0  0  0  0  0  0
  -32.0550   52.6243   70.7565 H   0  0  0  0  0  0  0  0  0  0  0  0
  -36.7139   65.1241   64.8073 H   0  0  0  0  0  0  0  0  0  0  0  0
  -34.0617   53.0778   69.5022 H   0  0  0  0  0  0  0  0  0  0  0  0
  -33.1419   54.5495   69.9094 H   0  0  0  0  0  0  0  0  0  0  0  0
  -34.6943   55.0813   71.6260 H   0  0  0  0  0  0  0  0  0  0  0  0
  -35.6091   53.6016   71.2395 H   0  0  0  0  0  0  0  0  0  0  0  0
  -36.1656   54.4700   69.0951 H   0  0  0  0  0  0  0  0  0  0  0  0
  -35.2372   55.9395   69.4542 H   0  0  0  0  0  0  0  0  0  0  0  0
  -36.7532   56.4974   71.2142 H   0  0  0  0  0  0  0  0  0  0  0  0
  -37.6752   55.0223   70.8807 H   0  0  0  0  0  0  0  0  0  0  0  0
  -38.2374   55.8384   68.7050 H   0  0  0  0  0  0  0  0  0  0  0  0
  -37.2995   57.3175   69.0430 H   0  0  0  0  0  0  0  0  0  0  0  0
  -38.8271   57.9326   70.7519 H   0  0  0  0  0  0  0  0  0  0  0  0
  -39.7578   56.4528   70.4495 H   0  0  0  0  0  0  0  0  0  0  0  0
  -40.3004   57.2138   68.2519 H   0  0  0  0  0  0  0  0  0  0  0  0
  -39.3549   58.6902   68.5441 H   0  0  0  0  0  0  0  0  0  0  0  0
  -40.8748   59.3563   70.2588 H   0  0  0  0  0  0  0  0  0  0  0  0
  -41.8149   57.8731   69.9875 H   0  0  0  0  0  0  0  0  0  0  0  0
  -41.4311   60.0673   68.0151 H   0  0  0  0  0  0  0  0  0  0  0  0
  -42.8806   59.7508   69.0052 H   0  0  0  0  0  0  0  0  0  0  0  0
  -43.1723   58.9970   66.7358 H   0  0  0  0  0  0  0  0  0  0  0  0
  -43.1974   57.6733   67.9223 H   0  0  0  0  0  0  0  0  0  0  0  0
  -42.0166   57.0428   65.9165 H   0  0  0  0  0  0  0  0  0  0  0  0
  -40.9685   57.0941   67.3537 H   0  0  0  0  0  0  0  0  0  0  0  0
  -39.8389   57.9683   65.3948 H   0  0  0  0  0  0  0  0  0  0  0  0
  -40.0638   59.1859   66.6509 H   0  0  0  0  0  0  0  0  0  0  0  0
  -41.9491   60.1091   65.3349 H   0  0  0  0  0  0  0  0  0  0  0  0
  -41.6066   60.2330   63.1035 H   0  0  0  0  0  0  0  0  0  0  0  0
  -38.0148   59.3748   60.4627 H   0  0  0  0  0  0  0  0  0  0  0  0
  -38.6554   57.8106   60.9484 H   0  0  0  0  0  0  0  0  0  0  0  0
  -37.1937   57.7896   62.8603 H   0  0  0  0  0  0  0  0  0  0  0  0
  -36.5565   59.3772   62.3453 H   0  0  0  0  0  0  0  0  0  0  0  0
  -35.6238   58.4067   60.3945 H   0  0  0  0  0  0  0  0  0  0  0  0
  -36.2729   56.8255   60.8717 H   0  0  0  0  0  0  0  0  0  0  0  0
  -34.8590   56.8018   62.8091 H   0  0  0  0  0  0  0  0  0  0  0  0
  -34.2203   58.3886   62.3599 H   0  0  0  0  0  0  0  0  0  0  0  0
  -33.9197   55.8664   60.7890 H   0  0  0  0  0  0  0  0  0  0  0  0
  -30.0966   58.3202   63.3205 H   0  0  0  0  0  0  0  0  0  0  0  0
  -29.6749   56.9348   62.3428 H   0  0  0  0  0  0  0  0  0  0  0  0
  -28.9489   57.1460   63.9180 H   0  0  0  0  0  0  0  0  0  0  0  0
  -31.4991   54.4098   63.6899 H   0  0  0  0  0  0  0  0  0  0  0  0
  -29.8419   54.7156   63.4005 H   0  0  0  0  0  0  0  0  0  0  0  0
  -30.5080   57.8683   67.8418 H   0  0  0  0  0  0  0  0  0  0  0  0
  -30.0428   57.7044   70.1999 H   0  0  0  0  0  0  0  0  0  0  0  0
  -30.0145   55.5606   71.2889 H   0  0  0  0  0  0  0  0  0  0  0  0
  -30.4383   53.5504   70.0256 H   0  0  0  0  0  0  0  0  0  0  0  0
  -32.4088   60.1904   59.1745 H   0  0  0  0  0  0  0  0  0  0  0  0
  -32.7303   59.8700   62.1209 H   0  0  0  0  0  0  0  0  0  0  0  0
  -31.5783   60.9090   61.3168 H   0  0  0  0  0  0  0  0  0  0  0  0
  -31.4619   59.1745   61.1409 H   0  0  0  0  0  0  0  0  0  0  0  0
  -34.6669   61.1615   59.2518 H   0  0  0  0  0  0  0  0  0  0  0  0
  -33.4746   62.1129   60.1553 H   0  0  0  0  0  0  0  0  0  0  0  0
  -37.1896   62.3786   62.7224 H   0  0  0  0  0  0  0  0  0  0  0  0
  -34.9766   61.4322   64.4865 H   0  0  0  0  0  0  0  0  0  0  0  0
  -35.8069   60.3534   63.3427 H   0  0  0  0  0  0  0  0  0  0  0  0
  -36.7297   60.1173   65.5374 H   0  0  0  0  0  0  0  0  0  0  0  0
  -37.8899   60.8583   64.3900 H   0  0  0  0  0  0  0  0  0  0  0  0
  -36.3558   62.3516   66.4363 H   0  0  0  0  0  0  0  0  0  0  0  0
  -38.0379   61.7825   66.5881 H   0  0  0  0  0  0  0  0  0  0  0  0
  -38.5163   63.1054   64.5408 H   0  0  0  0  0  0  0  0  0  0  0  0
  -38.1751   63.9974   66.0452 H   0  0  0  0  0  0  0  0  0  0  0  0
  1 33  1  0  0  0  0
  1 34  1  0  0  0  0
  1 61  1  0  0  0  0
  2  4  1  0  0  0  0
  2 62  1  0  0  0  0
  2 63  1  0  0  0  0
  2 64  1  0  0  0  0
  3 33  2  0  0  0  0
  4  7  1  0  0  0  0
  4 65  1  0  0  0  0
  4 66  1  0  0  0  0
  5 38  1  0  0  0  0
  5 39  1  0  0  0  0
  5 67  1  0  0  0  0
  6 39  2  0  0  0  0
  7 10  1  0  0  0  0
  7 68  1  0  0  0  0
  7 69  1  0  0  0  0
  8 40  1  0  0  0  0
  8 43  2  0  0  0  0
  9 42  1  0  0  0  0
  9 43  1  0  0  0  0
 10 13  1  0  0  0  0
 10 70  1  0  0  0  0
 10 71  1  0  0  0  0
 11 54  1  0  0  0  0
 11 55  1  0  0  0  0
 11 72  1  0  0  0  0
 12 49  1  0  0  0  0
 12 73  1  0  0  0  0
 13 16  1  0  0  0  0
 13 74  1  0  0  0  0
 13 75  1  0  0  0  0
 14 59  1  0  0  0  0
 14 60  1  0  0  0  0
 14 76  1  0  0  0  0
 15 50  2  0  0  0  0
 16 18  1  0  0  0  0
 16 77  1  0  0  0  0
 16 78  1  0  0  0  0
 17 50  1  0  0  0  0
 17 51  1  0  0  0  0
 18 20  1  0  0  0  0
 18 79  1  0  0  0  0
 18 80  1  0  0  0  0
 19 54  2  0  0  0  0
 20 22  1  0  0  0  0
 20 81  1  0  0  0  0
 20 82  1  0  0  0  0
 21 60  2  0  0  0  0
 22 23  1  0  0  0  0
 22 83  1  0  0  0  0
 22 84  1  0  0  0  0
 23 24  1  0  0  0  0
 23 85  1  0  0  0  0
 23 86  1  0  0  0  0
 24 25  1  0  0  0  0
 24 87  1  0  0  0  0
 24 88  1  0  0  0  0
 25 26  1  0  0  0  0
 25 89  1  0  0  0  0
 25 90  1  0  0  0  0
 26 27  1  0  0  0  0
 26 91  1  0  0  0  0
 26 92  1  0  0  0  0
 27 28  1  0  0  0  0
 27 93  1  0  0  0  0
 27 94  1  0  0  0  0
 28 29  1  0  0  0  0
 28 95  1  0  0  0  0
 28 96  1  0  0  0  0
 29 30  1  0  0  0  0
 29 97  1  0  0  0  0
 29 98  1  0  0  0  0
 30 31  1  0  0  0  0
 30 99  1  0  0  0  0
 30100  1  0  0  0  0
 31 32  2  0  0  0  0
 31101  1  0  0  0  0
 32 33  1  0  0  0  0
 32102  1  0  0  0  0
 34 35  1  0  0  0  0
 34103  1  0  0  0  0
 34104  1  0  0  0  0
 35 36  1  0  0  0  0
 35105  1  0  0  0  0
 35106  1  0  0  0  0
 36 37  1  0  0  0  0
 36107  1  0  0  0  0
 36108  1  0  0  0  0
 37 38  1  0  0  0  0
 37109  1  0  0  0  0
 37110  1  0  0  0  0
 38 50  1  0  0  0  0
 38111  1  6  0  0  0
 40 39  1  6  0  0  0
 40 41  1  0  0  0  0
 40 42  1  0  0  0  0
 41112  1  0  0  0  0
 41113  1  0  0  0  0
 41114  1  0  0  0  0
 42115  1  0  0  0  0
 42116  1  0  0  0  0
 43 44  1  0  0  0  0
 44 45  2  0  0  0  0
 44 49  1  0  0  0  0
 45 46  1  0  0  0  0
 45117  1  0  0  0  0
 46 47  2  0  0  0  0
 46118  1  0  0  0  0
 47 48  1  0  0  0  0
 47119  1  0  0  0  0
 48 49  2  0  0  0  0
 48120  1  0  0  0  0
 51 52  1  0  0  0  0
 51 53  1  0  0  0  0
 51121  1  6  0  0  0
 52122  1  0  0  0  0
 52123  1  0  0  0  0
 52124  1  0  0  0  0
 53 54  1  0  0  0  0
 53125  1  0  0  0  0
 53126  1  0  0  0  0
 55 56  1  0  0  0  0
 55 60  1  0  0  0  0
 55127  1  6  0  0  0
 56 57  1  0  0  0  0
 56128  1  0  0  0  0
 56129  1  0  0  0  0
 57 58  1  0  0  0  0
 57130  1  0  0  0  0
 57131  1  0  0  0  0
 58 59  1  0  0  0  0
 58132  1  0  0  0  0
 58133  1  0  0  0  0
 59134  1  0  0  0  0
 59135  1  0  0  0  0
M  END
$$$$
/media/chris/experiments/cd1a-new-docking/inputs/ligands/7ryo_ligand.pdb
 OpenBabel07032304133D

135137  0  0  1  0  0  0  0  0999 V2000
  -36.2311   60.7237   61.5795 N   0  0  0  0  0  0  0  0  0  0  0  0
  -27.7032   58.5136   69.3181 C   0  0  0  0  0  0  0  0  0  0  0  0
  -35.0643   62.5210   60.8710 O   0  0  0  0  0  0  0  0  0  0  0  0
  -26.5203   59.4262   69.5093 C   0  0  0  0  0  0  0  0  0  0  0  0
  -33.6519   56.2542   63.9242 N   0  0  0  0  0  0  0  0  0  0  0  0
  -34.6659   54.8731   65.3795 O   0  0  0  0  0  0  0  0  0  0  0  0
  -25.4882   59.3084   68.4025 C   0  0  0  0  0  0  0  0  0  0  0  0
  -32.4776   55.6718   67.1323 N   0  0  0  0  0  0  0  0  0  0  0  0
  -31.6258   53.5880   67.2559 O   0  0  0  0  0  0  0  0  0  0  0  0
  -24.8988   57.9169   68.2374 C   0  0  0  0  0  0  0  0  0  0  0  0
  -34.3488   52.0183   61.8740 N   0  0  0  0  0  0  0  0  0  0  0  0
  -31.9756   57.1273   69.4332 O   0  0  0  0  0  0  0  0  0  0  0  0
  -25.9358   56.8568   67.8926 C   0  0  0  0  0  0  0  0  0  0  0  0
  -31.8045   49.5616   62.6391 N   0  0  0  0  0  0  0  0  0  0  0  0
  -35.8977   54.3388   63.4171 O   0  0  0  0  0  0  0  0  0  0  0  0
  -26.6703   57.1146   66.5860 C   0  0  0  0  0  0  0  0  0  0  0  0
  -35.5588   55.1830   61.3548 O   0  0  0  0  0  0  0  0  0  0  0  0
  -27.7185   56.0701   66.2436 C   0  0  0  0  0  0  0  0  0  0  0  0
  -34.7588   52.2881   59.6783 O   0  0  0  0  0  0  0  0  0  0  0  0
  -28.4395   56.3203   64.9292 C   0  0  0  0  0  0  0  0  0  0  0  0
  -33.4124   50.5350   63.8631 O   0  0  0  0  0  0  0  0  0  0  0  0
  -29.1656   57.6504   64.8896 C   0  0  0  0  0  0  0  0  0  0  0  0
  -29.8950   57.8810   63.5801 C   0  0  0  0  0  0  0  0  0  0  0  0
  -29.0018   57.8665   62.3558 C   0  0  0  0  0  0  0  0  0  0  0  0
  -29.7572   58.1165   61.0653 C   0  0  0  0  0  0  0  0  0  0  0  0
  -30.4546   59.4661   61.0219 C   0  0  0  0  0  0  0  0  0  0  0  0
  -31.2240   59.7076   59.7368 C   0  0  0  0  0  0  0  0  0  0  0  0
  -31.9158   61.0587   59.6647 C   0  0  0  0  0  0  0  0  0  0  0  0
  -32.9229   61.2862   60.7787 C   0  0  0  0  0  0  0  0  0  0  0  0
  -32.3151   61.2460   62.1754 C   0  0  0  0  0  0  0  0  0  0  0  0
  -33.3496   61.4584   63.2362 C   0  0  0  0  0  0  0  0  0  0  0  0
  -34.6497   61.6627   63.0735 C   0  0  0  0  0  0  0  0  0  0  0  0
  -35.3353   61.6998   61.7624 C   0  0  0  0  0  0  0  0  0  0  0  0
  -36.5610   59.7701   62.6268 C   0  0  0  0  0  0  0  0  0  0  0  0
  -36.9560   58.4330   62.0390 C   0  0  0  0  0  0  0  0  0  0  0  0
  -35.8780   57.7610   61.2090 C   0  0  0  0  0  0  0  0  0  0  0  0
  -34.6110   57.4590   62.0020 C   0  0  0  0  0  0  0  0  0  0  0  0
  -34.8704   56.5130   63.1754 C   0  0  1  0  0  0  0  0  0  0  0  0
  -33.6588   55.4398   64.9822 C   0  0  0  0  0  0  0  0  0  0  0  0
  -32.3321   55.2384   65.7328 C   0  0  1  0  0  0  0  0  0  0  0  0
  -31.2521   56.0813   65.0612 C   0  0  0  0  0  0  0  0  0  0  0  0
  -31.9138   53.7650   65.8457 C   0  0  0  0  0  0  0  0  0  0  0  0
  -32.0752   54.7167   67.8639 C   0  0  0  0  0  0  0  0  0  0  0  0
  -32.0380   54.7065   69.3282 C   0  0  0  0  0  0  0  0  0  0  0  0
  -32.1959   53.5077   70.0248 C   0  0  0  0  0  0  0  0  0  0  0  0
  -32.4062   53.5129   71.3930 C   0  0  0  0  0  0  0  0  0  0  0  0
  -32.4623   54.7027   72.0857 C   0  0  0  0  0  0  0  0  0  0  0  0
  -32.3134   55.9048   71.4184 C   0  0  0  0  0  0  0  0  0  0  0  0
  -32.1033   55.9202   70.0431 C   0  0  0  0  0  0  0  0  0  0  0  0
  -35.5090   55.2173   62.6978 C   0  0  0  0  0  0  0  0  0  0  0  0
  -36.6354   54.4148   60.7221 C   0  0  2  0  0  0  0  0  0  0  0  0
  -37.9514   55.0109   61.1539 C   0  0  0  0  0  0  0  0  0  0  0  0
  -36.4600   52.9897   61.2096 C   0  0  0  0  0  0  0  0  0  0  0  0
  -35.1129   52.4045   60.8482 C   0  0  0  0  0  0  0  0  0  0  0  0
  -33.0361   51.4295   61.6738 C   0  0  1  0  0  0  0  0  0  0  0  0
  -31.9640   52.5250   61.6598 C   0  0  0  0  0  0  0  0  0  0  0  0
  -30.6512   52.0870   61.0195 C   0  0  0  0  0  0  0  0  0  0  0  0
  -29.9422   50.9376   61.7080 C   0  0  0  0  0  0  0  0  0  0  0  0
  -30.7073   49.6311   61.6800 C   0  0  0  0  0  0  0  0  0  0  0  0
  -32.7665   50.4690   62.8213 C   0  0  0  0  0  0  0  0  0  0  0  0
  -36.6819   60.6483   60.7075 H   0  0  0  0  0  0  0  0  0  0  0  0
  -28.3897   58.6451   70.1282 H   0  0  0  0  0  0  0  0  0  0  0  0
  -27.3695   57.4973   69.2947 H   0  0  0  0  0  0  0  0  0  0  0  0
  -28.1908   58.7502   68.3955 H   0  0  0  0  0  0  0  0  0  0  0  0
  -26.0505   59.1834   70.4394 H   0  0  0  0  0  0  0  0  0  0  0  0
  -26.8885   60.4307   69.4946 H   0  0  0  0  0  0  0  0  0  0  0  0
  -32.8109   56.6849   63.6478 H   0  0  0  0  0  0  0  0  0  0  0  0
  -24.6890   59.9868   68.6170 H   0  0  0  0  0  0  0  0  0  0  0  0
  -25.9947   59.5354   67.4878 H   0  0  0  0  0  0  0  0  0  0  0  0
  -24.4225   57.6394   69.1545 H   0  0  0  0  0  0  0  0  0  0  0  0
  -24.2094   57.9612   67.4203 H   0  0  0  0  0  0  0  0  0  0  0  0
  -34.6850   52.1362   62.7917 H   0  0  0  0  0  0  0  0  0  0  0  0
  -31.8333   57.1721   68.5082 H   0  0  0  0  0  0  0  0  0  0  0  0
  -26.6565   56.8211   68.6827 H   0  0  0  0  0  0  0  0  0  0  0  0
  -25.4084   55.9333   67.7752 H   0  0  0  0  0  0  0  0  0  0  0  0
  -31.8391   48.7617   63.2120 H   0  0  0  0  0  0  0  0  0  0  0  0
  -25.9498   57.1384   65.7953 H   0  0  0  0  0  0  0  0  0  0  0  0
  -27.1888   58.0432   66.7031 H   0  0  0  0  0  0  0  0  0  0  0  0
  -28.4460   56.0548   67.0280 H   0  0  0  0  0  0  0  0  0  0  0  0
  -27.2024   55.1386   66.1393 H   0  0  0  0  0  0  0  0  0  0  0  0
  -29.1541   55.5382   64.7792 H   0  0  0  0  0  0  0  0  0  0  0  0
  -27.6975   56.3403   64.1585 H   0  0  0  0  0  0  0  0  0  0  0  0
  -28.4507   58.4348   65.0259 H   0  0  0  0  0  0  0  0  0  0  0  0
  -29.8977   57.6420   65.6699 H   0  0  0  0  0  0  0  0  0  0  0  0
  -30.3794   58.8338   63.6299 H   0  0  0  0  0  0  0  0  0  0  0  0
  -30.5829   57.0693   63.4663 H   0  0  0  0  0  0  0  0  0  0  0  0
  -28.5266   56.9099   62.2924 H   0  0  0  0  0  0  0  0  0  0  0  0
  -28.2925   58.6596   62.4691 H   0  0  0  0  0  0  0  0  0  0  0  0
  -30.4952   57.3502   60.9511 H   0  0  0  0  0  0  0  0  0  0  0  0
  -29.0378   58.1088   60.2733 H   0  0  0  0  0  0  0  0  0  0  0  0
  -29.7154   60.2329   61.1234 H   0  0  0  0  0  0  0  0  0  0  0  0
  -31.1651   59.4795   61.8218 H   0  0  0  0  0  0  0  0  0  0  0  0
  -31.9686   58.9448   59.6441 H   0  0  0  0  0  0  0  0  0  0  0  0
  -30.5068   59.6885   58.9430 H   0  0  0  0  0  0  0  0  0  0  0  0
  -32.4270   61.1274   58.7272 H   0  0  0  0  0  0  0  0  0  0  0  0
  -31.1570   61.8057   59.7701 H   0  0  0  0  0  0  0  0  0  0  0  0
  -33.6733   60.5261   60.7154 H   0  0  0  0  0  0  0  0  0  0  0  0
  -33.3226   62.2692   60.6412 H   0  0  0  0  0  0  0  0  0  0  0  0
  -31.5752   62.0149   62.2539 H   0  0  0  0  0  0  0  0  0  0  0  0
  -31.8808   60.2792   62.3222 H   0  0  0  0  0  0  0  0  0  0  0  0
  -33.0104   61.4441   64.2108 H   0  0  0  0  0  0  0  0  0  0  0  0
  -35.2231   61.8058   63.9196 H   0  0  0  0  0  0  0  0  0  0  0  0
  -37.3764   60.1530   63.2042 H   0  0  0  0  0  0  0  0  0  0  0  0
  -35.6979   59.6294   63.2434 H   0  0  0  0  0  0  0  0  0  0  0  0
  -37.8119   58.5833   61.4147 H   0  0  0  0  0  0  0  0  0  0  0  0
  -37.1476   57.7838   62.8677 H   0  0  0  0  0  0  0  0  0  0  0  0
  -35.6238   58.4067   60.3945 H   0  0  0  0  0  0  0  0  0  0  0  0
  -36.2729   56.8255   60.8717 H   0  0  0  0  0  0  0  0  0  0  0  0
  -34.2161   58.3779   62.3821 H   0  0  0  0  0  0  0  0  0  0  0  0
  -33.9192   56.9787   61.3420 H   0  0  0  0  0  0  0  0  0  0  0  0
  -35.5592   56.9942   63.8379 H   0  0  0  0  0  0  0  0  0  0  0  0
  -31.5794   57.0983   65.0011 H   0  0  0  0  0  0  0  0  0  0  0  0
  -31.0687   55.7068   64.0759 H   0  0  0  0  0  0  0  0  0  0  0  0
  -30.3509   56.0300   65.6358 H   0  0  0  0  0  0  0  0  0  0  0  0
  -32.7089   53.1193   65.5361 H   0  0  0  0  0  0  0  0  0  0  0  0
  -31.0780   53.5256   65.2219 H   0  0  0  0  0  0  0  0  0  0  0  0
  -32.1555   52.6106   69.5162 H   0  0  0  0  0  0  0  0  0  0  0  0
  -32.5218   52.6200   71.8973 H   0  0  0  0  0  0  0  0  0  0  0  0
  -32.6159   54.6967   73.1062 H   0  0  0  0  0  0  0  0  0  0  0  0
  -32.3583   56.7930   71.9420 H   0  0  0  0  0  0  0  0  0  0  0  0
  -36.6121   54.4359   59.6526 H   0  0  0  0  0  0  0  0  0  0  0  0
  -38.0114   55.0067   62.2222 H   0  0  0  0  0  0  0  0  0  0  0  0
  -38.7551   54.4319   60.7493 H   0  0  0  0  0  0  0  0  0  0  0  0
  -38.0216   56.0170   60.7967 H   0  0  0  0  0  0  0  0  0  0  0  0
  -37.2244   52.3826   60.7714 H   0  0  0  0  0  0  0  0  0  0  0  0
  -36.5266   53.0056   62.2774 H   0  0  0  0  0  0  0  0  0  0  0  0
  -33.0076   50.9120   60.7377 H   0  0  0  0  0  0  0  0  0  0  0  0
  -31.7665   52.8178   62.6698 H   0  0  0  0  0  0  0  0  0  0  0  0
  -32.3471   53.3310   61.0695 H   0  0  0  0  0  0  0  0  0  0  0  0
  -29.9895   52.9278   61.0156 H   0  0  0  0  0  0  0  0  0  0  0  0
  -30.9043   51.7333   60.0419 H   0  0  0  0  0  0  0  0  0  0  0  0
  -29.7777   51.2085   62.7300 H   0  0  0  0  0  0  0  0  0  0  0  0
  -29.0313   50.7724   61.1715 H   0  0  0  0  0  0  0  0  0  0  0  0
  -31.1109   49.4991   60.6979 H   0  0  0  0  0  0  0  0  0  0  0  0
  -30.0137   48.8620   61.9491 H   0  0  0  0  0  0  0  0  0  0  0  0
  1 33  1  0  0  0  0
  1 34  1  0  0  0  0
  1 61  1  0  0  0  0
  2  4  1  0  0  0  0
  2 62  1  0  0  0  0
  2 63  1  0  0  0  0
  2 64  1  0  0  0  0
  3 33  2  0  0  0  0
  4  7  1  0  0  0  0
  4 65  1  0  0  0  0
  4 66  1  0  0  0  0
  5 38  1  0  0  0  0
  5 39  1  0  0  0  0
  5 67  1  0  0  0  0
  6 39  2  0  0  0  0
  7 10  1  0  0  0  0
  7 68  1  0  0  0  0
  7 69  1  0  0  0  0
  8 40  1  0  0  0  0
  8 43  2  0  0  0  0
  9 42  1  0  0  0  0
  9 43  1  0  0  0  0
 10 13  1  0  0  0  0
 10 70  1  0  0  0  0
 10 71  1  0  0  0  0
 11 54  1  0  0  0  0
 11 55  1  0  0  0  0
 11 72  1  0  0  0  0
 12 49  1  0  0  0  0
 12 73  1  0  0  0  0
 13 16  1  0  0  0  0
 13 74  1  0  0  0  0
 13 75  1  0  0  0  0
 14 59  1  0  0  0  0
 14 60  1  0  0  0  0
 14 76  1  0  0  0  0
 15 50  2  0  0  0  0
 16 18  1  0  0  0  0
 16 77  1  0  0  0  0
 16 78  1  0  0  0  0
 17 50  1  0  0  0  0
 17 51  1  0  0  0  0
 18 20  1  0  0  0  0
 18 79  1  0  0  0  0
 18 80  1  0  0  0  0
 19 54  2  0  0  0  0
 20 22  1  0  0  0  0
 20 81  1  0  0  0  0
 20 82  1  0  0  0  0
 21 60  2  0  0  0  0
 22 23  1  0  0  0  0
 22 83  1  0  0  0  0
 22 84  1  0  0  0  0
 23 24  1  0  0  0  0
 23 85  1  0  0  0  0
 23 86  1  0  0  0  0
 24 25  1  0  0  0  0
 24 87  1  0  0  0  0
 24 88  1  0  0  0  0
 25 26  1  0  0  0  0
 25 89  1  0  0  0  0
 25 90  1  0  0  0  0
 26 27  1  0  0  0  0
 26 91  1  0  0  0  0
 26 92  1  0  0  0  0
 27 28  1  0  0  0  0
 27 93  1  0  0  0  0
 27 94  1  0  0  0  0
 28 29  1  0  0  0  0
 28 95  1  0  0  0  0
 28 96  1  0  0  0  0
 29 30  1  0  0  0  0
 29 97  1  0  0  0  0
 29 98  1  0  0  0  0
 30 31  1  0  0  0  0
 30 99  1  0  0  0  0
 30100  1  0  0  0  0
 31 32  2  0  0  0  0
 31101  1  0  0  0  0
 32 33  1  0  0  0  0
 32102  1  0  0  0  0
 34 35  1  0  0  0  0
 34103  1  0  0  0  0
 34104  1  0  0  0  0
 35 36  1  0  0  0  0
 35105  1  0  0  0  0
 35106  1  0  0  0  0
 36 37  1  0  0  0  0
 36107  1  0  0  0  0
 36108  1  0  0  0  0
 37 38  1  0  0  0  0
 37109  1  0  0  0  0
 37110  1  0  0  0  0
 38 50  1  0  0  0  0
 38111  1  1  0  0  0
 40 39  1  6  0  0  0
 40 41  1  0  0  0  0
 40 42  1  0  0  0  0
 41112  1  0  0  0  0
 41113  1  0  0  0  0
 41114  1  0  0  0  0
 42115  1  0  0  0  0
 42116  1  0  0  0  0
 43 44  1  0  0  0  0
 44 45  2  0  0  0  0
 44 49  1  0  0  0  0
 45 46  1  0  0  0  0
 45117  1  0  0  0  0
 46 47  2  0  0  0  0
 46118  1  0  0  0  0
 47 48  1  0  0  0  0
 47119  1  0  0  0  0
 48 49  2  0  0  0  0
 48120  1  0  0  0  0
 51 52  1  0  0  0  0
 51 53  1  0  0  0  0
 51121  1  6  0  0  0
 52122  1  0  0  0  0
 52123  1  0  0  0  0
 52124  1  0  0  0  0
 53 54  1  0  0  0  0
 53125  1  0  0  0  0
 53126  1  0  0  0  0
 55 56  1  0  0  0  0
 55 60  1  0  0  0  0
 55127  1  6  0  0  0
 56 57  1  0  0  0  0
 56128  1  0  0  0  0
 56129  1  0  0  0  0
 57 58  1  0  0  0  0
 57130  1  0  0  0  0
 57131  1  0  0  0  0
 58 59  1  0  0  0  0
 58132  1  0  0  0  0
 58133  1  0  0  0  0
 59134  1  0  0  0  0
 59135  1  0  0  0  0
M  END
$$$$
/media/chris/experiments/cd1a-new-docking/inputs/ligands/7ryo_ligand.pdb
 OpenBabel07032304133D

135137  0  0  1  0  0  0  0  0999 V2000
  -36.2311   60.7237   61.5795 N   0  0  0  0  0  0  0  0  0  0  0  0
  -39.1131   61.8812   56.8055 C   0  0  0  0  0  0  0  0  0  0  0  0
  -34.7328   61.8482   62.8383 O   0  0  0  0  0  0  0  0  0  0  0  0
  -40.4207   62.5973   56.5916 C   0  0  0  0  0  0  0  0  0  0  0  0
  -35.3848   55.2330   62.7177 N   0  0  0  0  0  0  0  0  0  0  0  0
  -35.5611   54.3952   64.7963 O   0  0  0  0  0  0  0  0  0  0  0  0
  -41.6110   61.6590   56.5100 C   0  0  0  0  0  0  0  0  0  0  0  0
  -35.3076   51.8395   63.4168 N   0  0  0  0  0  0  0  0  0  0  0  0
  -37.3672   51.1474   64.0188 O   0  0  0  0  0  0  0  0  0  0  0  0
  -41.8415   60.8250   57.7599 C   0  0  0  0  0  0  0  0  0  0  0  0
  -39.5163   59.9882   66.5921 N   0  0  0  0  0  0  0  0  0  0  0  0
  -33.5575   49.7167   63.1087 O   0  0  0  0  0  0  0  0  0  0  0  0
  -42.1113   61.6601   59.0041 C   0  0  0  0  0  0  0  0  0  0  0  0
  -42.2273   60.8761   68.8182 N   0  0  0  0  0  0  0  0  0  0  0  0
  -36.1056   56.6655   65.2470 O   0  0  0  0  0  0  0  0  0  0  0  0
  -43.3489   62.5381   58.9011 C   0  0  0  0  0  0  0  0  0  0  0  0
  -36.2688   58.3271   63.7327 O   0  0  0  0  0  0  0  0  0  0  0  0
  -43.6152   63.3869   60.1321 C   0  0  0  0  0  0  0  0  0  0  0  0
  -37.4665   60.1389   67.5072 O   0  0  0  0  0  0  0  0  0  0  0  0
  -43.8095   62.5863   61.4093 C   0  0  0  0  0  0  0  0  0  0  0  0
  -42.1413   59.7466   66.8823 O   0  0  0  0  0  0  0  0  0  0  0  0
  -44.0906   63.4530   62.6209 C   0  0  0  0  0  0  0  0  0  0  0  0
  -42.9769   64.4427   62.9043 C   0  0  0  0  0  0  0  0  0  0  0  0
  -41.6256   63.8067   63.1615 C   0  0  0  0  0  0  0  0  0  0  0  0
  -40.5378   64.8203   63.4581 C   0  0  0  0  0  0  0  0  0  0  0  0
  -39.1745   64.1941   63.7008 C   0  0  0  0  0  0  0  0  0  0  0  0
  -38.0908   65.2085   64.0142 C   0  0  0  0  0  0  0  0  0  0  0  0
  -36.7150   64.6054   64.2439 C   0  0  0  0  0  0  0  0  0  0  0  0
  -36.1755   63.8471   63.0435 C   0  0  0  0  0  0  0  0  0  0  0  0
  -36.0087   64.7070   61.7966 C   0  0  0  0  0  0  0  0  0  0  0  0
  -35.4914   63.9107   60.6395 C   0  0  0  0  0  0  0  0  0  0  0  0
  -35.1898   62.6196   60.6121 C   0  0  0  0  0  0  0  0  0  0  0  0
  -35.3353   61.6998   61.7624 C   0  0  0  0  0  0  0  0  0  0  0  0
  -36.5610   59.7701   62.6268 C   0  0  0  0  0  0  0  0  0  0  0  0
  -36.9560   58.4330   62.0390 C   0  0  0  0  0  0  0  0  0  0  0  0
  -35.8780   57.7610   61.2090 C   0  0  0  0  0  0  0  0  0  0  0  0
  -34.6110   57.4590   62.0020 C   0  0  0  0  0  0  0  0  0  0  0  0
  -34.8704   56.5130   63.1754 C   0  0  1  0  0  0  0  0  0  0  0  0
  -35.6907   54.2677   63.5879 C   0  0  0  0  0  0  0  0  0  0  0  0
  -36.2067   52.9355   63.0194 C   0  0  1  0  0  0  0  0  0  0  0  0
  -36.2361   53.0270   61.4967 C   0  0  0  0  0  0  0  0  0  0  0  0
  -37.5703   52.5176   63.5893 C   0  0  0  0  0  0  0  0  0  0  0  0
  -36.0273   50.9366   63.9425 C   0  0  0  0  0  0  0  0  0  0  0  0
  -35.5541   49.6595   64.4817 C   0  0  0  0  0  0  0  0  0  0  0  0
  -36.2301   49.0528   65.5411 C   0  0  0  0  0  0  0  0  0  0  0  0
  -35.6639   47.9849   66.2158 C   0  0  0  0  0  0  0  0  0  0  0  0
  -34.4246   47.5064   65.8499 C   0  0  0  0  0  0  0  0  0  0  0  0
  -33.7319   48.0928   64.8064 C   0  0  0  0  0  0  0  0  0  0  0  0
  -34.2835   49.1685   64.1175 C   0  0  0  0  0  0  0  0  0  0  0  0
  -35.8061   57.1511   64.1912 C   0  0  0  0  0  0  0  0  0  0  0  0
  -36.6237   59.3595   64.7114 C   0  0  2  0  0  0  0  0  0  0  0  0
  -35.3856   59.7000   65.5018 C   0  0  0  0  0  0  0  0  0  0  0  0
  -37.7091   58.7466   65.5749 C   0  0  0  0  0  0  0  0  0  0  0  0
  -38.2150   59.6895   66.6439 C   0  0  0  0  0  0  0  0  0  0  0  0
  -40.1397   60.8722   67.5614 C   0  0  1  0  0  0  0  0  0  0  0  0
  -40.0806   62.3218   67.0667 C   0  0  0  0  0  0  0  0  0  0  0  0
  -40.2840   63.3532   68.1713 C   0  0  0  0  0  0  0  0  0  0  0  0
  -41.6250   63.2974   68.8758 C   0  0  0  0  0  0  0  0  0  0  0  0
  -41.8658   62.0186   69.6504 C   0  0  0  0  0  0  0  0  0  0  0  0
  -41.5911   60.4496   67.7249 C   0  0  0  0  0  0  0  0  0  0  0  0
  -36.6819   60.6483   60.7075 H   0  0  0  0  0  0  0  0  0  0  0  0
  -38.3185   62.5962   56.8537 H   0  0  0  0  0  0  0  0  0  0  0  0
  -38.9381   61.2077   55.9927 H   0  0  0  0  0  0  0  0  0  0  0  0
  -39.1537   61.3308   57.7222 H   0  0  0  0  0  0  0  0  0  0  0  0
  -40.3600   63.1498   55.6772 H   0  0  0  0  0  0  0  0  0  0  0  0
  -40.5759   63.2345   57.4371 H   0  0  0  0  0  0  0  0  0  0  0  0
  -35.5092   55.0758   61.7538 H   0  0  0  0  0  0  0  0  0  0  0  0
  -41.4558   60.9927   55.6873 H   0  0  0  0  0  0  0  0  0  0  0  0
  -42.4775   62.2754   56.3907 H   0  0  0  0  0  0  0  0  0  0  0  0
  -40.9707   60.2282   57.9346 H   0  0  0  0  0  0  0  0  0  0  0  0
  -42.7127   60.2288   57.5851 H   0  0  0  0  0  0  0  0  0  0  0  0
  -40.0683   59.5980   65.8764 H   0  0  0  0  0  0  0  0  0  0  0  0
  -33.9006   50.4422   62.6252 H   0  0  0  0  0  0  0  0  0  0  0  0
  -41.2643   62.2908   59.1766 H   0  0  0  0  0  0  0  0  0  0  0  0
  -42.2834   60.9741   59.8070 H   0  0  0  0  0  0  0  0  0  0  0  0
  -43.0239   60.3663   69.0916 H   0  0  0  0  0  0  0  0  0  0  0  0
  -44.1966   61.9053   58.7402 H   0  0  0  0  0  0  0  0  0  0  0  0
  -43.1777   63.2164   58.0914 H   0  0  0  0  0  0  0  0  0  0  0  0
  -44.5006   63.9620   59.9582 H   0  0  0  0  0  0  0  0  0  0  0  0
  -42.7481   63.9963   60.2794 H   0  0  0  0  0  0  0  0  0  0  0  0
  -42.9203   62.0208   61.5948 H   0  0  0  0  0  0  0  0  0  0  0  0
  -44.6629   61.9575   61.2635 H   0  0  0  0  0  0  0  0  0  0  0  0
  -44.2106   62.8192   63.4746 H   0  0  0  0  0  0  0  0  0  0  0  0
  -44.9780   64.0150   62.4171 H   0  0  0  0  0  0  0  0  0  0  0  0
  -43.2480   65.0135   63.7678 H   0  0  0  0  0  0  0  0  0  0  0  0
  -42.8700   65.0427   62.0248 H   0  0  0  0  0  0  0  0  0  0  0  0
  -41.3422   63.2469   62.2947 H   0  0  0  0  0  0  0  0  0  0  0  0
  -41.7254   63.1838   64.0257 H   0  0  0  0  0  0  0  0  0  0  0  0
  -40.8176   65.3713   64.3316 H   0  0  0  0  0  0  0  0  0  0  0  0
  -40.4472   65.4460   62.5948 H   0  0  0  0  0  0  0  0  0  0  0  0
  -38.8888   63.6533   62.8228 H   0  0  0  0  0  0  0  0  0  0  0  0
  -39.2676   63.5580   64.5562 H   0  0  0  0  0  0  0  0  0  0  0  0
  -38.3752   65.7400   64.8982 H   0  0  0  0  0  0  0  0  0  0  0  0
  -38.0075   65.8418   63.1558 H   0  0  0  0  0  0  0  0  0  0  0  0
  -36.7756   63.9299   65.0715 H   0  0  0  0  0  0  0  0  0  0  0  0
  -36.0435   65.4174   64.4299 H   0  0  0  0  0  0  0  0  0  0  0  0
  -36.8525   63.0504   62.8158 H   0  0  0  0  0  0  0  0  0  0  0  0
  -35.2015   63.4935   63.3105 H   0  0  0  0  0  0  0  0  0  0  0  0
  -35.3191   65.4968   62.0099 H   0  0  0  0  0  0  0  0  0  0  0  0
  -36.9686   65.0973   61.5300 H   0  0  0  0  0  0  0  0  0  0  0  0
  -35.3528   64.4284   59.7576 H   0  0  0  0  0  0  0  0  0  0  0  0
  -34.8287   62.2293   59.7276 H   0  0  0  0  0  0  0  0  0  0  0  0
  -37.3764   60.1530   63.2042 H   0  0  0  0  0  0  0  0  0  0  0  0
  -35.6979   59.6294   63.2434 H   0  0  0  0  0  0  0  0  0  0  0  0
  -37.8119   58.5833   61.4147 H   0  0  0  0  0  0  0  0  0  0  0  0
  -37.1476   57.7838   62.8677 H   0  0  0  0  0  0  0  0  0  0  0  0
  -35.6238   58.4067   60.3945 H   0  0  0  0  0  0  0  0  0  0  0  0
  -36.2729   56.8255   60.8717 H   0  0  0  0  0  0  0  0  0  0  0  0
  -34.2161   58.3779   62.3821 H   0  0  0  0  0  0  0  0  0  0  0  0
  -33.9192   56.9787   61.3420 H   0  0  0  0  0  0  0  0  0  0  0  0
  -33.9347   56.3288   63.6606 H   0  0  0  0  0  0  0  0  0  0  0  0
  -35.2713   53.3197   61.1383 H   0  0  0  0  0  0  0  0  0  0  0  0
  -36.9632   53.7525   61.1969 H   0  0  0  0  0  0  0  0  0  0  0  0
  -36.4943   52.0729   61.0870 H   0  0  0  0  0  0  0  0  0  0  0  0
  -37.8431   53.1389   64.4167 H   0  0  0  0  0  0  0  0  0  0  0  0
  -38.3612   52.6118   62.8748 H   0  0  0  0  0  0  0  0  0  0  0  0
  -37.1589   49.4028   65.8236 H   0  0  0  0  0  0  0  0  0  0  0  0
  -36.1731   47.5444   66.9978 H   0  0  0  0  0  0  0  0  0  0  0  0
  -34.0119   46.7075   66.3563 H   0  0  0  0  0  0  0  0  0  0  0  0
  -32.8032   47.7316   64.5379 H   0  0  0  0  0  0  0  0  0  0  0  0
  -36.9812   60.2677   64.2728 H   0  0  0  0  0  0  0  0  0  0  0  0
  -34.9979   58.8127   65.9571 H   0  0  0  0  0  0  0  0  0  0  0  0
  -35.6321   60.4122   66.2615 H   0  0  0  0  0  0  0  0  0  0  0  0
  -34.6483   60.1168   64.8479 H   0  0  0  0  0  0  0  0  0  0  0  0
  -37.3145   57.8727   66.0497 H   0  0  0  0  0  0  0  0  0  0  0  0
  -38.5348   58.5144   64.9353 H   0  0  0  0  0  0  0  0  0  0  0  0
  -39.6237   60.8095   68.4967 H   0  0  0  0  0  0  0  0  0  0  0  0
  -40.8450   62.4593   66.3307 H   0  0  0  0  0  0  0  0  0  0  0  0
  -39.0996   62.4777   66.6691 H   0  0  0  0  0  0  0  0  0  0  0  0
  -40.1794   64.3258   67.7378 H   0  0  0  0  0  0  0  0  0  0  0  0
  -39.5500   63.1332   68.9181 H   0  0  0  0  0  0  0  0  0  0  0  0
  -42.3953   63.3940   68.1395 H   0  0  0  0  0  0  0  0  0  0  0  0
  -41.6314   64.0950   69.5890 H   0  0  0  0  0  0  0  0  0  0  0  0
  -40.9708   61.7756   70.1841 H   0  0  0  0  0  0  0  0  0  0  0  0
  -42.6969   62.2029   70.2987 H   0  0  0  0  0  0  0  0  0  0  0  0
  1 33  1  0  0  0  0
  1 34  1  0  0  0  0
  1 61  1  0  0  0  0
  2  4  1  0  0  0  0
  2 62  1  0  0  0  0
  2 63  1  0  0  0  0
  2 64  1  0  0  0  0
  3 33  2  0  0  0  0
  4  7  1  0  0  0  0
  4 65  1  0  0  0  0
  4 66  1  0  0  0  0
  5 38  1  0  0  0  0
  5 39  1  0  0  0  0
  5 67  1  0  0  0  0
  6 39  2  0  0  0  0
  7 10  1  0  0  0  0
  7 68  1  0  0  0  0
  7 69  1  0  0  0  0
  8 40  1  0  0  0  0
  8 43  2  0  0  0  0
  9 42  1  0  0  0  0
  9 43  1  0  0  0  0
 10 13  1  0  0  0  0
 10 70  1  0  0  0  0
 10 71  1  0  0  0  0
 11 54  1  0  0  0  0
 11 55  1  0  0  0  0
 11 72  1  0  0  0  0
 12 49  1  0  0  0  0
 12 73  1  0  0  0  0
 13 16  1  0  0  0  0
 13 74  1  0  0  0  0
 13 75  1  0  0  0  0
 14 59  1  0  0  0  0
 14 60  1  0  0  0  0
 14 76  1  0  0  0  0
 15 50  2  0  0  0  0
 16 18  1  0  0  0  0
 16 77  1  0  0  0  0
 16 78  1  0  0  0  0
 17 50  1  0  0  0  0
 17 51  1  0  0  0  0
 18 20  1  0  0  0  0
 18 79  1  0  0  0  0
 18 80  1  0  0  0  0
 19 54  2  0  0  0  0
 20 22  1  0  0  0  0
 20 81  1  0  0  0  0
 20 82  1  0  0  0  0
 21 60  2  0  0  0  0
 22 23  1  0  0  0  0
 22 83  1  0  0  0  0
 22 84  1  0  0  0  0
 23 24  1  0  0  0  0
 23 85  1  0  0  0  0
 23 86  1  0  0  0  0
 24 25  1  0  0  0  0
 24 87  1  0  0  0  0
 24 88  1  0  0  0  0
 25 26  1  0  0  0  0
 25 89  1  0  0  0  0
 25 90  1  0  0  0  0
 26 27  1  0  0  0  0
 26 91  1  0  0  0  0
 26 92  1  0  0  0  0
 27 28  1  0  0  0  0
 27 93  1  0  0  0  0
 27 94  1  0  0  0  0
 28 29  1  0  0  0  0
 28 95  1  0  0  0  0
 28 96  1  0  0  0  0
 29 30  1  0  0  0  0
 29 97  1  0  0  0  0
 29 98  1  0  0  0  0
 30 31  1  0  0  0  0
 30 99  1  0  0  0  0
 30100  1  0  0  0  0
 31 32  2  0  0  0  0
 31101  1  0  0  0  0
 32 33  1  0  0  0  0
 32102  1  0  0  0  0
 34 35  1  0  0  0  0
 34103  1  0  0  0  0
 34104  1  0  0  0  0
 35 36  1  0  0  0  0
 35105  1  0  0  0  0
 35106  1  0  0  0  0
 36 37  1  0  0  0  0
 36107  1  0  0  0  0
 36108  1  0  0  0  0
 37 38  1  0  0  0  0
 37109  1  0  0  0  0
 37110  1  0  0  0  0
 38 50  1  0  0  0  0
 38111  1  1  0  0  0
 40 39  1  1  0  0  0
 40 41  1  0  0  0  0
 40 42  1  0  0  0  0
 41112  1  0  0  0  0
 41113  1  0  0  0  0
 41114  1  0  0  0  0
 42115  1  0  0  0  0
 42116  1  0  0  0  0
 43 44  1  0  0  0  0
 44 45  2  0  0  0  0
 44 49  1  0  0  0  0
 45 46  1  0  0  0  0
 45117  1  0  0  0  0
 46 47  2  0  0  0  0
 46118  1  0  0  0  0
 47 48  1  0  0  0  0
 47119  1  0  0  0  0
 48 49  2  0  0  0  0
 48120  1  0  0  0  0
 51 52  1  0  0  0  0
 51 53  1  0  0  0  0
 51121  1  6  0  0  0
 52122  1  0  0  0  0
 52123  1  0  0  0  0
 52124  1  0  0  0  0
 53 54  1  0  0  0  0
 53125  1  0  0  0  0
 53126  1  0  0  0  0
 55 56  1  0  0  0  0
 55 60  1  0  0  0  0
 55127  1  1  0  0  0
 56 57  1  0  0  0  0
 56128  1  0  0  0  0
 56129  1  0  0  0  0
 57 58  1  0  0  0  0
 57130  1  0  0  0  0
 57131  1  0  0  0  0
 58 59  1  0  0  0  0
 58132  1  0  0  0  0
 58133  1  0  0  0  0
 59134  1  0  0  0  0
 59135  1  0  0  0  0
M  END
$$$$
/media/chris/experiments/cd1a-new-docking/inputs/ligands/7ryo_ligand.pdb
 OpenBabel07032304133D

135137  0  0  1  0  0  0  0  0999 V2000
  -39.2043   59.3899   62.1545 N   0  0  0  0  0  0  0  0  0  0  0  0
  -38.8648   55.7206   70.7892 C   0  0  0  0  0  0  0  0  0  0  0  0
  -41.2354   59.4271   63.1378 O   0  0  0  0  0  0  0  0  0  0  0  0
  -38.6392   57.1961   70.5881 C   0  0  0  0  0  0  0  0  0  0  0  0
  -35.8432   57.0722   64.0991 N   0  0  0  0  0  0  0  0  0  0  0  0
  -37.8403   56.8763   65.1126 O   0  0  0  0  0  0  0  0  0  0  0  0
  -39.9254   58.0019   70.5724 C   0  0  0  0  0  0  0  0  0  0  0  0
  -37.1743   55.2470   62.2034 N   0  0  0  0  0  0  0  0  0  0  0  0
  -35.7311   53.5708   62.6401 O   0  0  0  0  0  0  0  0  0  0  0  0
  -39.7306   59.4937   70.3541 C   0  0  0  0  0  0  0  0  0  0  0  0
  -34.7593   55.9183   68.4226 N   0  0  0  0  0  0  0  0  0  0  0  0
  -38.0705   55.1777   59.5848 O   0  0  0  0  0  0  0  0  0  0  0  0
  -41.0333   60.2818   70.3595 C   0  0  0  0  0  0  0  0  0  0  0  0
  -35.5093   59.3047   69.4539 N   0  0  0  0  0  0  0  0  0  0  0  0
  -32.6028   55.6969   63.3558 O   0  0  0  0  0  0  0  0  0  0  0  0
  -42.0249   59.8416   69.2936 C   0  0  0  0  0  0  0  0  0  0  0  0
  -33.6699   56.4264   65.2023 O   0  0  0  0  0  0  0  0  0  0  0  0
  -42.4710   58.3950   69.4166 C   0  0  0  0  0  0  0  0  0  0  0  0
  -32.8792   54.7257   68.0990 O   0  0  0  0  0  0  0  0  0  0  0  0
  -43.4489   57.9521   68.3406 C   0  0  0  0  0  0  0  0  0  0  0  0
  -34.8435   57.4753   70.5678 O   0  0  0  0  0  0  0  0  0  0  0  0
  -42.8813   58.0542   66.9387 C   0  0  0  0  0  0  0  0  0  0  0  0
  -43.8718   57.6259   65.8731 C   0  0  0  0  0  0  0  0  0  0  0  0
  -45.1418   58.4519   65.8316 C   0  0  0  0  0  0  0  0  0  0  0  0
  -44.8885   59.9184   65.5419 C   0  0  0  0  0  0  0  0  0  0  0  0
  -44.2200   60.1653   64.1997 C   0  0  0  0  0  0  0  0  0  0  0  0
  -45.0377   59.6774   63.0186 C   0  0  0  0  0  0  0  0  0  0  0  0
  -44.3803   59.8989   61.6665 C   0  0  0  0  0  0  0  0  0  0  0  0
  -43.0483   59.1851   61.5140 C   0  0  0  0  0  0  0  0  0  0  0  0
  -43.1435   57.6700   61.6451 C   0  0  0  0  0  0  0  0  0  0  0  0
  -41.8043   57.0164   61.5041 C   0  0  0  0  0  0  0  0  0  0  0  0
  -40.6183   57.5180   61.8209 C   0  0  0  0  0  0  0  0  0  0  0  0
  -40.4050   58.8589   62.4098 C   0  0  0  0  0  0  0  0  0  0  0  0
  -38.2360   58.7337   61.2903 C   0  0  0  0  0  0  0  0  0  0  0  0
  -36.9560   58.4330   62.0390 C   0  0  0  0  0  0  0  0  0  0  0  0
  -35.8780   57.7610   61.2090 C   0  0  0  0  0  0  0  0  0  0  0  0
  -34.6110   57.4590   62.0020 C   0  0  0  0  0  0  0  0  0  0  0  0
  -34.8704   56.5130   63.1754 C   0  0  1  0  0  0  0  0  0  0  0  0
  -36.9896   56.4367   64.3534 C   0  0  0  0  0  0  0  0  0  0  0  0
  -37.2183   55.0807   63.6655 C   0  0  1  0  0  0  0  0  0  0  0  0
  -38.5921   54.5503   64.0644 C   0  0  0  0  0  0  0  0  0  0  0  0
  -36.1095   54.0575   63.9528 C   0  0  0  0  0  0  0  0  0  0  0  0
  -36.3485   54.3951   61.7542 C   0  0  0  0  0  0  0  0  0  0  0  0
  -35.9883   54.1992   60.3479 C   0  0  0  0  0  0  0  0  0  0  0  0
  -34.7126   53.7475   60.0078 C   0  0  0  0  0  0  0  0  0  0  0  0
  -34.2796   53.7903   58.6937 C   0  0  0  0  0  0  0  0  0  0  0  0
  -35.1032   54.2796   57.7033 C   0  0  0  0  0  0  0  0  0  0  0  0
  -36.3705   54.7377   58.0145 C   0  0  0  0  0  0  0  0  0  0  0  0
  -36.8228   54.7048   59.3299 C   0  0  0  0  0  0  0  0  0  0  0  0
  -33.5727   56.1622   63.8877 C   0  0  0  0  0  0  0  0  0  0  0  0
  -32.4457   56.7746   65.9301 C   0  0  2  0  0  0  0  0  0  0  0  0
  -31.4800   55.6241   65.7982 C   0  0  0  0  0  0  0  0  0  0  0  0
  -32.8765   57.0046   67.3657 C   0  0  0  0  0  0  0  0  0  0  0  0
  -33.5002   55.7800   67.9975 C   0  0  0  0  0  0  0  0  0  0  0  0
  -35.4840   57.1691   68.2808 C   0  0  1  0  0  0  0  0  0  0  0  0
  -36.9832   56.8939   68.1192 C   0  0  0  0  0  0  0  0  0  0  0  0
  -37.7583   58.0635   67.5222 C   0  0  0  0  0  0  0  0  0  0  0  0
  -37.7415   59.3407   68.3384 C   0  0  0  0  0  0  0  0  0  0  0  0
  -36.3704   59.9677   68.4806 C   0  0  0  0  0  0  0  0  0  0  0  0
  -35.2514   57.9974   69.5345 C   0  0  0  0  0  0  0  0  0  0  0  0
  -38.9683   60.2531   62.5648 H   0  0  0  0  0  0  0  0  0  0  0  0
  -37.9231   55.2126   70.7903 H   0  0  0  0  0  0  0  0  0  0  0  0
  -39.4736   55.3414   69.9952 H   0  0  0  0  0  0  0  0  0  0  0  0
  -39.3580   55.5595   71.7250 H   0  0  0  0  0  0  0  0  0  0  0  0
  -38.1372   57.3390   69.6540 H   0  0  0  0  0  0  0  0  0  0  0  0
  -38.0565   57.5440   71.4153 H   0  0  0  0  0  0  0  0  0  0  0  0
  -35.6545   57.9305   64.5430 H   0  0  0  0  0  0  0  0  0  0  0  0
  -40.4185   57.8630   71.5118 H   0  0  0  0  0  0  0  0  0  0  0  0
  -40.4989   57.6447   69.7427 H   0  0  0  0  0  0  0  0  0  0  0  0
  -39.2510   59.6381   69.4086 H   0  0  0  0  0  0  0  0  0  0  0  0
  -39.1388   59.8570   71.1681 H   0  0  0  0  0  0  0  0  0  0  0  0
  -35.2088   55.1504   68.8440 H   0  0  0  0  0  0  0  0  0  0  0  0
  -38.4048   55.1695   60.4601 H   0  0  0  0  0  0  0  0  0  0  0  0
  -40.8029   61.3144   70.1993 H   0  0  0  0  0  0  0  0  0  0  0  0
  -41.4981   60.1066   71.3072 H   0  0  0  0  0  0  0  0  0  0  0  0
  -35.0726   59.8819   70.1213 H   0  0  0  0  0  0  0  0  0  0  0  0
  -41.5667   59.9710   68.3354 H   0  0  0  0  0  0  0  0  0  0  0  0
  -42.8997   60.4446   69.4201 H   0  0  0  0  0  0  0  0  0  0  0  0
  -42.9405   58.2683   70.3698 H   0  0  0  0  0  0  0  0  0  0  0  0
  -41.5945   57.7917   69.3034 H   0  0  0  0  0  0  0  0  0  0  0  0
  -44.3216   58.5684   68.3999 H   0  0  0  0  0  0  0  0  0  0  0  0
  -43.6719   56.9209   68.5189 H   0  0  0  0  0  0  0  0  0  0  0  0
  -42.0162   57.4280   66.8733 H   0  0  0  0  0  0  0  0  0  0  0  0
  -42.6407   59.0817   66.7617 H   0  0  0  0  0  0  0  0  0  0  0  0
  -44.1411   56.6067   66.0565 H   0  0  0  0  0  0  0  0  0  0  0  0
  -43.3857   57.7652   64.9301 H   0  0  0  0  0  0  0  0  0  0  0  0
  -45.6313   58.3716   66.7797 H   0  0  0  0  0  0  0  0  0  0  0  0
  -45.7454   58.0691   65.0353 H   0  0  0  0  0  0  0  0  0  0  0  0
  -44.2577   60.3114   66.3117 H   0  0  0  0  0  0  0  0  0  0  0  0
  -45.8424   60.4022   65.5119 H   0  0  0  0  0  0  0  0  0  0  0  0
  -43.2778   59.6583   64.1920 H   0  0  0  0  0  0  0  0  0  0  0  0
  -44.1113   61.2243   64.0918 H   0  0  0  0  0  0  0  0  0  0  0  0
  -45.9748   60.1939   63.0239 H   0  0  0  0  0  0  0  0  0  0  0  0
  -45.1444   58.6193   63.1369 H   0  0  0  0  0  0  0  0  0  0  0  0
  -44.2184   60.9487   61.5371 H   0  0  0  0  0  0  0  0  0  0  0  0
  -45.0395   59.4947   60.9270 H   0  0  0  0  0  0  0  0  0  0  0  0
  -42.3828   59.5479   62.2692 H   0  0  0  0  0  0  0  0  0  0  0  0
  -42.6963   59.3907   60.5246 H   0  0  0  0  0  0  0  0  0  0  0  0
  -43.7937   57.2962   60.8820 H   0  0  0  0  0  0  0  0  0  0  0  0
  -43.5244   57.4429   62.6189 H   0  0  0  0  0  0  0  0  0  0  0  0
  -41.8039   56.0610   61.1138 H   0  0  0  0  0  0  0  0  0  0  0  0
  -39.7866   56.9330   61.6446 H   0  0  0  0  0  0  0  0  0  0  0  0
  -38.0148   59.3748   60.4627 H   0  0  0  0  0  0  0  0  0  0  0  0
  -38.6554   57.8106   60.9484 H   0  0  0  0  0  0  0  0  0  0  0  0
  -37.1937   57.7896   62.8603 H   0  0  0  0  0  0  0  0  0  0  0  0
  -36.5565   59.3772   62.3453 H   0  0  0  0  0  0  0  0  0  0  0  0
  -35.6238   58.4067   60.3945 H   0  0  0  0  0  0  0  0  0  0  0  0
  -36.2729   56.8255   60.8717 H   0  0  0  0  0  0  0  0  0  0  0  0
  -34.2161   58.3779   62.3821 H   0  0  0  0  0  0  0  0  0  0  0  0
  -33.9192   56.9787   61.3420 H   0  0  0  0  0  0  0  0  0  0  0  0
  -35.2841   55.6083   62.7813 H   0  0  0  0  0  0  0  0  0  0  0  0
  -39.3358   55.2891   63.8496 H   0  0  0  0  0  0  0  0  0  0  0  0
  -38.5995   54.3307   65.1115 H   0  0  0  0  0  0  0  0  0  0  0  0
  -38.8047   53.6591   63.5116 H   0  0  0  0  0  0  0  0  0  0  0  0
  -35.2785   54.5240   64.4394 H   0  0  0  0  0  0  0  0  0  0  0  0
  -36.4325   53.2731   64.6050 H   0  0  0  0  0  0  0  0  0  0  0  0
  -34.0873   53.3788   60.7413 H   0  0  0  0  0  0  0  0  0  0  0  0
  -33.3339   53.4536   58.4542 H   0  0  0  0  0  0  0  0  0  0  0  0
  -34.7732   54.3044   56.7258 H   0  0  0  0  0  0  0  0  0  0  0  0
  -36.9824   55.1050   57.2691 H   0  0  0  0  0  0  0  0  0  0  0  0
  -31.9532   57.6481   65.5566 H   0  0  0  0  0  0  0  0  0  0  0  0
  -31.9393   54.7293   66.1633 H   0  0  0  0  0  0  0  0  0  0  0  0
  -30.5987   55.8310   66.3687 H   0  0  0  0  0  0  0  0  0  0  0  0
  -31.2167   55.4956   64.7691 H   0  0  0  0  0  0  0  0  0  0  0  0
  -33.5920   57.7999   67.3840 H   0  0  0  0  0  0  0  0  0  0  0  0
  -31.9991   57.2445   67.9292 H   0  0  0  0  0  0  0  0  0  0  0  0
  -35.1383   57.6946   67.4152 H   0  0  0  0  0  0  0  0  0  0  0  0
  -37.3924   56.6739   69.0831 H   0  0  0  0  0  0  0  0  0  0  0  0
  -37.0799   56.0737   67.4389 H   0  0  0  0  0  0  0  0  0  0  0  0
  -38.7776   57.7591   67.4068 H   0  0  0  0  0  0  0  0  0  0  0  0
  -37.2717   58.2981   66.5986 H   0  0  0  0  0  0  0  0  0  0  0  0
  -38.1122   59.1184   69.3172 H   0  0  0  0  0  0  0  0  0  0  0  0
  -38.3507   60.0481   67.8155 H   0  0  0  0  0  0  0  0  0  0  0  0
  -35.8861   59.9359   67.5270 H   0  0  0  0  0  0  0  0  0  0  0  0
  -36.5233   60.9660   68.8340 H   0  0  0  0  0  0  0  0  0  0  0  0
  1 33  1  0  0  0  0
  1 34  1  0  0  0  0
  1 61  1  0  0  0  0
  2  4  1  0  0  0  0
  2 62  1  0  0  0  0
  2 63  1  0  0  0  0
  2 64  1  0  0  0  0
  3 33  2  0  0  0  0
  4  7  1  0  0  0  0
  4 65  1  0  0  0  0
  4 66  1  0  0  0  0
  5 38  1  0  0  0  0
  5 39  1  0  0  0  0
  5 67  1  0  0  0  0
  6 39  2  0  0  0  0
  7 10  1  0  0  0  0
  7 68  1  0  0  0  0
  7 69  1  0  0  0  0
  8 40  1  0  0  0  0
  8 43  2  0  0  0  0
  9 42  1  0  0  0  0
  9 43  1  0  0  0  0
 10 13  1  0  0  0  0
 10 70  1  0  0  0  0
 10 71  1  0  0  0  0
 11 54  1  0  0  0  0
 11 55  1  0  0  0  0
 11 72  1  0  0  0  0
 12 49  1  0  0  0  0
 12 73  1  0  0  0  0
 13 16  1  0  0  0  0
 13 74  1  0  0  0  0
 13 75  1  0  0  0  0
 14 59  1  0  0  0  0
 14 60  1  0  0  0  0
 14 76  1  0  0  0  0
 15 50  2  0  0  0  0
 16 18  1  0  0  0  0
 16 77  1  0  0  0  0
 16 78  1  0  0  0  0
 17 50  1  0  0  0  0
 17 51  1  0  0  0  0
 18 20  1  0  0  0  0
 18 79  1  0  0  0  0
 18 80  1  0  0  0  0
 19 54  2  0  0  0  0
 20 22  1  0  0  0  0
 20 81  1  0  0  0  0
 20 82  1  0  0  0  0
 21 60  2  0  0  0  0
 22 23  1  0  0  0  0
 22 83  1  0  0  0  0
 22 84  1  0  0  0  0
 23 24  1  0  0  0  0
 23 85  1  0  0  0  0
 23 86  1  0  0  0  0
 24 25  1  0  0  0  0
 24 87  1  0  0  0  0
 24 88  1  0  0  0  0
 25 26  1  0  0  0  0
 25 89  1  0  0  0  0
 25 90  1  0  0  0  0
 26 27  1  0  0  0  0
 26 91  1  0  0  0  0
 26 92  1  0  0  0  0
 27 28  1  0  0  0  0
 27 93  1  0  0  0  0
 27 94  1  0  0  0  0
 28 29  1  0  0  0  0
 28 95  1  0  0  0  0
 28 96  1  0  0  0  0
 29 30  1  0  0  0  0
 29 97  1  0  0  0  0
 29 98  1  0  0  0  0
 30 31  1  0  0  0  0
 30 99  1  0  0  0  0
 30100  1  0  0  0  0
 31 32  2  0  0  0  0
 31101  1  0  0  0  0
 32 33  1  0  0  0  0
 32102  1  0  0  0  0
 34 35  1  0  0  0  0
 34103  1  0  0  0  0
 34104  1  0  0  0  0
 35 36  1  0  0  0  0
 35105  1  0  0  0  0
 35106  1  0  0  0  0
 36 37  1  0  0  0  0
 36107  1  0  0  0  0
 36108  1  0  0  0  0
 37 38  1  0  0  0  0
 37109  1  0  0  0  0
 37110  1  0  0  0  0
 38 50  1  0  0  0  0
 38111  1  6  0  0  0
 40 39  1  1  0  0  0
 40 41  1  0  0  0  0
 40 42  1  0  0  0  0
 41112  1  0  0  0  0
 41113  1  0  0  0  0
 41114  1  0  0  0  0
 42115  1  0  0  0  0
 42116  1  0  0  0  0
 43 44  1  0  0  0  0
 44 45  2  0  0  0  0
 44 49  1  0  0  0  0
 45 46  1  0  0  0  0
 45117  1  0  0  0  0
 46 47  2  0  0  0  0
 46118  1  0  0  0  0
 47 48  1  0  0  0  0
 47119  1  0  0  0  0
 48 49  2  0  0  0  0
 48120  1  0  0  0  0
 51 52  1  0  0  0  0
 51 53  1  0  0  0  0
 51121  1  6  0  0  0
 52122  1  0  0  0  0
 52123  1  0  0  0  0
 52124  1  0  0  0  0
 53 54  1  0  0  0  0
 53125  1  0  0  0  0
 53126  1  0  0  0  0
 55 56  1  0  0  0  0
 55 60  1  0  0  0  0
 55127  1  6  0  0  0
 56 57  1  0  0  0  0
 56128  1  0  0  0  0
 56129  1  0  0  0  0
 57 58  1  0  0  0  0
 57130  1  0  0  0  0
 57131  1  0  0  0  0
 58 59  1  0  0  0  0
 58132  1  0  0  0  0
 58133  1  0  0  0  0
 59134  1  0  0  0  0
 59135  1  0  0  0  0
M  END
$$$$
/media/chris/experiments/cd1a-new-docking/inputs/ligands/7ryo_ligand.pdb
 OpenBabel07032304133D

135137  0  0  1  0  0  0  0  0999 V2000
  -37.9573   56.3471   62.8329 N   0  0  0  0  0  0  0  0  0  0  0  0
  -40.9407   49.3053   56.5826 C   0  0  0  0  0  0  0  0  0  0  0  0
  -36.0281   55.6460   61.8945 O   0  0  0  0  0  0  0  0  0  0  0  0
  -42.4036   49.2523   56.2280 C   0  0  0  0  0  0  0  0  0  0  0  0
  -33.1324   57.6580   60.0424 N   0  0  0  0  0  0  0  0  0  0  0  0
  -31.4954   58.6525   61.2194 O   0  0  0  0  0  0  0  0  0  0  0  0
  -43.0117   47.8722   56.3993 C   0  0  0  0  0  0  0  0  0  0  0  0
  -32.9472   60.2480   58.6194 N   0  0  0  0  0  0  0  0  0  0  0  0
  -31.2329   61.6992   58.8146 O   0  0  0  0  0  0  0  0  0  0  0  0
  -42.3560   46.7872   55.5602 C   0  0  0  0  0  0  0  0  0  0  0  0
  -31.9606   53.8029   56.0157 N   0  0  0  0  0  0  0  0  0  0  0  0
  -34.9879   61.2702   57.0524 O   0  0  0  0  0  0  0  0  0  0  0  0
  -40.8806   46.5851   55.8770 C   0  0  0  0  0  0  0  0  0  0  0  0
  -28.4437   52.9780   56.2271 N   0  0  0  0  0  0  0  0  0  0  0  0
  -34.3862   54.5462   61.3419 O   0  0  0  0  0  0  0  0  0  0  0  0
  -40.2094   45.5136   55.0318 C   0  0  0  0  0  0  0  0  0  0  0  0
  -33.8796   55.3659   59.3043 O   0  0  0  0  0  0  0  0  0  0  0  0
  -38.7414   45.2944   55.3537 C   0  0  0  0  0  0  0  0  0  0  0  0
  -32.0085   55.6339   57.3221 O   0  0  0  0  0  0  0  0  0  0  0  0
  -37.8748   46.5306   55.1775 C   0  0  0  0  0  0  0  0  0  0  0  0
  -30.1218   52.9272   57.7144 O   0  0  0  0  0  0  0  0  0  0  0  0
  -36.4116   46.2839   55.4879 C   0  0  0  0  0  0  0  0  0  0  0  0
  -35.5603   47.5284   55.3251 C   0  0  0  0  0  0  0  0  0  0  0  0
  -35.9538   48.6782   56.2306 C   0  0  0  0  0  0  0  0  0  0  0  0
  -35.0957   49.9123   56.0322 C   0  0  0  0  0  0  0  0  0  0  0  0
  -35.4709   51.0660   56.9475 C   0  0  0  0  0  0  0  0  0  0  0  0
  -35.3332   50.7368   58.4221 C   0  0  0  0  0  0  0  0  0  0  0  0
  -35.7195   51.8712   59.3565 C   0  0  0  0  0  0  0  0  0  0  0  0
  -35.5589   51.5285   60.8275 C   0  0  0  0  0  0  0  0  0  0  0  0
  -35.9610   52.6567   61.7696 C   0  0  0  0  0  0  0  0  0  0  0  0
  -37.4005   53.0316   61.6025 C   0  0  0  0  0  0  0  0  0  0  0  0
  -37.9565   54.2215   61.7858 C   0  0  0  0  0  0  0  0  0  0  0  0
  -37.2176   55.4397   62.1862 C   0  0  0  0  0  0  0  0  0  0  0  0
  -37.4201   57.6362   63.2386 C   0  0  0  0  0  0  0  0  0  0  0  0
  -36.9560   58.4330   62.0390 C   0  0  0  0  0  0  0  0  0  0  0  0
  -35.8780   57.7610   61.2090 C   0  0  0  0  0  0  0  0  0  0  0  0
  -34.6110   57.4590   62.0020 C   0  0  0  0  0  0  0  0  0  0  0  0
  -33.5311   56.7980   61.1441 C   0  0  1  0  0  0  0  0  0  0  0  0
  -32.1284   58.5272   60.1816 C   0  0  0  0  0  0  0  0  0  0  0  0
  -31.7856   59.4163   58.9749 C   0  0  1  0  0  0  0  0  0  0  0  0
  -31.4316   58.5240   57.7890 C   0  0  0  0  0  0  0  0  0  0  0  0
  -30.6771   60.4384   59.2670 C   0  0  0  0  0  0  0  0  0  0  0  0
  -32.5442   61.4496   58.5624 C   0  0  0  0  0  0  0  0  0  0  0  0
  -33.3625   62.6208   58.2394 C   0  0  0  0  0  0  0  0  0  0  0  0
  -33.0499   63.8662   58.7860 C   0  0  0  0  0  0  0  0  0  0  0  0
  -33.9428   64.9195   58.6895 C   0  0  0  0  0  0  0  0  0  0  0  0
  -35.1528   64.7524   58.0519 C   0  0  0  0  0  0  0  0  0  0  0  0
  -35.4887   63.5270   57.5056 C   0  0  0  0  0  0  0  0  0  0  0  0
  -34.6054   62.4557   57.5943 C   0  0  0  0  0  0  0  0  0  0  0  0
  -33.9929   55.4382   60.6419 C   0  0  0  0  0  0  0  0  0  0  0  0
  -34.2608   54.1132   58.6446 C   0  0  2  0  0  0  0  0  0  0  0  0
  -33.3998   53.0091   59.2042 C   0  0  0  0  0  0  0  0  0  0  0  0
  -34.0174   54.3412   57.1654 C   0  0  0  0  0  0  0  0  0  0  0  0
  -32.5719   54.6520   56.8467 C   0  0  0  0  0  0  0  0  0  0  0  0
  -30.5765   53.9847   55.6145 C   0  0  1  0  0  0  0  0  0  0  0  0
  -30.2195   55.4754   55.6146 C   0  0  0  0  0  0  0  0  0  0  0  0
  -28.9763   55.8061   54.7958 C   0  0  0  0  0  0  0  0  0  0  0  0
  -27.6915   55.1572   55.2712 C   0  0  0  0  0  0  0  0  0  0  0  0
  -27.6870   53.6460   55.1737 C   0  0  0  0  0  0  0  0  0  0  0  0
  -29.6930   53.2504   56.6106 C   0  0  0  0  0  0  0  0  0  0  0  0
  -38.8959   56.1355   63.0411 H   0  0  0  0  0  0  0  0  0  0  0  0
  -40.5752   50.3008   56.4407 H   0  0  0  0  0  0  0  0  0  0  0  0
  -40.3966   48.6325   55.9531 H   0  0  0  0  0  0  0  0  0  0  0  0
  -40.8111   49.0202   57.6057 H   0  0  0  0  0  0  0  0  0  0  0  0
  -42.5167   49.5492   55.2063 H   0  0  0  0  0  0  0  0  0  0  0  0
  -42.9167   49.9108   56.8975 H   0  0  0  0  0  0  0  0  0  0  0  0
  -33.6085   57.5990   59.1827 H   0  0  0  0  0  0  0  0  0  0  0  0
  -44.0453   47.9260   56.1279 H   0  0  0  0  0  0  0  0  0  0  0  0
  -42.8623   47.5981   57.4228 H   0  0  0  0  0  0  0  0  0  0  0  0
  -42.4476   47.0550   54.5283 H   0  0  0  0  0  0  0  0  0  0  0  0
  -42.8559   45.8685   55.7860 H   0  0  0  0  0  0  0  0  0  0  0  0
  -32.4626   53.0319   55.6652 H   0  0  0  0  0  0  0  0  0  0  0  0
  -34.4160   60.5292   57.0954 H   0  0  0  0  0  0  0  0  0  0  0  0
  -40.7922   46.3066   56.9063 H   0  0  0  0  0  0  0  0  0  0  0  0
  -40.3866   47.5085   55.6572 H   0  0  0  0  0  0  0  0  0  0  0  0
  -27.9848   52.2500   56.7054 H   0  0  0  0  0  0  0  0  0  0  0  0
  -40.2883   45.7992   54.0036 H   0  0  0  0  0  0  0  0  0  0  0  0
  -40.7117   44.5936   55.2466 H   0  0  0  0  0  0  0  0  0  0  0  0
  -38.3671   44.5272   54.7086 H   0  0  0  0  0  0  0  0  0  0  0  0
  -38.6896   45.0270   56.3884 H   0  0  0  0  0  0  0  0  0  0  0  0
  -38.2369   47.2958   55.8320 H   0  0  0  0  0  0  0  0  0  0  0  0
  -37.9373   46.8185   54.1489 H   0  0  0  0  0  0  0  0  0  0  0  0
  -36.0439   45.5285   54.8253 H   0  0  0  0  0  0  0  0  0  0  0  0
  -36.3456   45.9791   56.5115 H   0  0  0  0  0  0  0  0  0  0  0  0
  -35.6407   47.8586   54.3105 H   0  0  0  0  0  0  0  0  0  0  0  0
  -34.5623   47.2536   55.5960 H   0  0  0  0  0  0  0  0  0  0  0  0
  -35.8602   48.3582   57.2474 H   0  0  0  0  0  0  0  0  0  0  0  0
  -36.9603   48.9468   55.9861 H   0  0  0  0  0  0  0  0  0  0  0  0
  -35.1994   50.2372   55.0180 H   0  0  0  0  0  0  0  0  0  0  0  0
  -34.0894   49.6370   56.2697 H   0  0  0  0  0  0  0  0  0  0  0  0
  -36.4883   51.3350   56.7540 H   0  0  0  0  0  0  0  0  0  0  0  0
  -34.7930   51.8671   56.7388 H   0  0  0  0  0  0  0  0  0  0  0  0
  -34.3127   50.4782   58.6135 H   0  0  0  0  0  0  0  0  0  0  0  0
  -36.0110   49.9330   58.6205 H   0  0  0  0  0  0  0  0  0  0  0  0
  -36.7440   52.1228   59.1777 H   0  0  0  0  0  0  0  0  0  0  0  0
  -35.0583   52.6867   59.1502 H   0  0  0  0  0  0  0  0  0  0  0  0
  -34.5318   51.2886   61.0077 H   0  0  0  0  0  0  0  0  0  0  0  0
  -36.2132   50.7063   61.0290 H   0  0  0  0  0  0  0  0  0  0  0  0
  -35.3536   53.5132   61.5640 H   0  0  0  0  0  0  0  0  0  0  0  0
  -35.8192   52.3181   62.7747 H   0  0  0  0  0  0  0  0  0  0  0  0
  -38.0363   52.2733   61.3096 H   0  0  0  0  0  0  0  0  0  0  0  0
  -38.9747   54.3037   61.6392 H   0  0  0  0  0  0  0  0  0  0  0  0
  -36.5906   57.4783   63.8958 H   0  0  0  0  0  0  0  0  0  0  0  0
  -38.1924   58.1861   63.7346 H   0  0  0  0  0  0  0  0  0  0  0  0
  -36.5724   59.3687   62.3887 H   0  0  0  0  0  0  0  0  0  0  0  0
  -37.8072   58.5391   61.3994 H   0  0  0  0  0  0  0  0  0  0  0  0
  -35.6238   58.4067   60.3945 H   0  0  0  0  0  0  0  0  0  0  0  0
  -36.2729   56.8255   60.8717 H   0  0  0  0  0  0  0  0  0  0  0  0
  -34.8590   56.8018   62.8091 H   0  0  0  0  0  0  0  0  0  0  0  0
  -34.2203   58.3886   62.3599 H   0  0  0  0  0  0  0  0  0  0  0  0
  -32.6704   56.6456   61.7612 H   0  0  0  0  0  0  0  0  0  0  0  0
  -32.2255   57.8276   57.6172 H   0  0  0  0  0  0  0  0  0  0  0  0
  -30.5287   57.9904   58.0012 H   0  0  0  0  0  0  0  0  0  0  0  0
  -31.2923   59.1283   56.9171 H   0  0  0  0  0  0  0  0  0  0  0  0
  -30.4583   60.4732   60.3138 H   0  0  0  0  0  0  0  0  0  0  0  0
  -29.7557   60.1966   58.7798 H   0  0  0  0  0  0  0  0  0  0  0  0
  -32.1464   64.0028   59.2657 H   0  0  0  0  0  0  0  0  0  0  0  0
  -33.7007   65.8359   59.0978 H   0  0  0  0  0  0  0  0  0  0  0  0
  -35.8107   65.5444   57.9816 H   0  0  0  0  0  0  0  0  0  0  0  0
  -36.3972   63.4070   57.0309 H   0  0  0  0  0  0  0  0  0  0  0  0
  -35.2812   53.8329   58.8036 H   0  0  0  0  0  0  0  0  0  0  0  0
  -32.3681   53.2550   59.0629 H   0  0  0  0  0  0  0  0  0  0  0  0
  -33.6207   52.0929   58.6975 H   0  0  0  0  0  0  0  0  0  0  0  0
  -33.5996   52.8958   60.2493 H   0  0  0  0  0  0  0  0  0  0  0  0
  -34.6222   55.1628   56.8427 H   0  0  0  0  0  0  0  0  0  0  0  0
  -34.2705   53.4352   56.6554 H   0  0  0  0  0  0  0  0  0  0  0  0
  -30.4292   53.5985   54.6275 H   0  0  0  0  0  0  0  0  0  0  0  0
  -30.0502   55.7825   56.6255 H   0  0  0  0  0  0  0  0  0  0  0  0
  -31.0393   55.9941   55.1632 H   0  0  0  0  0  0  0  0  0  0  0  0
  -28.8385   56.8669   54.8193 H   0  0  0  0  0  0  0  0  0  0  0  0
  -29.1574   55.4168   53.8157 H   0  0  0  0  0  0  0  0  0  0  0  0
  -27.5375   55.4280   56.2948 H   0  0  0  0  0  0  0  0  0  0  0  0
  -26.9125   55.5095   54.6278 H   0  0  0  0  0  0  0  0  0  0  0  0
  -28.1087   53.3691   54.2301 H   0  0  0  0  0  0  0  0  0  0  0  0
  -26.6692   53.3334   55.2797 H   0  0  0  0  0  0  0  0  0  0  0  0
  1 33  1  0  0  0  0
  1 34  1  0  0  0  0
  1 61  1  0  0  0  0
  2  4  1  0  0  0  0
  2 62  1  0  0  0  0
  2 63  1  0  0  0  0
  2 64  1  0  0  0  0
  3 33  2  0  0  0  0
  4  7  1  0  0  0  0
  4 65  1  0  0  0  0
  4 66  1  0  0  0  0
  5 38  1  0  0  0  0
  5 39  1  0  0  0  0
  5 67  1  0  0  0  0
  6 39  2  0  0  0  0
  7 10  1  0  0  0  0
  7 68  1  0  0  0  0
  7 69  1  0  0  0  0
  8 40  1  0  0  0  0
  8 43  2  0  0  0  0
  9 42  1  0  0  0  0
  9 43  1  0  0  0  0
 10 13  1  0  0  0  0
 10 70  1  0  0  0  0
 10 71  1  0  0  0  0
 11 54  1  0  0  0  0
 11 55  1  0  0  0  0
 11 72  1  0  0  0  0
 12 49  1  0  0  0  0
 12 73  1  0  0  0  0
 13 16  1  0  0  0  0
 13 74  1  0  0  0  0
 13 75  1  0  0  0  0
 14 59  1  0  0  0  0
 14 60  1  0  0  0  0
 14 76  1  0  0  0  0
 15 50  2  0  0  0  0
 16 18  1  0  0  0  0
 16 77  1  0  0  0  0
 16 78  1  0  0  0  0
 17 50  1  0  0  0  0
 17 51  1  0  0  0  0
 18 20  1  0  0  0  0
 18 79  1  0  0  0  0
 18 80  1  0  0  0  0
 19 54  2  0  0  0  0
 20 22  1  0  0  0  0
 20 81  1  0  0  0  0
 20 82  1  0  0  0  0
 21 60  2  0  0  0  0
 22 23  1  0  0  0  0
 22 83  1  0  0  0  0
 22 84  1  0  0  0  0
 23 24  1  0  0  0  0
 23 85  1  0  0  0  0
 23 86  1  0  0  0  0
 24 25  1  0  0  0  0
 24 87  1  0  0  0  0
 24 88  1  0  0  0  0
 25 26  1  0  0  0  0
 25 89  1  0  0  0  0
 25 90  1  0  0  0  0
 26 27  1  0  0  0  0
 26 91  1  0  0  0  0
 26 92  1  0  0  0  0
 27 28  1  0  0  0  0
 27 93  1  0  0  0  0
 27 94  1  0  0  0  0
 28 29  1  0  0  0  0
 28 95  1  0  0  0  0
 28 96  1  0  0  0  0
 29 30  1  0  0  0  0
 29 97  1  0  0  0  0
 29 98  1  0  0  0  0
 30 31  1  0  0  0  0
 30 99  1  0  0  0  0
 30100  1  0  0  0  0
 31 32  2  0  0  0  0
 31101  1  0  0  0  0
 32 33  1  0  0  0  0
 32102  1  0  0  0  0
 34 35  1  0  0  0  0
 34103  1  0  0  0  0
 34104  1  0  0  0  0
 35 36  1  0  0  0  0
 35105  1  0  0  0  0
 35106  1  0  0  0  0
 36 37  1  0  0  0  0
 36107  1  0  0  0  0
 36108  1  0  0  0  0
 37 38  1  0  0  0  0
 37109  1  0  0  0  0
 37110  1  0  0  0  0
 38 50  1  0  0  0  0
 38111  1  1  0  0  0
 40 39  1  1  0  0  0
 40 41  1  0  0  0  0
 40 42  1  0  0  0  0
 41112  1  0  0  0  0
 41113  1  0  0  0  0
 41114  1  0  0  0  0
 42115  1  0  0  0  0
 42116  1  0  0  0  0
 43 44  1  0  0  0  0
 44 45  2  0  0  0  0
 44 49  1  0  0  0  0
 45 46  1  0  0  0  0
 45117  1  0  0  0  0
 46 47  2  0  0  0  0
 46118  1  0  0  0  0
 47 48  1  0  0  0  0
 47119  1  0  0  0  0
 48 49  2  0  0  0  0
 48120  1  0  0  0  0
 51 52  1  0  0  0  0
 51 53  1  0  0  0  0
 51121  1  1  0  0  0
 52122  1  0  0  0  0
 52123  1  0  0  0  0
 52124  1  0  0  0  0
 53 54  1  0  0  0  0
 53125  1  0  0  0  0
 53126  1  0  0  0  0
 55 56  1  0  0  0  0
 55 60  1  0  0  0  0
 55127  1  6  0  0  0
 56 57  1  0  0  0  0
 56128  1  0  0  0  0
 56129  1  0  0  0  0
 57 58  1  0  0  0  0
 57130  1  0  0  0  0
 57131  1  0  0  0  0
 58 59  1  0  0  0  0
 58132  1  0  0  0  0
 58133  1  0  0  0  0
 59134  1  0  0  0  0
 59135  1  0  0  0  0
M  END
$$$$
/media/chris/experiments/cd1a-new-docking/inputs/ligands/7ryo_ligand.pdb
 OpenBabel07032304133D

135137  0  0  1  0  0  0  0  0999 V2000
  -38.8442   57.5132   60.7850 N   0  0  0  0  0  0  0  0  0  0  0  0
  -43.5499   53.0247   56.6911 C   0  0  0  0  0  0  0  0  0  0  0  0
  -40.5035   56.4794   59.6572 O   0  0  0  0  0  0  0  0  0  0  0  0
  -44.7153   53.1304   57.6393 C   0  0  0  0  0  0  0  0  0  0  0  0
  -33.1324   57.6580   60.0424 N   0  0  0  0  0  0  0  0  0  0  0  0
  -30.9871   57.7601   60.7067 O   0  0  0  0  0  0  0  0  0  0  0  0
  -45.5106   54.4122   57.4702 C   0  0  0  0  0  0  0  0  0  0  0  0
  -30.4303   59.8990   59.1057 N   0  0  0  0  0  0  0  0  0  0  0  0
  -29.7911   58.9602   57.1582 O   0  0  0  0  0  0  0  0  0  0  0  0
  -46.1309   54.5908   56.0938 C   0  0  0  0  0  0  0  0  0  0  0  0
  -37.6298   57.4051   57.4668 N   0  0  0  0  0  0  0  0  0  0  0  0
  -28.5932   61.4178   60.3780 O   0  0  0  0  0  0  0  0  0  0  0  0
  -45.1085   54.6042   54.9658 C   0  0  0  0  0  0  0  0  0  0  0  0
  -38.0804   60.9411   58.0888 N   0  0  0  0  0  0  0  0  0  0  0  0
  -33.3116   54.6686   60.0224 O   0  0  0  0  0  0  0  0  0  0  0  0
  -44.0689   55.7074   55.0888 C   0  0  0  0  0  0  0  0  0  0  0  0
  -35.2791   55.2259   60.9704 O   0  0  0  0  0  0  0  0  0  0  0  0
  -44.6490   57.1109   55.1110 C   0  0  0  0  0  0  0  0  0  0  0  0
  -37.4424   55.1680   57.3179 O   0  0  0  0  0  0  0  0  0  0  0  0
  -45.4553   57.4702   53.8737 C   0  0  0  0  0  0  0  0  0  0  0  0
  -38.4718   59.6364   56.3068 O   0  0  0  0  0  0  0  0  0  0  0  0
  -46.0099   58.8806   53.9105 C   0  0  0  0  0  0  0  0  0  0  0  0
  -46.9227   59.1203   55.0977 C   0  0  0  0  0  0  0  0  0  0  0  0
  -46.2558   58.9372   56.4462 C   0  0  0  0  0  0  0  0  0  0  0  0
  -47.1978   59.1670   57.6118 C   0  0  0  0  0  0  0  0  0  0  0  0
  -46.5349   59.0026   58.9695 C   0  0  0  0  0  0  0  0  0  0  0  0
  -45.9400   57.6243   59.1884 C   0  0  0  0  0  0  0  0  0  0  0  0
  -44.8534   57.2455   58.1960 C   0  0  0  0  0  0  0  0  0  0  0  0
  -43.6526   58.1752   58.2252 C   0  0  0  0  0  0  0  0  0  0  0  0
  -42.9389   58.2165   59.5709 C   0  0  0  0  0  0  0  0  0  0  0  0
  -41.7754   59.1581   59.5524 C   0  0  0  0  0  0  0  0  0  0  0  0
  -40.4989   58.8764   59.7760 C   0  0  0  0  0  0  0  0  0  0  0  0
  -39.9788   57.5239   60.0769 C   0  0  0  0  0  0  0  0  0  0  0  0
  -38.2360   58.7337   61.2903 C   0  0  0  0  0  0  0  0  0  0  0  0
  -36.9560   58.4330   62.0390 C   0  0  0  0  0  0  0  0  0  0  0  0
  -35.8780   57.7610   61.2090 C   0  0  0  0  0  0  0  0  0  0  0  0
  -34.6110   57.4590   62.0020 C   0  0  0  0  0  0  0  0  0  0  0  0
  -33.5311   56.7980   61.1441 C   0  0  1  0  0  0  0  0  0  0  0  0
  -31.8686   58.0712   59.9196 C   0  0  0  0  0  0  0  0  0  0  0  0
  -31.5354   58.9980   58.7389 C   0  0  1  0  0  0  0  0  0  0  0  0
  -32.7674   59.8333   58.4040 C   0  0  0  0  0  0  0  0  0  0  0  0
  -31.0056   58.2488   57.5073 C   0  0  0  0  0  0  0  0  0  0  0  0
  -29.5501   59.8013   58.1974 C   0  0  0  0  0  0  0  0  0  0  0  0
  -28.2757   60.5219   58.1482 C   0  0  0  0  0  0  0  0  0  0  0  0
  -27.4027   60.3290   57.0768 C   0  0  0  0  0  0  0  0  0  0  0  0
  -26.1047   60.8068   57.1339 C   0  0  0  0  0  0  0  0  0  0  0  0
  -25.6574   61.4799   58.2499 C   0  0  0  0  0  0  0  0  0  0  0  0
  -26.5012   61.6804   59.3271 C   0  0  0  0  0  0  0  0  0  0  0  0
  -27.8086   61.2058   59.2895 C   0  0  0  0  0  0  0  0  0  0  0  0
  -33.9929   55.4382   60.6419 C   0  0  0  0  0  0  0  0  0  0  0  0
  -36.2431   55.0100   59.8870 C   0  0  2  0  0  0  0  0  0  0  0  0
  -35.8198   53.7813   59.1223 C   0  0  0  0  0  0  0  0  0  0  0  0
  -36.1893   56.2651   59.0377 C   0  0  0  0  0  0  0  0  0  0  0  0
  -37.1452   56.2257   57.8661 C   0  0  0  0  0  0  0  0  0  0  0  0
  -37.2556   58.6484   58.1177 C   0  0  1  0  0  0  0  0  0  0  0  0
  -35.7430   58.8687   58.0028 C   0  0  0  0  0  0  0  0  0  0  0  0
  -35.1932   59.8717   59.0112 C   0  0  0  0  0  0  0  0  0  0  0  0
  -35.7432   61.2795   58.8960 C   0  0  0  0  0  0  0  0  0  0  0  0
  -37.2260   61.3913   59.1824 C   0  0  0  0  0  0  0  0  0  0  0  0
  -37.9890   59.7863   57.4254 C   0  0  0  0  0  0  0  0  0  0  0  0
  -38.4065   56.6510   60.9702 H   0  0  0  0  0  0  0  0  0  0  0  0
  -43.0339   52.1030   56.8615 H   0  0  0  0  0  0  0  0  0  0  0  0
  -42.8811   53.8436   56.8553 H   0  0  0  0  0  0  0  0  0  0  0  0
  -43.9069   53.0525   55.6828 H   0  0  0  0  0  0  0  0  0  0  0  0
  -44.3427   53.0913   58.6416 H   0  0  0  0  0  0  0  0  0  0  0  0
  -45.3753   52.3163   57.4234 H   0  0  0  0  0  0  0  0  0  0  0  0
  -33.8025   57.9396   59.3784 H   0  0  0  0  0  0  0  0  0  0  0  0
  -44.8556   55.2386   57.6516 H   0  0  0  0  0  0  0  0  0  0  0  0
  -46.3219   54.3617   58.1660 H   0  0  0  0  0  0  0  0  0  0  0  0
  -46.6634   55.5188   56.0798 H   0  0  0  0  0  0  0  0  0  0  0  0
  -46.7742   53.7522   55.9266 H   0  0  0  0  0  0  0  0  0  0  0  0
  -38.2585   57.4321   56.7096 H   0  0  0  0  0  0  0  0  0  0  0  0
  -29.4784   61.1107   60.3844 H   0  0  0  0  0  0  0  0  0  0  0  0
  -45.6296   54.7341   54.0404 H   0  0  0  0  0  0  0  0  0  0  0  0
  -44.5813   53.6743   55.0136 H   0  0  0  0  0  0  0  0  0  0  0  0
  -38.7998   61.5532   57.8110 H   0  0  0  0  0  0  0  0  0  0  0  0
  -43.4013   55.6336   54.2558 H   0  0  0  0  0  0  0  0  0  0  0  0
  -43.5776   55.5632   56.0283 H   0  0  0  0  0  0  0  0  0  0  0  0
  -43.8410   57.8069   55.1990 H   0  0  0  0  0  0  0  0  0  0  0  0
  -45.3233   57.1523   55.9407 H   0  0  0  0  0  0  0  0  0  0  0  0
  -46.2732   56.7853   53.7901 H   0  0  0  0  0  0  0  0  0  0  0  0
  -44.7937   57.4107   53.0349 H   0  0  0  0  0  0  0  0  0  0  0  0
  -46.5644   59.0538   53.0120 H   0  0  0  0  0  0  0  0  0  0  0  0
  -45.1810   59.5513   53.9998 H   0  0  0  0  0  0  0  0  0  0  0  0
  -47.7421   58.4352   55.0337 H   0  0  0  0  0  0  0  0  0  0  0  0
  -47.2302   60.1438   55.0451 H   0  0  0  0  0  0  0  0  0  0  0  0
  -45.4448   59.6310   56.5220 H   0  0  0  0  0  0  0  0  0  0  0  0
  -45.9215   57.9223   56.5016 H   0  0  0  0  0  0  0  0  0  0  0  0
  -48.0021   58.4650   57.5406 H   0  0  0  0  0  0  0  0  0  0  0  0
  -47.5360   60.1802   57.5477 H   0  0  0  0  0  0  0  0  0  0  0  0
  -47.2682   59.1797   59.7283 H   0  0  0  0  0  0  0  0  0  0  0  0
  -45.7285   59.7045   59.0135 H   0  0  0  0  0  0  0  0  0  0  0  0
  -46.7277   56.9040   59.1135 H   0  0  0  0  0  0  0  0  0  0  0  0
  -45.4800   57.6398   60.1544 H   0  0  0  0  0  0  0  0  0  0  0  0
  -45.2724   57.2650   57.2117 H   0  0  0  0  0  0  0  0  0  0  0  0
  -44.5035   56.2722   58.4701 H   0  0  0  0  0  0  0  0  0  0  0  0
  -43.9860   59.1643   57.9898 H   0  0  0  0  0  0  0  0  0  0  0  0
  -42.9499   57.7989   57.5114 H   0  0  0  0  0  0  0  0  0  0  0  0
  -42.5862   57.2342   59.8066 H   0  0  0  0  0  0  0  0  0  0  0  0
  -43.6349   58.5611   60.3069 H   0  0  0  0  0  0  0  0  0  0  0  0
  -41.9925   60.1444   59.3404 H   0  0  0  0  0  0  0  0  0  0  0  0
  -39.8215   59.6540   59.7374 H   0  0  0  0  0  0  0  0  0  0  0  0
  -38.9228   59.2185   61.9523 H   0  0  0  0  0  0  0  0  0  0  0  0
  -38.0041   59.3676   60.4601 H   0  0  0  0  0  0  0  0  0  0  0  0
  -37.1937   57.7896   62.8603 H   0  0  0  0  0  0  0  0  0  0  0  0
  -36.5565   59.3772   62.3453 H   0  0  0  0  0  0  0  0  0  0  0  0
  -35.6238   58.4067   60.3945 H   0  0  0  0  0  0  0  0  0  0  0  0
  -36.2729   56.8255   60.8717 H   0  0  0  0  0  0  0  0  0  0  0  0
  -34.8590   56.8018   62.8091 H   0  0  0  0  0  0  0  0  0  0  0  0
  -34.2203   58.3886   62.3599 H   0  0  0  0  0  0  0  0  0  0  0  0
  -32.6704   56.6456   61.7612 H   0  0  0  0  0  0  0  0  0  0  0  0
  -33.1059   60.3384   59.2844 H   0  0  0  0  0  0  0  0  0  0  0  0
  -33.5437   59.1935   58.0392 H   0  0  0  0  0  0  0  0  0  0  0  0
  -32.5168   60.5536   57.6535 H   0  0  0  0  0  0  0  0  0  0  0  0
  -30.7928   57.2277   57.7459 H   0  0  0  0  0  0  0  0  0  0  0  0
  -31.7131   58.2242   56.7049 H   0  0  0  0  0  0  0  0  0  0  0  0
  -27.7270   59.8265   56.2359 H   0  0  0  0  0  0  0  0  0  0  0  0
  -25.4681   60.6579   56.3354 H   0  0  0  0  0  0  0  0  0  0  0  0
  -24.6892   61.8356   58.2820 H   0  0  0  0  0  0  0  0  0  0  0  0
  -26.1602   62.1834   60.1612 H   0  0  0  0  0  0  0  0  0  0  0  0
  -37.2449   54.8453   60.2247 H   0  0  0  0  0  0  0  0  0  0  0  0
  -34.8186   53.9095   58.7673 H   0  0  0  0  0  0  0  0  0  0  0  0
  -36.4770   53.6347   58.2907 H   0  0  0  0  0  0  0  0  0  0  0  0
  -35.8634   52.9279   59.7662 H   0  0  0  0  0  0  0  0  0  0  0  0
  -35.1941   56.3807   58.6623 H   0  0  0  0  0  0  0  0  0  0  0  0
  -36.4786   57.0860   59.6600 H   0  0  0  0  0  0  0  0  0  0  0  0
  -37.5171   58.6102   59.1545 H   0  0  0  0  0  0  0  0  0  0  0  0
  -35.5273   59.2266   57.0178 H   0  0  0  0  0  0  0  0  0  0  0  0
  -35.2730   57.9293   58.2068 H   0  0  0  0  0  0  0  0  0  0  0  0
  -34.1321   59.9205   58.8829 H   0  0  0  0  0  0  0  0  0  0  0  0
  -35.4947   59.5159   59.9743 H   0  0  0  0  0  0  0  0  0  0  0  0
  -35.5664   61.6285   57.9001 H   0  0  0  0  0  0  0  0  0  0  0  0
  -35.2416   61.8674   59.6361 H   0  0  0  0  0  0  0  0  0  0  0  0
  -37.4467   60.8000   60.0463 H   0  0  0  0  0  0  0  0  0  0  0  0
  -37.4341   62.4307   59.3282 H   0  0  0  0  0  0  0  0  0  0  0  0
  1 33  1  0  0  0  0
  1 34  1  0  0  0  0
  1 61  1  0  0  0  0
  2  4  1  0  0  0  0
  2 62  1  0  0  0  0
  2 63  1  0  0  0  0
  2 64  1  0  0  0  0
  3 33  2  0  0  0  0
  4  7  1  0  0  0  0
  4 65  1  0  0  0  0
  4 66  1  0  0  0  0
  5 38  1  0  0  0  0
  5 39  1  0  0  0  0
  5 67  1  0  0  0  0
  6 39  2  0  0  0  0
  7 10  1  0  0  0  0
  7 68  1  0  0  0  0
  7 69  1  0  0  0  0
  8 40  1  0  0  0  0
  8 43  2  0  0  0  0
  9 42  1  0  0  0  0
  9 43  1  0  0  0  0
 10 13  1  0  0  0  0
 10 70  1  0  0  0  0
 10 71  1  0  0  0  0
 11 54  1  0  0  0  0
 11 55  1  0  0  0  0
 11 72  1  0  0  0  0
 12 49  1  0  0  0  0
 12 73  1  0  0  0  0
 13 16  1  0  0  0  0
 13 74  1  0  0  0  0
 13 75  1  0  0  0  0
 14 59  1  0  0  0  0
 14 60  1  0  0  0  0
 14 76  1  0  0  0  0
 15 50  2  0  0  0  0
 16 18  1  0  0  0  0
 16 77  1  0  0  0  0
 16 78  1  0  0  0  0
 17 50  1  0  0  0  0
 17 51  1  0  0  0  0
 18 20  1  0  0  0  0
 18 79  1  0  0  0  0
 18 80  1  0  0  0  0
 19 54  2  0  0  0  0
 20 22  1  0  0  0  0
 20 81  1  0  0  0  0
 20 82  1  0  0  0  0
 21 60  2  0  0  0  0
 22 23  1  0  0  0  0
 22 83  1  0  0  0  0
 22 84  1  0  0  0  0
 23 24  1  0  0  0  0
 23 85  1  0  0  0  0
 23 86  1  0  0  0  0
 24 25  1  0  0  0  0
 24 87  1  0  0  0  0
 24 88  1  0  0  0  0
 25 26  1  0  0  0  0
 25 89  1  0  0  0  0
 25 90  1  0  0  0  0
 26 27  1  0  0  0  0
 26 91  1  0  0  0  0
 26 92  1  0  0  0  0
 27 28  1  0  0  0  0
 27 93  1  0  0  0  0
 27 94  1  0  0  0  0
 28 29  1  0  0  0  0
 28 95  1  0  0  0  0
 28 96  1  0  0  0  0
 29 30  1  0  0  0  0
 29 97  1  0  0  0  0
 29 98  1  0  0  0  0
 30 31  1  0  0  0  0
 30 99  1  0  0  0  0
 30100  1  0  0  0  0
 31 32  2  0  0  0  0
 31101  1  0  0  0  0
 32 33  1  0  0  0  0
 32102  1  0  0  0  0
 34 35  1  0  0  0  0
 34103  1  0  0  0  0
 34104  1  0  0  0  0
 35 36  1  0  0  0  0
 35105  1  0  0  0  0
 35106  1  0  0  0  0
 36 37  1  0  0  0  0
 36107  1  0  0  0  0
 36108  1  0  0  0  0
 37 38  1  0  0  0  0
 37109  1  0  0  0  0
 37110  1  0  0  0  0
 38 50  1  0  0  0  0
 38111  1  1  0  0  0
 40 39  1  1  0  0  0
 40 41  1  0  0  0  0
 40 42  1  0  0  0  0
 41112  1  0  0  0  0
 41113  1  0  0  0  0
 41114  1  0  0  0  0
 42115  1  0  0  0  0
 42116  1  0  0  0  0
 43 44  1  0  0  0  0
 44 45  2  0  0  0  0
 44 49  1  0  0  0  0
 45 46  1  0  0  0  0
 45117  1  0  0  0  0
 46 47  2  0  0  0  0
 46118  1  0  0  0  0
 47 48  1  0  0  0  0
 47119  1  0  0  0  0
 48 49  2  0  0  0  0
 48120  1  0  0  0  0
 51 52  1  0  0  0  0
 51 53  1  0  0  0  0
 51121  1  1  0  0  0
 52122  1  0  0  0  0
 52123  1  0  0  0  0
 52124  1  0  0  0  0
 53 54  1  0  0  0  0
 53125  1  0  0  0  0
 53126  1  0  0  0  0
 55 56  1  0  0  0  0
 55 60  1  0  0  0  0
 55127  1  1  0  0  0
 56 57  1  0  0  0  0
 56128  1  0  0  0  0
 56129  1  0  0  0  0
 57 58  1  0  0  0  0
 57130  1  0  0  0  0
 57131  1  0  0  0  0
 58 59  1  0  0  0  0
 58132  1  0  0  0  0
 58133  1  0  0  0  0
 59134  1  0  0  0  0
 59135  1  0  0  0  0
M  END
$$$$
/media/chris/experiments/cd1a-new-docking/inputs/ligands/7ryo_ligand.pdb
 OpenBabel07032304133D

135137  0  0  1  0  0  0  0  0999 V2000
  -37.6438   60.3330   63.4177 N   0  0  0  0  0  0  0  0  0  0  0  0
  -41.5210   67.4598   60.8663 C   0  0  0  0  0  0  0  0  0  0  0  0
  -39.1160   61.9983   63.8087 O   0  0  0  0  0  0  0  0  0  0  0  0
  -41.2843   66.1169   60.2266 C   0  0  0  0  0  0  0  0  0  0  0  0
  -35.8432   57.0722   64.0991 N   0  0  0  0  0  0  0  0  0  0  0  0
  -35.7434   55.3146   65.4972 O   0  0  0  0  0  0  0  0  0  0  0  0
  -42.2432   65.0450   60.7121 C   0  0  0  0  0  0  0  0  0  0  0  0
  -36.7698   58.3702   66.5799 N   0  0  0  0  0  0  0  0  0  0  0  0
  -38.8170   58.7770   65.7274 O   0  0  0  0  0  0  0  0  0  0  0  0
  -43.7085   65.3389   60.4337 C   0  0  0  0  0  0  0  0  0  0  0  0
  -35.1628   52.8820   67.5268 N   0  0  0  0  0  0  0  0  0  0  0  0
  -35.9956   60.3281   68.3776 O   0  0  0  0  0  0  0  0  0  0  0  0
  -44.0273   65.4789   58.9515 C   0  0  0  0  0  0  0  0  0  0  0  0
  -34.2534   54.0354   70.8338 N   0  0  0  0  0  0  0  0  0  0  0  0
  -32.4985   56.6279   63.6242 O   0  0  0  0  0  0  0  0  0  0  0  0
  -43.7299   64.2300   58.1361 C   0  0  0  0  0  0  0  0  0  0  0  0
  -33.7924   55.2407   64.8416 O   0  0  0  0  0  0  0  0  0  0  0  0
  -42.2791   63.7836   58.1863 C   0  0  0  0  0  0  0  0  0  0  0  0
  -34.0324   52.2926   65.6730 O   0  0  0  0  0  0  0  0  0  0  0  0
  -41.9804   62.5452   57.3572 C   0  0  0  0  0  0  0  0  0  0  0  0
  -34.2050   52.0224   69.8457 O   0  0  0  0  0  0  0  0  0  0  0  0
  -42.7910   61.3350   57.7774 C   0  0  0  0  0  0  0  0  0  0  0  0
  -42.5553   60.9455   59.2241 C   0  0  0  0  0  0  0  0  0  0  0  0
  -42.9237   62.0189   60.2286 C   0  0  0  0  0  0  0  0  0  0  0  0
  -42.6609   61.6062   61.6636 C   0  0  0  0  0  0  0  0  0  0  0  0
  -41.2012   61.2926   61.9473 C   0  0  0  0  0  0  0  0  0  0  0  0
  -40.2734   62.4695   61.7114 C   0  0  0  0  0  0  0  0  0  0  0  0
  -40.5677   63.6833   62.5770 C   0  0  0  0  0  0  0  0  0  0  0  0
  -39.6396   64.8566   62.3145 C   0  0  0  0  0  0  0  0  0  0  0  0
  -38.1671   64.5403   62.5460 C   0  0  0  0  0  0  0  0  0  0  0  0
  -37.6878   63.4439   61.6466 C   0  0  0  0  0  0  0  0  0  0  0  0
  -37.6882   62.1394   61.8848 C   0  0  0  0  0  0  0  0  0  0  0  0
  -38.2001   61.5133   63.1244 C   0  0  0  0  0  0  0  0  0  0  0  0
  -36.5610   59.7701   62.6268 C   0  0  0  0  0  0  0  0  0  0  0  0
  -36.9560   58.4330   62.0390 C   0  0  0  0  0  0  0  0  0  0  0  0
  -35.8780   57.7610   61.2090 C   0  0  0  0  0  0  0  0  0  0  0  0
  -34.6110   57.4590   62.0020 C   0  0  0  0  0  0  0  0  0  0  0  0
  -34.8704   56.5130   63.1754 C   0  0  1  0  0  0  0  0  0  0  0  0
  -36.2005   56.4086   65.2014 C   0  0  0  0  0  0  0  0  0  0  0  0
  -37.2531   57.0600   66.1134 C   0  0  1  0  0  0  0  0  0  0  0  0
  -37.4862   56.1574   67.3212 C   0  0  0  0  0  0  0  0  0  0  0  0
  -38.5666   57.3892   65.3889 C   0  0  0  0  0  0  0  0  0  0  0  0
  -37.6787   59.2174   66.3240 C   0  0  0  0  0  0  0  0  0  0  0  0
  -37.6301   60.6518   66.6173 C   0  0  0  0  0  0  0  0  0  0  0  0
  -38.3059   61.5575   65.7986 C   0  0  0  0  0  0  0  0  0  0  0  0
  -38.0737   62.9173   65.9144 C   0  0  0  0  0  0  0  0  0  0  0  0
  -37.1718   63.3947   66.8402 C   0  0  0  0  0  0  0  0  0  0  0  0
  -36.4855   62.5178   67.6605 C   0  0  0  0  0  0  0  0  0  0  0  0
  -36.7037   61.1476   67.5577 C   0  0  0  0  0  0  0  0  0  0  0  0
  -33.5727   56.1622   63.8877 C   0  0  0  0  0  0  0  0  0  0  0  0
  -32.6451   54.7645   65.6205 C   0  0  2  0  0  0  0  0  0  0  0  0
  -31.9214   53.7266   64.8003 C   0  0  0  0  0  0  0  0  0  0  0  0
  -33.2293   54.1878   66.8955 C   0  0  0  0  0  0  0  0  0  0  0  0
  -34.1730   53.0333   66.6422 C   0  0  0  0  0  0  0  0  0  0  0  0
  -35.3227   53.7770   68.6596 C   0  0  1  0  0  0  0  0  0  0  0  0
  -36.8045   53.8924   69.0346 C   0  0  0  0  0  0  0  0  0  0  0  0
  -37.1264   55.1179   69.8830 C   0  0  0  0  0  0  0  0  0  0  0  0
  -36.4373   55.1758   71.2319 C   0  0  0  0  0  0  0  0  0  0  0  0
  -34.9292   55.2883   71.1534 C   0  0  0  0  0  0  0  0  0  0  0  0
  -34.5448   53.2019   69.8326 C   0  0  0  0  0  0  0  0  0  0  0  0
  -37.9782   59.8288   64.1944 H   0  0  0  0  0  0  0  0  0  0  0  0
  -40.8155   68.1669   60.4828 H   0  0  0  0  0  0  0  0  0  0  0  0
  -41.4016   67.3759   61.9263 H   0  0  0  0  0  0  0  0  0  0  0  0
  -42.5141   67.7905   60.6444 H   0  0  0  0  0  0  0  0  0  0  0  0
  -40.2852   65.8055   60.4496 H   0  0  0  0  0  0  0  0  0  0  0  0
  -41.4442   66.2334   59.1751 H   0  0  0  0  0  0  0  0  0  0  0  0
  -36.2438   57.9514   63.9098 H   0  0  0  0  0  0  0  0  0  0  0  0
  -42.1184   64.9387   61.7694 H   0  0  0  0  0  0  0  0  0  0  0  0
  -42.0030   64.1535   60.1713 H   0  0  0  0  0  0  0  0  0  0  0  0
  -43.9701   66.2530   60.9245 H   0  0  0  0  0  0  0  0  0  0  0  0
  -44.2723   64.5066   60.8004 H   0  0  0  0  0  0  0  0  0  0  0  0
  -35.8021   52.1429   67.4074 H   0  0  0  0  0  0  0  0  0  0  0  0
  -36.1193   59.4003   68.3333 H   0  0  0  0  0  0  0  0  0  0  0  0
  -43.4455   66.2854   58.5566 H   0  0  0  0  0  0  0  0  0  0  0  0
  -45.0798   65.6557   58.8758 H   0  0  0  0  0  0  0  0  0  0  0  0
  -33.5038   53.7776   71.4178 H   0  0  0  0  0  0  0  0  0  0  0  0
  -43.9851   64.4270   57.1158 H   0  0  0  0  0  0  0  0  0  0  0  0
  -44.3097   63.4388   58.5636 H   0  0  0  0  0  0  0  0  0  0  0  0
  -42.0272   63.5744   59.2050 H   0  0  0  0  0  0  0  0  0  0  0  0
  -41.6973   64.5798   57.7711 H   0  0  0  0  0  0  0  0  0  0  0  0
  -40.9414   62.3104   57.4588 H   0  0  0  0  0  0  0  0  0  0  0  0
  -42.2451   62.7690   56.3449 H   0  0  0  0  0  0  0  0  0  0  0  0
  -42.5219   60.5091   57.1525 H   0  0  0  0  0  0  0  0  0  0  0  0
  -43.8256   61.5880   57.6755 H   0  0  0  0  0  0  0  0  0  0  0  0
  -41.5169   60.7167   59.3443 H   0  0  0  0  0  0  0  0  0  0  0  0
  -43.1921   60.1091   59.4231 H   0  0  0  0  0  0  0  0  0  0  0  0
  -43.9651   62.2407   60.1233 H   0  0  0  0  0  0  0  0  0  0  0  0
  -42.3098   62.8712   60.0243 H   0  0  0  0  0  0  0  0  0  0  0  0
  -43.2423   60.7335   61.8767 H   0  0  0  0  0  0  0  0  0  0  0  0
  -42.9306   62.4354   62.2837 H   0  0  0  0  0  0  0  0  0  0  0  0
  -40.8973   60.4884   61.3102 H   0  0  0  0  0  0  0  0  0  0  0  0
  -41.1294   61.0376   62.9840 H   0  0  0  0  0  0  0  0  0  0  0  0
  -40.3574   62.7616   60.6854 H   0  0  0  0  0  0  0  0  0  0  0  0
  -39.2892   62.1399   61.9715 H   0  0  0  0  0  0  0  0  0  0  0  0
  -40.4705   63.3982   63.6037 H   0  0  0  0  0  0  0  0  0  0  0  0
  -41.5588   64.0072   62.3368 H   0  0  0  0  0  0  0  0  0  0  0  0
  -39.9184   65.6593   62.9648 H   0  0  0  0  0  0  0  0  0  0  0  0
  -39.7446   65.1116   61.2806 H   0  0  0  0  0  0  0  0  0  0  0  0
  -38.0334   64.2373   63.5635 H   0  0  0  0  0  0  0  0  0  0  0  0
  -37.5990   65.4209   62.3300 H   0  0  0  0  0  0  0  0  0  0  0  0
  -37.3122   63.7385   60.7317 H   0  0  0  0  0  0  0  0  0  0  0  0
  -37.3051   61.5178   61.1556 H   0  0  0  0  0  0  0  0  0  0  0  0
  -35.7032   59.6374   63.2524 H   0  0  0  0  0  0  0  0  0  0  0  0
  -36.3399   60.4428   61.8246 H   0  0  0  0  0  0  0  0  0  0  0  0
  -37.8119   58.5833   61.4147 H   0  0  0  0  0  0  0  0  0  0  0  0
  -37.1476   57.7838   62.8677 H   0  0  0  0  0  0  0  0  0  0  0  0
  -35.6238   58.4067   60.3945 H   0  0  0  0  0  0  0  0  0  0  0  0
  -36.2729   56.8255   60.8717 H   0  0  0  0  0  0  0  0  0  0  0  0
  -34.2161   58.3779   62.3821 H   0  0  0  0  0  0  0  0  0  0  0  0
  -33.9192   56.9787   61.3420 H   0  0  0  0  0  0  0  0  0  0  0  0
  -35.2841   55.6083   62.7813 H   0  0  0  0  0  0  0  0  0  0  0  0
  -36.5508   55.9511   67.7981 H   0  0  0  0  0  0  0  0  0  0  0  0
  -37.9327   55.2397   66.9998 H   0  0  0  0  0  0  0  0  0  0  0  0
  -38.1385   56.6485   68.0128 H   0  0  0  0  0  0  0  0  0  0  0  0
  -38.4577   57.2697   64.3312 H   0  0  0  0  0  0  0  0  0  0  0  0
  -39.3693   56.7438   65.6787 H   0  0  0  0  0  0  0  0  0  0  0  0
  -38.9838   61.2112   65.1018 H   0  0  0  0  0  0  0  0  0  0  0  0
  -38.5793   63.5776   65.3034 H   0  0  0  0  0  0  0  0  0  0  0  0
  -37.0077   64.4103   66.9218 H   0  0  0  0  0  0  0  0  0  0  0  0
  -35.8097   62.8809   68.3508 H   0  0  0  0  0  0  0  0  0  0  0  0
  -31.9374   55.5299   65.8616 H   0  0  0  0  0  0  0  0  0  0  0  0
  -32.6001   52.9416   64.5392 H   0  0  0  0  0  0  0  0  0  0  0  0
  -31.1113   53.3226   65.3707 H   0  0  0  0  0  0  0  0  0  0  0  0
  -31.5395   54.1790   63.9091 H   0  0  0  0  0  0  0  0  0  0  0  0
  -33.7652   54.9609   67.4054 H   0  0  0  0  0  0  0  0  0  0  0  0
  -32.4152   53.8141   67.4808 H   0  0  0  0  0  0  0  0  0  0  0  0
  -34.9572   54.7509   68.4092 H   0  0  0  0  0  0  0  0  0  0  0  0
  -37.0833   53.0178   69.5844 H   0  0  0  0  0  0  0  0  0  0  0  0
  -37.3524   53.9909   68.1208 H   0  0  0  0  0  0  0  0  0  0  0  0
  -38.1830   55.1342   70.0514 H   0  0  0  0  0  0  0  0  0  0  0  0
  -36.7651   55.9607   69.3315 H   0  0  0  0  0  0  0  0  0  0  0  0
  -36.6798   54.2841   71.7713 H   0  0  0  0  0  0  0  0  0  0  0  0
  -36.7871   56.0623   71.7183 H   0  0  0  0  0  0  0  0  0  0  0  0
  -34.6847   56.0042   70.3967 H   0  0  0  0  0  0  0  0  0  0  0  0
  -34.5911   55.5816   72.1253 H   0  0  0  0  0  0  0  0  0  0  0  0
  1 33  1  0  0  0  0
  1 34  1  0  0  0  0
  1 61  1  0  0  0  0
  2  4  1  0  0  0  0
  2 62  1  0  0  0  0
  2 63  1  0  0  0  0
  2 64  1  0  0  0  0
  3 33  2  0  0  0  0
  4  7  1  0  0  0  0
  4 65  1  0  0  0  0
  4 66  1  0  0  0  0
  5 38  1  0  0  0  0
  5 39  1  0  0  0  0
  5 67  1  0  0  0  0
  6 39  2  0  0  0  0
  7 10  1  0  0  0  0
  7 68  1  0  0  0  0
  7 69  1  0  0  0  0
  8 40  1  0  0  0  0
  8 43  2  0  0  0  0
  9 42  1  0  0  0  0
  9 43  1  0  0  0  0
 10 13  1  0  0  0  0
 10 70  1  0  0  0  0
 10 71  1  0  0  0  0
 11 54  1  0  0  0  0
 11 55  1  0  0  0  0
 11 72  1  0  0  0  0
 12 49  1  0  0  0  0
 12 73  1  0  0  0  0
 13 16  1  0  0  0  0
 13 74  1  0  0  0  0
 13 75  1  0  0  0  0
 14 59  1  0  0  0  0
 14 60  1  0  0  0  0
 14 76  1  0  0  0  0
 15 50  2  0  0  0  0
 16 18  1  0  0  0  0
 16 77  1  0  0  0  0
 16 78  1  0  0  0  0
 17 50  1  0  0  0  0
 17 51  1  0  0  0  0
 18 20  1  0  0  0  0
 18 79  1  0  0  0  0
 18 80  1  0  0  0  0
 19 54  2  0  0  0  0
 20 22  1  0  0  0  0
 20 81  1  0  0  0  0
 20 82  1  0  0  0  0
 21 60  2  0  0  0  0
 22 23  1  0  0  0  0
 22 83  1  0  0  0  0
 22 84  1  0  0  0  0
 23 24  1  0  0  0  0
 23 85  1  0  0  0  0
 23 86  1  0  0  0  0
 24 25  1  0  0  0  0
 24 87  1  0  0  0  0
 24 88  1  0  0  0  0
 25 26  1  0  0  0  0
 25 89  1  0  0  0  0
 25 90  1  0  0  0  0
 26 27  1  0  0  0  0
 26 91  1  0  0  0  0
 26 92  1  0  0  0  0
 27 28  1  0  0  0  0
 27 93  1  0  0  0  0
 27 94  1  0  0  0  0
 28 29  1  0  0  0  0
 28 95  1  0  0  0  0
 28 96  1  0  0  0  0
 29 30  1  0  0  0  0
 29 97  1  0  0  0  0
 29 98  1  0  0  0  0
 30 31  1  0  0  0  0
 30 99  1  0  0  0  0
 30100  1  0  0  0  0
 31 32  2  0  0  0  0
 31101  1  0  0  0  0
 32 33  1  0  0  0  0
 32102  1  0  0  0  0
 34 35  1  0  0  0  0
 34103  1  0  0  0  0
 34104  1  0  0  0  0
 35 36  1  0  0  0  0
 35105  1  0  0  0  0
 35106  1  0  0  0  0
 36 37  1  0  0  0  0
 36107  1  0  0  0  0
 36108  1  0  0  0  0
 37 38  1  0  0  0  0
 37109  1  0  0  0  0
 37110  1  0  0  0  0
 38 50  1  0  0  0  0
 38111  1  6  0  0  0
 40 39  1  6  0  0  0
 40 41  1  0  0  0  0
 40 42  1  0  0  0  0
 41112  1  0  0  0  0
 41113  1  0  0  0  0
 41114  1  0  0  0  0
 42115  1  0  0  0  0
 42116  1  0  0  0  0
 43 44  1  0  0  0  0
 44 45  2  0  0  0  0
 44 49  1  0  0  0  0
 45 46  1  0  0  0  0
 45117  1  0  0  0  0
 46 47  2  0  0  0  0
 46118  1  0  0  0  0
 47 48  1  0  0  0  0
 47119  1  0  0  0  0
 48 49  2  0  0  0  0
 48120  1  0  0  0  0
 51 52  1  0  0  0  0
 51 53  1  0  0  0  0
 51121  1  1  0  0  0
 52122  1  0  0  0  0
 52123  1  0  0  0  0
 52124  1  0  0  0  0
 53 54  1  0  0  0  0
 53125  1  0  0  0  0
 53126  1  0  0  0  0
 55 56  1  0  0  0  0
 55 60  1  0  0  0  0
 55127  1  6  0  0  0
 56 57  1  0  0  0  0
 56128  1  0  0  0  0
 56129  1  0  0  0  0
 57 58  1  0  0  0  0
 57130  1  0  0  0  0
 57131  1  0  0  0  0
 58 59  1  0  0  0  0
 58132  1  0  0  0  0
 58133  1  0  0  0  0
 59134  1  0  0  0  0
 59135  1  0  0  0  0
M  END
$$$$
/media/chris/experiments/cd1a-new-docking/inputs/ligands/7ryo_ligand.pdb
 OpenBabel07032304133D

135137  0  0  1  0  0  0  0  0999 V2000
  -39.2043   59.3899   62.1545 N   0  0  0  0  0  0  0  0  0  0  0  0
  -47.7068   49.2685   54.6672 C   0  0  0  0  0  0  0  0  0  0  0  0
  -41.2404   60.3151   62.4578 O   0  0  0  0  0  0  0  0  0  0  0  0
  -46.8482   48.0361   54.5547 C   0  0  0  0  0  0  0  0  0  0  0  0
  -34.0017   55.5459   60.5756 N   0  0  0  0  0  0  0  0  0  0  0  0
  -35.6789   56.5223   59.4411 O   0  0  0  0  0  0  0  0  0  0  0  0
  -45.6182   48.0801   55.4431 C   0  0  0  0  0  0  0  0  0  0  0  0
  -36.6621   54.3182   58.3252 N   0  0  0  0  0  0  0  0  0  0  0  0
  -35.1824   53.1042   57.1337 O   0  0  0  0  0  0  0  0  0  0  0  0
  -44.6837   49.2467   55.1665 C   0  0  0  0  0  0  0  0  0  0  0  0
  -28.6885   60.9568   62.1971 N   0  0  0  0  0  0  0  0  0  0  0  0
  -36.5170   51.3704   55.5878 O   0  0  0  0  0  0  0  0  0  0  0  0
  -43.4498   49.2591   56.0584 C   0  0  0  0  0  0  0  0  0  0  0  0
  -26.0902   63.4656   62.4163 N   0  0  0  0  0  0  0  0  0  0  0  0
  -32.1446   55.8670   62.8909 O   0  0  0  0  0  0  0  0  0  0  0  0
  -42.5154   50.4314   55.8025 C   0  0  0  0  0  0  0  0  0  0  0  0
  -31.2621   57.3590   61.4502 O   0  0  0  0  0  0  0  0  0  0  0  0
  -43.1471   51.7935   56.0316 C   0  0  0  0  0  0  0  0  0  0  0  0
  -27.7619   59.3290   63.4435 O   0  0  0  0  0  0  0  0  0  0  0  0
  -42.2169   52.9642   55.7589 C   0  0  0  0  0  0  0  0  0  0  0  0
  -26.2013   61.4570   61.4246 O   0  0  0  0  0  0  0  0  0  0  0  0
  -42.8632   54.3122   56.0104 C   0  0  0  0  0  0  0  0  0  0  0  0
  -41.9310   55.4724   55.7187 C   0  0  0  0  0  0  0  0  0  0  0  0
  -42.5345   56.8389   55.9740 C   0  0  0  0  0  0  0  0  0  0  0  0
  -42.9513   57.0450   57.4171 C   0  0  0  0  0  0  0  0  0  0  0  0
  -43.5736   58.4063   57.6806 C   0  0  0  0  0  0  0  0  0  0  0  0
  -43.9745   58.6172   59.1285 C   0  0  0  0  0  0  0  0  0  0  0  0
  -44.6147   59.9660   59.4117 C   0  0  0  0  0  0  0  0  0  0  0  0
  -43.7213   61.1463   59.0715 C   0  0  0  0  0  0  0  0  0  0  0  0
  -42.3999   61.1567   59.8303 C   0  0  0  0  0  0  0  0  0  0  0  0
  -41.5814   59.9389   59.5344 C   0  0  0  0  0  0  0  0  0  0  0  0
  -40.7202   59.3250   60.3344 C   0  0  0  0  0  0  0  0  0  0  0  0
  -40.4196   59.7432   61.7219 C   0  0  0  0  0  0  0  0  0  0  0  0
  -38.2360   58.7337   61.2903 C   0  0  0  0  0  0  0  0  0  0  0  0
  -36.9560   58.4330   62.0390 C   0  0  0  0  0  0  0  0  0  0  0  0
  -35.8780   57.7610   61.2090 C   0  0  0  0  0  0  0  0  0  0  0  0
  -34.6110   57.4590   62.0020 C   0  0  0  0  0  0  0  0  0  0  0  0
  -33.5311   56.7980   61.1441 C   0  0  1  0  0  0  0  0  0  0  0  0
  -35.0564   55.5194   59.7572 C   0  0  0  0  0  0  0  0  0  0  0  0
  -35.5035   54.1507   59.2180 C   0  0  1  0  0  0  0  0  0  0  0  0
  -35.9057   53.2646   60.3932 C   0  0  0  0  0  0  0  0  0  0  0  0
  -34.4500   53.4722   58.3301 C   0  0  0  0  0  0  0  0  0  0  0  0
  -36.3864   53.7245   57.2384 C   0  0  0  0  0  0  0  0  0  0  0  0
  -37.2531   53.6308   56.0612 C   0  0  0  0  0  0  0  0  0  0  0  0
  -38.1655   54.6484   55.7801 C   0  0  0  0  0  0  0  0  0  0  0  0
  -39.1497   54.4649   54.8241 C   0  0  0  0  0  0  0  0  0  0  0  0
  -39.2412   53.2742   54.1367 C   0  0  0  0  0  0  0  0  0  0  0  0
  -38.3521   52.2481   54.3996 C   0  0  0  0  0  0  0  0  0  0  0  0
  -37.3574   52.4128   55.3584 C   0  0  0  0  0  0  0  0  0  0  0  0
  -32.2521   56.5942   61.9423 C   0  0  0  0  0  0  0  0  0  0  0  0
  -30.6531   58.3562   62.3360 C   0  0  2  0  0  0  0  0  0  0  0  0
  -31.5544   59.5645   62.3696 C   0  0  0  0  0  0  0  0  0  0  0  0
  -29.2972   58.6645   61.7311 C   0  0  0  0  0  0  0  0  0  0  0  0
  -28.5097   59.6762   62.5337 C   0  0  0  0  0  0  0  0  0  0  0  0
  -28.0049   62.0348   62.8901 C   0  0  1  0  0  0  0  0  0  0  0  0
  -27.7337   61.6371   64.3454 C   0  0  0  0  0  0  0  0  0  0  0  0
  -27.4450   62.8231   65.2593 C   0  0  0  0  0  0  0  0  0  0  0  0
  -26.2162   63.6361   64.9031 C   0  0  0  0  0  0  0  0  0  0  0  0
  -26.3045   64.3394   63.5649 C   0  0  0  0  0  0  0  0  0  0  0  0
  -26.6857   62.2946   62.1799 C   0  0  0  0  0  0  0  0  0  0  0  0
  -38.9572   59.5804   63.0882 H   0  0  0  0  0  0  0  0  0  0  0  0
  -48.5528   49.1742   54.0190 H   0  0  0  0  0  0  0  0  0  0  0  0
  -47.1355   50.1282   54.3853 H   0  0  0  0  0  0  0  0  0  0  0  0
  -48.0420   49.3786   55.6774 H   0  0  0  0  0  0  0  0  0  0  0  0
  -46.5298   47.9354   53.5381 H   0  0  0  0  0  0  0  0  0  0  0  0
  -47.4416   47.2053   54.8747 H   0  0  0  0  0  0  0  0  0  0  0  0
  -33.5369   54.7066   60.7968 H   0  0  0  0  0  0  0  0  0  0  0  0
  -45.0705   47.1719   55.3011 H   0  0  0  0  0  0  0  0  0  0  0  0
  -45.9707   48.2029   56.4459 H   0  0  0  0  0  0  0  0  0  0  0  0
  -45.2233   50.1575   55.3218 H   0  0  0  0  0  0  0  0  0  0  0  0
  -44.3424   49.1452   54.1575 H   0  0  0  0  0  0  0  0  0  0  0  0
  -29.3012   61.1760   61.4583 H   0  0  0  0  0  0  0  0  0  0  0  0
  -35.8365   51.4491   56.2271 H   0  0  0  0  0  0  0  0  0  0  0  0
  -42.9058   48.3526   55.8934 H   0  0  0  0  0  0  0  0  0  0  0  0
  -43.7964   49.3527   57.0664 H   0  0  0  0  0  0  0  0  0  0  0  0
  -25.4380   63.7717   61.7454 H   0  0  0  0  0  0  0  0  0  0  0  0
  -42.1853   50.3815   54.7859 H   0  0  0  0  0  0  0  0  0  0  0  0
  -41.7126   50.3432   56.5043 H   0  0  0  0  0  0  0  0  0  0  0  0
  -43.4660   51.8485   57.0515 H   0  0  0  0  0  0  0  0  0  0  0  0
  -43.9585   51.8771   55.3390 H   0  0  0  0  0  0  0  0  0  0  0  0
  -41.9072   52.9213   54.7356 H   0  0  0  0  0  0  0  0  0  0  0  0
  -41.3906   52.8772   56.4332 H   0  0  0  0  0  0  0  0  0  0  0  0
  -43.1614   54.3626   57.0368 H   0  0  0  0  0  0  0  0  0  0  0  0
  -43.7008   54.3970   55.3500 H   0  0  0  0  0  0  0  0  0  0  0  0
  -41.6436   55.4203   54.6893 H   0  0  0  0  0  0  0  0  0  0  0  0
  -41.1021   55.3744   56.3883 H   0  0  0  0  0  0  0  0  0  0  0  0
  -43.3971   56.9520   55.3510 H   0  0  0  0  0  0  0  0  0  0  0  0
  -41.7819   57.5665   55.7523 H   0  0  0  0  0  0  0  0  0  0  0  0
  -42.0856   56.9427   58.0374 H   0  0  0  0  0  0  0  0  0  0  0  0
  -43.6976   56.3103   57.6368 H   0  0  0  0  0  0  0  0  0  0  0  0
  -44.4465   58.5038   57.0696 H   0  0  0  0  0  0  0  0  0  0  0  0
  -42.8321   59.1420   57.4486 H   0  0  0  0  0  0  0  0  0  0  0  0
  -43.0975   58.5289   59.7351 H   0  0  0  0  0  0  0  0  0  0  0  0
  -44.7125   57.8755   59.3525 H   0  0  0  0  0  0  0  0  0  0  0  0
  -44.8565   60.0138   60.4529 H   0  0  0  0  0  0  0  0  0  0  0  0
  -45.4817   60.0389   58.7889 H   0  0  0  0  0  0  0  0  0  0  0  0
  -44.2501   62.0473   59.3028 H   0  0  0  0  0  0  0  0  0  0  0  0
  -43.4827   61.0668   58.0315 H   0  0  0  0  0  0  0  0  0  0  0  0
  -42.6033   61.1910   60.8802 H   0  0  0  0  0  0  0  0  0  0  0  0
  -41.8435   62.0161   59.5190 H   0  0  0  0  0  0  0  0  0  0  0  0
  -41.7017   59.5279   58.5954 H   0  0  0  0  0  0  0  0  0  0  0  0
  -40.2254   58.4986   59.9639 H   0  0  0  0  0  0  0  0  0  0  0  0
  -38.0148   59.3748   60.4627 H   0  0  0  0  0  0  0  0  0  0  0  0
  -38.6554   57.8106   60.9484 H   0  0  0  0  0  0  0  0  0  0  0  0
  -37.1937   57.7896   62.8603 H   0  0  0  0  0  0  0  0  0  0  0  0
  -36.5565   59.3772   62.3453 H   0  0  0  0  0  0  0  0  0  0  0  0
  -35.6238   58.4067   60.3945 H   0  0  0  0  0  0  0  0  0  0  0  0
  -36.2729   56.8255   60.8717 H   0  0  0  0  0  0  0  0  0  0  0  0
  -34.8590   56.8018   62.8091 H   0  0  0  0  0  0  0  0  0  0  0  0
  -34.2203   58.3886   62.3599 H   0  0  0  0  0  0  0  0  0  0  0  0
  -33.3097   57.4574   60.3310 H   0  0  0  0  0  0  0  0  0  0  0  0
  -36.6387   53.7702   60.9865 H   0  0  0  0  0  0  0  0  0  0  0  0
  -35.0446   53.0547   60.9926 H   0  0  0  0  0  0  0  0  0  0  0  0
  -36.3159   52.3477   60.0245 H   0  0  0  0  0  0  0  0  0  0  0  0
  -33.6561   54.1504   58.0963 H   0  0  0  0  0  0  0  0  0  0  0  0
  -33.9905   52.6313   58.8062 H   0  0  0  0  0  0  0  0  0  0  0  0
  -38.1062   55.5445   56.2887 H   0  0  0  0  0  0  0  0  0  0  0  0
  -39.8190   55.2247   54.6249 H   0  0  0  0  0  0  0  0  0  0  0  0
  -39.9760   53.1477   53.4231 H   0  0  0  0  0  0  0  0  0  0  0  0
  -38.4265   51.3578   53.8831 H   0  0  0  0  0  0  0  0  0  0  0  0
  -30.5307   58.0221   63.3451 H   0  0  0  0  0  0  0  0  0  0  0  0
  -31.7006   59.9283   61.3740 H   0  0  0  0  0  0  0  0  0  0  0  0
  -31.1032   60.3296   62.9662 H   0  0  0  0  0  0  0  0  0  0  0  0
  -32.4991   59.2931   62.7925 H   0  0  0  0  0  0  0  0  0  0  0  0
  -29.4438   59.0514   60.7443 H   0  0  0  0  0  0  0  0  0  0  0  0
  -28.7351   57.7541   61.7230 H   0  0  0  0  0  0  0  0  0  0  0  0
  -28.6129   62.9152   62.8845 H   0  0  0  0  0  0  0  0  0  0  0  0
  -26.8884   60.9815   64.3649 H   0  0  0  0  0  0  0  0  0  0  0  0
  -28.6221   61.1673   64.7127 H   0  0  0  0  0  0  0  0  0  0  0  0
  -27.3165   62.4496   66.2537 H   0  0  0  0  0  0  0  0  0  0  0  0
  -28.2777   63.4864   65.1525 H   0  0  0  0  0  0  0  0  0  0  0  0
  -25.3729   62.9778   64.8813 H   0  0  0  0  0  0  0  0  0  0  0  0
  -26.1263   64.4000   65.6469 H   0  0  0  0  0  0  0  0  0  0  0  0
  -27.2778   64.7754   63.4782 H   0  0  0  0  0  0  0  0  0  0  0  0
  -25.5215   65.0685   63.5477 H   0  0  0  0  0  0  0  0  0  0  0  0
  1 33  1  0  0  0  0
  1 34  1  0  0  0  0
  1 61  1  0  0  0  0
  2  4  1  0  0  0  0
  2 62  1  0  0  0  0
  2 63  1  0  0  0  0
  2 64  1  0  0  0  0
  3 33  2  0  0  0  0
  4  7  1  0  0  0  0
  4 65  1  0  0  0  0
  4 66  1  0  0  0  0
  5 38  1  0  0  0  0
  5 39  1  0  0  0  0
  5 67  1  0  0  0  0
  6 39  2  0  0  0  0
  7 10  1  0  0  0  0
  7 68  1  0  0  0  0
  7 69  1  0  0  0  0
  8 40  1  0  0  0  0
  8 43  2  0  0  0  0
  9 42  1  0  0  0  0
  9 43  1  0  0  0  0
 10 13  1  0  0  0  0
 10 70  1  0  0  0  0
 10 71  1  0  0  0  0
 11 54  1  0  0  0  0
 11 55  1  0  0  0  0
 11 72  1  0  0  0  0
 12 49  1  0  0  0  0
 12 73  1  0  0  0  0
 13 16  1  0  0  0  0
 13 74  1  0  0  0  0
 13 75  1  0  0  0  0
 14 59  1  0  0  0  0
 14 60  1  0  0  0  0
 14 76  1  0  0  0  0
 15 50  2  0  0  0  0
 16 18  1  0  0  0  0
 16 77  1  0  0  0  0
 16 78  1  0  0  0  0
 17 50  1  0  0  0  0
 17 51  1  0  0  0  0
 18 20  1  0  0  0  0
 18 79  1  0  0  0  0
 18 80  1  0  0  0  0
 19 54  2  0  0  0  0
 20 22  1  0  0  0  0
 20 81  1  0  0  0  0
 20 82  1  0  0  0  0
 21 60  2  0  0  0  0
 22 23  1  0  0  0  0
 22 83  1  0  0  0  0
 22 84  1  0  0  0  0
 23 24  1  0  0  0  0
 23 85  1  0  0  0  0
 23 86  1  0  0  0  0
 24 25  1  0  0  0  0
 24 87  1  0  0  0  0
 24 88  1  0  0  0  0
 25 26  1  0  0  0  0
 25 89  1  0  0  0  0
 25 90  1  0  0  0  0
 26 27  1  0  0  0  0
 26 91  1  0  0  0  0
 26 92  1  0  0  0  0
 27 28  1  0  0  0  0
 27 93  1  0  0  0  0
 27 94  1  0  0  0  0
 28 29  1  0  0  0  0
 28 95  1  0  0  0  0
 28 96  1  0  0  0  0
 29 30  1  0  0  0  0
 29 97  1  0  0  0  0
 29 98  1  0  0  0  0
 30 31  1  0  0  0  0
 30 99  1  0  0  0  0
 30100  1  0  0  0  0
 31 32  2  0  0  0  0
 31101  1  0  0  0  0
 32 33  1  0  0  0  0
 32102  1  0  0  0  0
 34 35  1  0  0  0  0
 34103  1  0  0  0  0
 34104  1  0  0  0  0
 35 36  1  0  0  0  0
 35105  1  0  0  0  0
 35106  1  0  0  0  0
 36 37  1  0  0  0  0
 36107  1  0  0  0  0
 36108  1  0  0  0  0
 37 38  1  0  0  0  0
 37109  1  0  0  0  0
 37110  1  0  0  0  0
 38 50  1  0  0  0  0
 38111  1  6  0  0  0
 40 39  1  1  0  0  0
 40 41  1  0  0  0  0
 40 42  1  0  0  0  0
 41112  1  0  0  0  0
 41113  1  0  0  0  0
 41114  1  0  0  0  0
 42115  1  0  0  0  0
 42116  1  0  0  0  0
 43 44  1  0  0  0  0
 44 45  2  0  0  0  0
 44 49  1  0  0  0  0
 45 46  1  0  0  0  0
 45117  1  0  0  0  0
 46 47  2  0  0  0  0
 46118  1  0  0  0  0
 47 48  1  0  0  0  0
 47119  1  0  0  0  0
 48 49  2  0  0  0  0
 48120  1  0  0  0  0
 51 52  1  0  0  0  0
 51 53  1  0  0  0  0
 51121  1  1  0  0  0
 52122  1  0  0  0  0
 52123  1  0  0  0  0
 52124  1  0  0  0  0
 53 54  1  0  0  0  0
 53125  1  0  0  0  0
 53126  1  0  0  0  0
 55 56  1  0  0  0  0
 55 60  1  0  0  0  0
 55127  1  6  0  0  0
 56 57  1  0  0  0  0
 56128  1  0  0  0  0
 56129  1  0  0  0  0
 57 58  1  0  0  0  0
 57130  1  0  0  0  0
 57131  1  0  0  0  0
 58 59  1  0  0  0  0
 58132  1  0  0  0  0
 58133  1  0  0  0  0
 59134  1  0  0  0  0
 59135  1  0  0  0  0
M  END
$$$$
/media/chris/experiments/cd1a-new-docking/inputs/ligands/7ryo_ligand.pdb
 OpenBabel07032304133D

135137  0  0  1  0  0  0  0  0999 V2000
  -36.2311   60.7237   61.5795 N   0  0  0  0  0  0  0  0  0  0  0  0
  -44.6992   63.4367   68.5417 C   0  0  0  0  0  0  0  0  0  0  0  0
  -36.9043   62.5210   62.7670 O   0  0  0  0  0  0  0  0  0  0  0  0
  -44.8802   62.4380   67.4289 C   0  0  0  0  0  0  0  0  0  0  0  0
  -33.1324   57.6580   60.0424 N   0  0  0  0  0  0  0  0  0  0  0  0
  -35.2034   57.7505   59.1729 O   0  0  0  0  0  0  0  0  0  0  0  0
  -43.6190   62.2137   66.6147 C   0  0  0  0  0  0  0  0  0  0  0  0
  -34.3241   58.7263   56.7807 N   0  0  0  0  0  0  0  0  0  0  0  0
  -34.3389   60.9617   57.0744 O   0  0  0  0  0  0  0  0  0  0  0  0
  -43.7753   61.2226   65.4726 C   0  0  0  0  0  0  0  0  0  0  0  0
  -32.6172   49.8940   61.6865 N   0  0  0  0  0  0  0  0  0  0  0  0
  -36.8698   58.1186   55.5882 O   0  0  0  0  0  0  0  0  0  0  0  0
  -42.4929   61.0021   64.6821 C   0  0  0  0  0  0  0  0  0  0  0  0
  -34.7782   47.0391   61.1640 N   0  0  0  0  0  0  0  0  0  0  0  0
  -34.9053   55.2614   59.8825 O   0  0  0  0  0  0  0  0  0  0  0  0
  -41.9339   62.2666   64.0485 C   0  0  0  0  0  0  0  0  0  0  0  0
  -33.2496   54.4578   61.1839 O   0  0  0  0  0  0  0  0  0  0  0  0
  -41.5685   63.3538   65.0442 C   0  0  0  0  0  0  0  0  0  0  0  0
  -34.2163   50.6555   63.0738 O   0  0  0  0  0  0  0  0  0  0  0  0
  -40.5004   62.9462   66.0459 C   0  0  0  0  0  0  0  0  0  0  0  0
  -35.1603   49.2447   61.3064 O   0  0  0  0  0  0  0  0  0  0  0  0
  -40.1644   64.0405   67.0396 C   0  0  0  0  0  0  0  0  0  0  0  0
  -39.6601   65.3047   66.3706 C   0  0  0  0  0  0  0  0  0  0  0  0
  -38.4105   65.1140   65.5346 C   0  0  0  0  0  0  0  0  0  0  0  0
  -37.9220   66.3981   64.8933 C   0  0  0  0  0  0  0  0  0  0  0  0
  -36.6787   66.2150   64.0387 C   0  0  0  0  0  0  0  0  0  0  0  0
  -36.1815   67.5038   63.4115 C   0  0  0  0  0  0  0  0  0  0  0  0
  -34.9483   67.3412   62.5385 C   0  0  0  0  0  0  0  0  0  0  0  0
  -35.1590   66.4118   61.3558 C   0  0  0  0  0  0  0  0  0  0  0  0
  -35.5671   64.9975   61.7495 C   0  0  0  0  0  0  0  0  0  0  0  0
  -35.7455   64.1183   60.5513 C   0  0  0  0  0  0  0  0  0  0  0  0
  -36.1071   62.8427   60.5264 C   0  0  0  0  0  0  0  0  0  0  0  0
  -36.4280   62.0384   61.7265 C   0  0  0  0  0  0  0  0  0  0  0  0
  -36.5610   59.7701   62.6268 C   0  0  0  0  0  0  0  0  0  0  0  0
  -36.9560   58.4330   62.0390 C   0  0  0  0  0  0  0  0  0  0  0  0
  -35.8780   57.7610   61.2090 C   0  0  0  0  0  0  0  0  0  0  0  0
  -34.6110   57.4590   62.0020 C   0  0  0  0  0  0  0  0  0  0  0  0
  -33.5311   56.7980   61.1441 C   0  0  1  0  0  0  0  0  0  0  0  0
  -34.0234   58.0662   59.1357 C   0  0  0  0  0  0  0  0  0  0  0  0
  -33.5145   58.9550   57.9889 C   0  0  1  0  0  0  0  0  0  0  0  0
  -32.0628   58.5925   57.6904 C   0  0  0  0  0  0  0  0  0  0  0  0
  -33.6795   60.4571   58.2634 C   0  0  0  0  0  0  0  0  0  0  0  0
  -34.7182   59.8614   56.3735 C   0  0  0  0  0  0  0  0  0  0  0  0
  -35.5525   60.1152   55.1966 C   0  0  0  0  0  0  0  0  0  0  0  0
  -35.4180   61.3090   54.4867 C   0  0  0  0  0  0  0  0  0  0  0  0
  -36.3541   61.6676   53.5321 C   0  0  0  0  0  0  0  0  0  0  0  0
  -37.4317   60.8500   53.2698 C   0  0  0  0  0  0  0  0  0  0  0  0
  -37.5906   59.6636   53.9627 C   0  0  0  0  0  0  0  0  0  0  0  0
  -36.6615   59.2870   54.9274 C   0  0  0  0  0  0  0  0  0  0  0  0
  -33.9929   55.4382   60.6419 C   0  0  0  0  0  0  0  0  0  0  0  0
  -33.8810   53.1533   61.4055 C   0  0  2  0  0  0  0  0  0  0  0  0
  -35.0574   53.3536   62.3273 C   0  0  0  0  0  0  0  0  0  0  0  0
  -32.8062   52.2800   62.0233 C   0  0  0  0  0  0  0  0  0  0  0  0
  -33.2814   50.8726   62.3081 C   0  0  0  0  0  0  0  0  0  0  0  0
  -32.9584   48.4949   61.8756 C   0  0  1  0  0  0  0  0  0  0  0  0
  -32.8277   48.1161   63.3551 C   0  0  0  0  0  0  0  0  0  0  0  0
  -32.7179   46.6141   63.5940 C   0  0  0  0  0  0  0  0  0  0  0  0
  -33.9115   45.7942   63.1458 C   0  0  0  0  0  0  0  0  0  0  0  0
  -34.1517   45.8147   61.6508 C   0  0  0  0  0  0  0  0  0  0  0  0
  -34.3959   48.2914   61.4238 C   0  0  0  0  0  0  0  0  0  0  0  0
  -35.8505   60.3907   60.7348 H   0  0  0  0  0  0  0  0  0  0  0  0
  -45.6206   63.5483   69.0742 H   0  0  0  0  0  0  0  0  0  0  0  0
  -44.4086   64.3806   68.1301 H   0  0  0  0  0  0  0  0  0  0  0  0
  -43.9399   63.0907   69.2115 H   0  0  0  0  0  0  0  0  0  0  0  0
  -45.6485   62.7937   66.7745 H   0  0  0  0  0  0  0  0  0  0  0  0
  -45.1374   61.5026   67.8803 H   0  0  0  0  0  0  0  0  0  0  0  0
  -32.1934   57.9432   59.9638 H   0  0  0  0  0  0  0  0  0  0  0  0
  -42.8571   61.8494   67.2717 H   0  0  0  0  0  0  0  0  0  0  0  0
  -43.3719   63.1550   66.1698 H   0  0  0  0  0  0  0  0  0  0  0  0
  -44.5261   61.5905   64.8049 H   0  0  0  0  0  0  0  0  0  0  0  0
  -44.0444   60.2820   65.9059 H   0  0  0  0  0  0  0  0  0  0  0  0
  -31.8753   50.1280   61.0831 H   0  0  0  0  0  0  0  0  0  0  0  0
  -36.2626   57.8365   56.2438 H   0  0  0  0  0  0  0  0  0  0  0  0
  -42.6942   60.2960   63.9038 H   0  0  0  0  0  0  0  0  0  0  0  0
  -41.7574   60.6511   65.3755 H   0  0  0  0  0  0  0  0  0  0  0  0
  -35.5655   46.9303   60.5829 H   0  0  0  0  0  0  0  0  0  0  0  0
  -42.6695   62.6594   63.3781 H   0  0  0  0  0  0  0  0  0  0  0  0
  -41.0278   61.9871   63.5528 H   0  0  0  0  0  0  0  0  0  0  0  0
  -42.4511   63.6236   65.5856 H   0  0  0  0  0  0  0  0  0  0  0  0
  -41.1653   64.1672   64.4780 H   0  0  0  0  0  0  0  0  0  0  0  0
  -39.6111   62.6896   65.5091 H   0  0  0  0  0  0  0  0  0  0  0  0
  -40.8867   62.1185   66.6032 H   0  0  0  0  0  0  0  0  0  0  0  0
  -39.4070   63.6792   67.7035 H   0  0  0  0  0  0  0  0  0  0  0  0
  -41.0640   64.2889   67.5630 H   0  0  0  0  0  0  0  0  0  0  0  0
  -39.4463   66.0245   67.1329 H   0  0  0  0  0  0  0  0  0  0  0  0
  -40.4305   65.6240   65.7003 H   0  0  0  0  0  0  0  0  0  0  0  0
  -38.6232   64.4064   64.7607 H   0  0  0  0  0  0  0  0  0  0  0  0
  -37.6375   64.7707   66.1901 H   0  0  0  0  0  0  0  0  0  0  0  0
  -37.6991   67.1005   65.6692 H   0  0  0  0  0  0  0  0  0  0  0  0
  -38.7010   66.7421   64.2455 H   0  0  0  0  0  0  0  0  0  0  0  0
  -36.9051   65.5222   63.2553 H   0  0  0  0  0  0  0  0  0  0  0  0
  -35.9028   65.8584   64.6835 H   0  0  0  0  0  0  0  0  0  0  0  0
  -35.9467   68.1901   64.1981 H   0  0  0  0  0  0  0  0  0  0  0  0
  -36.9645   67.8546   62.7722 H   0  0  0  0  0  0  0  0  0  0  0  0
  -34.1567   66.9476   63.1412 H   0  0  0  0  0  0  0  0  0  0  0  0
  -34.7155   68.3070   62.1412 H   0  0  0  0  0  0  0  0  0  0  0  0
  -34.2448   66.3574   60.8025 H   0  0  0  0  0  0  0  0  0  0  0  0
  -35.9632   66.8189   60.7792 H   0  0  0  0  0  0  0  0  0  0  0  0
  -36.4904   65.0404   62.2885 H   0  0  0  0  0  0  0  0  0  0  0  0
  -34.7885   64.5822   62.3547 H   0  0  0  0  0  0  0  0  0  0  0  0
  -35.5655   64.5575   59.6349 H   0  0  0  0  0  0  0  0  0  0  0  0
  -36.1690   62.3788   59.6066 H   0  0  0  0  0  0  0  0  0  0  0  0
  -37.3764   60.1530   63.2042 H   0  0  0  0  0  0  0  0  0  0  0  0
  -35.6979   59.6294   63.2434 H   0  0  0  0  0  0  0  0  0  0  0  0
  -37.8119   58.5833   61.4147 H   0  0  0  0  0  0  0  0  0  0  0  0
  -37.1476   57.7838   62.8677 H   0  0  0  0  0  0  0  0  0  0  0  0
  -35.6238   58.4067   60.3945 H   0  0  0  0  0  0  0  0  0  0  0  0
  -36.2729   56.8255   60.8717 H   0  0  0  0  0  0  0  0  0  0  0  0
  -34.8590   56.8018   62.8091 H   0  0  0  0  0  0  0  0  0  0  0  0
  -34.2203   58.3886   62.3599 H   0  0  0  0  0  0  0  0  0  0  0  0
  -32.6704   56.6456   61.7612 H   0  0  0  0  0  0  0  0  0  0  0  0
  -31.9886   57.5413   57.5051 H   0  0  0  0  0  0  0  0  0  0  0  0
  -31.4509   58.8509   58.5292 H   0  0  0  0  0  0  0  0  0  0  0  0
  -31.7310   59.1310   56.8274 H   0  0  0  0  0  0  0  0  0  0  0  0
  -34.2832   60.6208   59.1314 H   0  0  0  0  0  0  0  0  0  0  0  0
  -32.7468   60.9452   58.4550 H   0  0  0  0  0  0  0  0  0  0  0  0
  -34.6147   61.9290   54.6747 H   0  0  0  0  0  0  0  0  0  0  0  0
  -36.2442   62.5531   53.0135 H   0  0  0  0  0  0  0  0  0  0  0  0
  -38.1226   61.1238   52.5538 H   0  0  0  0  0  0  0  0  0  0  0  0
  -38.4007   59.0560   53.7636 H   0  0  0  0  0  0  0  0  0  0  0  0
  -34.2508   52.6936   60.5129 H   0  0  0  0  0  0  0  0  0  0  0  0
  -34.7252   53.8132   63.2347 H   0  0  0  0  0  0  0  0  0  0  0  0
  -35.5019   52.4060   62.5494 H   0  0  0  0  0  0  0  0  0  0  0  0
  -35.7797   53.9838   61.8520 H   0  0  0  0  0  0  0  0  0  0  0  0
  -32.4908   52.7264   62.9431 H   0  0  0  0  0  0  0  0  0  0  0  0
  -32.0044   52.2112   61.3180 H   0  0  0  0  0  0  0  0  0  0  0  0
  -32.2957   47.8778   61.3055 H   0  0  0  0  0  0  0  0  0  0  0  0
  -33.6899   48.4790   63.8745 H   0  0  0  0  0  0  0  0  0  0  0  0
  -31.9210   48.5576   63.7129 H   0  0  0  0  0  0  0  0  0  0  0  0
  -32.5846   46.4559   64.6438 H   0  0  0  0  0  0  0  0  0  0  0  0
  -31.8926   46.2813   62.9999 H   0  0  0  0  0  0  0  0  0  0  0  0
  -34.7841   46.1785   63.6313 H   0  0  0  0  0  0  0  0  0  0  0  0
  -33.7038   44.7784   63.4102 H   0  0  0  0  0  0  0  0  0  0  0  0
  -33.2090   45.7008   61.1575 H   0  0  0  0  0  0  0  0  0  0  0  0
  -34.8300   45.0154   61.4367 H   0  0  0  0  0  0  0  0  0  0  0  0
  1 33  1  0  0  0  0
  1 34  1  0  0  0  0
  1 61  1  0  0  0  0
  2  4  1  0  0  0  0
  2 62  1  0  0  0  0
  2 63  1  0  0  0  0
  2 64  1  0  0  0  0
  3 33  2  0  0  0  0
  4  7  1  0  0  0  0
  4 65  1  0  0  0  0
  4 66  1  0  0  0  0
  5 38  1  0  0  0  0
  5 39  1  0  0  0  0
  5 67  1  0  0  0  0
  6 39  2  0  0  0  0
  7 10  1  0  0  0  0
  7 68  1  0  0  0  0
  7 69  1  0  0  0  0
  8 40  1  0  0  0  0
  8 43  2  0  0  0  0
  9 42  1  0  0  0  0
  9 43  1  0  0  0  0
 10 13  1  0  0  0  0
 10 70  1  0  0  0  0
 10 71  1  0  0  0  0
 11 54  1  0  0  0  0
 11 55  1  0  0  0  0
 11 72  1  0  0  0  0
 12 49  1  0  0  0  0
 12 73  1  0  0  0  0
 13 16  1  0  0  0  0
 13 74  1  0  0  0  0
 13 75  1  0  0  0  0
 14 59  1  0  0  0  0
 14 60  1  0  0  0  0
 14 76  1  0  0  0  0
 15 50  2  0  0  0  0
 16 18  1  0  0  0  0
 16 77  1  0  0  0  0
 16 78  1  0  0  0  0
 17 50  1  0  0  0  0
 17 51  1  0  0  0  0
 18 20  1  0  0  0  0
 18 79  1  0  0  0  0
 18 80  1  0  0  0  0
 19 54  2  0  0  0  0
 20 22  1  0  0  0  0
 20 81  1  0  0  0  0
 20 82  1  0  0  0  0
 21 60  2  0  0  0  0
 22 23  1  0  0  0  0
 22 83  1  0  0  0  0
 22 84  1  0  0  0  0
 23 24  1  0  0  0  0
 23 85  1  0  0  0  0
 23 86  1  0  0  0  0
 24 25  1  0  0  0  0
 24 87  1  0  0  0  0
 24 88  1  0  0  0  0
 25 26  1  0  0  0  0
 25 89  1  0  0  0  0
 25 90  1  0  0  0  0
 26 27  1  0  0  0  0
 26 91  1  0  0  0  0
 26 92  1  0  0  0  0
 27 28  1  0  0  0  0
 27 93  1  0  0  0  0
 27 94  1  0  0  0  0
 28 29  1  0  0  0  0
 28 95  1  0  0  0  0
 28 96  1  0  0  0  0
 29 30  1  0  0  0  0
 29 97  1  0  0  0  0
 29 98  1  0  0  0  0
 30 31  1  0  0  0  0
 30 99  1  0  0  0  0
 30100  1  0  0  0  0
 31 32  2  0  0  0  0
 31101  1  0  0  0  0
 32 33  1  0  0  0  0
 32102  1  0  0  0  0
 34 35  1  0  0  0  0
 34103  1  0  0  0  0
 34104  1  0  0  0  0
 35 36  1  0  0  0  0
 35105  1  0  0  0  0
 35106  1  0  0  0  0
 36 37  1  0  0  0  0
 36107  1  0  0  0  0
 36108  1  0  0  0  0
 37 38  1  0  0  0  0
 37109  1  0  0  0  0
 37110  1  0  0  0  0
 38 50  1  0  0  0  0
 38111  1  1  0  0  0
 40 39  1  1  0  0  0
 40 41  1  0  0  0  0
 40 42  1  0  0  0  0
 41112  1  0  0  0  0
 41113  1  0  0  0  0
 41114  1  0  0  0  0
 42115  1  0  0  0  0
 42116  1  0  0  0  0
 43 44  1  0  0  0  0
 44 45  2  0  0  0  0
 44 49  1  0  0  0  0
 45 46  1  0  0  0  0
 45117  1  0  0  0  0
 46 47  2  0  0  0  0
 46118  1  0  0  0  0
 47 48  1  0  0  0  0
 47119  1  0  0  0  0
 48 49  2  0  0  0  0
 48120  1  0  0  0  0
 51 52  1  0  0  0  0
 51 53  1  0  0  0  0
 51121  1  6  0  0  0
 52122  1  0  0  0  0
 52123  1  0  0  0  0
 52124  1  0  0  0  0
 53 54  1  0  0  0  0
 53125  1  0  0  0  0
 53126  1  0  0  0  0
 55 56  1  0  0  0  0
 55 60  1  0  0  0  0
 55127  1  6  0  0  0
 56 57  1  0  0  0  0
 56128  1  0  0  0  0
 56129  1  0  0  0  0
 57 58  1  0  0  0  0
 57130  1  0  0  0  0
 57131  1  0  0  0  0
 58 59  1  0  0  0  0
 58132  1  0  0  0  0
 58133  1  0  0  0  0
 59134  1  0  0  0  0
 59135  1  0  0  0  0
M  END
$$$$
/media/chris/experiments/cd1a-new-docking/inputs/ligands/7ryo_ligand.pdb
 OpenBabel07032304133D

135137  0  0  1  0  0  0  0  0999 V2000
  -39.2043   59.3899   62.1545 N   0  0  0  0  0  0  0  0  0  0  0  0
  -44.0009   58.8608   64.5589 C   0  0  0  0  0  0  0  0  0  0  0  0
  -40.9220   60.8288   62.4244 O   0  0  0  0  0  0  0  0  0  0  0  0
  -44.1495   57.3700   64.4046 C   0  0  0  0  0  0  0  0  0  0  0  0
  -33.1324   57.6580   60.0424 N   0  0  0  0  0  0  0  0  0  0  0  0
  -31.0300   56.8635   59.9912 O   0  0  0  0  0  0  0  0  0  0  0  0
  -43.0325   56.5851   65.0682 C   0  0  0  0  0  0  0  0  0  0  0  0
  -32.7474   58.8490   57.6020 N   0  0  0  0  0  0  0  0  0  0  0  0
  -31.9159   60.8799   58.1192 O   0  0  0  0  0  0  0  0  0  0  0  0
  -42.9209   56.7964   66.5695 C   0  0  0  0  0  0  0  0  0  0  0  0
  -30.9512   53.1888   57.2043 N   0  0  0  0  0  0  0  0  0  0  0  0
  -32.8048   62.9653   57.1559 O   0  0  0  0  0  0  0  0  0  0  0  0
  -42.6753   58.2473   66.9603 C   0  0  0  0  0  0  0  0  0  0  0  0
  -27.6764   54.4673   56.3473 N   0  0  0  0  0  0  0  0  0  0  0  0
  -35.0867   54.9771   60.8192 O   0  0  0  0  0  0  0  0  0  0  0  0
  -42.5449   58.4687   68.4593 C   0  0  0  0  0  0  0  0  0  0  0  0
  -32.9977   54.8137   59.9886 O   0  0  0  0  0  0  0  0  0  0  0  0
  -42.3165   59.9163   68.8581 C   0  0  0  0  0  0  0  0  0  0  0  0
  -33.0266   52.6180   57.8592 O   0  0  0  0  0  0  0  0  0  0  0  0
  -41.0632   60.5354   68.2614 C   0  0  0  0  0  0  0  0  0  0  0  0
  -29.2213   53.3168   55.1982 O   0  0  0  0  0  0  0  0  0  0  0  0
  -40.8469   61.9743   68.6865 C   0  0  0  0  0  0  0  0  0  0  0  0
  -39.6029   62.5862   68.0714 C   0  0  0  0  0  0  0  0  0  0  0  0
  -39.6127   62.6333   66.5566 C   0  0  0  0  0  0  0  0  0  0  0  0
  -38.3495   63.2343   65.9719 C   0  0  0  0  0  0  0  0  0  0  0  0
  -38.3560   63.3019   64.4537 C   0  0  0  0  0  0  0  0  0  0  0  0
  -39.4801   64.1516   63.8915 C   0  0  0  0  0  0  0  0  0  0  0  0
  -39.5158   64.2196   62.3738 C   0  0  0  0  0  0  0  0  0  0  0  0
  -39.7067   62.8673   61.7091 C   0  0  0  0  0  0  0  0  0  0  0  0
  -39.7263   62.9273   60.1866 C   0  0  0  0  0  0  0  0  0  0  0  0
  -39.9336   61.5741   59.5813 C   0  0  0  0  0  0  0  0  0  0  0  0
  -40.0893   60.4176   60.2115 C   0  0  0  0  0  0  0  0  0  0  0  0
  -40.1043   60.2597   61.6829 C   0  0  0  0  0  0  0  0  0  0  0  0
  -38.2360   58.7337   61.2903 C   0  0  0  0  0  0  0  0  0  0  0  0
  -36.9560   58.4330   62.0390 C   0  0  0  0  0  0  0  0  0  0  0  0
  -35.8780   57.7610   61.2090 C   0  0  0  0  0  0  0  0  0  0  0  0
  -34.6110   57.4590   62.0020 C   0  0  0  0  0  0  0  0  0  0  0  0
  -33.5311   56.7980   61.1441 C   0  0  1  0  0  0  0  0  0  0  0  0
  -31.8905   57.6129   59.5539 C   0  0  0  0  0  0  0  0  0  0  0  0
  -31.5439   58.5726   58.4037 C   0  0  1  0  0  0  0  0  0  0  0  0
  -30.4933   57.9165   57.5130 C   0  0  0  0  0  0  0  0  0  0  0  0
  -31.0947   59.9608   58.8833 C   0  0  0  0  0  0  0  0  0  0  0  0
  -32.8564   60.1098   57.5124 C   0  0  0  0  0  0  0  0  0  0  0  0
  -33.9104   60.8375   56.8017 C   0  0  0  0  0  0  0  0  0  0  0  0
  -34.9204   60.1384   56.1396 C   0  0  0  0  0  0  0  0  0  0  0  0
  -35.7740   60.7941   55.2693 C   0  0  0  0  0  0  0  0  0  0  0  0
  -35.6379   62.1468   55.0452 C   0  0  0  0  0  0  0  0  0  0  0  0
  -34.6422   62.8621   55.6853 C   0  0  0  0  0  0  0  0  0  0  0  0
  -33.7731   62.2203   56.5620 C   0  0  0  0  0  0  0  0  0  0  0  0
  -33.9929   55.4382   60.6419 C   0  0  0  0  0  0  0  0  0  0  0  0
  -32.5346   53.5221   60.5056 C   0  0  2  0  0  0  0  0  0  0  0  0
  -32.0506   53.7303   61.9184 C   0  0  0  0  0  0  0  0  0  0  0  0
  -31.4216   53.0853   59.5729 C   0  0  0  0  0  0  0  0  0  0  0  0
  -31.8763   52.9454   58.1372 C   0  0  0  0  0  0  0  0  0  0  0  0
  -29.5908   53.5605   57.5517 C   0  0  1  0  0  0  0  0  0  0  0  0
  -28.9328   52.4448   58.3713 C   0  0  0  0  0  0  0  0  0  0  0  0
  -27.7078   52.9034   59.1551 C   0  0  0  0  0  0  0  0  0  0  0  0
  -26.5560   53.4236   58.3181 C   0  0  0  0  0  0  0  0  0  0  0  0
  -26.8723   54.6866   57.5448 C   0  0  0  0  0  0  0  0  0  0  0  0
  -28.8122   53.7711   56.2627 C   0  0  0  0  0  0  0  0  0  0  0  0
  -39.1971   59.1874   63.1179 H   0  0  0  0  0  0  0  0  0  0  0  0
  -44.8163   59.3529   64.0711 H   0  0  0  0  0  0  0  0  0  0  0  0
  -43.0786   59.1750   64.1166 H   0  0  0  0  0  0  0  0  0  0  0  0
  -44.0022   59.1137   65.5986 H   0  0  0  0  0  0  0  0  0  0  0  0
  -44.1561   57.1353   63.3607 H   0  0  0  0  0  0  0  0  0  0  0  0
  -45.0634   57.0904   64.8857 H   0  0  0  0  0  0  0  0  0  0  0  0
  -33.7861   58.2817   59.6515 H   0  0  0  0  0  0  0  0  0  0  0  0
  -42.1061   56.8773   64.6195 H   0  0  0  0  0  0  0  0  0  0  0  0
  -43.2591   55.5496   64.9221 H   0  0  0  0  0  0  0  0  0  0  0  0
  -42.1083   56.2045   66.9357 H   0  0  0  0  0  0  0  0  0  0  0  0
  -43.8576   56.5083   66.9991 H   0  0  0  0  0  0  0  0  0  0  0  0
  -31.1988   53.1140   56.2544 H   0  0  0  0  0  0  0  0  0  0  0  0
  -32.2035   62.5632   57.7514 H   0  0  0  0  0  0  0  0  0  0  0  0
  -43.4944   58.8357   66.6029 H   0  0  0  0  0  0  0  0  0  0  0  0
  -41.7419   58.5330   66.5220 H   0  0  0  0  0  0  0  0  0  0  0  0
  -27.3468   54.8756   55.5143 H   0  0  0  0  0  0  0  0  0  0  0  0
  -41.7183   57.8888   68.8133 H   0  0  0  0  0  0  0  0  0  0  0  0
  -43.4762   58.1732   68.8956 H   0  0  0  0  0  0  0  0  0  0  0  0
  -42.2390   59.9626   69.9243 H   0  0  0  0  0  0  0  0  0  0  0  0
  -43.1465   60.4749   68.4787 H   0  0  0  0  0  0  0  0  0  0  0  0
  -41.1433   60.5043   67.1948 H   0  0  0  0  0  0  0  0  0  0  0  0
  -40.2282   59.9695   68.6186 H   0  0  0  0  0  0  0  0  0  0  0  0
  -40.7528   62.0060   69.7519 H   0  0  0  0  0  0  0  0  0  0  0  0
  -41.6879   62.5415   68.3462 H   0  0  0  0  0  0  0  0  0  0  0  0
  -38.7571   62.0097   68.3830 H   0  0  0  0  0  0  0  0  0  0  0  0
  -39.5627   63.6009   68.4085 H   0  0  0  0  0  0  0  0  0  0  0  0
  -40.4482   63.2219   66.2396 H   0  0  0  0  0  0  0  0  0  0  0  0
  -39.6776   61.6243   66.2065 H   0  0  0  0  0  0  0  0  0  0  0  0
  -37.5165   62.6379   66.2807 H   0  0  0  0  0  0  0  0  0  0  0  0
  -38.2844   64.2401   66.3312 H   0  0  0  0  0  0  0  0  0  0  0  0
  -38.4583   62.3081   64.0707 H   0  0  0  0  0  0  0  0  0  0  0  0
  -37.4358   63.7588   64.1547 H   0  0  0  0  0  0  0  0  0  0  0  0
  -39.3684   65.1467   64.2687 H   0  0  0  0  0  0  0  0  0  0  0  0
  -40.3952   63.6899   64.1985 H   0  0  0  0  0  0  0  0  0  0  0  0
  -38.5919   64.6372   62.0320 H   0  0  0  0  0  0  0  0  0  0  0  0
  -40.3584   64.8225   62.1065 H   0  0  0  0  0  0  0  0  0  0  0  0
  -40.6365   62.4559   62.0424 H   0  0  0  0  0  0  0  0  0  0  0  0
  -38.8684   62.2629   61.9862 H   0  0  0  0  0  0  0  0  0  0  0  0
  -38.7927   63.3214   59.8431 H   0  0  0  0  0  0  0  0  0  0  0  0
  -40.5405   63.5542   59.8881 H   0  0  0  0  0  0  0  0  0  0  0  0
  -39.9582   61.5365   58.5503 H   0  0  0  0  0  0  0  0  0  0  0  0
  -40.2084   59.5693   59.6360 H   0  0  0  0  0  0  0  0  0  0  0  0
  -38.0148   59.3748   60.4627 H   0  0  0  0  0  0  0  0  0  0  0  0
  -38.6554   57.8106   60.9484 H   0  0  0  0  0  0  0  0  0  0  0  0
  -37.1937   57.7896   62.8603 H   0  0  0  0  0  0  0  0  0  0  0  0
  -36.5565   59.3772   62.3453 H   0  0  0  0  0  0  0  0  0  0  0  0
  -35.6238   58.4067   60.3945 H   0  0  0  0  0  0  0  0  0  0  0  0
  -36.2729   56.8255   60.8717 H   0  0  0  0  0  0  0  0  0  0  0  0
  -34.8590   56.8018   62.8091 H   0  0  0  0  0  0  0  0  0  0  0  0
  -34.2203   58.3886   62.3599 H   0  0  0  0  0  0  0  0  0  0  0  0
  -32.6704   56.6456   61.7612 H   0  0  0  0  0  0  0  0  0  0  0  0
  -30.8415   56.9544   57.2000 H   0  0  0  0  0  0  0  0  0  0  0  0
  -29.5808   57.8047   58.0606 H   0  0  0  0  0  0  0  0  0  0  0  0
  -30.3206   58.5302   56.6536 H   0  0  0  0  0  0  0  0  0  0  0  0
  -31.2707   60.0759   59.9324 H   0  0  0  0  0  0  0  0  0  0  0  0
  -30.0476   60.1271   58.7387 H   0  0  0  0  0  0  0  0  0  0  0  0
  -35.0317   59.1250   56.3000 H   0  0  0  0  0  0  0  0  0  0  0  0
  -36.5172   60.2664   54.7852 H   0  0  0  0  0  0  0  0  0  0  0  0
  -36.2812   62.6280   54.3973 H   0  0  0  0  0  0  0  0  0  0  0  0
  -34.5437   63.8747   55.5122 H   0  0  0  0  0  0  0  0  0  0  0  0
  -33.2952   52.7702   60.5372 H   0  0  0  0  0  0  0  0  0  0  0  0
  -31.2859   54.4787   61.9268 H   0  0  0  0  0  0  0  0  0  0  0  0
  -31.6548   52.8118   62.2988 H   0  0  0  0  0  0  0  0  0  0  0  0
  -32.8674   54.0480   62.5321 H   0  0  0  0  0  0  0  0  0  0  0  0
  -31.0486   52.1395   59.9064 H   0  0  0  0  0  0  0  0  0  0  0  0
  -30.6666   53.8430   59.5977 H   0  0  0  0  0  0  0  0  0  0  0  0
  -29.5957   54.4563   58.1368 H   0  0  0  0  0  0  0  0  0  0  0  0
  -28.6337   51.6651   57.7022 H   0  0  0  0  0  0  0  0  0  0  0  0
  -29.6562   52.1127   59.0863 H   0  0  0  0  0  0  0  0  0  0  0  0
  -27.3513   52.0718   59.7262 H   0  0  0  0  0  0  0  0  0  0  0  0
  -28.0333   53.7289   59.7531 H   0  0  0  0  0  0  0  0  0  0  0  0
  -26.2785   52.6626   57.6190 H   0  0  0  0  0  0  0  0  0  0  0  0
  -25.7673   53.6687   58.9984 H   0  0  0  0  0  0  0  0  0  0  0  0
  -27.4067   55.3512   58.1910 H   0  0  0  0  0  0  0  0  0  0  0  0
  -25.9368   55.0904   57.2181 H   0  0  0  0  0  0  0  0  0  0  0  0
  1 33  1  0  0  0  0
  1 34  1  0  0  0  0
  1 61  1  0  0  0  0
  2  4  1  0  0  0  0
  2 62  1  0  0  0  0
  2 63  1  0  0  0  0
  2 64  1  0  0  0  0
  3 33  2  0  0  0  0
  4  7  1  0  0  0  0
  4 65  1  0  0  0  0
  4 66  1  0  0  0  0
  5 38  1  0  0  0  0
  5 39  1  0  0  0  0
  5 67  1  0  0  0  0
  6 39  2  0  0  0  0
  7 10  1  0  0  0  0
  7 68  1  0  0  0  0
  7 69  1  0  0  0  0
  8 40  1  0  0  0  0
  8 43  2  0  0  0  0
  9 42  1  0  0  0  0
  9 43  1  0  0  0  0
 10 13  1  0  0  0  0
 10 70  1  0  0  0  0
 10 71  1  0  0  0  0
 11 54  1  0  0  0  0
 11 55  1  0  0  0  0
 11 72  1  0  0  0  0
 12 49  1  0  0  0  0
 12 73  1  0  0  0  0
 13 16  1  0  0  0  0
 13 74  1  0  0  0  0
 13 75  1  0  0  0  0
 14 59  1  0  0  0  0
 14 60  1  0  0  0  0
 14 76  1  0  0  0  0
 15 50  2  0  0  0  0
 16 18  1  0  0  0  0
 16 77  1  0  0  0  0
 16 78  1  0  0  0  0
 17 50  1  0  0  0  0
 17 51  1  0  0  0  0
 18 20  1  0  0  0  0
 18 79  1  0  0  0  0
 18 80  1  0  0  0  0
 19 54  2  0  0  0  0
 20 22  1  0  0  0  0
 20 81  1  0  0  0  0
 20 82  1  0  0  0  0
 21 60  2  0  0  0  0
 22 23  1  0  0  0  0
 22 83  1  0  0  0  0
 22 84  1  0  0  0  0
 23 24  1  0  0  0  0
 23 85  1  0  0  0  0
 23 86  1  0  0  0  0
 24 25  1  0  0  0  0
 24 87  1  0  0  0  0
 24 88  1  0  0  0  0
 25 26  1  0  0  0  0
 25 89  1  0  0  0  0
 25 90  1  0  0  0  0
 26 27  1  0  0  0  0
 26 91  1  0  0  0  0
 26 92  1  0  0  0  0
 27 28  1  0  0  0  0
 27 93  1  0  0  0  0
 27 94  1  0  0  0  0
 28 29  1  0  0  0  0
 28 95  1  0  0  0  0
 28 96  1  0  0  0  0
 29 30  1  0  0  0  0
 29 97  1  0  0  0  0
 29 98  1  0  0  0  0
 30 31  1  0  0  0  0
 30 99  1  0  0  0  0
 30100  1  0  0  0  0
 31 32  2  0  0  0  0
 31101  1  0  0  0  0
 32 33  1  0  0  0  0
 32102  1  0  0  0  0
 34 35  1  0  0  0  0
 34103  1  0  0  0  0
 34104  1  0  0  0  0
 35 36  1  0  0  0  0
 35105  1  0  0  0  0
 35106  1  0  0  0  0
 36 37  1  0  0  0  0
 36107  1  0  0  0  0
 36108  1  0  0  0  0
 37 38  1  0  0  0  0
 37109  1  0  0  0  0
 37110  1  0  0  0  0
 38 50  1  0  0  0  0
 38111  1  1  0  0  0
 40 39  1  1  0  0  0
 40 41  1  0  0  0  0
 40 42  1  0  0  0  0
 41112  1  0  0  0  0
 41113  1  0  0  0  0
 41114  1  0  0  0  0
 42115  1  0  0  0  0
 42116  1  0  0  0  0
 43 44  1  0  0  0  0
 44 45  2  0  0  0  0
 44 49  1  0  0  0  0
 45 46  1  0  0  0  0
 45117  1  0  0  0  0
 46 47  2  0  0  0  0
 46118  1  0  0  0  0
 47 48  1  0  0  0  0
 47119  1  0  0  0  0
 48 49  2  0  0  0  0
 48120  1  0  0  0  0
 51 52  1  0  0  0  0
 51 53  1  0  0  0  0
 51121  1  6  0  0  0
 52122  1  0  0  0  0
 52123  1  0  0  0  0
 52124  1  0  0  0  0
 53 54  1  0  0  0  0
 53125  1  0  0  0  0
 53126  1  0  0  0  0
 55 56  1  0  0  0  0
 55 60  1  0  0  0  0
 55127  1  1  0  0  0
 56 57  1  0  0  0  0
 56128  1  0  0  0  0
 56129  1  0  0  0  0
 57 58  1  0  0  0  0
 57130  1  0  0  0  0
 57131  1  0  0  0  0
 58 59  1  0  0  0  0
 58132  1  0  0  0  0
 58133  1  0  0  0  0
 59134  1  0  0  0  0
 59135  1  0  0  0  0
M  END
$$$$
/media/chris/experiments/cd1a-new-docking/inputs/ligands/7ryo_ligand.pdb
 OpenBabel07032304133D

135137  0  0  1  0  0  0  0  0999 V2000
  -37.9843   59.6092   60.1567 N   0  0  0  0  0  0  0  0  0  0  0  0
  -46.1787   60.3172   61.7679 C   0  0  0  0  0  0  0  0  0  0  0  0
  -37.1331   61.2779   61.4155 O   0  0  0  0  0  0  0  0  0  0  0  0
  -47.4803   61.0750   61.7622 C   0  0  0  0  0  0  0  0  0  0  0  0
  -34.8919   59.3849   63.5113 N   0  0  0  0  0  0  0  0  0  0  0  0
  -34.1477   58.2506   65.3039 O   0  0  0  0  0  0  0  0  0  0  0  0
  -47.6649   61.9571   62.9836 C   0  0  0  0  0  0  0  0  0  0  0  0
  -37.2767   59.5238   65.2608 N   0  0  0  0  0  0  0  0  0  0  0  0
  -37.2773   59.0618   67.4675 O   0  0  0  0  0  0  0  0  0  0  0  0
  -47.6409   61.2110   64.3080 C   0  0  0  0  0  0  0  0  0  0  0  0
  -33.0668   56.7172   56.2828 N   0  0  0  0  0  0  0  0  0  0  0  0
  -39.0189   57.3967   68.3002 O   0  0  0  0  0  0  0  0  0  0  0  0
  -46.3291   60.4838   64.5697 C   0  0  0  0  0  0  0  0  0  0  0  0
  -32.6592   55.9126   52.7785 N   0  0  0  0  0  0  0  0  0  0  0  0
  -32.9132   60.6848   61.6770 O   0  0  0  0  0  0  0  0  0  0  0  0
  -45.1170   61.4005   64.6294 C   0  0  0  0  0  0  0  0  0  0  0  0
  -33.9036   59.2098   60.2898 O   0  0  0  0  0  0  0  0  0  0  0  0
  -44.8774   62.2004   63.3607 C   0  0  0  0  0  0  0  0  0  0  0  0
  -31.4013   57.9497   57.1598 O   0  0  0  0  0  0  0  0  0  0  0  0
  -43.6559   63.1033   63.4162 C   0  0  0  0  0  0  0  0  0  0  0  0
  -34.4227   55.8774   54.1639 O   0  0  0  0  0  0  0  0  0  0  0  0
  -43.4465   63.9040   62.1461 C   0  0  0  0  0  0  0  0  0  0  0  0
  -43.2713   63.0258   60.9221 C   0  0  0  0  0  0  0  0  0  0  0  0
  -43.0422   63.7886   59.6327 C   0  0  0  0  0  0  0  0  0  0  0  0
  -41.7920   64.6458   59.6627 C   0  0  0  0  0  0  0  0  0  0  0  0
  -41.5619   65.4285   58.3805 C   0  0  0  0  0  0  0  0  0  0  0  0
  -40.3014   66.2725   58.4058 C   0  0  0  0  0  0  0  0  0  0  0  0
  -39.0190   65.4788   58.5919 C   0  0  0  0  0  0  0  0  0  0  0  0
  -38.9835   64.6742   59.8797 C   0  0  0  0  0  0  0  0  0  0  0  0
  -37.6927   63.8896   60.0798 C   0  0  0  0  0  0  0  0  0  0  0  0
  -37.4555   62.9194   58.9649 C   0  0  0  0  0  0  0  0  0  0  0  0
  -37.3399   61.6008   59.0464 C   0  0  0  0  0  0  0  0  0  0  0  0
  -37.4477   60.8255   60.3025 C   0  0  0  0  0  0  0  0  0  0  0  0
  -38.2360   58.7337   61.2903 C   0  0  0  0  0  0  0  0  0  0  0  0
  -36.9560   58.4330   62.0390 C   0  0  0  0  0  0  0  0  0  0  0  0
  -35.8780   57.7610   61.2090 C   0  0  0  0  0  0  0  0  0  0  0  0
  -34.6110   57.4590   62.0020 C   0  0  0  0  0  0  0  0  0  0  0  0
  -33.9807   58.7203   62.5945 C   0  0  1  0  0  0  0  0  0  0  0  0
  -34.8939   59.0841   64.8122 C   0  0  0  0  0  0  0  0  0  0  0  0
  -35.9053   59.8164   65.7094 C   0  0  1  0  0  0  0  0  0  0  0  0
  -35.6588   61.3186   65.6073 C   0  0  0  0  0  0  0  0  0  0  0  0
  -35.8851   59.3358   67.1680 C   0  0  0  0  0  0  0  0  0  0  0  0
  -37.9257   59.1255   66.2755 C   0  0  0  0  0  0  0  0  0  0  0  0
  -39.3344   58.7246   66.2971 C   0  0  0  0  0  0  0  0  0  0  0  0
  -40.2388   59.2938   65.3997 C   0  0  0  0  0  0  0  0  0  0  0  0
  -41.6010   59.1118   65.5651 C   0  0  0  0  0  0  0  0  0  0  0  0
  -42.0824   58.3655   66.6186 C   0  0  0  0  0  0  0  0  0  0  0  0
  -41.2075   57.7944   67.5247 C   0  0  0  0  0  0  0  0  0  0  0  0
  -39.8350   57.9678   67.3765 C   0  0  0  0  0  0  0  0  0  0  0  0
  -33.5193   59.6651   61.4950 C   0  0  0  0  0  0  0  0  0  0  0  0
  -32.8646   58.9198   59.2967 C   0  0  2  0  0  0  0  0  0  0  0  0
  -32.4499   60.2222   58.6599 C   0  0  0  0  0  0  0  0  0  0  0  0
  -33.5046   57.9698   58.3031 C   0  0  0  0  0  0  0  0  0  0  0  0
  -32.5596   57.5444   57.2013 C   0  0  0  0  0  0  0  0  0  0  0  0
  -32.2762   56.2368   55.1630 C   0  0  1  0  0  0  0  0  0  0  0  0
  -31.5729   54.9275   55.5381 C   0  0  0  0  0  0  0  0  0  0  0  0
  -30.3939   54.5862   54.6332 C   0  0  0  0  0  0  0  0  0  0  0  0
  -30.7348   54.3728   53.1717 C   0  0  0  0  0  0  0  0  0  0  0  0
  -31.2659   55.6065   52.4723 C   0  0  0  0  0  0  0  0  0  0  0  0
  -33.2130   55.9928   53.9904 C   0  0  0  0  0  0  0  0  0  0  0  0
  -38.2165   59.2963   59.2526 H   0  0  0  0  0  0  0  0  0  0  0  0
  -46.1111   59.7177   60.8842 H   0  0  0  0  0  0  0  0  0  0  0  0
  -46.1371   59.6862   62.6310 H   0  0  0  0  0  0  0  0  0  0  0  0
  -45.3631   61.0094   61.7925 H   0  0  0  0  0  0  0  0  0  0  0  0
  -48.2841   60.3696   61.7277 H   0  0  0  0  0  0  0  0  0  0  0  0
  -47.4707   61.7163   60.9058 H   0  0  0  0  0  0  0  0  0  0  0  0
  -35.5154   60.0655   63.1688 H   0  0  0  0  0  0  0  0  0  0  0  0
  -48.6082   62.4547   62.8972 H   0  0  0  0  0  0  0  0  0  0  0  0
  -46.8358   62.6333   62.9995 H   0  0  0  0  0  0  0  0  0  0  0  0
  -48.4328   60.4915   64.3061 H   0  0  0  0  0  0  0  0  0  0  0  0
  -47.7576   61.9397   65.0827 H   0  0  0  0  0  0  0  0  0  0  0  0
  -34.0031   56.4250   56.3674 H   0  0  0  0  0  0  0  0  0  0  0  0
  -38.0898   57.4947   68.2289 H   0  0  0  0  0  0  0  0  0  0  0  0
  -46.1755   59.7731   63.7848 H   0  0  0  0  0  0  0  0  0  0  0  0
  -46.4166   60.0221   65.5310 H   0  0  0  0  0  0  0  0  0  0  0  0
  -33.2531   56.0773   52.0108 H   0  0  0  0  0  0  0  0  0  0  0  0
  -44.2512   60.8001   64.8159 H   0  0  0  0  0  0  0  0  0  0  0  0
  -45.3060   62.1094   65.4083 H   0  0  0  0  0  0  0  0  0  0  0  0
  -45.7379   62.8104   63.1808 H   0  0  0  0  0  0  0  0  0  0  0  0
  -44.7013   61.4918   62.5785 H   0  0  0  0  0  0  0  0  0  0  0  0
  -42.7910   62.4954   63.5814 H   0  0  0  0  0  0  0  0  0  0  0  0
  -43.8135   63.8027   64.2104 H   0  0  0  0  0  0  0  0  0  0  0  0
  -42.5706   64.5074   62.2625 H   0  0  0  0  0  0  0  0  0  0  0  0
  -44.3211   64.5009   61.9927 H   0  0  0  0  0  0  0  0  0  0  0  0
  -44.1537   62.4316   60.8073 H   0  0  0  0  0  0  0  0  0  0  0  0
  -42.3926   62.4388   61.0902 H   0  0  0  0  0  0  0  0  0  0  0  0
  -43.8860   64.4231   59.4580 H   0  0  0  0  0  0  0  0  0  0  0  0
  -42.9155   63.0667   58.8532 H   0  0  0  0  0  0  0  0  0  0  0  0
  -40.9483   64.0083   59.8263 H   0  0  0  0  0  0  0  0  0  0  0  0
  -41.9196   65.3605   60.4487 H   0  0  0  0  0  0  0  0  0  0  0  0
  -42.3997   66.0752   58.2233 H   0  0  0  0  0  0  0  0  0  0  0  0
  -41.4473   64.7146   57.5918 H   0  0  0  0  0  0  0  0  0  0  0  0
  -40.3826   66.9713   59.2120 H   0  0  0  0  0  0  0  0  0  0  0  0
  -40.2316   66.7464   57.4490 H   0  0  0  0  0  0  0  0  0  0  0  0
  -38.1958   66.1624   58.5973 H   0  0  0  0  0  0  0  0  0  0  0  0
  -38.9623   64.7800   57.7836 H   0  0  0  0  0  0  0  0  0  0  0  0
  -39.8001   63.9828   59.8681 H   0  0  0  0  0  0  0  0  0  0  0  0
  -39.0507   65.3741   60.6862 H   0  0  0  0  0  0  0  0  0  0  0  0
  -37.7543   63.3500   61.0017 H   0  0  0  0  0  0  0  0  0  0  0  0
  -36.8792   64.5845   60.0956 H   0  0  0  0  0  0  0  0  0  0  0  0
  -37.3720   63.3251   58.0196 H   0  0  0  0  0  0  0  0  0  0  0  0
  -37.1625   61.0793   58.1737 H   0  0  0  0  0  0  0  0  0  0  0  0
  -38.6582   57.8163   60.9368 H   0  0  0  0  0  0  0  0  0  0  0  0
  -38.9129   59.2259   61.9570 H   0  0  0  0  0  0  0  0  0  0  0  0
  -37.1937   57.7896   62.8603 H   0  0  0  0  0  0  0  0  0  0  0  0
  -36.5565   59.3772   62.3453 H   0  0  0  0  0  0  0  0  0  0  0  0
  -35.6238   58.4067   60.3945 H   0  0  0  0  0  0  0  0  0  0  0  0
  -36.2729   56.8255   60.8717 H   0  0  0  0  0  0  0  0  0  0  0  0
  -33.9009   56.9930   61.3512 H   0  0  0  0  0  0  0  0  0  0  0  0
  -34.8793   56.8156   62.8138 H   0  0  0  0  0  0  0  0  0  0  0  0
  -33.1195   58.4233   63.1557 H   0  0  0  0  0  0  0  0  0  0  0  0
  -35.6803   61.6144   64.5792 H   0  0  0  0  0  0  0  0  0  0  0  0
  -34.7022   61.5523   66.0258 H   0  0  0  0  0  0  0  0  0  0  0  0
  -36.4211   61.8425   66.1452 H   0  0  0  0  0  0  0  0  0  0  0  0
  -35.2932   58.4500   67.2682 H   0  0  0  0  0  0  0  0  0  0  0  0
  -35.4552   60.0559   67.8325 H   0  0  0  0  0  0  0  0  0  0  0  0
  -39.8895   59.8545   64.6069 H   0  0  0  0  0  0  0  0  0  0  0  0
  -42.2603   59.5378   64.8951 H   0  0  0  0  0  0  0  0  0  0  0  0
  -43.0995   58.2322   66.7319 H   0  0  0  0  0  0  0  0  0  0  0  0
  -41.5737   57.2381   68.3131 H   0  0  0  0  0  0  0  0  0  0  0  0
  -31.9843   58.4723   59.7086 H   0  0  0  0  0  0  0  0  0  0  0  0
  -33.3076   60.7006   58.2353 H   0  0  0  0  0  0  0  0  0  0  0  0
  -31.7313   60.0301   57.8907 H   0  0  0  0  0  0  0  0  0  0  0  0
  -32.0165   60.8599   59.4017 H   0  0  0  0  0  0  0  0  0  0  0  0
  -34.3481   58.4567   57.8601 H   0  0  0  0  0  0  0  0  0  0  0  0
  -33.7890   57.0887   58.8394 H   0  0  0  0  0  0  0  0  0  0  0  0
  -31.5329   56.9615   54.9040 H   0  0  0  0  0  0  0  0  0  0  0  0
  -32.2858   54.1318   55.4792 H   0  0  0  0  0  0  0  0  0  0  0  0
  -31.1833   55.0530   56.5267 H   0  0  0  0  0  0  0  0  0  0  0  0
  -29.9446   53.6878   55.0017 H   0  0  0  0  0  0  0  0  0  0  0  0
  -29.7446   55.4362   54.6628 H   0  0  0  0  0  0  0  0  0  0  0  0
  -31.4777   53.6053   53.1089 H   0  0  0  0  0  0  0  0  0  0  0  0
  -29.8229   54.1080   52.6785 H   0  0  0  0  0  0  0  0  0  0  0  0
  -30.6661   56.4429   52.7650 H   0  0  0  0  0  0  0  0  0  0  0  0
  -31.2173   55.4101   51.4216 H   0  0  0  0  0  0  0  0  0  0  0  0
  1 33  1  0  0  0  0
  1 34  1  0  0  0  0
  1 61  1  0  0  0  0
  2  4  1  0  0  0  0
  2 62  1  0  0  0  0
  2 63  1  0  0  0  0
  2 64  1  0  0  0  0
  3 33  2  0  0  0  0
  4  7  1  0  0  0  0
  4 65  1  0  0  0  0
  4 66  1  0  0  0  0
  5 38  1  0  0  0  0
  5 39  1  0  0  0  0
  5 67  1  0  0  0  0
  6 39  2  0  0  0  0
  7 10  1  0  0  0  0
  7 68  1  0  0  0  0
  7 69  1  0  0  0  0
  8 40  1  0  0  0  0
  8 43  2  0  0  0  0
  9 42  1  0  0  0  0
  9 43  1  0  0  0  0
 10 13  1  0  0  0  0
 10 70  1  0  0  0  0
 10 71  1  0  0  0  0
 11 54  1  0  0  0  0
 11 55  1  0  0  0  0
 11 72  1  0  0  0  0
 12 49  1  0  0  0  0
 12 73  1  0  0  0  0
 13 16  1  0  0  0  0
 13 74  1  0  0  0  0
 13 75  1  0  0  0  0
 14 59  1  0  0  0  0
 14 60  1  0  0  0  0
 14 76  1  0  0  0  0
 15 50  2  0  0  0  0
 16 18  1  0  0  0  0
 16 77  1  0  0  0  0
 16 78  1  0  0  0  0
 17 50  1  0  0  0  0
 17 51  1  0  0  0  0
 18 20  1  0  0  0  0
 18 79  1  0  0  0  0
 18 80  1  0  0  0  0
 19 54  2  0  0  0  0
 20 22  1  0  0  0  0
 20 81  1  0  0  0  0
 20 82  1  0  0  0  0
 21 60  2  0  0  0  0
 22 23  1  0  0  0  0
 22 83  1  0  0  0  0
 22 84  1  0  0  0  0
 23 24  1  0  0  0  0
 23 85  1  0  0  0  0
 23 86  1  0  0  0  0
 24 25  1  0  0  0  0
 24 87  1  0  0  0  0
 24 88  1  0  0  0  0
 25 26  1  0  0  0  0
 25 89  1  0  0  0  0
 25 90  1  0  0  0  0
 26 27  1  0  0  0  0
 26 91  1  0  0  0  0
 26 92  1  0  0  0  0
 27 28  1  0  0  0  0
 27 93  1  0  0  0  0
 27 94  1  0  0  0  0
 28 29  1  0  0  0  0
 28 95  1  0  0  0  0
 28 96  1  0  0  0  0
 29 30  1  0  0  0  0
 29 97  1  0  0  0  0
 29 98  1  0  0  0  0
 30 31  1  0  0  0  0
 30 99  1  0  0  0  0
 30100  1  0  0  0  0
 31 32  2  0  0  0  0
 31101  1  0  0  0  0
 32 33  1  0  0  0  0
 32102  1  0  0  0  0
 34 35  1  0  0  0  0
 34103  1  0  0  0  0
 34104  1  0  0  0  0
 35 36  1  0  0  0  0
 35105  1  0  0  0  0
 35106  1  0  0  0  0
 36 37  1  0  0  0  0
 36107  1  0  0  0  0
 36108  1  0  0  0  0
 37 38  1  0  0  0  0
 37109  1  0  0  0  0
 37110  1  0  0  0  0
 38 50  1  0  0  0  0
 38111  1  1  0  0  0
 40 39  1  6  0  0  0
 40 41  1  0  0  0  0
 40 42  1  0  0  0  0
 41112  1  0  0  0  0
 41113  1  0  0  0  0
 41114  1  0  0  0  0
 42115  1  0  0  0  0
 42116  1  0  0  0  0
 43 44  1  0  0  0  0
 44 45  2  0  0  0  0
 44 49  1  0  0  0  0
 45 46  1  0  0  0  0
 45117  1  0  0  0  0
 46 47  2  0  0  0  0
 46118  1  0  0  0  0
 47 48  1  0  0  0  0
 47119  1  0  0  0  0
 48 49  2  0  0  0  0
 48120  1  0  0  0  0
 51 52  1  0  0  0  0
 51 53  1  0  0  0  0
 51121  1  1  0  0  0
 52122  1  0  0  0  0
 52123  1  0  0  0  0
 52124  1  0  0  0  0
 53 54  1  0  0  0  0
 53125  1  0  0  0  0
 53126  1  0  0  0  0
 55 56  1  0  0  0  0
 55 60  1  0  0  0  0
 55127  1  6  0  0  0
 56 57  1  0  0  0  0
 56128  1  0  0  0  0
 56129  1  0  0  0  0
 57 58  1  0  0  0  0
 57130  1  0  0  0  0
 57131  1  0  0  0  0
 58 59  1  0  0  0  0
 58132  1  0  0  0  0
 58133  1  0  0  0  0
 59134  1  0  0  0  0
 59135  1  0  0  0  0
M  END
$$$$
/media/chris/experiments/cd1a-new-docking/inputs/ligands/7ryo_ligand.pdb
 OpenBabel07032304133D

135137  0  0  1  0  0  0  0  0999 V2000
  -37.9843   59.6092   60.1567 N   0  0  0  0  0  0  0  0  0  0  0  0
  -46.0496   57.8116   49.9134 C   0  0  0  0  0  0  0  0  0  0  0  0
  -37.6236   57.9151   58.7096 O   0  0  0  0  0  0  0  0  0  0  0  0
  -44.7552   58.3902   50.4218 C   0  0  0  0  0  0  0  0  0  0  0  0
  -34.0017   55.5459   60.5756 N   0  0  0  0  0  0  0  0  0  0  0  0
  -34.7931   56.5209   58.7110 O   0  0  0  0  0  0  0  0  0  0  0  0
  -43.7231   58.6003   49.3288 C   0  0  0  0  0  0  0  0  0  0  0  0
  -34.4289   53.8383   57.5903 N   0  0  0  0  0  0  0  0  0  0  0  0
  -34.0988   52.0219   58.8845 O   0  0  0  0  0  0  0  0  0  0  0  0
  -42.3991   59.1679   49.8145 C   0  0  0  0  0  0  0  0  0  0  0  0
  -31.0173   55.7198   64.4289 N   0  0  0  0  0  0  0  0  0  0  0  0
  -34.1379   49.8310   57.3431 O   0  0  0  0  0  0  0  0  0  0  0  0
  -41.6925   58.2762   50.8264 C   0  0  0  0  0  0  0  0  0  0  0  0
  -34.4534   55.8572   65.5551 N   0  0  0  0  0  0  0  0  0  0  0  0
  -32.2087   56.3404   63.1145 O   0  0  0  0  0  0  0  0  0  0  0  0
  -41.3400   56.8965   50.2924 C   0  0  0  0  0  0  0  0  0  0  0  0
  -31.1741   56.7589   61.1561 O   0  0  0  0  0  0  0  0  0  0  0  0
  -40.6499   55.9952   51.3015 C   0  0  0  0  0  0  0  0  0  0  0  0
  -31.5760   53.9633   63.1389 O   0  0  0  0  0  0  0  0  0  0  0  0
  -41.4769   55.7042   52.5431 C   0  0  0  0  0  0  0  0  0  0  0  0
  -33.2304   57.1638   64.2031 O   0  0  0  0  0  0  0  0  0  0  0  0
  -40.7619   54.8171   53.5430 C   0  0  0  0  0  0  0  0  0  0  0  0
  -41.6033   54.5200   54.7693 C   0  0  0  0  0  0  0  0  0  0  0  0
  -42.0320   55.7486   55.5462 C   0  0  0  0  0  0  0  0  0  0  0  0
  -42.8814   56.7026   54.7294 C   0  0  0  0  0  0  0  0  0  0  0  0
  -43.3027   57.9466   55.4939 C   0  0  0  0  0  0  0  0  0  0  0  0
  -42.1335   58.7875   55.9710 C   0  0  0  0  0  0  0  0  0  0  0  0
  -41.1724   58.0582   56.8949 C   0  0  0  0  0  0  0  0  0  0  0  0
  -40.0184   58.9210   57.3753 C   0  0  0  0  0  0  0  0  0  0  0  0
  -39.1556   59.4773   56.2492 C   0  0  0  0  0  0  0  0  0  0  0  0
  -38.0245   60.3050   56.7748 C   0  0  0  0  0  0  0  0  0  0  0  0
  -37.3921   60.1741   57.9330 C   0  0  0  0  0  0  0  0  0  0  0  0
  -37.6945   59.1333   58.9408 C   0  0  0  0  0  0  0  0  0  0  0  0
  -38.2360   58.7337   61.2903 C   0  0  0  0  0  0  0  0  0  0  0  0
  -36.9560   58.4330   62.0390 C   0  0  0  0  0  0  0  0  0  0  0  0
  -35.8780   57.7610   61.2090 C   0  0  0  0  0  0  0  0  0  0  0  0
  -34.6110   57.4590   62.0020 C   0  0  0  0  0  0  0  0  0  0  0  0
  -33.5311   56.7980   61.1441 C   0  0  1  0  0  0  0  0  0  0  0  0
  -34.6037   55.5187   59.3841 C   0  0  0  0  0  0  0  0  0  0  0  0
  -35.0924   54.1562   58.8656 C   0  0  1  0  0  0  0  0  0  0  0  0
  -36.5994   54.2263   58.6378 C   0  0  0  0  0  0  0  0  0  0  0  0
  -34.7106   52.9836   59.7811 C   0  0  0  0  0  0  0  0  0  0  0  0
  -33.9287   52.6783   57.7073 C   0  0  0  0  0  0  0  0  0  0  0  0
  -33.1756   51.9546   56.6803 C   0  0  0  0  0  0  0  0  0  0  0  0
  -32.4261   52.6569   55.7356 C   0  0  0  0  0  0  0  0  0  0  0  0
  -31.9133   52.0102   54.6243 C   0  0  0  0  0  0  0  0  0  0  0  0
  -32.1360   50.6635   54.4361 C   0  0  0  0  0  0  0  0  0  0  0  0
  -32.8793   49.9455   55.3551 C   0  0  0  0  0  0  0  0  0  0  0  0
  -33.4049   50.5782   56.4773 C   0  0  0  0  0  0  0  0  0  0  0  0
  -32.2521   56.5942   61.9423 C   0  0  0  0  0  0  0  0  0  0  0  0
  -30.2472   55.6325   61.0086 C   0  0  2  0  0  0  0  0  0  0  0  0
  -31.0066   54.4777   60.4058 C   0  0  0  0  0  0  0  0  0  0  0  0
  -29.7499   55.3281   62.4084 C   0  0  0  0  0  0  0  0  0  0  0  0
  -30.8613   54.9375   63.3570 C   0  0  0  0  0  0  0  0  0  0  0  0
  -32.0516   55.4695   65.4174 C   0  0  1  0  0  0  0  0  0  0  0  0
  -31.5875   55.9472   66.7980 C   0  0  0  0  0  0  0  0  0  0  0  0
  -32.3761   55.3383   67.9523 C   0  0  0  0  0  0  0  0  0  0  0  0
  -33.8574   55.6598   67.9706 C   0  0  0  0  0  0  0  0  0  0  0  0
  -34.6275   55.1027   66.7917 C   0  0  0  0  0  0  0  0  0  0  0  0
  -33.2976   56.2377   65.0060 C   0  0  0  0  0  0  0  0  0  0  0  0
  -38.0287   60.5838   60.2886 H   0  0  0  0  0  0  0  0  0  0  0  0
  -46.7304   57.6890   50.7296 H   0  0  0  0  0  0  0  0  0  0  0  0
  -45.8615   56.8609   49.4599 H   0  0  0  0  0  0  0  0  0  0  0  0
  -46.4763   58.4739   49.1893 H   0  0  0  0  0  0  0  0  0  0  0  0
  -44.3471   57.7216   51.1507 H   0  0  0  0  0  0  0  0  0  0  0  0
  -44.9781   59.3508   50.8370 H   0  0  0  0  0  0  0  0  0  0  0  0
  -33.8750   54.7072   61.0754 H   0  0  0  0  0  0  0  0  0  0  0  0
  -44.1324   59.2765   48.6077 H   0  0  0  0  0  0  0  0  0  0  0  0
  -43.5095   57.6342   48.9214 H   0  0  0  0  0  0  0  0  0  0  0  0
  -42.5845   60.1177   50.2709 H   0  0  0  0  0  0  0  0  0  0  0  0
  -41.7578   59.2467   48.9616 H   0  0  0  0  0  0  0  0  0  0  0  0
  -30.4140   56.4880   64.5521 H   0  0  0  0  0  0  0  0  0  0  0  0
  -34.5058   50.2271   58.1085 H   0  0  0  0  0  0  0  0  0  0  0  0
  -42.3337   58.1555   51.6744 H   0  0  0  0  0  0  0  0  0  0  0  0
  -40.7699   58.7583   51.0740 H   0  0  0  0  0  0  0  0  0  0  0  0
  -35.2743   56.1125   65.0754 H   0  0  0  0  0  0  0  0  0  0  0  0
  -40.6895   57.0184   49.4516 H   0  0  0  0  0  0  0  0  0  0  0  0
  -42.2637   56.4208   50.0369 H   0  0  0  0  0  0  0  0  0  0  0  0
  -39.7402   56.4682   51.6073 H   0  0  0  0  0  0  0  0  0  0  0  0
  -40.4852   55.0569   50.8143 H   0  0  0  0  0  0  0  0  0  0  0  0
  -42.3814   55.2176   52.2428 H   0  0  0  0  0  0  0  0  0  0  0  0
  -41.6651   56.6402   53.0262 H   0  0  0  0  0  0  0  0  0  0  0  0
  -39.8637   55.3080   53.8550 H   0  0  0  0  0  0  0  0  0  0  0  0
  -40.5562   53.8853   53.0590 H   0  0  0  0  0  0  0  0  0  0  0  0
  -41.0333   53.8929   55.4226 H   0  0  0  0  0  0  0  0  0  0  0  0
  -42.4994   54.0517   54.4191 H   0  0  0  0  0  0  0  0  0  0  0  0
  -41.1553   56.2678   55.8731 H   0  0  0  0  0  0  0  0  0  0  0  0
  -42.6293   55.4138   56.3684 H   0  0  0  0  0  0  0  0  0  0  0  0
  -43.7627   56.1850   54.4130 H   0  0  0  0  0  0  0  0  0  0  0  0
  -42.2832   57.0282   53.9041 H   0  0  0  0  0  0  0  0  0  0  0  0
  -43.8724   57.6432   56.3473 H   0  0  0  0  0  0  0  0  0  0  0  0
  -43.8725   58.5524   54.8206 H   0  0  0  0  0  0  0  0  0  0  0  0
  -42.5227   59.6356   56.4946 H   0  0  0  0  0  0  0  0  0  0  0  0
  -41.5746   59.0565   55.0991 H   0  0  0  0  0  0  0  0  0  0  0  0
  -40.7703   57.2174   56.3694 H   0  0  0  0  0  0  0  0  0  0  0  0
  -41.7293   57.7682   57.7614 H   0  0  0  0  0  0  0  0  0  0  0  0
  -39.3977   58.3286   58.0146 H   0  0  0  0  0  0  0  0  0  0  0  0
  -40.4468   59.7599   57.8829 H   0  0  0  0  0  0  0  0  0  0  0  0
  -39.7647   60.0860   55.6141 H   0  0  0  0  0  0  0  0  0  0  0  0
  -38.7416   58.6524   55.7078 H   0  0  0  0  0  0  0  0  0  0  0  0
  -37.6978   61.0688   56.1625 H   0  0  0  0  0  0  0  0  0  0  0  0
  -36.6369   60.8443   58.1463 H   0  0  0  0  0  0  0  0  0  0  0  0
  -38.6582   57.8163   60.9368 H   0  0  0  0  0  0  0  0  0  0  0  0
  -38.9129   59.2259   61.9570 H   0  0  0  0  0  0  0  0  0  0  0  0
  -37.1937   57.7896   62.8603 H   0  0  0  0  0  0  0  0  0  0  0  0
  -36.5565   59.3772   62.3453 H   0  0  0  0  0  0  0  0  0  0  0  0
  -35.6238   58.4067   60.3945 H   0  0  0  0  0  0  0  0  0  0  0  0
  -36.2729   56.8255   60.8717 H   0  0  0  0  0  0  0  0  0  0  0  0
  -34.8590   56.8018   62.8091 H   0  0  0  0  0  0  0  0  0  0  0  0
  -34.2203   58.3886   62.3599 H   0  0  0  0  0  0  0  0  0  0  0  0
  -33.3097   57.4574   60.3310 H   0  0  0  0  0  0  0  0  0  0  0  0
  -36.8252   55.0532   57.9973 H   0  0  0  0  0  0  0  0  0  0  0  0
  -37.0963   54.3562   59.5765 H   0  0  0  0  0  0  0  0  0  0  0  0
  -36.9335   53.3188   58.1800 H   0  0  0  0  0  0  0  0  0  0  0  0
  -34.0165   53.2981   60.5322 H   0  0  0  0  0  0  0  0  0  0  0  0
  -35.5517   52.5803   60.3053 H   0  0  0  0  0  0  0  0  0  0  0  0
  -32.2529   53.6658   55.8665 H   0  0  0  0  0  0  0  0  0  0  0  0
  -31.3607   52.5401   53.9324 H   0  0  0  0  0  0  0  0  0  0  0  0
  -31.7468   50.1891   53.6064 H   0  0  0  0  0  0  0  0  0  0  0  0
  -33.0447   48.9374   55.2081 H   0  0  0  0  0  0  0  0  0  0  0  0
  -29.4159   55.8367   60.3666 H   0  0  0  0  0  0  0  0  0  0  0  0
  -31.8488   54.2438   61.0229 H   0  0  0  0  0  0  0  0  0  0  0  0
  -30.3646   53.6242   60.3399 H   0  0  0  0  0  0  0  0  0  0  0  0
  -31.3452   54.7457   59.4268 H   0  0  0  0  0  0  0  0  0  0  0  0
  -29.2623   56.1989   62.7942 H   0  0  0  0  0  0  0  0  0  0  0  0
  -29.0816   54.4954   62.3372 H   0  0  0  0  0  0  0  0  0  0  0  0
  -32.2587   54.4211   65.4709 H   0  0  0  0  0  0  0  0  0  0  0  0
  -31.6928   57.0112   66.8406 H   0  0  0  0  0  0  0  0  0  0  0  0
  -30.5710   55.6336   66.9128 H   0  0  0  0  0  0  0  0  0  0  0  0
  -31.9500   55.6942   68.8669 H   0  0  0  0  0  0  0  0  0  0  0  0
  -32.3068   54.2777   67.8288 H   0  0  0  0  0  0  0  0  0  0  0  0
  -33.9699   56.7239   67.9725 H   0  0  0  0  0  0  0  0  0  0  0  0
  -34.2615   55.1990   68.8477 H   0  0  0  0  0  0  0  0  0  0  0  0
  -34.3003   54.0984   66.6212 H   0  0  0  0  0  0  0  0  0  0  0  0
  -35.6652   55.1624   67.0455 H   0  0  0  0  0  0  0  0  0  0  0  0
  1 33  1  0  0  0  0
  1 34  1  0  0  0  0
  1 61  1  0  0  0  0
  2  4  1  0  0  0  0
  2 62  1  0  0  0  0
  2 63  1  0  0  0  0
  2 64  1  0  0  0  0
  3 33  2  0  0  0  0
  4  7  1  0  0  0  0
  4 65  1  0  0  0  0
  4 66  1  0  0  0  0
  5 38  1  0  0  0  0
  5 39  1  0  0  0  0
  5 67  1  0  0  0  0
  6 39  2  0  0  0  0
  7 10  1  0  0  0  0
  7 68  1  0  0  0  0
  7 69  1  0  0  0  0
  8 40  1  0  0  0  0
  8 43  2  0  0  0  0
  9 42  1  0  0  0  0
  9 43  1  0  0  0  0
 10 13  1  0  0  0  0
 10 70  1  0  0  0  0
 10 71  1  0  0  0  0
 11 54  1  0  0  0  0
 11 55  1  0  0  0  0
 11 72  1  0  0  0  0
 12 49  1  0  0  0  0
 12 73  1  0  0  0  0
 13 16  1  0  0  0  0
 13 74  1  0  0  0  0
 13 75  1  0  0  0  0
 14 59  1  0  0  0  0
 14 60  1  0  0  0  0
 14 76  1  0  0  0  0
 15 50  2  0  0  0  0
 16 18  1  0  0  0  0
 16 77  1  0  0  0  0
 16 78  1  0  0  0  0
 17 50  1  0  0  0  0
 17 51  1  0  0  0  0
 18 20  1  0  0  0  0
 18 79  1  0  0  0  0
 18 80  1  0  0  0  0
 19 54  2  0  0  0  0
 20 22  1  0  0  0  0
 20 81  1  0  0  0  0
 20 82  1  0  0  0  0
 21 60  2  0  0  0  0
 22 23  1  0  0  0  0
 22 83  1  0  0  0  0
 22 84  1  0  0  0  0
 23 24  1  0  0  0  0
 23 85  1  0  0  0  0
 23 86  1  0  0  0  0
 24 25  1  0  0  0  0
 24 87  1  0  0  0  0
 24 88  1  0  0  0  0
 25 26  1  0  0  0  0
 25 89  1  0  0  0  0
 25 90  1  0  0  0  0
 26 27  1  0  0  0  0
 26 91  1  0  0  0  0
 26 92  1  0  0  0  0
 27 28  1  0  0  0  0
 27 93  1  0  0  0  0
 27 94  1  0  0  0  0
 28 29  1  0  0  0  0
 28 95  1  0  0  0  0
 28 96  1  0  0  0  0
 29 30  1  0  0  0  0
 29 97  1  0  0  0  0
 29 98  1  0  0  0  0
 30 31  1  0  0  0  0
 30 99  1  0  0  0  0
 30100  1  0  0  0  0
 31 32  2  0  0  0  0
 31101  1  0  0  0  0
 32 33  1  0  0  0  0
 32102  1  0  0  0  0
 34 35  1  0  0  0  0
 34103  1  0  0  0  0
 34104  1  0  0  0  0
 35 36  1  0  0  0  0
 35105  1  0  0  0  0
 35106  1  0  0  0  0
 36 37  1  0  0  0  0
 36107  1  0  0  0  0
 36108  1  0  0  0  0
 37 38  1  0  0  0  0
 37109  1  0  0  0  0
 37110  1  0  0  0  0
 38 50  1  0  0  0  0
 38111  1  6  0  0  0
 40 39  1  1  0  0  0
 40 41  1  0  0  0  0
 40 42  1  0  0  0  0
 41112  1  0  0  0  0
 41113  1  0  0  0  0
 41114  1  0  0  0  0
 42115  1  0  0  0  0
 42116  1  0  0  0  0
 43 44  1  0  0  0  0
 44 45  2  0  0  0  0
 44 49  1  0  0  0  0
 45 46  1  0  0  0  0
 45117  1  0  0  0  0
 46 47  2  0  0  0  0
 46118  1  0  0  0  0
 47 48  1  0  0  0  0
 47119  1  0  0  0  0
 48 49  2  0  0  0  0
 48120  1  0  0  0  0
 51 52  1  0  0  0  0
 51 53  1  0  0  0  0
 51121  1  6  0  0  0
 52122  1  0  0  0  0
 52123  1  0  0  0  0
 52124  1  0  0  0  0
 53 54  1  0  0  0  0
 53125  1  0  0  0  0
 53126  1  0  0  0  0
 55 56  1  0  0  0  0
 55 60  1  0  0  0  0
 55127  1  1  0  0  0
 56 57  1  0  0  0  0
 56128  1  0  0  0  0
 56129  1  0  0  0  0
 57 58  1  0  0  0  0
 57130  1  0  0  0  0
 57131  1  0  0  0  0
 58 59  1  0  0  0  0
 58132  1  0  0  0  0
 58133  1  0  0  0  0
 59134  1  0  0  0  0
 59135  1  0  0  0  0
M  END
$$$$
/media/chris/experiments/cd1a-new-docking/inputs/ligands/7ryo_ligand.pdb
 OpenBabel07032304133D

135137  0  0  1  0  0  0  0  0999 V2000
  -38.8442   57.5132   60.7850 N   0  0  0  0  0  0  0  0  0  0  0  0
  -38.7917   60.1057   65.2527 C   0  0  0  0  0  0  0  0  0  0  0  0
  -40.5035   56.4794   59.6572 O   0  0  0  0  0  0  0  0  0  0  0  0
  -39.6269   60.4572   64.0497 C   0  0  0  0  0  0  0  0  0  0  0  0
  -33.1324   57.6580   60.0424 N   0  0  0  0  0  0  0  0  0  0  0  0
  -30.9871   57.7601   60.7067 O   0  0  0  0  0  0  0  0  0  0  0  0
  -40.9995   59.8091   64.0636 C   0  0  0  0  0  0  0  0  0  0  0  0
  -32.4345   58.7123   57.6086 N   0  0  0  0  0  0  0  0  0  0  0  0
  -32.5874   60.9396   57.9228 O   0  0  0  0  0  0  0  0  0  0  0  0
  -41.8677   60.1998   65.2488 C   0  0  0  0  0  0  0  0  0  0  0  0
  -37.6298   57.4051   57.4668 N   0  0  0  0  0  0  0  0  0  0  0  0
  -34.1494   57.6203   55.8289 O   0  0  0  0  0  0  0  0  0  0  0  0
  -41.2480   59.8502   66.5949 C   0  0  0  0  0  0  0  0  0  0  0  0
  -38.0804   60.9411   58.0888 N   0  0  0  0  0  0  0  0  0  0  0  0
  -33.3116   54.6686   60.0224 O   0  0  0  0  0  0  0  0  0  0  0  0
  -40.9591   58.3678   66.7744 C   0  0  0  0  0  0  0  0  0  0  0  0
  -35.2791   55.2259   60.9704 O   0  0  0  0  0  0  0  0  0  0  0  0
  -42.1833   57.4760   66.6610 C   0  0  0  0  0  0  0  0  0  0  0  0
  -37.4424   55.1680   57.3179 O   0  0  0  0  0  0  0  0  0  0  0  0
  -43.2748   57.7865   67.6721 C   0  0  0  0  0  0  0  0  0  0  0  0
  -38.4718   59.6364   56.3068 O   0  0  0  0  0  0  0  0  0  0  0  0
  -44.4788   56.8734   67.5511 C   0  0  0  0  0  0  0  0  0  0  0  0
  -45.1324   56.9437   66.1843 C   0  0  0  0  0  0  0  0  0  0  0  0
  -44.2287   56.5375   65.0375 C   0  0  0  0  0  0  0  0  0  0  0  0
  -44.9051   56.6346   63.6840 C   0  0  0  0  0  0  0  0  0  0  0  0
  -44.0130   56.2133   62.5281 C   0  0  0  0  0  0  0  0  0  0  0  0
  -42.7442   57.0371   62.4126 C   0  0  0  0  0  0  0  0  0  0  0  0
  -41.8448   56.6438   61.2526 C   0  0  0  0  0  0  0  0  0  0  0  0
  -42.5062   56.7914   59.8933 C   0  0  0  0  0  0  0  0  0  0  0  0
  -42.9389   58.2165   59.5709 C   0  0  0  0  0  0  0  0  0  0  0  0
  -41.7754   59.1581   59.5524 C   0  0  0  0  0  0  0  0  0  0  0  0
  -40.4989   58.8764   59.7760 C   0  0  0  0  0  0  0  0  0  0  0  0
  -39.9788   57.5239   60.0769 C   0  0  0  0  0  0  0  0  0  0  0  0
  -38.2360   58.7337   61.2903 C   0  0  0  0  0  0  0  0  0  0  0  0
  -36.9560   58.4330   62.0390 C   0  0  0  0  0  0  0  0  0  0  0  0
  -35.8780   57.7610   61.2090 C   0  0  0  0  0  0  0  0  0  0  0  0
  -34.6110   57.4590   62.0020 C   0  0  0  0  0  0  0  0  0  0  0  0
  -33.5311   56.7980   61.1441 C   0  0  1  0  0  0  0  0  0  0  0  0
  -31.8686   58.0712   59.9196 C   0  0  0  0  0  0  0  0  0  0  0  0
  -31.5354   58.9980   58.7389 C   0  0  1  0  0  0  0  0  0  0  0  0
  -30.0949   58.7453   58.3042 C   0  0  0  0  0  0  0  0  0  0  0  0
  -31.7849   60.4830   59.0411 C   0  0  0  0  0  0  0  0  0  0  0  0
  -32.9475   59.8157   57.2499 C   0  0  0  0  0  0  0  0  0  0  0  0
  -33.9039   60.0093   56.1574 C   0  0  0  0  0  0  0  0  0  0  0  0
  -34.3789   61.2873   55.8602 C   0  0  0  0  0  0  0  0  0  0  0  0
  -35.4539   61.4555   55.0045 C   0  0  0  0  0  0  0  0  0  0  0  0
  -36.0695   60.3625   54.4342 C   0  0  0  0  0  0  0  0  0  0  0  0
  -35.6210   59.0850   54.7159 C   0  0  0  0  0  0  0  0  0  0  0  0
  -34.5432   58.8954   55.5752 C   0  0  0  0  0  0  0  0  0  0  0  0
  -33.9929   55.4382   60.6419 C   0  0  0  0  0  0  0  0  0  0  0  0
  -36.2431   55.0100   59.8870 C   0  0  2  0  0  0  0  0  0  0  0  0
  -35.8198   53.7813   59.1223 C   0  0  0  0  0  0  0  0  0  0  0  0
  -36.1893   56.2651   59.0377 C   0  0  0  0  0  0  0  0  0  0  0  0
  -37.1452   56.2257   57.8661 C   0  0  0  0  0  0  0  0  0  0  0  0
  -37.2556   58.6484   58.1177 C   0  0  1  0  0  0  0  0  0  0  0  0
  -35.7430   58.8687   58.0028 C   0  0  0  0  0  0  0  0  0  0  0  0
  -35.1932   59.8717   59.0112 C   0  0  0  0  0  0  0  0  0  0  0  0
  -35.7432   61.2795   58.8960 C   0  0  0  0  0  0  0  0  0  0  0  0
  -37.2260   61.3913   59.1824 C   0  0  0  0  0  0  0  0  0  0  0  0
  -37.9890   59.7863   57.4254 C   0  0  0  0  0  0  0  0  0  0  0  0
  -38.4065   56.6510   60.9702 H   0  0  0  0  0  0  0  0  0  0  0  0
  -37.8413   60.5922   65.1816 H   0  0  0  0  0  0  0  0  0  0  0  0
  -38.6480   59.0460   65.2899 H   0  0  0  0  0  0  0  0  0  0  0  0
  -39.2923   60.4291   66.1413 H   0  0  0  0  0  0  0  0  0  0  0  0
  -39.1084   60.1363   63.1704 H   0  0  0  0  0  0  0  0  0  0  0  0
  -39.7757   61.5166   64.0649 H   0  0  0  0  0  0  0  0  0  0  0  0
  -33.8025   57.9396   59.3784 H   0  0  0  0  0  0  0  0  0  0  0  0
  -40.8679   58.7474   64.0810 H   0  0  0  0  0  0  0  0  0  0  0  0
  -41.5077   60.1527   63.1870 H   0  0  0  0  0  0  0  0  0  0  0  0
  -42.8051   59.6908   65.1647 H   0  0  0  0  0  0  0  0  0  0  0  0
  -41.9804   61.2635   65.2202 H   0  0  0  0  0  0  0  0  0  0  0  0
  -38.2585   57.4321   56.7096 H   0  0  0  0  0  0  0  0  0  0  0  0
  -33.4269   57.4586   56.4032 H   0  0  0  0  0  0  0  0  0  0  0  0
  -41.9228   60.1577   67.3663 H   0  0  0  0  0  0  0  0  0  0  0  0
  -40.3075   60.3580   66.6449 H   0  0  0  0  0  0  0  0  0  0  0  0
  -38.7998   61.5532   57.8110 H   0  0  0  0  0  0  0  0  0  0  0  0
  -40.5287   58.2250   67.7436 H   0  0  0  0  0  0  0  0  0  0  0  0
  -40.2988   58.0853   65.9814 H   0  0  0  0  0  0  0  0  0  0  0  0
  -41.8738   56.4615   66.8019 H   0  0  0  0  0  0  0  0  0  0  0  0
  -42.6025   57.6502   65.6920 H   0  0  0  0  0  0  0  0  0  0  0  0
  -43.5975   58.7960   67.5248 H   0  0  0  0  0  0  0  0  0  0  0  0
  -42.8581   57.6355   68.6460 H   0  0  0  0  0  0  0  0  0  0  0  0
  -45.1990   57.1570   68.2898 H   0  0  0  0  0  0  0  0  0  0  0  0
  -44.1384   55.8692   67.6950 H   0  0  0  0  0  0  0  0  0  0  0  0
  -45.4525   57.9510   66.0178 H   0  0  0  0  0  0  0  0  0  0  0  0
  -45.9430   56.2454   66.1968 H   0  0  0  0  0  0  0  0  0  0  0  0
  -43.9179   55.5253   65.1909 H   0  0  0  0  0  0  0  0  0  0  0  0
  -43.4000   57.2143   65.0292 H   0  0  0  0  0  0  0  0  0  0  0  0
  -45.2051   57.6497   63.5276 H   0  0  0  0  0  0  0  0  0  0  0  0
  -45.7377   55.9628   63.6997 H   0  0  0  0  0  0  0  0  0  0  0  0
  -44.5668   56.3147   61.6182 H   0  0  0  0  0  0  0  0  0  0  0  0
  -43.7163   55.2017   62.7114 H   0  0  0  0  0  0  0  0  0  0  0  0
  -42.1885   56.9250   63.3201 H   0  0  0  0  0  0  0  0  0  0  0  0
  -43.0504   58.0465   62.2334 H   0  0  0  0  0  0  0  0  0  0  0  0
  -41.5568   55.6212   61.3795 H   0  0  0  0  0  0  0  0  0  0  0  0
  -41.0057   57.3076   61.2671 H   0  0  0  0  0  0  0  0  0  0  0  0
  -43.3716   56.1626   59.8693 H   0  0  0  0  0  0  0  0  0  0  0  0
  -41.7776   56.5138   59.1606 H   0  0  0  0  0  0  0  0  0  0  0  0
  -43.6373   58.5430   60.3129 H   0  0  0  0  0  0  0  0  0  0  0  0
  -43.3841   58.2177   58.5980 H   0  0  0  0  0  0  0  0  0  0  0  0
  -41.9925   60.1444   59.3404 H   0  0  0  0  0  0  0  0  0  0  0  0
  -39.8215   59.6540   59.7374 H   0  0  0  0  0  0  0  0  0  0  0  0
  -38.9228   59.2185   61.9523 H   0  0  0  0  0  0  0  0  0  0  0  0
  -38.0041   59.3676   60.4601 H   0  0  0  0  0  0  0  0  0  0  0  0
  -37.1937   57.7896   62.8603 H   0  0  0  0  0  0  0  0  0  0  0  0
  -36.5565   59.3772   62.3453 H   0  0  0  0  0  0  0  0  0  0  0  0
  -35.6238   58.4067   60.3945 H   0  0  0  0  0  0  0  0  0  0  0  0
  -36.2729   56.8255   60.8717 H   0  0  0  0  0  0  0  0  0  0  0  0
  -34.8590   56.8018   62.8091 H   0  0  0  0  0  0  0  0  0  0  0  0
  -34.2203   58.3886   62.3599 H   0  0  0  0  0  0  0  0  0  0  0  0
  -32.6704   56.6456   61.7612 H   0  0  0  0  0  0  0  0  0  0  0  0
  -29.9606   57.7030   58.1033 H   0  0  0  0  0  0  0  0  0  0  0  0
  -29.4286   59.0467   59.0853 H   0  0  0  0  0  0  0  0  0  0  0  0
  -29.8852   59.3091   57.4193 H   0  0  0  0  0  0  0  0  0  0  0  0
  -32.3160   60.5993   59.9627 H   0  0  0  0  0  0  0  0  0  0  0  0
  -30.8772   61.0388   59.1502 H   0  0  0  0  0  0  0  0  0  0  0  0
  -33.9254   62.1131   56.2814 H   0  0  0  0  0  0  0  0  0  0  0  0
  -35.7965   62.4055   54.7923 H   0  0  0  0  0  0  0  0  0  0  0  0
  -36.8680   60.4978   53.7946 H   0  0  0  0  0  0  0  0  0  0  0  0
  -36.0870   58.2699   54.2875 H   0  0  0  0  0  0  0  0  0  0  0  0
  -37.2449   54.8453   60.2247 H   0  0  0  0  0  0  0  0  0  0  0  0
  -34.8186   53.9095   58.7673 H   0  0  0  0  0  0  0  0  0  0  0  0
  -36.4770   53.6347   58.2907 H   0  0  0  0  0  0  0  0  0  0  0  0
  -35.8634   52.9279   59.7662 H   0  0  0  0  0  0  0  0  0  0  0  0
  -35.1941   56.3807   58.6623 H   0  0  0  0  0  0  0  0  0  0  0  0
  -36.4786   57.0860   59.6600 H   0  0  0  0  0  0  0  0  0  0  0  0
  -37.5171   58.6102   59.1545 H   0  0  0  0  0  0  0  0  0  0  0  0
  -35.5273   59.2266   57.0178 H   0  0  0  0  0  0  0  0  0  0  0  0
  -35.2730   57.9293   58.2068 H   0  0  0  0  0  0  0  0  0  0  0  0
  -34.1321   59.9205   58.8829 H   0  0  0  0  0  0  0  0  0  0  0  0
  -35.4947   59.5159   59.9743 H   0  0  0  0  0  0  0  0  0  0  0  0
  -35.5664   61.6285   57.9001 H   0  0  0  0  0  0  0  0  0  0  0  0
  -35.2416   61.8674   59.6361 H   0  0  0  0  0  0  0  0  0  0  0  0
  -37.4467   60.8000   60.0463 H   0  0  0  0  0  0  0  0  0  0  0  0
  -37.4341   62.4307   59.3282 H   0  0  0  0  0  0  0  0  0  0  0  0
  1 33  1  0  0  0  0
  1 34  1  0  0  0  0
  1 61  1  0  0  0  0
  2  4  1  0  0  0  0
  2 62  1  0  0  0  0
  2 63  1  0  0  0  0
  2 64  1  0  0  0  0
  3 33  2  0  0  0  0
  4  7  1  0  0  0  0
  4 65  1  0  0  0  0
  4 66  1  0  0  0  0
  5 38  1  0  0  0  0
  5 39  1  0  0  0  0
  5 67  1  0  0  0  0
  6 39  2  0  0  0  0
  7 10  1  0  0  0  0
  7 68  1  0  0  0  0
  7 69  1  0  0  0  0
  8 40  1  0  0  0  0
  8 43  2  0  0  0  0
  9 42  1  0  0  0  0
  9 43  1  0  0  0  0
 10 13  1  0  0  0  0
 10 70  1  0  0  0  0
 10 71  1  0  0  0  0
 11 54  1  0  0  0  0
 11 55  1  0  0  0  0
 11 72  1  0  0  0  0
 12 49  1  0  0  0  0
 12 73  1  0  0  0  0
 13 16  1  0  0  0  0
 13 74  1  0  0  0  0
 13 75  1  0  0  0  0
 14 59  1  0  0  0  0
 14 60  1  0  0  0  0
 14 76  1  0  0  0  0
 15 50  2  0  0  0  0
 16 18  1  0  0  0  0
 16 77  1  0  0  0  0
 16 78  1  0  0  0  0
 17 50  1  0  0  0  0
 17 51  1  0  0  0  0
 18 20  1  0  0  0  0
 18 79  1  0  0  0  0
 18 80  1  0  0  0  0
 19 54  2  0  0  0  0
 20 22  1  0  0  0  0
 20 81  1  0  0  0  0
 20 82  1  0  0  0  0
 21 60  2  0  0  0  0
 22 23  1  0  0  0  0
 22 83  1  0  0  0  0
 22 84  1  0  0  0  0
 23 24  1  0  0  0  0
 23 85  1  0  0  0  0
 23 86  1  0  0  0  0
 24 25  1  0  0  0  0
 24 87  1  0  0  0  0
 24 88  1  0  0  0  0
 25 26  1  0  0  0  0
 25 89  1  0  0  0  0
 25 90  1  0  0  0  0
 26 27  1  0  0  0  0
 26 91  1  0  0  0  0
 26 92  1  0  0  0  0
 27 28  1  0  0  0  0
 27 93  1  0  0  0  0
 27 94  1  0  0  0  0
 28 29  1  0  0  0  0
 28 95  1  0  0  0  0
 28 96  1  0  0  0  0
 29 30  1  0  0  0  0
 29 97  1  0  0  0  0
 29 98  1  0  0  0  0
 30 31  1  0  0  0  0
 30 99  1  0  0  0  0
 30100  1  0  0  0  0
 31 32  2  0  0  0  0
 31101  1  0  0  0  0
 32 33  1  0  0  0  0
 32102  1  0  0  0  0
 34 35  1  0  0  0  0
 34103  1  0  0  0  0
 34104  1  0  0  0  0
 35 36  1  0  0  0  0
 35105  1  0  0  0  0
 35106  1  0  0  0  0
 36 37  1  0  0  0  0
 36107  1  0  0  0  0
 36108  1  0  0  0  0
 37 38  1  0  0  0  0
 37109  1  0  0  0  0
 37110  1  0  0  0  0
 38 50  1  0  0  0  0
 38111  1  1  0  0  0
 40 39  1  1  0  0  0
 40 41  1  0  0  0  0
 40 42  1  0  0  0  0
 41112  1  0  0  0  0
 41113  1  0  0  0  0
 41114  1  0  0  0  0
 42115  1  0  0  0  0
 42116  1  0  0  0  0
 43 44  1  0  0  0  0
 44 45  2  0  0  0  0
 44 49  1  0  0  0  0
 45 46  1  0  0  0  0
 45117  1  0  0  0  0
 46 47  2  0  0  0  0
 46118  1  0  0  0  0
 47 48  1  0  0  0  0
 47119  1  0  0  0  0
 48 49  2  0  0  0  0
 48120  1  0  0  0  0
 51 52  1  0  0  0  0
 51 53  1  0  0  0  0
 51121  1  1  0  0  0
 52122  1  0  0  0  0
 52123  1  0  0  0  0
 52124  1  0  0  0  0
 53 54  1  0  0  0  0
 53125  1  0  0  0  0
 53126  1  0  0  0  0
 55 56  1  0  0  0  0
 55 60  1  0  0  0  0
 55127  1  1  0  0  0
 56 57  1  0  0  0  0
 56128  1  0  0  0  0
 56129  1  0  0  0  0
 57 58  1  0  0  0  0
 57130  1  0  0  0  0
 57131  1  0  0  0  0
 58 59  1  0  0  0  0
 58132  1  0  0  0  0
 58133  1  0  0  0  0
 59134  1  0  0  0  0
 59135  1  0  0  0  0
M  END
$$$$
/media/chris/experiments/cd1a-new-docking/inputs/ligands/7ryo_ligand.pdb
 OpenBabel07032304133D

135137  0  0  1  0  0  0  0  0999 V2000
  -37.9843   59.6092   60.1567 N   0  0  0  0  0  0  0  0  0  0  0  0
  -44.5874   61.0997   47.3523 C   0  0  0  0  0  0  0  0  0  0  0  0
  -38.4998   60.3021   58.0715 O   0  0  0  0  0  0  0  0  0  0  0  0
  -45.6110   61.4859   48.3876 C   0  0  0  0  0  0  0  0  0  0  0  0
  -33.1324   57.6580   60.0424 N   0  0  0  0  0  0  0  0  0  0  0  0
  -30.9871   57.7601   60.7067 O   0  0  0  0  0  0  0  0  0  0  0  0
  -46.7350   60.4750   48.5244 C   0  0  0  0  0  0  0  0  0  0  0  0
  -32.4345   58.7123   57.6086 N   0  0  0  0  0  0  0  0  0  0  0  0
  -32.5874   60.9396   57.9228 O   0  0  0  0  0  0  0  0  0  0  0  0
  -46.2838   59.0855   48.9447 C   0  0  0  0  0  0  0  0  0  0  0  0
  -38.4120   53.7408   62.5705 N   0  0  0  0  0  0  0  0  0  0  0  0
  -33.7980   62.4213   56.3716 O   0  0  0  0  0  0  0  0  0  0  0  0
  -45.2935   58.4519   47.9773 C   0  0  0  0  0  0  0  0  0  0  0  0
  -40.5757   55.7929   64.6201 N   0  0  0  0  0  0  0  0  0  0  0  0
  -33.3116   54.6686   60.0224 O   0  0  0  0  0  0  0  0  0  0  0  0
  -44.8477   57.0542   48.3785 C   0  0  0  0  0  0  0  0  0  0  0  0
  -35.2791   55.2259   60.9704 O   0  0  0  0  0  0  0  0  0  0  0  0
  -44.1726   56.9812   49.7371 C   0  0  0  0  0  0  0  0  0  0  0  0
  -36.8881   52.6490   61.3265 O   0  0  0  0  0  0  0  0  0  0  0  0
  -42.9239   57.8392   49.8579 C   0  0  0  0  0  0  0  0  0  0  0  0
  -40.1781   53.5868   64.5430 O   0  0  0  0  0  0  0  0  0  0  0  0
  -42.2580   57.7373   51.2160 C   0  0  0  0  0  0  0  0  0  0  0  0
  -41.0233   58.6106   51.3300 C   0  0  0  0  0  0  0  0  0  0  0  0
  -40.3178   58.5244   52.6686 C   0  0  0  0  0  0  0  0  0  0  0  0
  -39.0983   59.4208   52.7572 C   0  0  0  0  0  0  0  0  0  0  0  0
  -38.3733   59.3294   54.0897 C   0  0  0  0  0  0  0  0  0  0  0  0
  -37.8500   57.9393   54.3987 C   0  0  0  0  0  0  0  0  0  0  0  0
  -37.1359   57.8209   55.7348 C   0  0  0  0  0  0  0  0  0  0  0  0
  -38.0156   58.1579   56.9263 C   0  0  0  0  0  0  0  0  0  0  0  0
  -39.2343   57.2539   57.0667 C   0  0  0  0  0  0  0  0  0  0  0  0
  -40.0759   57.6372   58.2436 C   0  0  0  0  0  0  0  0  0  0  0  0
  -39.8651   58.6217   59.1067 C   0  0  0  0  0  0  0  0  0  0  0  0
  -38.7243   59.5625   59.0436 C   0  0  0  0  0  0  0  0  0  0  0  0
  -38.2360   58.7337   61.2903 C   0  0  0  0  0  0  0  0  0  0  0  0
  -36.9560   58.4330   62.0390 C   0  0  0  0  0  0  0  0  0  0  0  0
  -35.8780   57.7610   61.2090 C   0  0  0  0  0  0  0  0  0  0  0  0
  -34.6110   57.4590   62.0020 C   0  0  0  0  0  0  0  0  0  0  0  0
  -33.5311   56.7980   61.1441 C   0  0  1  0  0  0  0  0  0  0  0  0
  -31.8686   58.0712   59.9196 C   0  0  0  0  0  0  0  0  0  0  0  0
  -31.5354   58.9980   58.7389 C   0  0  1  0  0  0  0  0  0  0  0  0
  -30.0949   58.7453   58.3042 C   0  0  0  0  0  0  0  0  0  0  0  0
  -31.7849   60.4830   59.0411 C   0  0  0  0  0  0  0  0  0  0  0  0
  -32.9475   59.8157   57.2499 C   0  0  0  0  0  0  0  0  0  0  0  0
  -33.9039   60.0093   56.1574 C   0  0  0  0  0  0  0  0  0  0  0  0
  -34.3325   58.9184   55.4000 C   0  0  0  0  0  0  0  0  0  0  0  0
  -35.0363   59.1131   54.2240 C   0  0  0  0  0  0  0  0  0  0  0  0
  -35.3234   60.3875   53.7855 C   0  0  0  0  0  0  0  0  0  0  0  0
  -34.9060   61.4856   54.5153 C   0  0  0  0  0  0  0  0  0  0  0  0
  -34.1957   61.3103   55.6987 C   0  0  0  0  0  0  0  0  0  0  0  0
  -33.9929   55.4382   60.6419 C   0  0  0  0  0  0  0  0  0  0  0  0
  -36.2431   55.0100   59.8870 C   0  0  2  0  0  0  0  0  0  0  0  0
  -36.2272   56.2274   58.9974 C   0  0  0  0  0  0  0  0  0  0  0  0
  -37.5833   54.8104   60.5677 C   0  0  0  0  0  0  0  0  0  0  0  0
  -37.5913   53.6365   61.5214 C   0  0  0  0  0  0  0  0  0  0  0  0
  -39.2480   54.9104   62.7773 C   0  0  1  0  0  0  0  0  0  0  0  0
  -40.2123   55.0836   61.5984 C   0  0  0  0  0  0  0  0  0  0  0  0
  -40.7988   56.4870   61.4898 C   0  0  0  0  0  0  0  0  0  0  0  0
  -41.6350   56.9369   62.6713 C   0  0  0  0  0  0  0  0  0  0  0  0
  -40.8603   57.0657   63.9661 C   0  0  0  0  0  0  0  0  0  0  0  0
  -40.0421   54.7062   64.0578 C   0  0  0  0  0  0  0  0  0  0  0  0
  -37.2452   60.2572   60.2104 H   0  0  0  0  0  0  0  0  0  0  0  0
  -43.8263   61.8504   47.3059 H   0  0  0  0  0  0  0  0  0  0  0  0
  -45.0615   61.0129   46.3971 H   0  0  0  0  0  0  0  0  0  0  0  0
  -44.1472   60.1615   47.6186 H   0  0  0  0  0  0  0  0  0  0  0  0
  -46.0339   62.4293   48.1120 H   0  0  0  0  0  0  0  0  0  0  0  0
  -45.1075   61.5307   49.3307 H   0  0  0  0  0  0  0  0  0  0  0  0
  -33.8025   57.9396   59.3784 H   0  0  0  0  0  0  0  0  0  0  0  0
  -47.2293   60.3945   47.5789 H   0  0  0  0  0  0  0  0  0  0  0  0
  -47.3762   60.8354   49.3016 H   0  0  0  0  0  0  0  0  0  0  0  0
  -47.1455   58.4544   49.0094 H   0  0  0  0  0  0  0  0  0  0  0  0
  -45.7847   59.1870   49.8856 H   0  0  0  0  0  0  0  0  0  0  0  0
  -38.4512   53.0038   63.2221 H   0  0  0  0  0  0  0  0  0  0  0  0
  -33.3178   62.3375   57.1719 H   0  0  0  0  0  0  0  0  0  0  0  0
  -44.4280   59.0787   47.9227 H   0  0  0  0  0  0  0  0  0  0  0  0
  -45.7944   58.3597   47.0363 H   0  0  0  0  0  0  0  0  0  0  0  0
  -40.8008   55.7288   65.5764 H   0  0  0  0  0  0  0  0  0  0  0  0
  -44.1584   56.6976   47.6418 H   0  0  0  0  0  0  0  0  0  0  0  0
  -45.7326   56.4562   48.4426 H   0  0  0  0  0  0  0  0  0  0  0  0
  -43.8998   55.9632   49.9221 H   0  0  0  0  0  0  0  0  0  0  0  0
  -44.8753   57.3577   50.4507 H   0  0  0  0  0  0  0  0  0  0  0  0
  -43.1951   58.8602   49.6880 H   0  0  0  0  0  0  0  0  0  0  0  0
  -42.2224   57.4833   49.1325 H   0  0  0  0  0  0  0  0  0  0  0  0
  -41.9736   56.7193   51.3822 H   0  0  0  0  0  0  0  0  0  0  0  0
  -42.9619   58.0762   51.9471 H   0  0  0  0  0  0  0  0  0  0  0  0
  -41.3164   59.6273   51.1709 H   0  0  0  0  0  0  0  0  0  0  0  0
  -40.3299   58.2571   50.5957 H   0  0  0  0  0  0  0  0  0  0  0  0
  -40.0085   57.5122   52.8259 H   0  0  0  0  0  0  0  0  0  0  0  0
  -41.0100   58.8526   53.4156 H   0  0  0  0  0  0  0  0  0  0  0  0
  -39.4113   60.4335   52.6108 H   0  0  0  0  0  0  0  0  0  0  0  0
  -38.4128   59.0945   52.0032 H   0  0  0  0  0  0  0  0  0  0  0  0
  -39.0525   59.6160   54.8653 H   0  0  0  0  0  0  0  0  0  0  0  0
  -37.5256   59.9798   54.0325 H   0  0  0  0  0  0  0  0  0  0  0  0
  -37.1638   57.6606   53.6265 H   0  0  0  0  0  0  0  0  0  0  0  0
  -38.7034   57.2959   54.4500 H   0  0  0  0  0  0  0  0  0  0  0  0
  -36.2999   58.4887   55.7320 H   0  0  0  0  0  0  0  0  0  0  0  0
  -36.8395   56.7984   55.8427 H   0  0  0  0  0  0  0  0  0  0  0  0
  -38.3548   59.1672   56.8203 H   0  0  0  0  0  0  0  0  0  0  0  0
  -37.4197   58.0158   57.8035 H   0  0  0  0  0  0  0  0  0  0  0  0
  -38.9041   56.2437   57.1909 H   0  0  0  0  0  0  0  0  0  0  0  0
  -39.8294   57.3572   56.1835 H   0  0  0  0  0  0  0  0  0  0  0  0
  -40.9215   57.0673   58.4023 H   0  0  0  0  0  0  0  0  0  0  0  0
  -40.5433   58.7400   59.8756 H   0  0  0  0  0  0  0  0  0  0  0  0
  -38.6582   57.8163   60.9368 H   0  0  0  0  0  0  0  0  0  0  0  0
  -38.9129   59.2259   61.9570 H   0  0  0  0  0  0  0  0  0  0  0  0
  -37.1937   57.7896   62.8603 H   0  0  0  0  0  0  0  0  0  0  0  0
  -36.5565   59.3772   62.3453 H   0  0  0  0  0  0  0  0  0  0  0  0
  -35.6238   58.4067   60.3945 H   0  0  0  0  0  0  0  0  0  0  0  0
  -36.2729   56.8255   60.8717 H   0  0  0  0  0  0  0  0  0  0  0  0
  -34.8590   56.8018   62.8091 H   0  0  0  0  0  0  0  0  0  0  0  0
  -34.2203   58.3886   62.3599 H   0  0  0  0  0  0  0  0  0  0  0  0
  -32.6704   56.6456   61.7612 H   0  0  0  0  0  0  0  0  0  0  0  0
  -29.9606   57.7030   58.1033 H   0  0  0  0  0  0  0  0  0  0  0  0
  -29.4286   59.0467   59.0853 H   0  0  0  0  0  0  0  0  0  0  0  0
  -29.8852   59.3091   57.4193 H   0  0  0  0  0  0  0  0  0  0  0  0
  -32.3160   60.5993   59.9627 H   0  0  0  0  0  0  0  0  0  0  0  0
  -30.8772   61.0388   59.1502 H   0  0  0  0  0  0  0  0  0  0  0  0
  -34.1233   57.9595   55.7189 H   0  0  0  0  0  0  0  0  0  0  0  0
  -35.3480   58.2987   53.6722 H   0  0  0  0  0  0  0  0  0  0  0  0
  -35.8517   60.5229   52.9094 H   0  0  0  0  0  0  0  0  0  0  0  0
  -35.1221   62.4378   54.1811 H   0  0  0  0  0  0  0  0  0  0  0  0
  -36.0210   54.1632   59.2717 H   0  0  0  0  0  0  0  0  0  0  0  0
  -36.4460   57.0978   59.5800 H   0  0  0  0  0  0  0  0  0  0  0  0
  -36.9642   56.1176   58.2294 H   0  0  0  0  0  0  0  0  0  0  0  0
  -35.2600   56.3306   58.5514 H   0  0  0  0  0  0  0  0  0  0  0  0
  -38.3265   54.6445   59.8160 H   0  0  0  0  0  0  0  0  0  0  0  0
  -37.7859   55.6908   61.1412 H   0  0  0  0  0  0  0  0  0  0  0  0
  -38.6379   55.7863   62.8506 H   0  0  0  0  0  0  0  0  0  0  0  0
  -41.0176   54.3887   61.7153 H   0  0  0  0  0  0  0  0  0  0  0  0
  -39.6500   54.9088   60.7051 H   0  0  0  0  0  0  0  0  0  0  0  0
  -41.4167   56.5196   60.6169 H   0  0  0  0  0  0  0  0  0  0  0  0
  -39.9624   57.1532   61.4506 H   0  0  0  0  0  0  0  0  0  0  0  0
  -42.4190   56.2238   62.8187 H   0  0  0  0  0  0  0  0  0  0  0  0
  -42.0025   57.9135   62.4342 H   0  0  0  0  0  0  0  0  0  0  0  0
  -39.9299   57.5497   63.7541 H   0  0  0  0  0  0  0  0  0  0  0  0
  -41.4750   57.6269   64.6385 H   0  0  0  0  0  0  0  0  0  0  0  0
  1 33  1  0  0  0  0
  1 34  1  0  0  0  0
  1 61  1  0  0  0  0
  2  4  1  0  0  0  0
  2 62  1  0  0  0  0
  2 63  1  0  0  0  0
  2 64  1  0  0  0  0
  3 33  2  0  0  0  0
  4  7  1  0  0  0  0
  4 65  1  0  0  0  0
  4 66  1  0  0  0  0
  5 38  1  0  0  0  0
  5 39  1  0  0  0  0
  5 67  1  0  0  0  0
  6 39  2  0  0  0  0
  7 10  1  0  0  0  0
  7 68  1  0  0  0  0
  7 69  1  0  0  0  0
  8 40  1  0  0  0  0
  8 43  2  0  0  0  0
  9 42  1  0  0  0  0
  9 43  1  0  0  0  0
 10 13  1  0  0  0  0
 10 70  1  0  0  0  0
 10 71  1  0  0  0  0
 11 54  1  0  0  0  0
 11 55  1  0  0  0  0
 11 72  1  0  0  0  0
 12 49  1  0  0  0  0
 12 73  1  0  0  0  0
 13 16  1  0  0  0  0
 13 74  1  0  0  0  0
 13 75  1  0  0  0  0
 14 59  1  0  0  0  0
 14 60  1  0  0  0  0
 14 76  1  0  0  0  0
 15 50  2  0  0  0  0
 16 18  1  0  0  0  0
 16 77  1  0  0  0  0
 16 78  1  0  0  0  0
 17 50  1  0  0  0  0
 17 51  1  0  0  0  0
 18 20  1  0  0  0  0
 18 79  1  0  0  0  0
 18 80  1  0  0  0  0
 19 54  2  0  0  0  0
 20 22  1  0  0  0  0
 20 81  1  0  0  0  0
 20 82  1  0  0  0  0
 21 60  2  0  0  0  0
 22 23  1  0  0  0  0
 22 83  1  0  0  0  0
 22 84  1  0  0  0  0
 23 24  1  0  0  0  0
 23 85  1  0  0  0  0
 23 86  1  0  0  0  0
 24 25  1  0  0  0  0
 24 87  1  0  0  0  0
 24 88  1  0  0  0  0
 25 26  1  0  0  0  0
 25 89  1  0  0  0  0
 25 90  1  0  0  0  0
 26 27  1  0  0  0  0
 26 91  1  0  0  0  0
 26 92  1  0  0  0  0
 27 28  1  0  0  0  0
 27 93  1  0  0  0  0
 27 94  1  0  0  0  0
 28 29  1  0  0  0  0
 28 95  1  0  0  0  0
 28 96  1  0  0  0  0
 29 30  1  0  0  0  0
 29 97  1  0  0  0  0
 29 98  1  0  0  0  0
 30 31  1  0  0  0  0
 30 99  1  0  0  0  0
 30100  1  0  0  0  0
 31 32  2  0  0  0  0
 31101  1  0  0  0  0
 32 33  1  0  0  0  0
 32102  1  0  0  0  0
 34 35  1  0  0  0  0
 34103  1  0  0  0  0
 34104  1  0  0  0  0
 35 36  1  0  0  0  0
 35105  1  0  0  0  0
 35106  1  0  0  0  0
 36 37  1  0  0  0  0
 36107  1  0  0  0  0
 36108  1  0  0  0  0
 37 38  1  0  0  0  0
 37109  1  0  0  0  0
 37110  1  0  0  0  0
 38 50  1  0  0  0  0
 38111  1  1  0  0  0
 40 39  1  1  0  0  0
 40 41  1  0  0  0  0
 40 42  1  0  0  0  0
 41112  1  0  0  0  0
 41113  1  0  0  0  0
 41114  1  0  0  0  0
 42115  1  0  0  0  0
 42116  1  0  0  0  0
 43 44  1  0  0  0  0
 44 45  2  0  0  0  0
 44 49  1  0  0  0  0
 45 46  1  0  0  0  0
 45117  1  0  0  0  0
 46 47  2  0  0  0  0
 46118  1  0  0  0  0
 47 48  1  0  0  0  0
 47119  1  0  0  0  0
 48 49  2  0  0  0  0
 48120  1  0  0  0  0
 51 52  1  0  0  0  0
 51 53  1  0  0  0  0
 51121  1  6  0  0  0
 52122  1  0  0  0  0
 52123  1  0  0  0  0
 52124  1  0  0  0  0
 53 54  1  0  0  0  0
 53125  1  0  0  0  0
 53126  1  0  0  0  0
 55 56  1  0  0  0  0
 55 60  1  0  0  0  0
 55127  1  1  0  0  0
 56 57  1  0  0  0  0
 56128  1  0  0  0  0
 56129  1  0  0  0  0
 57 58  1  0  0  0  0
 57130  1  0  0  0  0
 57131  1  0  0  0  0
 58 59  1  0  0  0  0
 58132  1  0  0  0  0
 58133  1  0  0  0  0
 59134  1  0  0  0  0
 59135  1  0  0  0  0
M  END
$$$$
/media/chris/experiments/cd1a-new-docking/inputs/ligands/7ryo_ligand.pdb
 OpenBabel07032304133D

135137  0  0  1  0  0  0  0  0999 V2000
  -37.9573   56.3471   62.8329 N   0  0  0  0  0  0  0  0  0  0  0  0
  -36.3679   42.1098   59.8187 C   0  0  0  0  0  0  0  0  0  0  0  0
  -36.0281   55.6460   61.8945 O   0  0  0  0  0  0  0  0  0  0  0  0
  -37.7773   42.2029   59.2958 C   0  0  0  0  0  0  0  0  0  0  0  0
  -32.3413   56.5057   61.9259 N   0  0  0  0  0  0  0  0  0  0  0  0
  -31.2278   55.6366   60.1771 O   0  0  0  0  0  0  0  0  0  0  0  0
  -37.8472   42.5729   57.8253 C   0  0  0  0  0  0  0  0  0  0  0  0
  -30.4552   54.7077   63.3320 N   0  0  0  0  0  0  0  0  0  0  0  0
  -28.6240   53.7841   62.3957 O   0  0  0  0  0  0  0  0  0  0  0  0
  -37.2025   43.9059   57.4807 C   0  0  0  0  0  0  0  0  0  0  0  0
  -31.6313   55.0848   55.5590 N   0  0  0  0  0  0  0  0  0  0  0  0
  -30.8696   53.7860   65.9095 O   0  0  0  0  0  0  0  0  0  0  0  0
  -35.7167   43.9626   57.8078 C   0  0  0  0  0  0  0  0  0  0  0  0
  -34.2962   53.2040   53.9922 N   0  0  0  0  0  0  0  0  0  0  0  0
  -33.6530   58.7464   59.7195 O   0  0  0  0  0  0  0  0  0  0  0  0
  -35.0642   45.2974   57.4830 C   0  0  0  0  0  0  0  0  0  0  0  0
  -32.3357   57.0171   59.1242 O   0  0  0  0  0  0  0  0  0  0  0  0
  -35.6510   46.4780   58.2371 C   0  0  0  0  0  0  0  0  0  0  0  0
  -32.0892   54.6763   57.7235 O   0  0  0  0  0  0  0  0  0  0  0  0
  -35.0089   47.8134   57.8985 C   0  0  0  0  0  0  0  0  0  0  0  0
  -34.2643   55.0660   55.2422 O   0  0  0  0  0  0  0  0  0  0  0  0
  -33.5206   47.8504   58.1840 C   0  0  0  0  0  0  0  0  0  0  0  0
  -32.8948   49.1929   57.8583 C   0  0  0  0  0  0  0  0  0  0  0  0
  -33.4634   50.3556   58.6467 C   0  0  0  0  0  0  0  0  0  0  0  0
  -32.8297   51.6851   58.2866 C   0  0  0  0  0  0  0  0  0  0  0  0
  -33.3808   52.8558   59.0837 C   0  0  0  0  0  0  0  0  0  0  0  0
  -34.8751   53.0538   58.9118 C   0  0  0  0  0  0  0  0  0  0  0  0
  -35.7195   51.8712   59.3565 C   0  0  0  0  0  0  0  0  0  0  0  0
  -35.5589   51.5285   60.8275 C   0  0  0  0  0  0  0  0  0  0  0  0
  -35.9610   52.6567   61.7696 C   0  0  0  0  0  0  0  0  0  0  0  0
  -37.4005   53.0316   61.6025 C   0  0  0  0  0  0  0  0  0  0  0  0
  -37.9565   54.2215   61.7858 C   0  0  0  0  0  0  0  0  0  0  0  0
  -37.2176   55.4397   62.1862 C   0  0  0  0  0  0  0  0  0  0  0  0
  -37.4201   57.6362   63.2386 C   0  0  0  0  0  0  0  0  0  0  0  0
  -36.9560   58.4330   62.0390 C   0  0  0  0  0  0  0  0  0  0  0  0
  -35.8780   57.7610   61.2090 C   0  0  0  0  0  0  0  0  0  0  0  0
  -34.6110   57.4590   62.0020 C   0  0  0  0  0  0  0  0  0  0  0  0
  -33.5311   56.7980   61.1441 C   0  0  1  0  0  0  0  0  0  0  0  0
  -31.2729   55.9388   61.3603 C   0  0  0  0  0  0  0  0  0  0  0  0
  -30.0643   55.6416   62.2631 C   0  0  1  0  0  0  0  0  0  0  0  0
  -29.5863   56.9463   62.8933 C   0  0  0  0  0  0  0  0  0  0  0  0
  -28.9255   54.9120   61.5355 C   0  0  0  0  0  0  0  0  0  0  0  0
  -29.6232   53.7501   63.3155 C   0  0  0  0  0  0  0  0  0  0  0  0
  -29.6240   52.5893   64.2090 C   0  0  0  0  0  0  0  0  0  0  0  0
  -29.1337   51.3614   63.7628 C   0  0  0  0  0  0  0  0  0  0  0  0
  -29.3494   50.2095   64.4996 C   0  0  0  0  0  0  0  0  0  0  0  0
  -30.0513   50.2602   65.6842 C   0  0  0  0  0  0  0  0  0  0  0  0
  -30.5518   51.4638   66.1462 C   0  0  0  0  0  0  0  0  0  0  0  0
  -30.3472   52.6320   65.4187 C   0  0  0  0  0  0  0  0  0  0  0  0
  -33.1974   57.6570   59.9336 C   0  0  0  0  0  0  0  0  0  0  0  0
  -31.9168   57.6891   57.8902 C   0  0  2  0  0  0  0  0  0  0  0  0
  -33.1491   57.9645   57.0662 C   0  0  0  0  0  0  0  0  0  0  0  0
  -30.9672   56.7263   57.2041 C   0  0  0  0  0  0  0  0  0  0  0  0
  -31.6165   55.4053   56.8560 C   0  0  0  0  0  0  0  0  0  0  0  0
  -32.2124   53.8418   55.0825 C   0  0  1  0  0  0  0  0  0  0  0  0
  -32.0876   52.7559   56.1571 C   0  0  0  0  0  0  0  0  0  0  0  0
  -32.2422   51.3391   55.6151 C   0  0  0  0  0  0  0  0  0  0  0  0
  -33.5835   51.0265   54.9819 C   0  0  0  0  0  0  0  0  0  0  0  0
  -33.8818   51.8293   53.7330 C   0  0  0  0  0  0  0  0  0  0  0  0
  -33.6815   54.0900   54.7790 C   0  0  0  0  0  0  0  0  0  0  0  0
  -38.8959   56.1355   63.0411 H   0  0  0  0  0  0  0  0  0  0  0  0
  -36.3888   41.8468   60.8556 H   0  0  0  0  0  0  0  0  0  0  0  0
  -35.8803   43.0548   59.7001 H   0  0  0  0  0  0  0  0  0  0  0  0
  -35.8333   41.3615   59.2717 H   0  0  0  0  0  0  0  0  0  0  0  0
  -38.3003   42.9474   59.8589 H   0  0  0  0  0  0  0  0  0  0  0  0
  -38.2197   41.2343   59.4009 H   0  0  0  0  0  0  0  0  0  0  0  0
  -32.3230   56.7284   62.8847 H   0  0  0  0  0  0  0  0  0  0  0  0
  -38.8775   42.6160   57.5399 H   0  0  0  0  0  0  0  0  0  0  0  0
  -37.2981   41.8227   57.2957 H   0  0  0  0  0  0  0  0  0  0  0  0
  -37.7006   44.6759   58.0319 H   0  0  0  0  0  0  0  0  0  0  0  0
  -37.2980   44.0383   56.4232 H   0  0  0  0  0  0  0  0  0  0  0  0
  -31.2371   55.7089   54.9076 H   0  0  0  0  0  0  0  0  0  0  0  0
  -30.7496   54.5900   65.4435 H   0  0  0  0  0  0  0  0  0  0  0  0
  -35.2190   43.1991   57.2472 H   0  0  0  0  0  0  0  0  0  0  0  0
  -35.6259   43.8218   58.8646 H   0  0  0  0  0  0  0  0  0  0  0  0
  -35.1150   53.5102   53.5394 H   0  0  0  0  0  0  0  0  0  0  0  0
  -35.1768   45.4796   56.4346 H   0  0  0  0  0  0  0  0  0  0  0  0
  -34.0400   45.2198   57.7830 H   0  0  0  0  0  0  0  0  0  0  0  0
  -35.5272   46.3020   59.2852 H   0  0  0  0  0  0  0  0  0  0  0  0
  -36.6787   46.5482   57.9477 H   0  0  0  0  0  0  0  0  0  0  0  0
  -35.4853   48.5764   58.4781 H   0  0  0  0  0  0  0  0  0  0  0  0
  -35.1349   47.9693   56.8475 H   0  0  0  0  0  0  0  0  0  0  0  0
  -33.0404   47.0971   57.5951 H   0  0  0  0  0  0  0  0  0  0  0  0
  -33.3883   47.6781   59.2317 H   0  0  0  0  0  0  0  0  0  0  0  0
  -33.0454   49.3888   56.8172 H   0  0  0  0  0  0  0  0  0  0  0  0
  -31.8606   49.1205   58.1234 H   0  0  0  0  0  0  0  0  0  0  0  0
  -33.3016   50.1723   59.6884 H   0  0  0  0  0  0  0  0  0  0  0  0
  -34.5044   50.4236   58.4088 H   0  0  0  0  0  0  0  0  0  0  0  0
  -33.0023   51.8720   57.2473 H   0  0  0  0  0  0  0  0  0  0  0  0
  -31.7878   51.6098   58.5182 H   0  0  0  0  0  0  0  0  0  0  0  0
  -32.8821   53.7473   58.7652 H   0  0  0  0  0  0  0  0  0  0  0  0
  -33.2081   52.6422   60.1178 H   0  0  0  0  0  0  0  0  0  0  0  0
  -35.0719   53.2348   57.8757 H   0  0  0  0  0  0  0  0  0  0  0  0
  -35.1485   53.8772   59.5380 H   0  0  0  0  0  0  0  0  0  0  0  0
  -35.4370   51.0170   58.7774 H   0  0  0  0  0  0  0  0  0  0  0  0
  -36.7436   52.1431   59.2076 H   0  0  0  0  0  0  0  0  0  0  0  0
  -34.5318   51.2886   61.0077 H   0  0  0  0  0  0  0  0  0  0  0  0
  -36.2132   50.7063   61.0290 H   0  0  0  0  0  0  0  0  0  0  0  0
  -35.3536   53.5132   61.5640 H   0  0  0  0  0  0  0  0  0  0  0  0
  -35.8192   52.3181   62.7747 H   0  0  0  0  0  0  0  0  0  0  0  0
  -38.0363   52.2733   61.3096 H   0  0  0  0  0  0  0  0  0  0  0  0
  -38.9747   54.3037   61.6392 H   0  0  0  0  0  0  0  0  0  0  0  0
  -36.5906   57.4783   63.8958 H   0  0  0  0  0  0  0  0  0  0  0  0
  -38.1924   58.1861   63.7346 H   0  0  0  0  0  0  0  0  0  0  0  0
  -36.5724   59.3687   62.3887 H   0  0  0  0  0  0  0  0  0  0  0  0
  -37.8072   58.5391   61.3994 H   0  0  0  0  0  0  0  0  0  0  0  0
  -35.6238   58.4067   60.3945 H   0  0  0  0  0  0  0  0  0  0  0  0
  -36.2729   56.8255   60.8717 H   0  0  0  0  0  0  0  0  0  0  0  0
  -34.8590   56.8018   62.8091 H   0  0  0  0  0  0  0  0  0  0  0  0
  -34.2203   58.3886   62.3599 H   0  0  0  0  0  0  0  0  0  0  0  0
  -33.9197   55.8664   60.7890 H   0  0  0  0  0  0  0  0  0  0  0  0
  -30.4053   57.4239   63.3892 H   0  0  0  0  0  0  0  0  0  0  0  0
  -29.2055   57.5925   62.1302 H   0  0  0  0  0  0  0  0  0  0  0  0
  -28.8127   56.7374   63.6024 H   0  0  0  0  0  0  0  0  0  0  0  0
  -29.2433   54.5791   60.5695 H   0  0  0  0  0  0  0  0  0  0  0  0
  -28.0756   55.5400   61.3675 H   0  0  0  0  0  0  0  0  0  0  0  0
  -28.6064   51.3117   62.8771 H   0  0  0  0  0  0  0  0  0  0  0  0
  -28.9821   49.3071   64.1595 H   0  0  0  0  0  0  0  0  0  0  0  0
  -30.2042   49.3969   66.2286 H   0  0  0  0  0  0  0  0  0  0  0  0
  -31.0785   51.4956   67.0331 H   0  0  0  0  0  0  0  0  0  0  0  0
  -31.4262   58.6261   58.0522 H   0  0  0  0  0  0  0  0  0  0  0  0
  -33.6682   57.0469   56.8831 H   0  0  0  0  0  0  0  0  0  0  0  0
  -32.8636   58.4049   56.1337 H   0  0  0  0  0  0  0  0  0  0  0  0
  -33.7901   58.6371   57.5969 H   0  0  0  0  0  0  0  0  0  0  0  0
  -30.1407   56.5387   57.8572 H   0  0  0  0  0  0  0  0  0  0  0  0
  -30.6557   57.1819   56.2874 H   0  0  0  0  0  0  0  0  0  0  0  0
  -31.6989   53.5126   54.2034 H   0  0  0  0  0  0  0  0  0  0  0  0
  -32.8457   52.9207   56.8940 H   0  0  0  0  0  0  0  0  0  0  0  0
  -31.1008   52.8299   56.5644 H   0  0  0  0  0  0  0  0  0  0  0  0
  -32.0936   50.6575   56.4264 H   0  0  0  0  0  0  0  0  0  0  0  0
  -31.5181   51.2425   54.8332 H   0  0  0  0  0  0  0  0  0  0  0  0
  -34.3495   51.2280   55.7014 H   0  0  0  0  0  0  0  0  0  0  0  0
  -33.5525   49.9985   54.6869 H   0  0  0  0  0  0  0  0  0  0  0  0
  -32.9983   51.8530   53.1300 H   0  0  0  0  0  0  0  0  0  0  0  0
  -34.7029   51.3467   53.2453 H   0  0  0  0  0  0  0  0  0  0  0  0
  1 33  1  0  0  0  0
  1 34  1  0  0  0  0
  1 61  1  0  0  0  0
  2  4  1  0  0  0  0
  2 62  1  0  0  0  0
  2 63  1  0  0  0  0
  2 64  1  0  0  0  0
  3 33  2  0  0  0  0
  4  7  1  0  0  0  0
  4 65  1  0  0  0  0
  4 66  1  0  0  0  0
  5 38  1  0  0  0  0
  5 39  1  0  0  0  0
  5 67  1  0  0  0  0
  6 39  2  0  0  0  0
  7 10  1  0  0  0  0
  7 68  1  0  0  0  0
  7 69  1  0  0  0  0
  8 40  1  0  0  0  0
  8 43  2  0  0  0  0
  9 42  1  0  0  0  0
  9 43  1  0  0  0  0
 10 13  1  0  0  0  0
 10 70  1  0  0  0  0
 10 71  1  0  0  0  0
 11 54  1  0  0  0  0
 11 55  1  0  0  0  0
 11 72  1  0  0  0  0
 12 49  1  0  0  0  0
 12 73  1  0  0  0  0
 13 16  1  0  0  0  0
 13 74  1  0  0  0  0
 13 75  1  0  0  0  0
 14 59  1  0  0  0  0
 14 60  1  0  0  0  0
 14 76  1  0  0  0  0
 15 50  2  0  0  0  0
 16 18  1  0  0  0  0
 16 77  1  0  0  0  0
 16 78  1  0  0  0  0
 17 50  1  0  0  0  0
 17 51  1  0  0  0  0
 18 20  1  0  0  0  0
 18 79  1  0  0  0  0
 18 80  1  0  0  0  0
 19 54  2  0  0  0  0
 20 22  1  0  0  0  0
 20 81  1  0  0  0  0
 20 82  1  0  0  0  0
 21 60  2  0  0  0  0
 22 23  1  0  0  0  0
 22 83  1  0  0  0  0
 22 84  1  0  0  0  0
 23 24  1  0  0  0  0
 23 85  1  0  0  0  0
 23 86  1  0  0  0  0
 24 25  1  0  0  0  0
 24 87  1  0  0  0  0
 24 88  1  0  0  0  0
 25 26  1  0  0  0  0
 25 89  1  0  0  0  0
 25 90  1  0  0  0  0
 26 27  1  0  0  0  0
 26 91  1  0  0  0  0
 26 92  1  0  0  0  0
 27 28  1  0  0  0  0
 27 93  1  0  0  0  0
 27 94  1  0  0  0  0
 28 29  1  0  0  0  0
 28 95  1  0  0  0  0
 28 96  1  0  0  0  0
 29 30  1  0  0  0  0
 29 97  1  0  0  0  0
 29 98  1  0  0  0  0
 30 31  1  0  0  0  0
 30 99  1  0  0  0  0
 30100  1  0  0  0  0
 31 32  2  0  0  0  0
 31101  1  0  0  0  0
 32 33  1  0  0  0  0
 32102  1  0  0  0  0
 34 35  1  0  0  0  0
 34103  1  0  0  0  0
 34104  1  0  0  0  0
 35 36  1  0  0  0  0
 35105  1  0  0  0  0
 35106  1  0  0  0  0
 36 37  1  0  0  0  0
 36107  1  0  0  0  0
 36108  1  0  0  0  0
 37 38  1  0  0  0  0
 37109  1  0  0  0  0
 37110  1  0  0  0  0
 38 50  1  0  0  0  0
 38111  1  6  0  0  0
 40 39  1  6  0  0  0
 40 41  1  0  0  0  0
 40 42  1  0  0  0  0
 41112  1  0  0  0  0
 41113  1  0  0  0  0
 41114  1  0  0  0  0
 42115  1  0  0  0  0
 42116  1  0  0  0  0
 43 44  1  0  0  0  0
 44 45  2  0  0  0  0
 44 49  1  0  0  0  0
 45 46  1  0  0  0  0
 45117  1  0  0  0  0
 46 47  2  0  0  0  0
 46118  1  0  0  0  0
 47 48  1  0  0  0  0
 47119  1  0  0  0  0
 48 49  2  0  0  0  0
 48120  1  0  0  0  0
 51 52  1  0  0  0  0
 51 53  1  0  0  0  0
 51121  1  1  0  0  0
 52122  1  0  0  0  0
 52123  1  0  0  0  0
 52124  1  0  0  0  0
 53 54  1  0  0  0  0
 53125  1  0  0  0  0
 53126  1  0  0  0  0
 55 56  1  0  0  0  0
 55 60  1  0  0  0  0
 55127  1  6  0  0  0
 56 57  1  0  0  0  0
 56128  1  0  0  0  0
 56129  1  0  0  0  0
 57 58  1  0  0  0  0
 57130  1  0  0  0  0
 57131  1  0  0  0  0
 58 59  1  0  0  0  0
 58132  1  0  0  0  0
 58133  1  0  0  0  0
 59134  1  0  0  0  0
 59135  1  0  0  0  0
M  END
$$$$
/media/chris/experiments/cd1a-new-docking/inputs/ligands/7ryo_ligand.pdb
 OpenBabel07032304133D

135137  0  0  1  0  0  0  0  0999 V2000
  -38.4618   58.3450   63.9648 N   0  0  0  0  0  0  0  0  0  0  0  0
  -35.4355   47.6776   61.7267 C   0  0  0  0  0  0  0  0  0  0  0  0
  -39.8911   58.3837   62.2185 O   0  0  0  0  0  0  0  0  0  0  0  0
  -34.8293   48.6187   62.7343 C   0  0  0  0  0  0  0  0  0  0  0  0
  -34.8919   59.3849   63.5113 N   0  0  0  0  0  0  0  0  0  0  0  0
  -33.4531   61.0520   63.9634 O   0  0  0  0  0  0  0  0  0  0  0  0
  -35.7661   49.7399   63.1458 C   0  0  0  0  0  0  0  0  0  0  0  0
  -35.3901   62.6052   65.1180 N   0  0  0  0  0  0  0  0  0  0  0  0
  -37.5863   62.2700   64.7339 O   0  0  0  0  0  0  0  0  0  0  0  0
  -37.0570   49.2733   63.7991 C   0  0  0  0  0  0  0  0  0  0  0  0
  -29.4491   58.9274   57.1785 N   0  0  0  0  0  0  0  0  0  0  0  0
  -34.9009   65.1194   66.1689 O   0  0  0  0  0  0  0  0  0  0  0  0
  -36.8357   48.4843   65.0823 C   0  0  0  0  0  0  0  0  0  0  0  0
  -28.8538   59.1010   53.6135 N   0  0  0  0  0  0  0  0  0  0  0  0
  -33.8578   60.8117   61.3896 O   0  0  0  0  0  0  0  0  0  0  0  0
  -36.1212   49.2679   66.1726 C   0  0  0  0  0  0  0  0  0  0  0  0
  -32.6946   59.0310   60.6435 O   0  0  0  0  0  0  0  0  0  0  0  0
  -36.8595   50.5136   66.6307 C   0  0  0  0  0  0  0  0  0  0  0  0
  -31.1858   60.3290   56.8936 O   0  0  0  0  0  0  0  0  0  0  0  0
  -38.2335   50.2406   67.2203 C   0  0  0  0  0  0  0  0  0  0  0  0
  -29.6594   57.4952   54.9563 O   0  0  0  0  0  0  0  0  0  0  0  0
  -38.9582   51.4992   67.6548 C   0  0  0  0  0  0  0  0  0  0  0  0
  -39.2012   52.4609   66.5076 C   0  0  0  0  0  0  0  0  0  0  0  0
  -40.0536   51.8969   65.3886 C   0  0  0  0  0  0  0  0  0  0  0  0
  -40.2640   52.8756   64.2499 C   0  0  0  0  0  0  0  0  0  0  0  0
  -40.9400   54.1678   64.6772 C   0  0  0  0  0  0  0  0  0  0  0  0
  -41.1651   55.1389   63.5336 C   0  0  0  0  0  0  0  0  0  0  0  0
  -41.8250   56.4456   63.9413 C   0  0  0  0  0  0  0  0  0  0  0  0
  -42.0574   57.3973   62.7805 C   0  0  0  0  0  0  0  0  0  0  0  0
  -42.7034   58.7165   63.1862 C   0  0  0  0  0  0  0  0  0  0  0  0
  -41.8538   59.4736   64.1585 C   0  0  0  0  0  0  0  0  0  0  0  0
  -40.5322   59.4572   64.2670 C   0  0  0  0  0  0  0  0  0  0  0  0
  -39.6292   58.6694   63.3984 C   0  0  0  0  0  0  0  0  0  0  0  0
  -37.4201   57.6362   63.2386 C   0  0  0  0  0  0  0  0  0  0  0  0
  -36.9560   58.4330   62.0390 C   0  0  0  0  0  0  0  0  0  0  0  0
  -35.8780   57.7610   61.2090 C   0  0  0  0  0  0  0  0  0  0  0  0
  -34.6110   57.4590   62.0020 C   0  0  0  0  0  0  0  0  0  0  0  0
  -33.9807   58.7203   62.5945 C   0  0  1  0  0  0  0  0  0  0  0  0
  -34.5389   60.5158   64.1271 C   0  0  0  0  0  0  0  0  0  0  0  0
  -35.5524   61.1420   65.0991 C   0  0  1  0  0  0  0  0  0  0  0  0
  -35.2953   60.5954   66.5002 C   0  0  0  0  0  0  0  0  0  0  0  0
  -37.0130   60.9395   64.6700 C   0  0  0  0  0  0  0  0  0  0  0  0
  -36.5346   63.1117   64.9105 C   0  0  0  0  0  0  0  0  0  0  0  0
  -36.8481   64.5411   64.8464 C   0  0  0  0  0  0  0  0  0  0  0  0
  -37.8913   64.9940   64.0378 C   0  0  0  0  0  0  0  0  0  0  0  0
  -38.0426   66.3453   63.7779 C   0  0  0  0  0  0  0  0  0  0  0  0
  -37.1647   67.2616   64.3149 C   0  0  0  0  0  0  0  0  0  0  0  0
  -36.1197   66.8384   65.1158 C   0  0  0  0  0  0  0  0  0  0  0  0
  -35.9499   65.4843   65.3868 C   0  0  0  0  0  0  0  0  0  0  0  0
  -33.5193   59.6651   61.4950 C   0  0  0  0  0  0  0  0  0  0  0  0
  -32.1659   59.7847   59.5024 C   0  0  2  0  0  0  0  0  0  0  0  0
  -33.3336   60.2698   58.6809 C   0  0  0  0  0  0  0  0  0  0  0  0
  -31.2900   58.8093   58.7404 C   0  0  0  0  0  0  0  0  0  0  0  0
  -30.6389   59.4280   57.5234 C   0  0  0  0  0  0  0  0  0  0  0  0
  -28.7151   59.4187   56.0255 C   0  0  1  0  0  0  0  0  0  0  0  0
  -27.2071   59.2812   56.2634 C   0  0  0  0  0  0  0  0  0  0  0  0
  -26.3613   60.1577   55.3460 C   0  0  0  0  0  0  0  0  0  0  0  0
  -26.4914   59.8659   53.8642 C   0  0  0  0  0  0  0  0  0  0  0  0
  -27.8707   60.1320   53.2986 C   0  0  0  0  0  0  0  0  0  0  0  0
  -29.1170   58.5876   54.8173 C   0  0  0  0  0  0  0  0  0  0  0  0
  -38.3025   58.5942   64.9038 H   0  0  0  0  0  0  0  0  0  0  0  0
  -34.7271   46.9145   61.4802 H   0  0  0  0  0  0  0  0  0  0  0  0
  -35.6961   48.2213   60.8427 H   0  0  0  0  0  0  0  0  0  0  0  0
  -36.3138   47.2286   62.1413 H   0  0  0  0  0  0  0  0  0  0  0  0
  -33.9481   49.0512   62.3085 H   0  0  0  0  0  0  0  0  0  0  0  0
  -34.6129   48.0472   63.6127 H   0  0  0  0  0  0  0  0  0  0  0  0
  -35.7805   58.9963   63.6804 H   0  0  0  0  0  0  0  0  0  0  0  0
  -36.0182   50.3029   62.2715 H   0  0  0  0  0  0  0  0  0  0  0  0
  -35.2450   50.3188   63.8795 H   0  0  0  0  0  0  0  0  0  0  0  0
  -37.5826   48.6512   63.1051 H   0  0  0  0  0  0  0  0  0  0  0  0
  -37.6134   50.1494   64.0595 H   0  0  0  0  0  0  0  0  0  0  0  0
  -29.0588   58.2048   57.7215 H   0  0  0  0  0  0  0  0  0  0  0  0
  -34.7587   64.2153   66.3701 H   0  0  0  0  0  0  0  0  0  0  0  0
  -36.2495   47.6200   64.8494 H   0  0  0  0  0  0  0  0  0  0  0  0
  -37.8036   48.2340   65.4636 H   0  0  0  0  0  0  0  0  0  0  0  0
  -29.3781   58.7469   52.8592 H   0  0  0  0  0  0  0  0  0  0  0  0
  -35.1630   49.5640   65.7997 H   0  0  0  0  0  0  0  0  0  0  0  0
  -36.0540   48.6207   67.0221 H   0  0  0  0  0  0  0  0  0  0  0  0
  -36.9784   51.1623   65.7882 H   0  0  0  0  0  0  0  0  0  0  0  0
  -36.2713   50.9510   67.4102 H   0  0  0  0  0  0  0  0  0  0  0  0
  -38.1176   49.6037   68.0723 H   0  0  0  0  0  0  0  0  0  0  0  0
  -38.8231   49.7830   66.4535 H   0  0  0  0  0  0  0  0  0  0  0  0
  -38.3684   51.9945   68.3975 H   0  0  0  0  0  0  0  0  0  0  0  0
  -39.9132   51.2060   68.0381 H   0  0  0  0  0  0  0  0  0  0  0  0
  -38.2528   52.7399   66.0980 H   0  0  0  0  0  0  0  0  0  0  0  0
  -39.7402   53.2913   66.9137 H   0  0  0  0  0  0  0  0  0  0  0  0
  -41.0091   51.6306   65.7896 H   0  0  0  0  0  0  0  0  0  0  0  0
  -39.5362   51.0496   64.9895 H   0  0  0  0  0  0  0  0  0  0  0  0
  -40.8731   52.4045   63.5068 H   0  0  0  0  0  0  0  0  0  0  0  0
  -39.2958   53.1359   63.8761 H   0  0  0  0  0  0  0  0  0  0  0  0
  -40.3250   54.6453   65.4111 H   0  0  0  0  0  0  0  0  0  0  0  0
  -41.9032   53.9068   65.0633 H   0  0  0  0  0  0  0  0  0  0  0  0
  -41.7887   54.6614   62.8068 H   0  0  0  0  0  0  0  0  0  0  0  0
  -40.1979   55.3909   63.1517 H   0  0  0  0  0  0  0  0  0  0  0  0
  -41.1969   56.9327   64.6576 H   0  0  0  0  0  0  0  0  0  0  0  0
  -42.7858   56.2001   64.3430 H   0  0  0  0  0  0  0  0  0  0  0  0
  -42.6951   56.9138   62.0704 H   0  0  0  0  0  0  0  0  0  0  0  0
  -41.0961   57.6333   62.3740 H   0  0  0  0  0  0  0  0  0  0  0  0
  -43.6514   58.5134   63.6389 H   0  0  0  0  0  0  0  0  0  0  0  0
  -42.8184   59.3155   62.3071 H   0  0  0  0  0  0  0  0  0  0  0  0
  -42.3567   60.0811   64.8242 H   0  0  0  0  0  0  0  0  0  0  0  0
  -40.1038   60.0335   65.0082 H   0  0  0  0  0  0  0  0  0  0  0  0
  -37.8045   56.6947   62.9057 H   0  0  0  0  0  0  0  0  0  0  0  0
  -36.5868   57.4908   63.8939 H   0  0  0  0  0  0  0  0  0  0  0  0
  -36.5724   59.3687   62.3887 H   0  0  0  0  0  0  0  0  0  0  0  0
  -37.8072   58.5391   61.3994 H   0  0  0  0  0  0  0  0  0  0  0  0
  -35.6238   58.4067   60.3945 H   0  0  0  0  0  0  0  0  0  0  0  0
  -36.2729   56.8255   60.8717 H   0  0  0  0  0  0  0  0  0  0  0  0
  -33.9009   56.9930   61.3512 H   0  0  0  0  0  0  0  0  0  0  0  0
  -34.8793   56.8156   62.8138 H   0  0  0  0  0  0  0  0  0  0  0  0
  -33.1195   58.4233   63.1557 H   0  0  0  0  0  0  0  0  0  0  0  0
  -34.2702   60.7545   66.7626 H   0  0  0  0  0  0  0  0  0  0  0  0
  -35.5096   59.5472   66.5189 H   0  0  0  0  0  0  0  0  0  0  0  0
  -35.9256   61.1009   67.2015 H   0  0  0  0  0  0  0  0  0  0  0  0
  -37.0663   60.5499   63.6749 H   0  0  0  0  0  0  0  0  0  0  0  0
  -37.5307   60.2382   65.2906 H   0  0  0  0  0  0  0  0  0  0  0  0
  -38.5549   64.3167   63.6305 H   0  0  0  0  0  0  0  0  0  0  0  0
  -38.8178   66.6684   63.1782 H   0  0  0  0  0  0  0  0  0  0  0  0
  -37.2874   68.2673   64.1186 H   0  0  0  0  0  0  0  0  0  0  0  0
  -35.4641   67.5289   65.5137 H   0  0  0  0  0  0  0  0  0  0  0  0
  -31.5924   60.6446   59.7793 H   0  0  0  0  0  0  0  0  0  0  0  0
  -33.9326   59.4342   58.3845 H   0  0  0  0  0  0  0  0  0  0  0  0
  -32.9715   60.7758   57.8104 H   0  0  0  0  0  0  0  0  0  0  0  0
  -33.9252   60.9435   59.2649 H   0  0  0  0  0  0  0  0  0  0  0  0
  -31.8937   57.9851   58.4225 H   0  0  0  0  0  0  0  0  0  0  0  0
  -30.5068   58.4988   59.4000 H   0  0  0  0  0  0  0  0  0  0  0  0
  -28.9420   60.4515   55.8618 H   0  0  0  0  0  0  0  0  0  0  0  0
  -26.9313   58.2597   56.1037 H   0  0  0  0  0  0  0  0  0  0  0  0
  -27.0173   59.6023   57.2662 H   0  0  0  0  0  0  0  0  0  0  0  0
  -25.3350   60.0271   55.6190 H   0  0  0  0  0  0  0  0  0  0  0  0
  -26.7193   61.1569   55.4816 H   0  0  0  0  0  0  0  0  0  0  0  0
  -26.2559   58.8346   53.7033 H   0  0  0  0  0  0  0  0  0  0  0  0
  -25.8189   60.5280   53.3599 H   0  0  0  0  0  0  0  0  0  0  0  0
  -28.2217   61.0626   53.6932 H   0  0  0  0  0  0  0  0  0  0  0  0
  -27.7695   60.1461   52.2334 H   0  0  0  0  0  0  0  0  0  0  0  0
  1 33  1  0  0  0  0
  1 34  1  0  0  0  0
  1 61  1  0  0  0  0
  2  4  1  0  0  0  0
  2 62  1  0  0  0  0
  2 63  1  0  0  0  0
  2 64  1  0  0  0  0
  3 33  2  0  0  0  0
  4  7  1  0  0  0  0
  4 65  1  0  0  0  0
  4 66  1  0  0  0  0
  5 38  1  0  0  0  0
  5 39  1  0  0  0  0
  5 67  1  0  0  0  0
  6 39  2  0  0  0  0
  7 10  1  0  0  0  0
  7 68  1  0  0  0  0
  7 69  1  0  0  0  0
  8 40  1  0  0  0  0
  8 43  2  0  0  0  0
  9 42  1  0  0  0  0
  9 43  1  0  0  0  0
 10 13  1  0  0  0  0
 10 70  1  0  0  0  0
 10 71  1  0  0  0  0
 11 54  1  0  0  0  0
 11 55  1  0  0  0  0
 11 72  1  0  0  0  0
 12 49  1  0  0  0  0
 12 73  1  0  0  0  0
 13 16  1  0  0  0  0
 13 74  1  0  0  0  0
 13 75  1  0  0  0  0
 14 59  1  0  0  0  0
 14 60  1  0  0  0  0
 14 76  1  0  0  0  0
 15 50  2  0  0  0  0
 16 18  1  0  0  0  0
 16 77  1  0  0  0  0
 16 78  1  0  0  0  0
 17 50  1  0  0  0  0
 17 51  1  0  0  0  0
 18 20  1  0  0  0  0
 18 79  1  0  0  0  0
 18 80  1  0  0  0  0
 19 54  2  0  0  0  0
 20 22  1  0  0  0  0
 20 81  1  0  0  0  0
 20 82  1  0  0  0  0
 21 60  2  0  0  0  0
 22 23  1  0  0  0  0
 22 83  1  0  0  0  0
 22 84  1  0  0  0  0
 23 24  1  0  0  0  0
 23 85  1  0  0  0  0
 23 86  1  0  0  0  0
 24 25  1  0  0  0  0
 24 87  1  0  0  0  0
 24 88  1  0  0  0  0
 25 26  1  0  0  0  0
 25 89  1  0  0  0  0
 25 90  1  0  0  0  0
 26 27  1  0  0  0  0
 26 91  1  0  0  0  0
 26 92  1  0  0  0  0
 27 28  1  0  0  0  0
 27 93  1  0  0  0  0
 27 94  1  0  0  0  0
 28 29  1  0  0  0  0
 28 95  1  0  0  0  0
 28 96  1  0  0  0  0
 29 30  1  0  0  0  0
 29 97  1  0  0  0  0
 29 98  1  0  0  0  0
 30 31  1  0  0  0  0
 30 99  1  0  0  0  0
 30100  1  0  0  0  0
 31 32  2  0  0  0  0
 31101  1  0  0  0  0
 32 33  1  0  0  0  0
 32102  1  0  0  0  0
 34 35  1  0  0  0  0
 34103  1  0  0  0  0
 34104  1  0  0  0  0
 35 36  1  0  0  0  0
 35105  1  0  0  0  0
 35106  1  0  0  0  0
 36 37  1  0  0  0  0
 36107  1  0  0  0  0
 36108  1  0  0  0  0
 37 38  1  0  0  0  0
 37109  1  0  0  0  0
 37110  1  0  0  0  0
 38 50  1  0  0  0  0
 38111  1  1  0  0  0
 40 39  1  6  0  0  0
 40 41  1  0  0  0  0
 40 42  1  0  0  0  0
 41112  1  0  0  0  0
 41113  1  0  0  0  0
 41114  1  0  0  0  0
 42115  1  0  0  0  0
 42116  1  0  0  0  0
 43 44  1  0  0  0  0
 44 45  2  0  0  0  0
 44 49  1  0  0  0  0
 45 46  1  0  0  0  0
 45117  1  0  0  0  0
 46 47  2  0  0  0  0
 46118  1  0  0  0  0
 47 48  1  0  0  0  0
 47119  1  0  0  0  0
 48 49  2  0  0  0  0
 48120  1  0  0  0  0
 51 52  1  0  0  0  0
 51 53  1  0  0  0  0
 51121  1  1  0  0  0
 52122  1  0  0  0  0
 52123  1  0  0  0  0
 52124  1  0  0  0  0
 53 54  1  0  0  0  0
 53125  1  0  0  0  0
 53126  1  0  0  0  0
 55 56  1  0  0  0  0
 55 60  1  0  0  0  0
 55127  1  6  0  0  0
 56 57  1  0  0  0  0
 56128  1  0  0  0  0
 56129  1  0  0  0  0
 57 58  1  0  0  0  0
 57130  1  0  0  0  0
 57131  1  0  0  0  0
 58 59  1  0  0  0  0
 58132  1  0  0  0  0
 58133  1  0  0  0  0
 59134  1  0  0  0  0
 59135  1  0  0  0  0
M  END
$$$$
/media/chris/experiments/cd1a-new-docking/inputs/ligands/7ryo_ligand.pdb
 OpenBabel07032304133D

135137  0  0  1  0  0  0  0  0999 V2000
  -38.8442   57.5132   60.7850 N   0  0  0  0  0  0  0  0  0  0  0  0
  -51.5169   66.0147   63.7651 C   0  0  0  0  0  0  0  0  0  0  0  0
  -39.7733   58.5162   58.9894 O   0  0  0  0  0  0  0  0  0  0  0  0
  -51.8619   66.5255   62.3909 C   0  0  0  0  0  0  0  0  0  0  0  0
  -35.3848   55.2330   62.7177 N   0  0  0  0  0  0  0  0  0  0  0  0
  -35.5611   54.3952   64.7963 O   0  0  0  0  0  0  0  0  0  0  0  0
  -50.6823   67.1551   61.6725 C   0  0  0  0  0  0  0  0  0  0  0  0
  -35.3076   51.8395   63.4168 N   0  0  0  0  0  0  0  0  0  0  0  0
  -37.3672   51.1474   64.0188 O   0  0  0  0  0  0  0  0  0  0  0  0
  -49.5123   66.2131   61.4386 C   0  0  0  0  0  0  0  0  0  0  0  0
  -33.8369   58.7085   66.6316 N   0  0  0  0  0  0  0  0  0  0  0  0
  -33.5575   49.7167   63.1087 O   0  0  0  0  0  0  0  0  0  0  0  0
  -49.8683   65.0063   60.5812 C   0  0  0  0  0  0  0  0  0  0  0  0
  -30.4396   57.5958   66.0715 N   0  0  0  0  0  0  0  0  0  0  0  0
  -36.3404   58.2172   64.0561 O   0  0  0  0  0  0  0  0  0  0  0  0
  -50.3521   65.3635   59.1843 C   0  0  0  0  0  0  0  0  0  0  0  0
  -35.9357   56.3635   65.2730 O   0  0  0  0  0  0  0  0  0  0  0  0
  -50.7254   64.1654   58.3286 C   0  0  0  0  0  0  0  0  0  0  0  0
  -34.4562   57.2668   68.2440 O   0  0  0  0  0  0  0  0  0  0  0  0
  -49.5890   63.1803   58.1084 C   0  0  0  0  0  0  0  0  0  0  0  0
  -32.4418   56.6681   65.6703 O   0  0  0  0  0  0  0  0  0  0  0  0
  -49.9797   62.0021   57.2382 C   0  0  0  0  0  0  0  0  0  0  0  0
  -48.8429   61.0179   57.0398 C   0  0  0  0  0  0  0  0  0  0  0  0
  -48.3272   60.3921   58.3201 C   0  0  0  0  0  0  0  0  0  0  0  0
  -47.1809   59.4266   58.0906 C   0  0  0  0  0  0  0  0  0  0  0  0
  -46.6671   58.7802   59.3664 C   0  0  0  0  0  0  0  0  0  0  0  0
  -45.5091   57.8273   59.1370 C   0  0  0  0  0  0  0  0  0  0  0  0
  -44.9900   57.1563   60.3977 C   0  0  0  0  0  0  0  0  0  0  0  0
  -43.8204   56.2194   60.1503 C   0  0  0  0  0  0  0  0  0  0  0  0
  -42.5970   56.9062   59.5556 C   0  0  0  0  0  0  0  0  0  0  0  0
  -41.4804   55.9387   59.3155 C   0  0  0  0  0  0  0  0  0  0  0  0
  -40.1765   56.1781   59.3506 C   0  0  0  0  0  0  0  0  0  0  0  0
  -39.5734   57.4928   59.6640 C   0  0  0  0  0  0  0  0  0  0  0  0
  -38.2360   58.7337   61.2903 C   0  0  0  0  0  0  0  0  0  0  0  0
  -36.9560   58.4330   62.0390 C   0  0  0  0  0  0  0  0  0  0  0  0
  -35.8780   57.7610   61.2090 C   0  0  0  0  0  0  0  0  0  0  0  0
  -34.6110   57.4590   62.0020 C   0  0  0  0  0  0  0  0  0  0  0  0
  -34.8704   56.5130   63.1754 C   0  0  1  0  0  0  0  0  0  0  0  0
  -35.6907   54.2677   63.5879 C   0  0  0  0  0  0  0  0  0  0  0  0
  -36.2067   52.9355   63.0194 C   0  0  1  0  0  0  0  0  0  0  0  0
  -36.2361   53.0270   61.4967 C   0  0  0  0  0  0  0  0  0  0  0  0
  -37.5703   52.5176   63.5893 C   0  0  0  0  0  0  0  0  0  0  0  0
  -36.0273   50.9366   63.9425 C   0  0  0  0  0  0  0  0  0  0  0  0
  -35.5541   49.6595   64.4817 C   0  0  0  0  0  0  0  0  0  0  0  0
  -36.2301   49.0528   65.5411 C   0  0  0  0  0  0  0  0  0  0  0  0
  -35.6639   47.9849   66.2158 C   0  0  0  0  0  0  0  0  0  0  0  0
  -34.4246   47.5064   65.8499 C   0  0  0  0  0  0  0  0  0  0  0  0
  -33.7319   48.0928   64.8064 C   0  0  0  0  0  0  0  0  0  0  0  0
  -34.2835   49.1685   64.1175 C   0  0  0  0  0  0  0  0  0  0  0  0
  -35.8061   57.1511   64.1912 C   0  0  0  0  0  0  0  0  0  0  0  0
  -36.7876   56.8312   66.3708 C   0  0  2  0  0  0  0  0  0  0  0  0
  -38.1865   57.0054   65.8356 C   0  0  0  0  0  0  0  0  0  0  0  0
  -36.1782   58.1417   66.8297 C   0  0  0  0  0  0  0  0  0  0  0  0
  -34.7479   57.9945   67.2991 C   0  0  0  0  0  0  0  0  0  0  0  0
  -32.4275   58.6723   66.9808 C   0  0  1  0  0  0  0  0  0  0  0  0
  -32.2631   58.3966   68.4797 C   0  0  0  0  0  0  0  0  0  0  0  0
  -30.8918   58.7806   69.0248 C   0  0  0  0  0  0  0  0  0  0  0  0
  -29.7183   58.0360   68.4199 C   0  0  0  0  0  0  0  0  0  0  0  0
  -29.5085   58.3032   66.9441 C   0  0  0  0  0  0  0  0  0  0  0  0
  -31.7692   57.5574   66.1836 C   0  0  0  0  0  0  0  0  0  0  0  0
  -38.7149   56.6746   61.2843 H   0  0  0  0  0  0  0  0  0  0  0  0
  -52.3876   65.5852   64.2150 H   0  0  0  0  0  0  0  0  0  0  0  0
  -51.1663   66.8253   64.3693 H   0  0  0  0  0  0  0  0  0  0  0  0
  -50.7517   65.2708   63.6875 H   0  0  0  0  0  0  0  0  0  0  0  0
  -52.6340   67.2602   62.4852 H   0  0  0  0  0  0  0  0  0  0  0  0
  -52.1759   65.6842   61.8090 H   0  0  0  0  0  0  0  0  0  0  0  0
  -35.5092   55.0758   61.7538 H   0  0  0  0  0  0  0  0  0  0  0  0
  -50.3353   67.9802   62.2588 H   0  0  0  0  0  0  0  0  0  0  0  0
  -51.0353   67.4487   60.7060 H   0  0  0  0  0  0  0  0  0  0  0  0
  -49.1636   65.8635   62.3878 H   0  0  0  0  0  0  0  0  0  0  0  0
  -48.7634   66.7654   60.9104 H   0  0  0  0  0  0  0  0  0  0  0  0
  -34.1293   59.2752   65.8816 H   0  0  0  0  0  0  0  0  0  0  0  0
  -33.9006   50.4422   62.6252 H   0  0  0  0  0  0  0  0  0  0  0  0
  -50.6428   64.4583   61.0760 H   0  0  0  0  0  0  0  0  0  0  0  0
  -48.9717   64.4346   60.4624 H   0  0  0  0  0  0  0  0  0  0  0  0
  -30.0459   57.0943   65.3213 H   0  0  0  0  0  0  0  0  0  0  0  0
  -49.5725   65.9013   58.6866 H   0  0  0  0  0  0  0  0  0  0  0  0
  -51.2432   65.9430   59.3067 H   0  0  0  0  0  0  0  0  0  0  0  0
  -51.0497   64.5228   57.3737 H   0  0  0  0  0  0  0  0  0  0  0  0
  -51.4927   63.6377   58.8555 H   0  0  0  0  0  0  0  0  0  0  0  0
  -49.2715   62.8092   59.0605 H   0  0  0  0  0  0  0  0  0  0  0  0
  -48.8073   63.7053   57.6004 H   0  0  0  0  0  0  0  0  0  0  0  0
  -50.2847   62.3701   56.2808 H   0  0  0  0  0  0  0  0  0  0  0  0
  -50.7732   61.4833   57.7342 H   0  0  0  0  0  0  0  0  0  0  0  0
  -48.0322   61.5334   56.5689 H   0  0  0  0  0  0  0  0  0  0  0  0
  -49.2311   60.2187   56.4437 H   0  0  0  0  0  0  0  0  0  0  0  0
  -49.1305   59.8620   58.7877 H   0  0  0  0  0  0  0  0  0  0  0  0
  -47.9579   61.1849   58.9365 H   0  0  0  0  0  0  0  0  0  0  0  0
  -46.3746   59.9610   57.6333 H   0  0  0  0  0  0  0  0  0  0  0  0
  -47.5523   58.6402   57.4672 H   0  0  0  0  0  0  0  0  0  0  0  0
  -47.4700   58.2353   59.8174 H   0  0  0  0  0  0  0  0  0  0  0  0
  -46.3076   59.5673   59.9958 H   0  0  0  0  0  0  0  0  0  0  0  0
  -44.7049   58.3779   58.6954 H   0  0  0  0  0  0  0  0  0  0  0  0
  -45.8764   57.0466   58.5042 H   0  0  0  0  0  0  0  0  0  0  0  0
  -45.7882   56.5929   60.8343 H   0  0  0  0  0  0  0  0  0  0  0  0
  -44.6388   57.9328   61.0447 H   0  0  0  0  0  0  0  0  0  0  0  0
  -44.1389   55.4534   59.4745 H   0  0  0  0  0  0  0  0  0  0  0  0
  -43.5266   55.8296   61.1025 H   0  0  0  0  0  0  0  0  0  0  0  0
  -42.2605   57.6627   60.2333 H   0  0  0  0  0  0  0  0  0  0  0  0
  -42.8778   57.3313   58.6147 H   0  0  0  0  0  0  0  0  0  0  0  0
  -41.7585   54.9693   59.0964 H   0  0  0  0  0  0  0  0  0  0  0  0
  -39.5383   55.3936   59.1453 H   0  0  0  0  0  0  0  0  0  0  0  0
  -38.9228   59.2185   61.9523 H   0  0  0  0  0  0  0  0  0  0  0  0
  -38.0041   59.3676   60.4601 H   0  0  0  0  0  0  0  0  0  0  0  0
  -37.1937   57.7896   62.8603 H   0  0  0  0  0  0  0  0  0  0  0  0
  -36.5565   59.3772   62.3453 H   0  0  0  0  0  0  0  0  0  0  0  0
  -35.6238   58.4067   60.3945 H   0  0  0  0  0  0  0  0  0  0  0  0
  -36.2729   56.8255   60.8717 H   0  0  0  0  0  0  0  0  0  0  0  0
  -34.2161   58.3779   62.3821 H   0  0  0  0  0  0  0  0  0  0  0  0
  -33.9192   56.9787   61.3420 H   0  0  0  0  0  0  0  0  0  0  0  0
  -33.9347   56.3288   63.6606 H   0  0  0  0  0  0  0  0  0  0  0  0
  -35.2713   53.3197   61.1383 H   0  0  0  0  0  0  0  0  0  0  0  0
  -36.9632   53.7525   61.1969 H   0  0  0  0  0  0  0  0  0  0  0  0
  -36.4943   52.0729   61.0870 H   0  0  0  0  0  0  0  0  0  0  0  0
  -37.8431   53.1389   64.4167 H   0  0  0  0  0  0  0  0  0  0  0  0
  -38.3612   52.6118   62.8748 H   0  0  0  0  0  0  0  0  0  0  0  0
  -37.1589   49.4028   65.8236 H   0  0  0  0  0  0  0  0  0  0  0  0
  -36.1731   47.5444   66.9978 H   0  0  0  0  0  0  0  0  0  0  0  0
  -34.0119   46.7075   66.3563 H   0  0  0  0  0  0  0  0  0  0  0  0
  -32.8032   47.7316   64.5379 H   0  0  0  0  0  0  0  0  0  0  0  0
  -36.8445   56.1513   67.1951 H   0  0  0  0  0  0  0  0  0  0  0  0
  -38.1696   57.6817   65.0066 H   0  0  0  0  0  0  0  0  0  0  0  0
  -38.8163   57.4002   66.6053 H   0  0  0  0  0  0  0  0  0  0  0  0
  -38.5663   56.0578   65.5151 H   0  0  0  0  0  0  0  0  0  0  0  0
  -36.7647   58.5263   67.6378 H   0  0  0  0  0  0  0  0  0  0  0  0
  -36.1734   58.8046   65.9898 H   0  0  0  0  0  0  0  0  0  0  0  0
  -31.9717   59.6137   66.7550 H   0  0  0  0  0  0  0  0  0  0  0  0
  -32.4139   57.3510   68.6497 H   0  0  0  0  0  0  0  0  0  0  0  0
  -32.9839   59.0003   68.9904 H   0  0  0  0  0  0  0  0  0  0  0  0
  -30.8922   58.5954   70.0787 H   0  0  0  0  0  0  0  0  0  0  0  0
  -30.7510   59.8099   68.7684 H   0  0  0  0  0  0  0  0  0  0  0  0
  -29.8828   56.9869   68.5510 H   0  0  0  0  0  0  0  0  0  0  0  0
  -28.8405   58.3837   68.9234 H   0  0  0  0  0  0  0  0  0  0  0  0
  -29.6207   59.3536   66.7737 H   0  0  0  0  0  0  0  0  0  0  0  0
  -28.5288   57.9472   66.7027 H   0  0  0  0  0  0  0  0  0  0  0  0
  1 33  1  0  0  0  0
  1 34  1  0  0  0  0
  1 61  1  0  0  0  0
  2  4  1  0  0  0  0
  2 62  1  0  0  0  0
  2 63  1  0  0  0  0
  2 64  1  0  0  0  0
  3 33  2  0  0  0  0
  4  7  1  0  0  0  0
  4 65  1  0  0  0  0
  4 66  1  0  0  0  0
  5 38  1  0  0  0  0
  5 39  1  0  0  0  0
  5 67  1  0  0  0  0
  6 39  2  0  0  0  0
  7 10  1  0  0  0  0
  7 68  1  0  0  0  0
  7 69  1  0  0  0  0
  8 40  1  0  0  0  0
  8 43  2  0  0  0  0
  9 42  1  0  0  0  0
  9 43  1  0  0  0  0
 10 13  1  0  0  0  0
 10 70  1  0  0  0  0
 10 71  1  0  0  0  0
 11 54  1  0  0  0  0
 11 55  1  0  0  0  0
 11 72  1  0  0  0  0
 12 49  1  0  0  0  0
 12 73  1  0  0  0  0
 13 16  1  0  0  0  0
 13 74  1  0  0  0  0
 13 75  1  0  0  0  0
 14 59  1  0  0  0  0
 14 60  1  0  0  0  0
 14 76  1  0  0  0  0
 15 50  2  0  0  0  0
 16 18  1  0  0  0  0
 16 77  1  0  0  0  0
 16 78  1  0  0  0  0
 17 50  1  0  0  0  0
 17 51  1  0  0  0  0
 18 20  1  0  0  0  0
 18 79  1  0  0  0  0
 18 80  1  0  0  0  0
 19 54  2  0  0  0  0
 20 22  1  0  0  0  0
 20 81  1  0  0  0  0
 20 82  1  0  0  0  0
 21 60  2  0  0  0  0
 22 23  1  0  0  0  0
 22 83  1  0  0  0  0
 22 84  1  0  0  0  0
 23 24  1  0  0  0  0
 23 85  1  0  0  0  0
 23 86  1  0  0  0  0
 24 25  1  0  0  0  0
 24 87  1  0  0  0  0
 24 88  1  0  0  0  0
 25 26  1  0  0  0  0
 25 89  1  0  0  0  0
 25 90  1  0  0  0  0
 26 27  1  0  0  0  0
 26 91  1  0  0  0  0
 26 92  1  0  0  0  0
 27 28  1  0  0  0  0
 27 93  1  0  0  0  0
 27 94  1  0  0  0  0
 28 29  1  0  0  0  0
 28 95  1  0  0  0  0
 28 96  1  0  0  0  0
 29 30  1  0  0  0  0
 29 97  1  0  0  0  0
 29 98  1  0  0  0  0
 30 31  1  0  0  0  0
 30 99  1  0  0  0  0
 30100  1  0  0  0  0
 31 32  2  0  0  0  0
 31101  1  0  0  0  0
 32 33  1  0  0  0  0
 32102  1  0  0  0  0
 34 35  1  0  0  0  0
 34103  1  0  0  0  0
 34104  1  0  0  0  0
 35 36  1  0  0  0  0
 35105  1  0  0  0  0
 35106  1  0  0  0  0
 36 37  1  0  0  0  0
 36107  1  0  0  0  0
 36108  1  0  0  0  0
 37 38  1  0  0  0  0
 37109  1  0  0  0  0
 37110  1  0  0  0  0
 38 50  1  0  0  0  0
 38111  1  1  0  0  0
 40 39  1  1  0  0  0
 40 41  1  0  0  0  0
 40 42  1  0  0  0  0
 41112  1  0  0  0  0
 41113  1  0  0  0  0
 41114  1  0  0  0  0
 42115  1  0  0  0  0
 42116  1  0  0  0  0
 43 44  1  0  0  0  0
 44 45  2  0  0  0  0
 44 49  1  0  0  0  0
 45 46  1  0  0  0  0
 45117  1  0  0  0  0
 46 47  2  0  0  0  0
 46118  1  0  0  0  0
 47 48  1  0  0  0  0
 47119  1  0  0  0  0
 48 49  2  0  0  0  0
 48120  1  0  0  0  0
 51 52  1  0  0  0  0
 51 53  1  0  0  0  0
 51121  1  1  0  0  0
 52122  1  0  0  0  0
 52123  1  0  0  0  0
 52124  1  0  0  0  0
 53 54  1  0  0  0  0
 53125  1  0  0  0  0
 53126  1  0  0  0  0
 55 56  1  0  0  0  0
 55 60  1  0  0  0  0
 55127  1  6  0  0  0
 56 57  1  0  0  0  0
 56128  1  0  0  0  0
 56129  1  0  0  0  0
 57 58  1  0  0  0  0
 57130  1  0  0  0  0
 57131  1  0  0  0  0
 58 59  1  0  0  0  0
 58132  1  0  0  0  0
 58133  1  0  0  0  0
 59134  1  0  0  0  0
 59135  1  0  0  0  0
M  END
$$$$
/media/chris/experiments/cd1a-new-docking/inputs/ligands/7ryo_ligand.pdb
 OpenBabel07032304133D

135137  0  0  1  0  0  0  0  0999 V2000
  -37.9843   59.6092   60.1567 N   0  0  0  0  0  0  0  0  0  0  0  0
  -32.5290   59.7917   53.0481 C   0  0  0  0  0  0  0  0  0  0  0  0
  -37.6236   57.9151   58.7096 O   0  0  0  0  0  0  0  0  0  0  0  0
  -32.4752   58.3067   53.2942 C   0  0  0  0  0  0  0  0  0  0  0  0
  -33.6307   59.6738   61.5549 N   0  0  0  0  0  0  0  0  0  0  0  0
  -35.6230   60.7123   61.6331 O   0  0  0  0  0  0  0  0  0  0  0  0
  -33.6996   57.5702   52.7822 C   0  0  0  0  0  0  0  0  0  0  0  0
  -34.0918   62.9494   60.5215 N   0  0  0  0  0  0  0  0  0  0  0  0
  -32.0319   62.6868   59.6436 O   0  0  0  0  0  0  0  0  0  0  0  0
  -35.0127   58.0309   53.3944 C   0  0  0  0  0  0  0  0  0  0  0  0
  -33.5342   61.5470   66.8735 N   0  0  0  0  0  0  0  0  0  0  0  0
  -34.8341   65.6145   60.6261 O   0  0  0  0  0  0  0  0  0  0  0  0
  -35.3232   59.4975   53.1286 C   0  0  0  0  0  0  0  0  0  0  0  0
  -32.6935   64.6209   65.1594 N   0  0  0  0  0  0  0  0  0  0  0  0
  -32.0144   57.4691   63.2340 O   0  0  0  0  0  0  0  0  0  0  0  0
  -36.6265   59.9746   53.7506 C   0  0  0  0  0  0  0  0  0  0  0  0
  -32.6856   59.2067   64.5032 O   0  0  0  0  0  0  0  0  0  0  0  0
  -36.9516   61.4324   53.4756 C   0  0  0  0  0  0  0  0  0  0  0  0
  -32.3664   59.9013   67.8683 O   0  0  0  0  0  0  0  0  0  0  0  0
  -37.1085   61.7672   52.0013 C   0  0  0  0  0  0  0  0  0  0  0  0
  -32.7324   64.0345   67.3240 O   0  0  0  0  0  0  0  0  0  0  0  0
  -37.4157   63.2302   51.7500 C   0  0  0  0  0  0  0  0  0  0  0  0
  -38.6937   63.6853   52.4281 C   0  0  0  0  0  0  0  0  0  0  0  0
  -38.6825   63.5516   53.9376 C   0  0  0  0  0  0  0  0  0  0  0  0
  -39.9791   63.9983   54.5841 C   0  0  0  0  0  0  0  0  0  0  0  0
  -39.9725   63.8843   56.0995 C   0  0  0  0  0  0  0  0  0  0  0  0
  -39.7308   62.4720   56.5982 C   0  0  0  0  0  0  0  0  0  0  0  0
  -40.7579   61.4562   56.1265 C   0  0  0  0  0  0  0  0  0  0  0  0
  -40.5088   60.0521   56.6496 C   0  0  0  0  0  0  0  0  0  0  0  0
  -39.1556   59.4773   56.2492 C   0  0  0  0  0  0  0  0  0  0  0  0
  -38.0245   60.3050   56.7748 C   0  0  0  0  0  0  0  0  0  0  0  0
  -37.3921   60.1741   57.9330 C   0  0  0  0  0  0  0  0  0  0  0  0
  -37.6945   59.1333   58.9408 C   0  0  0  0  0  0  0  0  0  0  0  0
  -38.2360   58.7337   61.2903 C   0  0  0  0  0  0  0  0  0  0  0  0
  -36.9560   58.4330   62.0390 C   0  0  0  0  0  0  0  0  0  0  0  0
  -35.8780   57.7610   61.2090 C   0  0  0  0  0  0  0  0  0  0  0  0
  -34.6110   57.4590   62.0020 C   0  0  0  0  0  0  0  0  0  0  0  0
  -33.9807   58.7203   62.5945 C   0  0  1  0  0  0  0  0  0  0  0  0
  -34.5020   60.6047   61.1586 C   0  0  0  0  0  0  0  0  0  0  0  0
  -34.0610   61.5595   60.0371 C   0  0  1  0  0  0  0  0  0  0  0  0
  -35.0254   61.4209   58.8630 C   0  0  0  0  0  0  0  0  0  0  0  0
  -32.6027   61.3543   59.6010 C   0  0  0  0  0  0  0  0  0  0  0  0
  -32.9595   63.4607   60.2651 C   0  0  0  0  0  0  0  0  0  0  0  0
  -32.5411   64.8309   60.5703 C   0  0  0  0  0  0  0  0  0  0  0  0
  -31.2009   65.1105   60.8406 C   0  0  0  0  0  0  0  0  0  0  0  0
  -30.8314   66.3373   61.3646 C   0  0  0  0  0  0  0  0  0  0  0  0
  -31.7825   67.2995   61.6260 C   0  0  0  0  0  0  0  0  0  0  0  0
  -33.1179   67.0459   61.3712 C   0  0  0  0  0  0  0  0  0  0  0  0
  -33.5093   65.8181   60.8467 C   0  0  0  0  0  0  0  0  0  0  0  0
  -32.7733   58.3728   63.4524 C   0  0  0  0  0  0  0  0  0  0  0  0
  -31.3568   59.4821   65.0584 C   0  0  2  0  0  0  0  0  0  0  0  0
  -30.9768   58.3308   65.9549 C   0  0  0  0  0  0  0  0  0  0  0  0
  -31.4959   60.7854   65.8209 C   0  0  0  0  0  0  0  0  0  0  0  0
  -32.5001   60.7043   66.9491 C   0  0  0  0  0  0  0  0  0  0  0  0
  -33.6842   62.4802   65.7706 C   0  0  1  0  0  0  0  0  0  0  0  0
  -35.1701   62.7465   65.5044 C   0  0  0  0  0  0  0  0  0  0  0  0
  -35.4484   63.3297   64.1232 C   0  0  0  0  0  0  0  0  0  0  0  0
  -34.8148   64.6785   63.8457 C   0  0  0  0  0  0  0  0  0  0  0  0
  -33.3006   64.6614   63.8333 C   0  0  0  0  0  0  0  0  0  0  0  0
  -32.9951   63.7808   66.1520 C   0  0  0  0  0  0  0  0  0  0  0  0
  -38.0287   60.5838   60.2886 H   0  0  0  0  0  0  0  0  0  0  0  0
  -31.6407   60.2491   53.4308 H   0  0  0  0  0  0  0  0  0  0  0  0
  -33.3839   60.2043   53.5419 H   0  0  0  0  0  0  0  0  0  0  0  0
  -32.6008   59.9766   51.9966 H   0  0  0  0  0  0  0  0  0  0  0  0
  -32.3938   58.1396   54.3479 H   0  0  0  0  0  0  0  0  0  0  0  0
  -31.6295   57.9267   52.7600 H   0  0  0  0  0  0  0  0  0  0  0  0
  -32.7399   59.6327   61.1377 H   0  0  0  0  0  0  0  0  0  0  0  0
  -33.5777   56.5290   52.9969 H   0  0  0  0  0  0  0  0  0  0  0  0
  -33.7631   57.7759   51.7341 H   0  0  0  0  0  0  0  0  0  0  0  0
  -34.9643   57.8811   54.4527 H   0  0  0  0  0  0  0  0  0  0  0  0
  -35.7919   57.4559   52.9392 H   0  0  0  0  0  0  0  0  0  0  0  0
  -34.2138   61.5351   67.5856 H   0  0  0  0  0  0  0  0  0  0  0  0
  -35.1304   64.7984   60.2736 H   0  0  0  0  0  0  0  0  0  0  0  0
  -35.3822   59.6428   52.0701 H   0  0  0  0  0  0  0  0  0  0  0  0
  -34.5375   60.0677   53.5786 H   0  0  0  0  0  0  0  0  0  0  0  0
  -31.9874   65.2825   65.3412 H   0  0  0  0  0  0  0  0  0  0  0  0
  -36.5617   59.8395   54.8101 H   0  0  0  0  0  0  0  0  0  0  0  0
  -37.4090   59.3961   53.3057 H   0  0  0  0  0  0  0  0  0  0  0  0
  -36.1613   62.0337   53.8741 H   0  0  0  0  0  0  0  0  0  0  0  0
  -37.8958   61.6301   53.9384 H   0  0  0  0  0  0  0  0  0  0  0  0
  -37.9079   61.1785   51.6022 H   0  0  0  0  0  0  0  0  0  0  0  0
  -36.1745   61.5523   51.5255 H   0  0  0  0  0  0  0  0  0  0  0  0
  -37.5146   63.3830   50.6956 H   0  0  0  0  0  0  0  0  0  0  0  0
  -36.6108   63.8042   52.1595 H   0  0  0  0  0  0  0  0  0  0  0  0
  -39.5027   63.0984   52.0460 H   0  0  0  0  0  0  0  0  0  0  0  0
  -38.7984   64.7285   52.2143 H   0  0  0  0  0  0  0  0  0  0  0  0
  -37.8846   64.1492   54.3265 H   0  0  0  0  0  0  0  0  0  0  0  0
  -38.5536   62.5140   54.1650 H   0  0  0  0  0  0  0  0  0  0  0  0
  -40.7740   63.3922   54.2025 H   0  0  0  0  0  0  0  0  0  0  0  0
  -40.1081   65.0337   54.3472 H   0  0  0  0  0  0  0  0  0  0  0  0
  -40.9204   64.2164   56.4684 H   0  0  0  0  0  0  0  0  0  0  0  0
  -39.1644   64.4875   56.4574 H   0  0  0  0  0  0  0  0  0  0  0  0
  -39.7427   62.4881   57.6680 H   0  0  0  0  0  0  0  0  0  0  0  0
  -38.7884   62.1631   56.1965 H   0  0  0  0  0  0  0  0  0  0  0  0
  -40.7386   61.4272   55.0571 H   0  0  0  0  0  0  0  0  0  0  0  0
  -41.7072   61.7694   56.5079 H   0  0  0  0  0  0  0  0  0  0  0  0
  -41.2745   59.4094   56.2681 H   0  0  0  0  0  0  0  0  0  0  0  0
  -40.5183   60.1115   57.7179 H   0  0  0  0  0  0  0  0  0  0  0  0
  -39.0948   59.4453   55.1814 H   0  0  0  0  0  0  0  0  0  0  0  0
  -39.0732   58.4960   56.6678 H   0  0  0  0  0  0  0  0  0  0  0  0
  -37.6978   61.0688   56.1625 H   0  0  0  0  0  0  0  0  0  0  0  0
  -36.6369   60.8443   58.1463 H   0  0  0  0  0  0  0  0  0  0  0  0
  -38.6582   57.8163   60.9368 H   0  0  0  0  0  0  0  0  0  0  0  0
  -38.9129   59.2259   61.9570 H   0  0  0  0  0  0  0  0  0  0  0  0
  -37.1937   57.7896   62.8603 H   0  0  0  0  0  0  0  0  0  0  0  0
  -36.5565   59.3772   62.3453 H   0  0  0  0  0  0  0  0  0  0  0  0
  -35.6238   58.4067   60.3945 H   0  0  0  0  0  0  0  0  0  0  0  0
  -36.2729   56.8255   60.8717 H   0  0  0  0  0  0  0  0  0  0  0  0
  -33.9009   56.9930   61.3512 H   0  0  0  0  0  0  0  0  0  0  0  0
  -34.8793   56.8156   62.8138 H   0  0  0  0  0  0  0  0  0  0  0  0
  -34.7094   59.1851   63.2253 H   0  0  0  0  0  0  0  0  0  0  0  0
  -36.0281   61.5700   59.2056 H   0  0  0  0  0  0  0  0  0  0  0  0
  -34.9347   60.4420   58.4406 H   0  0  0  0  0  0  0  0  0  0  0  0
  -34.7899   62.1534   58.1195 H   0  0  0  0  0  0  0  0  0  0  0  0
  -32.0923   60.7003   60.2767 H   0  0  0  0  0  0  0  0  0  0  0  0
  -32.5220   60.9029   58.6342 H   0  0  0  0  0  0  0  0  0  0  0  0
  -30.4801   64.3974   60.6486 H   0  0  0  0  0  0  0  0  0  0  0  0
  -29.8372   66.5326   61.5606 H   0  0  0  0  0  0  0  0  0  0  0  0
  -31.4972   68.2125   62.0132 H   0  0  0  0  0  0  0  0  0  0  0  0
  -33.8262   67.7695   61.5708 H   0  0  0  0  0  0  0  0  0  0  0  0
  -30.5893   59.5766   64.3190 H   0  0  0  0  0  0  0  0  0  0  0  0
  -31.7241   58.2051   66.7103 H   0  0  0  0  0  0  0  0  0  0  0  0
  -30.0335   58.5347   66.4169 H   0  0  0  0  0  0  0  0  0  0  0  0
  -30.9031   57.4354   65.3737 H   0  0  0  0  0  0  0  0  0  0  0  0
  -31.8098   61.5479   65.1390 H   0  0  0  0  0  0  0  0  0  0  0  0
  -30.5432   61.0062   66.2550 H   0  0  0  0  0  0  0  0  0  0  0  0
  -33.2467   62.0705   64.8842 H   0  0  0  0  0  0  0  0  0  0  0  0
  -35.5274   63.4357   66.2407 H   0  0  0  0  0  0  0  0  0  0  0  0
  -35.6714   61.8024   65.5529 H   0  0  0  0  0  0  0  0  0  0  0  0
  -36.5079   63.4349   64.0170 H   0  0  0  0  0  0  0  0  0  0  0  0
  -35.0108   62.6494   63.4229 H   0  0  0  0  0  0  0  0  0  0  0  0
  -35.1366   65.3627   64.6028 H   0  0  0  0  0  0  0  0  0  0  0  0
  -35.1273   64.9694   62.8646 H   0  0  0  0  0  0  0  0  0  0  0  0
  -32.9789   63.7975   63.2901 H   0  0  0  0  0  0  0  0  0  0  0  0
  -32.9858   65.5772   63.3782 H   0  0  0  0  0  0  0  0  0  0  0  0
  1 33  1  0  0  0  0
  1 34  1  0  0  0  0
  1 61  1  0  0  0  0
  2  4  1  0  0  0  0
  2 62  1  0  0  0  0
  2 63  1  0  0  0  0
  2 64  1  0  0  0  0
  3 33  2  0  0  0  0
  4  7  1  0  0  0  0
  4 65  1  0  0  0  0
  4 66  1  0  0  0  0
  5 38  1  0  0  0  0
  5 39  1  0  0  0  0
  5 67  1  0  0  0  0
  6 39  2  0  0  0  0
  7 10  1  0  0  0  0
  7 68  1  0  0  0  0
  7 69  1  0  0  0  0
  8 40  1  0  0  0  0
  8 43  2  0  0  0  0
  9 42  1  0  0  0  0
  9 43  1  0  0  0  0
 10 13  1  0  0  0  0
 10 70  1  0  0  0  0
 10 71  1  0  0  0  0
 11 54  1  0  0  0  0
 11 55  1  0  0  0  0
 11 72  1  0  0  0  0
 12 49  1  0  0  0  0
 12 73  1  0  0  0  0
 13 16  1  0  0  0  0
 13 74  1  0  0  0  0
 13 75  1  0  0  0  0
 14 59  1  0  0  0  0
 14 60  1  0  0  0  0
 14 76  1  0  0  0  0
 15 50  2  0  0  0  0
 16 18  1  0  0  0  0
 16 77  1  0  0  0  0
 16 78  1  0  0  0  0
 17 50  1  0  0  0  0
 17 51  1  0  0  0  0
 18 20  1  0  0  0  0
 18 79  1  0  0  0  0
 18 80  1  0  0  0  0
 19 54  2  0  0  0  0
 20 22  1  0  0  0  0
 20 81  1  0  0  0  0
 20 82  1  0  0  0  0
 21 60  2  0  0  0  0
 22 23  1  0  0  0  0
 22 83  1  0  0  0  0
 22 84  1  0  0  0  0
 23 24  1  0  0  0  0
 23 85  1  0  0  0  0
 23 86  1  0  0  0  0
 24 25  1  0  0  0  0
 24 87  1  0  0  0  0
 24 88  1  0  0  0  0
 25 26  1  0  0  0  0
 25 89  1  0  0  0  0
 25 90  1  0  0  0  0
 26 27  1  0  0  0  0
 26 91  1  0  0  0  0
 26 92  1  0  0  0  0
 27 28  1  0  0  0  0
 27 93  1  0  0  0  0
 27 94  1  0  0  0  0
 28 29  1  0  0  0  0
 28 95  1  0  0  0  0
 28 96  1  0  0  0  0
 29 30  1  0  0  0  0
 29 97  1  0  0  0  0
 29 98  1  0  0  0  0
 30 31  1  0  0  0  0
 30 99  1  0  0  0  0
 30100  1  0  0  0  0
 31 32  2  0  0  0  0
 31101  1  0  0  0  0
 32 33  1  0  0  0  0
 32102  1  0  0  0  0
 34 35  1  0  0  0  0
 34103  1  0  0  0  0
 34104  1  0  0  0  0
 35 36  1  0  0  0  0
 35105  1  0  0  0  0
 35106  1  0  0  0  0
 36 37  1  0  0  0  0
 36107  1  0  0  0  0
 36108  1  0  0  0  0
 37 38  1  0  0  0  0
 37109  1  0  0  0  0
 37110  1  0  0  0  0
 38 50  1  0  0  0  0
 38111  1  1  0  0  0
 40 39  1  1  0  0  0
 40 41  1  0  0  0  0
 40 42  1  0  0  0  0
 41112  1  0  0  0  0
 41113  1  0  0  0  0
 41114  1  0  0  0  0
 42115  1  0  0  0  0
 42116  1  0  0  0  0
 43 44  1  0  0  0  0
 44 45  2  0  0  0  0
 44 49  1  0  0  0  0
 45 46  1  0  0  0  0
 45117  1  0  0  0  0
 46 47  2  0  0  0  0
 46118  1  0  0  0  0
 47 48  1  0  0  0  0
 47119  1  0  0  0  0
 48 49  2  0  0  0  0
 48120  1  0  0  0  0
 51 52  1  0  0  0  0
 51 53  1  0  0  0  0
 51121  1  6  0  0  0
 52122  1  0  0  0  0
 52123  1  0  0  0  0
 52124  1  0  0  0  0
 53 54  1  0  0  0  0
 53125  1  0  0  0  0
 53126  1  0  0  0  0
 55 56  1  0  0  0  0
 55 60  1  0  0  0  0
 55127  1  6  0  0  0
 56 57  1  0  0  0  0
 56128  1  0  0  0  0
 56129  1  0  0  0  0
 57 58  1  0  0  0  0
 57130  1  0  0  0  0
 57131  1  0  0  0  0
 58 59  1  0  0  0  0
 58132  1  0  0  0  0
 58133  1  0  0  0  0
 59134  1  0  0  0  0
 59135  1  0  0  0  0
M  END
$$$$
/media/chris/experiments/cd1a-new-docking/inputs/ligands/7ryo_ligand.pdb
 OpenBabel07032304133D

135137  0  0  1  0  0  0  0  0999 V2000
  -39.2043   59.3899   62.1545 N   0  0  0  0  0  0  0  0  0  0  0  0
  -39.9108   60.6918   51.5308 C   0  0  0  0  0  0  0  0  0  0  0  0
  -37.6388   60.3824   63.4421 O   0  0  0  0  0  0  0  0  0  0  0  0
  -39.0574   61.3038   52.6105 C   0  0  0  0  0  0  0  0  0  0  0  0
  -33.6307   59.6738   61.5549 N   0  0  0  0  0  0  0  0  0  0  0  0
  -33.3713   61.8233   60.9498 O   0  0  0  0  0  0  0  0  0  0  0  0
  -39.8673   61.9241   53.7344 C   0  0  0  0  0  0  0  0  0  0  0  0
  -34.2758   60.2700   64.0691 N   0  0  0  0  0  0  0  0  0  0  0  0
  -32.7619   61.4825   65.2184 O   0  0  0  0  0  0  0  0  0  0  0  0
  -39.0329   62.5652   54.8316 C   0  0  0  0  0  0  0  0  0  0  0  0
  -30.1259   62.7907   63.3869 N   0  0  0  0  0  0  0  0  0  0  0  0
  -35.7078   58.5747   65.7245 O   0  0  0  0  0  0  0  0  0  0  0  0
  -38.1525   63.7041   54.3357 C   0  0  0  0  0  0  0  0  0  0  0  0
  -27.7730   63.6515   60.7761 N   0  0  0  0  0  0  0  0  0  0  0  0
  -32.6005   57.3178   63.9976 O   0  0  0  0  0  0  0  0  0  0  0  0
  -38.9272   64.8612   53.7241 C   0  0  0  0  0  0  0  0  0  0  0  0
  -31.9347   59.4204   63.5328 O   0  0  0  0  0  0  0  0  0  0  0  0
  -39.8967   65.5361   54.6787 C   0  0  0  0  0  0  0  0  0  0  0  0
  -30.5172   61.5562   65.2266 O   0  0  0  0  0  0  0  0  0  0  0  0
  -39.2382   66.1472   55.9048 C   0  0  0  0  0  0  0  0  0  0  0  0
  -28.2132   64.5290   62.7927 O   0  0  0  0  0  0  0  0  0  0  0  0
  -38.4823   65.1359   56.7437 C   0  0  0  0  0  0  0  0  0  0  0  0
  -37.8443   65.7542   57.9728 C   0  0  0  0  0  0  0  0  0  0  0  0
  -38.8276   66.3895   58.9352 C   0  0  0  0  0  0  0  0  0  0  0  0
  -38.1583   67.0132   60.1442 C   0  0  0  0  0  0  0  0  0  0  0  0
  -37.3495   66.0245   60.9676 C   0  0  0  0  0  0  0  0  0  0  0  0
  -38.1733   64.8696   61.5052 C   0  0  0  0  0  0  0  0  0  0  0  0
  -37.3878   63.8771   62.3462 C   0  0  0  0  0  0  0  0  0  0  0  0
  -38.2255   62.7195   62.8611 C   0  0  0  0  0  0  0  0  0  0  0  0
  -39.4000   63.1492   63.7317 C   0  0  0  0  0  0  0  0  0  0  0  0
  -40.1824   61.9731   64.2267 C   0  0  0  0  0  0  0  0  0  0  0  0
  -39.9555   60.6883   63.9887 C   0  0  0  0  0  0  0  0  0  0  0  0
  -38.8330   60.1717   63.1742 C   0  0  0  0  0  0  0  0  0  0  0  0
  -38.2360   58.7337   61.2903 C   0  0  0  0  0  0  0  0  0  0  0  0
  -36.9560   58.4330   62.0390 C   0  0  0  0  0  0  0  0  0  0  0  0
  -35.8780   57.7610   61.2090 C   0  0  0  0  0  0  0  0  0  0  0  0
  -34.6110   57.4590   62.0020 C   0  0  0  0  0  0  0  0  0  0  0  0
  -33.9807   58.7203   62.5945 C   0  0  1  0  0  0  0  0  0  0  0  0
  -33.6460   60.9867   61.7972 C   0  0  0  0  0  0  0  0  0  0  0  0
  -34.0068   61.4427   63.2206 C   0  0  1  0  0  0  0  0  0  0  0  0
  -35.2610   62.3093   63.1583 C   0  0  0  0  0  0  0  0  0  0  0  0
  -32.8557   62.1610   63.9401 C   0  0  0  0  0  0  0  0  0  0  0  0
  -33.5589   60.3878   65.1091 C   0  0  0  0  0  0  0  0  0  0  0  0
  -33.5046   59.4487   66.2320 C   0  0  0  0  0  0  0  0  0  0  0  0
  -32.3274   59.3026   66.9669 C   0  0  0  0  0  0  0  0  0  0  0  0
  -32.1841   58.2571   67.8628 C   0  0  0  0  0  0  0  0  0  0  0  0
  -33.2026   57.3464   68.0411 C   0  0  0  0  0  0  0  0  0  0  0  0
  -34.3777   57.4661   67.3217 C   0  0  0  0  0  0  0  0  0  0  0  0
  -34.5398   58.5088   66.4150 C   0  0  0  0  0  0  0  0  0  0  0  0
  -32.7733   58.3728   63.4524 C   0  0  0  0  0  0  0  0  0  0  0  0
  -30.5069   59.1499   63.7276 C   0  0  2  0  0  0  0  0  0  0  0  0
  -30.2794   58.8699   65.1916 C   0  0  0  0  0  0  0  0  0  0  0  0
  -29.7878   60.4007   63.2609 C   0  0  0  0  0  0  0  0  0  0  0  0
  -30.1736   61.6319   64.0503 C   0  0  0  0  0  0  0  0  0  0  0  0
  -29.7314   62.8598   61.9908 C   0  0  1  0  0  0  0  0  0  0  0  0
  -30.8690   63.4510   61.1506 C   0  0  0  0  0  0  0  0  0  0  0  0
  -30.7458   63.1542   59.6600 C   0  0  0  0  0  0  0  0  0  0  0  0
  -29.5093   63.7131   58.9844 C   0  0  0  0  0  0  0  0  0  0  0  0
  -28.2080   63.1240   59.4873 C   0  0  0  0  0  0  0  0  0  0  0  0
  -28.5056   63.7534   61.8873 C   0  0  0  0  0  0  0  0  0  0  0  0
  -40.1642   59.2544   61.9833 H   0  0  0  0  0  0  0  0  0  0  0  0
  -39.2817   60.2743   50.7727 H   0  0  0  0  0  0  0  0  0  0  0  0
  -40.5360   61.4458   51.1001 H   0  0  0  0  0  0  0  0  0  0  0  0
  -40.5210   59.9207   51.9526 H   0  0  0  0  0  0  0  0  0  0  0  0
  -38.4473   62.0651   52.1709 H   0  0  0  0  0  0  0  0  0  0  0  0
  -38.4725   60.5162   53.0377 H   0  0  0  0  0  0  0  0  0  0  0  0
  -33.3791   59.3474   60.6608 H   0  0  0  0  0  0  0  0  0  0  0  0
  -40.4683   61.1570   54.1763 H   0  0  0  0  0  0  0  0  0  0  0  0
  -40.4477   62.7084   53.2951 H   0  0  0  0  0  0  0  0  0  0  0  0
  -38.4046   61.8139   55.2624 H   0  0  0  0  0  0  0  0  0  0  0  0
  -39.7144   62.9807   55.5442 H   0  0  0  0  0  0  0  0  0  0  0  0
  -30.3651   63.6215   63.8579 H   0  0  0  0  0  0  0  0  0  0  0  0
  -35.8483   59.2648   65.1064 H   0  0  0  0  0  0  0  0  0  0  0  0
  -37.4856   63.3161   53.5944 H   0  0  0  0  0  0  0  0  0  0  0  0
  -37.6373   64.0924   55.1894 H   0  0  0  0  0  0  0  0  0  0  0  0
  -26.8414   63.9651   60.8321 H   0  0  0  0  0  0  0  0  0  0  0  0
  -39.4832   64.4885   52.8893 H   0  0  0  0  0  0  0  0  0  0  0  0
  -38.2057   65.6006   53.4453 H   0  0  0  0  0  0  0  0  0  0  0  0
  -40.6069   64.8064   55.0075 H   0  0  0  0  0  0  0  0  0  0  0  0
  -40.3500   66.3412   54.1391 H   0  0  0  0  0  0  0  0  0  0  0  0
  -39.9981   66.5928   56.5122 H   0  0  0  0  0  0  0  0  0  0  0  0
  -38.5270   66.8674   55.5578 H   0  0  0  0  0  0  0  0  0  0  0  0
  -37.7130   64.6988   56.1420 H   0  0  0  0  0  0  0  0  0  0  0  0
  -39.1867   64.4036   57.0792 H   0  0  0  0  0  0  0  0  0  0  0  0
  -37.1572   66.5083   57.6499 H   0  0  0  0  0  0  0  0  0  0  0  0
  -37.3683   64.9567   58.5041 H   0  0  0  0  0  0  0  0  0  0  0  0
  -39.5079   65.6361   59.2736 H   0  0  0  0  0  0  0  0  0  0  0  0
  -39.3286   67.1741   58.4078 H   0  0  0  0  0  0  0  0  0  0  0  0
  -38.9161   67.4353   60.7706 H   0  0  0  0  0  0  0  0  0  0  0  0
  -37.4751   67.7515   59.7794 H   0  0  0  0  0  0  0  0  0  0  0  0
  -36.9173   66.5467   61.7956 H   0  0  0  0  0  0  0  0  0  0  0  0
  -36.6073   65.6074   60.3195 H   0  0  0  0  0  0  0  0  0  0  0  0
  -38.5953   64.3440   60.6742 H   0  0  0  0  0  0  0  0  0  0  0  0
  -38.9144   65.2960   62.1485 H   0  0  0  0  0  0  0  0  0  0  0  0
  -36.9761   64.3966   63.1861 H   0  0  0  0  0  0  0  0  0  0  0  0
  -36.6311   63.4604   61.7147 H   0  0  0  0  0  0  0  0  0  0  0  0
  -37.5944   62.0773   63.4391 H   0  0  0  0  0  0  0  0  0  0  0  0
  -38.6365   62.2272   62.0045 H   0  0  0  0  0  0  0  0  0  0  0  0
  -40.0465   63.7781   63.1559 H   0  0  0  0  0  0  0  0  0  0  0  0
  -39.0118   63.6725   64.5804 H   0  0  0  0  0  0  0  0  0  0  0  0
  -40.9956   62.1876   64.8247 H   0  0  0  0  0  0  0  0  0  0  0  0
  -40.6066   60.0013   64.4000 H   0  0  0  0  0  0  0  0  0  0  0  0
  -38.0148   59.3748   60.4627 H   0  0  0  0  0  0  0  0  0  0  0  0
  -38.6554   57.8106   60.9484 H   0  0  0  0  0  0  0  0  0  0  0  0
  -37.1937   57.7896   62.8603 H   0  0  0  0  0  0  0  0  0  0  0  0
  -36.5565   59.3772   62.3453 H   0  0  0  0  0  0  0  0  0  0  0  0
  -35.6238   58.4067   60.3945 H   0  0  0  0  0  0  0  0  0  0  0  0
  -36.2729   56.8255   60.8717 H   0  0  0  0  0  0  0  0  0  0  0  0
  -33.9009   56.9930   61.3512 H   0  0  0  0  0  0  0  0  0  0  0  0
  -34.8793   56.8156   62.8138 H   0  0  0  0  0  0  0  0  0  0  0  0
  -34.7094   59.1851   63.2253 H   0  0  0  0  0  0  0  0  0  0  0  0
  -36.0381   61.7762   62.6515 H   0  0  0  0  0  0  0  0  0  0  0  0
  -35.0441   63.2130   62.6282 H   0  0  0  0  0  0  0  0  0  0  0  0
  -35.5804   62.5464   64.1517 H   0  0  0  0  0  0  0  0  0  0  0  0
  -31.9433   62.0629   63.3898 H   0  0  0  0  0  0  0  0  0  0  0  0
  -33.0275   63.2120   64.0439 H   0  0  0  0  0  0  0  0  0  0  0  0
  -31.5581   59.9789   66.8416 H   0  0  0  0  0  0  0  0  0  0  0  0
  -31.3088   58.1592   68.4007 H   0  0  0  0  0  0  0  0  0  0  0  0
  -33.0882   56.5723   68.7139 H   0  0  0  0  0  0  0  0  0  0  0  0
  -35.1364   56.7799   67.4578 H   0  0  0  0  0  0  0  0  0  0  0  0
  -30.1480   58.3024   63.1818 H   0  0  0  0  0  0  0  0  0  0  0  0
  -30.6273   59.6990   65.7716 H   0  0  0  0  0  0  0  0  0  0  0  0
  -29.2342   58.7243   65.3687 H   0  0  0  0  0  0  0  0  0  0  0  0
  -30.8151   57.9876   65.4735 H   0  0  0  0  0  0  0  0  0  0  0  0
  -30.0260   60.5672   62.2311 H   0  0  0  0  0  0  0  0  0  0  0  0
  -28.7398   60.2415   63.4070 H   0  0  0  0  0  0  0  0  0  0  0  0
  -29.5115   61.8786   61.6251 H   0  0  0  0  0  0  0  0  0  0  0  0
  -30.8721   64.5126   61.2849 H   0  0  0  0  0  0  0  0  0  0  0  0
  -31.7768   62.9953   61.4870 H   0  0  0  0  0  0  0  0  0  0  0  0
  -31.6036   63.5650   59.1698 H   0  0  0  0  0  0  0  0  0  0  0  0
  -30.6707   62.0901   59.5771 H   0  0  0  0  0  0  0  0  0  0  0  0
  -29.4853   64.7700   59.1496 H   0  0  0  0  0  0  0  0  0  0  0  0
  -29.5827   63.4575   57.9480 H   0  0  0  0  0  0  0  0  0  0  0  0
  -28.3332   62.0656   59.5825 H   0  0  0  0  0  0  0  0  0  0  0  0
  -27.4543   63.3891   58.7755 H   0  0  0  0  0  0  0  0  0  0  0  0
  1 33  1  0  0  0  0
  1 34  1  0  0  0  0
  1 61  1  0  0  0  0
  2  4  1  0  0  0  0
  2 62  1  0  0  0  0
  2 63  1  0  0  0  0
  2 64  1  0  0  0  0
  3 33  2  0  0  0  0
  4  7  1  0  0  0  0
  4 65  1  0  0  0  0
  4 66  1  0  0  0  0
  5 38  1  0  0  0  0
  5 39  1  0  0  0  0
  5 67  1  0  0  0  0
  6 39  2  0  0  0  0
  7 10  1  0  0  0  0
  7 68  1  0  0  0  0
  7 69  1  0  0  0  0
  8 40  1  0  0  0  0
  8 43  2  0  0  0  0
  9 42  1  0  0  0  0
  9 43  1  0  0  0  0
 10 13  1  0  0  0  0
 10 70  1  0  0  0  0
 10 71  1  0  0  0  0
 11 54  1  0  0  0  0
 11 55  1  0  0  0  0
 11 72  1  0  0  0  0
 12 49  1  0  0  0  0
 12 73  1  0  0  0  0
 13 16  1  0  0  0  0
 13 74  1  0  0  0  0
 13 75  1  0  0  0  0
 14 59  1  0  0  0  0
 14 60  1  0  0  0  0
 14 76  1  0  0  0  0
 15 50  2  0  0  0  0
 16 18  1  0  0  0  0
 16 77  1  0  0  0  0
 16 78  1  0  0  0  0
 17 50  1  0  0  0  0
 17 51  1  0  0  0  0
 18 20  1  0  0  0  0
 18 79  1  0  0  0  0
 18 80  1  0  0  0  0
 19 54  2  0  0  0  0
 20 22  1  0  0  0  0
 20 81  1  0  0  0  0
 20 82  1  0  0  0  0
 21 60  2  0  0  0  0
 22 23  1  0  0  0  0
 22 83  1  0  0  0  0
 22 84  1  0  0  0  0
 23 24  1  0  0  0  0
 23 85  1  0  0  0  0
 23 86  1  0  0  0  0
 24 25  1  0  0  0  0
 24 87  1  0  0  0  0
 24 88  1  0  0  0  0
 25 26  1  0  0  0  0
 25 89  1  0  0  0  0
 25 90  1  0  0  0  0
 26 27  1  0  0  0  0
 26 91  1  0  0  0  0
 26 92  1  0  0  0  0
 27 28  1  0  0  0  0
 27 93  1  0  0  0  0
 27 94  1  0  0  0  0
 28 29  1  0  0  0  0
 28 95  1  0  0  0  0
 28 96  1  0  0  0  0
 29 30  1  0  0  0  0
 29 97  1  0  0  0  0
 29 98  1  0  0  0  0
 30 31  1  0  0  0  0
 30 99  1  0  0  0  0
 30100  1  0  0  0  0
 31 32  2  0  0  0  0
 31101  1  0  0  0  0
 32 33  1  0  0  0  0
 32102  1  0  0  0  0
 34 35  1  0  0  0  0
 34103  1  0  0  0  0
 34104  1  0  0  0  0
 35 36  1  0  0  0  0
 35105  1  0  0  0  0
 35106  1  0  0  0  0
 36 37  1  0  0  0  0
 36107  1  0  0  0  0
 36108  1  0  0  0  0
 37 38  1  0  0  0  0
 37109  1  0  0  0  0
 37110  1  0  0  0  0
 38 50  1  0  0  0  0
 38111  1  1  0  0  0
 40 39  1  6  0  0  0
 40 41  1  0  0  0  0
 40 42  1  0  0  0  0
 41112  1  0  0  0  0
 41113  1  0  0  0  0
 41114  1  0  0  0  0
 42115  1  0  0  0  0
 42116  1  0  0  0  0
 43 44  1  0  0  0  0
 44 45  2  0  0  0  0
 44 49  1  0  0  0  0
 45 46  1  0  0  0  0
 45117  1  0  0  0  0
 46 47  2  0  0  0  0
 46118  1  0  0  0  0
 47 48  1  0  0  0  0
 47119  1  0  0  0  0
 48 49  2  0  0  0  0
 48120  1  0  0  0  0
 51 52  1  0  0  0  0
 51 53  1  0  0  0  0
 51121  1  6  0  0  0
 52122  1  0  0  0  0
 52123  1  0  0  0  0
 52124  1  0  0  0  0
 53 54  1  0  0  0  0
 53125  1  0  0  0  0
 53126  1  0  0  0  0
 55 56  1  0  0  0  0
 55 60  1  0  0  0  0
 55127  1  6  0  0  0
 56 57  1  0  0  0  0
 56128  1  0  0  0  0
 56129  1  0  0  0  0
 57 58  1  0  0  0  0
 57130  1  0  0  0  0
 57131  1  0  0  0  0
 58 59  1  0  0  0  0
 58132  1  0  0  0  0
 58133  1  0  0  0  0
 59134  1  0  0  0  0
 59135  1  0  0  0  0
M  END
$$$$
/media/chris/experiments/cd1a-new-docking/inputs/ligands/7ryo_ligand.pdb
 OpenBabel07032304133D

135137  0  0  1  0  0  0  0  0999 V2000
  -38.4618   58.3450   63.9648 N   0  0  0  0  0  0  0  0  0  0  0  0
  -48.8840   65.9695   65.5251 C   0  0  0  0  0  0  0  0  0  0  0  0
  -39.4786   56.4632   64.6850 O   0  0  0  0  0  0  0  0  0  0  0  0
  -49.2497   64.6492   64.8992 C   0  0  0  0  0  0  0  0  0  0  0  0
  -34.0017   55.5459   60.5756 N   0  0  0  0  0  0  0  0  0  0  0  0
  -33.2801   54.3165   62.3139 O   0  0  0  0  0  0  0  0  0  0  0  0
  -48.5120   64.3773   63.6008 C   0  0  0  0  0  0  0  0  0  0  0  0
  -34.7459   52.1293   61.5622 N   0  0  0  0  0  0  0  0  0  0  0  0
  -36.5097   52.2868   60.1667 O   0  0  0  0  0  0  0  0  0  0  0  0
  -48.8731   63.0585   62.9364 C   0  0  0  0  0  0  0  0  0  0  0  0
  -30.1302   58.5282   64.2751 N   0  0  0  0  0  0  0  0  0  0  0  0
  -38.4618   50.7923   60.3169 O   0  0  0  0  0  0  0  0  0  0  0  0
  -48.1080   62.8012   61.6454 C   0  0  0  0  0  0  0  0  0  0  0  0
  -27.8399   61.2451   64.9580 N   0  0  0  0  0  0  0  0  0  0  0  0
  -31.2210   56.1784   61.4905 O   0  0  0  0  0  0  0  0  0  0  0  0
  -48.4733   61.4923   60.9625 C   0  0  0  0  0  0  0  0  0  0  0  0
  -32.4428   56.9252   63.2313 O   0  0  0  0  0  0  0  0  0  0  0  0
  -48.2354   60.2573   61.8139 C   0  0  0  0  0  0  0  0  0  0  0  0
  -31.4653   59.4698   65.8220 O   0  0  0  0  0  0  0  0  0  0  0  0
  -46.7932   60.0768   62.2584 C   0  0  0  0  0  0  0  0  0  0  0  0
  -29.1024   59.9379   66.2726 O   0  0  0  0  0  0  0  0  0  0  0  0
  -46.5765   58.8294   63.0923 C   0  0  0  0  0  0  0  0  0  0  0  0
  -45.1376   58.6693   63.5439 C   0  0  0  0  0  0  0  0  0  0  0  0
  -44.8755   57.4240   64.3670 C   0  0  0  0  0  0  0  0  0  0  0  0
  -45.7051   57.3633   65.6346 C   0  0  0  0  0  0  0  0  0  0  0  0
  -45.4376   56.1265   66.4763 C   0  0  0  0  0  0  0  0  0  0  0  0
  -44.0014   56.0192   66.9531 C   0  0  0  0  0  0  0  0  0  0  0  0
  -43.5444   57.1722   67.8312 C   0  0  0  0  0  0  0  0  0  0  0  0
  -42.0994   57.0555   68.2844 C   0  0  0  0  0  0  0  0  0  0  0  0
  -41.0951   57.0308   67.1387 C   0  0  0  0  0  0  0  0  0  0  0  0
  -41.1565   58.2830   66.3209 C   0  0  0  0  0  0  0  0  0  0  0  0
  -40.4379   58.5894   65.2493 C   0  0  0  0  0  0  0  0  0  0  0  0
  -39.4216   57.7030   64.6396 C   0  0  0  0  0  0  0  0  0  0  0  0
  -37.4201   57.6362   63.2386 C   0  0  0  0  0  0  0  0  0  0  0  0
  -36.9560   58.4330   62.0390 C   0  0  0  0  0  0  0  0  0  0  0  0
  -35.8780   57.7610   61.2090 C   0  0  0  0  0  0  0  0  0  0  0  0
  -34.6110   57.4590   62.0020 C   0  0  0  0  0  0  0  0  0  0  0  0
  -33.5311   56.7980   61.1441 C   0  0  1  0  0  0  0  0  0  0  0  0
  -33.8304   54.3921   61.2255 C   0  0  0  0  0  0  0  0  0  0  0  0
  -34.3365   53.1103   60.5436 C   0  0  1  0  0  0  0  0  0  0  0  0
  -33.2067   52.5167   59.7077 C   0  0  0  0  0  0  0  0  0  0  0  0
  -35.6075   53.3258   59.7088 C   0  0  0  0  0  0  0  0  0  0  0  0
  -35.9221   51.7544   61.2698 C   0  0  0  0  0  0  0  0  0  0  0  0
  -36.7279   50.7809   62.0106 C   0  0  0  0  0  0  0  0  0  0  0  0
  -36.2126   50.1711   63.1551 C   0  0  0  0  0  0  0  0  0  0  0  0
  -36.8546   49.0828   63.7205 C   0  0  0  0  0  0  0  0  0  0  0  0
  -38.0118   48.5870   63.1604 C   0  0  0  0  0  0  0  0  0  0  0  0
  -38.5407   49.1703   62.0235 C   0  0  0  0  0  0  0  0  0  0  0  0
  -37.9088   50.2636   61.4394 C   0  0  0  0  0  0  0  0  0  0  0  0
  -32.2521   56.5942   61.9423 C   0  0  0  0  0  0  0  0  0  0  0  0
  -31.6639   56.2146   64.2502 C   0  0  2  0  0  0  0  0  0  0  0  0
  -32.3291   54.8856   64.5048 C   0  0  0  0  0  0  0  0  0  0  0  0
  -31.6789   57.1110   65.4731 C   0  0  0  0  0  0  0  0  0  0  0  0
  -31.0823   58.4759   65.2111 C   0  0  0  0  0  0  0  0  0  0  0  0
  -29.4778   59.7744   63.9131 C   0  0  1  0  0  0  0  0  0  0  0  0
  -30.5145   60.7846   63.4088 C   0  0  0  0  0  0  0  0  0  0  0  0
  -29.9113   61.9253   62.5964 C   0  0  0  0  0  0  0  0  0  0  0  0
  -28.9257   62.8046   63.3401 C   0  0  0  0  0  0  0  0  0  0  0  0
  -27.6659   62.0890   63.7807 C   0  0  0  0  0  0  0  0  0  0  0  0
  -28.7897   60.3273   65.1512 C   0  0  0  0  0  0  0  0  0  0  0  0
  -38.4605   59.3295   63.9595 H   0  0  0  0  0  0  0  0  0  0  0  0
  -49.4360   66.0992   66.4324 H   0  0  0  0  0  0  0  0  0  0  0  0
  -49.1202   66.7631   64.8473 H   0  0  0  0  0  0  0  0  0  0  0  0
  -47.8359   65.9842   65.7401 H   0  0  0  0  0  0  0  0  0  0  0  0
  -50.3009   64.6471   64.6998 H   0  0  0  0  0  0  0  0  0  0  0  0
  -48.9697   63.8818   65.5903 H   0  0  0  0  0  0  0  0  0  0  0  0
  -34.4524   55.5484   59.7004 H   0  0  0  0  0  0  0  0  0  0  0  0
  -47.4622   64.3712   63.8075 H   0  0  0  0  0  0  0  0  0  0  0  0
  -48.7991   65.1507   62.9194 H   0  0  0  0  0  0  0  0  0  0  0  0
  -49.9198   63.0663   62.7142 H   0  0  0  0  0  0  0  0  0  0  0  0
  -48.6100   62.2785   63.6199 H   0  0  0  0  0  0  0  0  0  0  0  0
  -29.8633   57.6983   63.8177 H   0  0  0  0  0  0  0  0  0  0  0  0
  -38.0607   51.5290   59.8993 H   0  0  0  0  0  0  0  0  0  0  0  0
  -47.0624   62.7827   61.8717 H   0  0  0  0  0  0  0  0  0  0  0  0
  -48.3683   63.5878   60.9683 H   0  0  0  0  0  0  0  0  0  0  0  0
  -27.1885   61.3652   65.6864 H   0  0  0  0  0  0  0  0  0  0  0  0
  -47.8869   61.4037   60.0718 H   0  0  0  0  0  0  0  0  0  0  0  0
  -49.5242   61.5316   60.7652 H   0  0  0  0  0  0  0  0  0  0  0  0
  -48.5217   59.3973   61.2454 H   0  0  0  0  0  0  0  0  0  0  0  0
  -48.8186   60.3790   62.7027 H   0  0  0  0  0  0  0  0  0  0  0  0
  -46.5075   60.9283   62.8399 H   0  0  0  0  0  0  0  0  0  0  0  0
  -46.1986   59.9754   61.3746 H   0  0  0  0  0  0  0  0  0  0  0  0
  -46.8488   57.9755   62.5078 H   0  0  0  0  0  0  0  0  0  0  0  0
  -47.1824   58.9182   63.9697 H   0  0  0  0  0  0  0  0  0  0  0  0
  -44.8751   59.5222   64.1342 H   0  0  0  0  0  0  0  0  0  0  0  0
  -44.5469   58.5789   62.6563 H   0  0  0  0  0  0  0  0  0  0  0  0
  -43.8401   57.4057   64.6365 H   0  0  0  0  0  0  0  0  0  0  0  0
  -45.1483   56.5815   63.7666 H   0  0  0  0  0  0  0  0  0  0  0  0
  -46.7399   57.3704   65.3626 H   0  0  0  0  0  0  0  0  0  0  0  0
  -45.4352   58.2118   66.2280 H   0  0  0  0  0  0  0  0  0  0  0  0
  -45.6653   55.2614   65.8893 H   0  0  0  0  0  0  0  0  0  0  0  0
  -46.0544   56.1989   67.3477 H   0  0  0  0  0  0  0  0  0  0  0  0
  -43.3653   55.9804   66.0936 H   0  0  0  0  0  0  0  0  0  0  0  0
  -43.9440   55.1358   67.5542 H   0  0  0  0  0  0  0  0  0  0  0  0
  -44.1696   57.2050   68.6989 H   0  0  0  0  0  0  0  0  0  0  0  0
  -43.6179   58.0629   67.2429 H   0  0  0  0  0  0  0  0  0  0  0  0
  -41.9938   56.1503   68.8451 H   0  0  0  0  0  0  0  0  0  0  0  0
  -41.8848   57.9263   68.8681 H   0  0  0  0  0  0  0  0  0  0  0  0
  -41.3097   56.1938   66.5076 H   0  0  0  0  0  0  0  0  0  0  0  0
  -40.1135   56.9540   67.5574 H   0  0  0  0  0  0  0  0  0  0  0  0
  -41.8398   58.9929   66.6278 H   0  0  0  0  0  0  0  0  0  0  0  0
  -40.5985   59.5094   64.8102 H   0  0  0  0  0  0  0  0  0  0  0  0
  -37.8045   56.6947   62.9057 H   0  0  0  0  0  0  0  0  0  0  0  0
  -36.5868   57.4908   63.8939 H   0  0  0  0  0  0  0  0  0  0  0  0
  -36.5724   59.3687   62.3887 H   0  0  0  0  0  0  0  0  0  0  0  0
  -37.8072   58.5391   61.3994 H   0  0  0  0  0  0  0  0  0  0  0  0
  -35.6238   58.4067   60.3945 H   0  0  0  0  0  0  0  0  0  0  0  0
  -36.2729   56.8255   60.8717 H   0  0  0  0  0  0  0  0  0  0  0  0
  -34.8590   56.8018   62.8091 H   0  0  0  0  0  0  0  0  0  0  0  0
  -34.2203   58.3886   62.3599 H   0  0  0  0  0  0  0  0  0  0  0  0
  -33.3097   57.4574   60.3310 H   0  0  0  0  0  0  0  0  0  0  0  0
  -32.3413   52.3817   60.3222 H   0  0  0  0  0  0  0  0  0  0  0  0
  -32.9721   53.1808   58.9022 H   0  0  0  0  0  0  0  0  0  0  0  0
  -33.5144   51.5712   59.3123 H   0  0  0  0  0  0  0  0  0  0  0  0
  -36.0215   54.2957   59.8900 H   0  0  0  0  0  0  0  0  0  0  0  0
  -35.4219   53.2750   58.6562 H   0  0  0  0  0  0  0  0  0  0  0  0
  -35.3466   50.5342   63.5832 H   0  0  0  0  0  0  0  0  0  0  0  0
  -36.4640   48.6400   64.5669 H   0  0  0  0  0  0  0  0  0  0  0  0
  -38.4855   47.7775   63.5909 H   0  0  0  0  0  0  0  0  0  0  0  0
  -39.4066   48.7936   61.6072 H   0  0  0  0  0  0  0  0  0  0  0  0
  -30.6532   56.0146   63.9616 H   0  0  0  0  0  0  0  0  0  0  0  0
  -33.3459   55.0459   64.7970 H   0  0  0  0  0  0  0  0  0  0  0  0
  -31.8104   54.3710   65.2865 H   0  0  0  0  0  0  0  0  0  0  0  0
  -32.3032   54.2968   63.6118 H   0  0  0  0  0  0  0  0  0  0  0  0
  -31.1175   56.6367   66.2508 H   0  0  0  0  0  0  0  0  0  0  0  0
  -32.7018   57.2563   65.7516 H   0  0  0  0  0  0  0  0  0  0  0  0
  -28.7646   59.5999   63.1348 H   0  0  0  0  0  0  0  0  0  0  0  0
  -31.0193   61.2020   64.2549 H   0  0  0  0  0  0  0  0  0  0  0  0
  -31.1789   60.2541   62.7591 H   0  0  0  0  0  0  0  0  0  0  0  0
  -30.7127   62.5455   62.2530 H   0  0  0  0  0  0  0  0  0  0  0  0
  -29.3558   61.4629   61.8074 H   0  0  0  0  0  0  0  0  0  0  0  0
  -29.4126   63.1933   64.2100 H   0  0  0  0  0  0  0  0  0  0  0  0
  -28.6217   63.5712   62.6583 H   0  0  0  0  0  0  0  0  0  0  0  0
  -27.3295   61.4732   62.9729 H   0  0  0  0  0  0  0  0  0  0  0  0
  -26.9581   62.8463   64.0462 H   0  0  0  0  0  0  0  0  0  0  0  0
  1 33  1  0  0  0  0
  1 34  1  0  0  0  0
  1 61  1  0  0  0  0
  2  4  1  0  0  0  0
  2 62  1  0  0  0  0
  2 63  1  0  0  0  0
  2 64  1  0  0  0  0
  3 33  2  0  0  0  0
  4  7  1  0  0  0  0
  4 65  1  0  0  0  0
  4 66  1  0  0  0  0
  5 38  1  0  0  0  0
  5 39  1  0  0  0  0
  5 67  1  0  0  0  0
  6 39  2  0  0  0  0
  7 10  1  0  0  0  0
  7 68  1  0  0  0  0
  7 69  1  0  0  0  0
  8 40  1  0  0  0  0
  8 43  2  0  0  0  0
  9 42  1  0  0  0  0
  9 43  1  0  0  0  0
 10 13  1  0  0  0  0
 10 70  1  0  0  0  0
 10 71  1  0  0  0  0
 11 54  1  0  0  0  0
 11 55  1  0  0  0  0
 11 72  1  0  0  0  0
 12 49  1  0  0  0  0
 12 73  1  0  0  0  0
 13 16  1  0  0  0  0
 13 74  1  0  0  0  0
 13 75  1  0  0  0  0
 14 59  1  0  0  0  0
 14 60  1  0  0  0  0
 14 76  1  0  0  0  0
 15 50  2  0  0  0  0
 16 18  1  0  0  0  0
 16 77  1  0  0  0  0
 16 78  1  0  0  0  0
 17 50  1  0  0  0  0
 17 51  1  0  0  0  0
 18 20  1  0  0  0  0
 18 79  1  0  0  0  0
 18 80  1  0  0  0  0
 19 54  2  0  0  0  0
 20 22  1  0  0  0  0
 20 81  1  0  0  0  0
 20 82  1  0  0  0  0
 21 60  2  0  0  0  0
 22 23  1  0  0  0  0
 22 83  1  0  0  0  0
 22 84  1  0  0  0  0
 23 24  1  0  0  0  0
 23 85  1  0  0  0  0
 23 86  1  0  0  0  0
 24 25  1  0  0  0  0
 24 87  1  0  0  0  0
 24 88  1  0  0  0  0
 25 26  1  0  0  0  0
 25 89  1  0  0  0  0
 25 90  1  0  0  0  0
 26 27  1  0  0  0  0
 26 91  1  0  0  0  0
 26 92  1  0  0  0  0
 27 28  1  0  0  0  0
 27 93  1  0  0  0  0
 27 94  1  0  0  0  0
 28 29  1  0  0  0  0
 28 95  1  0  0  0  0
 28 96  1  0  0  0  0
 29 30  1  0  0  0  0
 29 97  1  0  0  0  0
 29 98  1  0  0  0  0
 30 31  1  0  0  0  0
 30 99  1  0  0  0  0
 30100  1  0  0  0  0
 31 32  2  0  0  0  0
 31101  1  0  0  0  0
 32 33  1  0  0  0  0
 32102  1  0  0  0  0
 34 35  1  0  0  0  0
 34103  1  0  0  0  0
 34104  1  0  0  0  0
 35 36  1  0  0  0  0
 35105  1  0  0  0  0
 35106  1  0  0  0  0
 36 37  1  0  0  0  0
 36107  1  0  0  0  0
 36108  1  0  0  0  0
 37 38  1  0  0  0  0
 37109  1  0  0  0  0
 37110  1  0  0  0  0
 38 50  1  0  0  0  0
 38111  1  6  0  0  0
 40 39  1  1  0  0  0
 40 41  1  0  0  0  0
 40 42  1  0  0  0  0
 41112  1  0  0  0  0
 41113  1  0  0  0  0
 41114  1  0  0  0  0
 42115  1  0  0  0  0
 42116  1  0  0  0  0
 43 44  1  0  0  0  0
 44 45  2  0  0  0  0
 44 49  1  0  0  0  0
 45 46  1  0  0  0  0
 45117  1  0  0  0  0
 46 47  2  0  0  0  0
 46118  1  0  0  0  0
 47 48  1  0  0  0  0
 47119  1  0  0  0  0
 48 49  2  0  0  0  0
 48120  1  0  0  0  0
 51 52  1  0  0  0  0
 51 53  1  0  0  0  0
 51121  1  6  0  0  0
 52122  1  0  0  0  0
 52123  1  0  0  0  0
 52124  1  0  0  0  0
 53 54  1  0  0  0  0
 53125  1  0  0  0  0
 53126  1  0  0  0  0
 55 56  1  0  0  0  0
 55 60  1  0  0  0  0
 55127  1  6  0  0  0
 56 57  1  0  0  0  0
 56128  1  0  0  0  0
 56129  1  0  0  0  0
 57 58  1  0  0  0  0
 57130  1  0  0  0  0
 57131  1  0  0  0  0
 58 59  1  0  0  0  0
 58132  1  0  0  0  0
 58133  1  0  0  0  0
 59134  1  0  0  0  0
 59135  1  0  0  0  0
M  END
$$$$
/media/chris/experiments/cd1a-new-docking/inputs/ligands/7ryo_ligand.pdb
 OpenBabel07032304133D

135137  0  0  1  0  0  0  0  0999 V2000
  -37.9843   59.6092   60.1567 N   0  0  0  0  0  0  0  0  0  0  0  0
  -40.8106   52.2176   58.4096 C   0  0  0  0  0  0  0  0  0  0  0  0
  -37.6236   57.9151   58.7096 O   0  0  0  0  0  0  0  0  0  0  0  0
  -41.9746   52.8708   59.1074 C   0  0  0  0  0  0  0  0  0  0  0  0
  -34.8919   59.3849   63.5113 N   0  0  0  0  0  0  0  0  0  0  0  0
  -34.1477   58.2506   65.3039 O   0  0  0  0  0  0  0  0  0  0  0  0
  -42.0986   54.3532   58.8054 C   0  0  0  0  0  0  0  0  0  0  0  0
  -35.1935   60.5725   66.7531 N   0  0  0  0  0  0  0  0  0  0  0  0
  -36.5818   62.0697   65.7969 O   0  0  0  0  0  0  0  0  0  0  0  0
  -40.8829   55.1785   59.1950 C   0  0  0  0  0  0  0  0  0  0  0  0
  -32.0547   63.3374   64.0888 N   0  0  0  0  0  0  0  0  0  0  0  0
  -34.4473   61.3441   69.3050 O   0  0  0  0  0  0  0  0  0  0  0  0
  -39.6091   54.7579   58.4747 C   0  0  0  0  0  0  0  0  0  0  0  0
  -30.9720   65.1014   67.0569 N   0  0  0  0  0  0  0  0  0  0  0  0
  -33.6992   59.4909   60.3213 O   0  0  0  0  0  0  0  0  0  0  0  0
  -38.3822   55.5656   58.8690 C   0  0  0  0  0  0  0  0  0  0  0  0
  -32.8623   60.7142   62.0195 O   0  0  0  0  0  0  0  0  0  0  0  0
  -37.1109   55.1629   58.1421 C   0  0  0  0  0  0  0  0  0  0  0  0
  -30.1806   62.1854   63.6171 O   0  0  0  0  0  0  0  0  0  0  0  0
  -37.1810   55.3219   56.6321 C   0  0  0  0  0  0  0  0  0  0  0  0
  -30.3979   65.2454   64.8935 O   0  0  0  0  0  0  0  0  0  0  0  0
  -35.9076   54.8983   55.9269 C   0  0  0  0  0  0  0  0  0  0  0  0
  -35.9836   55.0774   54.4228 C   0  0  0  0  0  0  0  0  0  0  0  0
  -36.2107   56.5071   53.9741 C   0  0  0  0  0  0  0  0  0  0  0  0
  -35.1063   57.4500   54.4099 C   0  0  0  0  0  0  0  0  0  0  0  0
  -35.3326   58.8898   53.9796 C   0  0  0  0  0  0  0  0  0  0  0  0
  -36.6013   59.4978   54.5473 C   0  0  0  0  0  0  0  0  0  0  0  0
  -37.8748   58.7624   54.1642 C   0  0  0  0  0  0  0  0  0  0  0  0
  -39.1353   59.3955   54.7277 C   0  0  0  0  0  0  0  0  0  0  0  0
  -39.1556   59.4773   56.2492 C   0  0  0  0  0  0  0  0  0  0  0  0
  -38.0245   60.3050   56.7748 C   0  0  0  0  0  0  0  0  0  0  0  0
  -37.3921   60.1741   57.9330 C   0  0  0  0  0  0  0  0  0  0  0  0
  -37.6945   59.1333   58.9408 C   0  0  0  0  0  0  0  0  0  0  0  0
  -38.2360   58.7337   61.2903 C   0  0  0  0  0  0  0  0  0  0  0  0
  -36.9560   58.4330   62.0390 C   0  0  0  0  0  0  0  0  0  0  0  0
  -35.8780   57.7610   61.2090 C   0  0  0  0  0  0  0  0  0  0  0  0
  -34.6110   57.4590   62.0020 C   0  0  0  0  0  0  0  0  0  0  0  0
  -33.9807   58.7203   62.5945 C   0  0  1  0  0  0  0  0  0  0  0  0
  -34.8939   59.0841   64.8122 C   0  0  0  0  0  0  0  0  0  0  0  0
  -35.9053   59.8164   65.7094 C   0  0  1  0  0  0  0  0  0  0  0  0
  -36.8125   58.7854   66.3741 C   0  0  0  0  0  0  0  0  0  0  0  0
  -36.7146   60.8889   64.9655 C   0  0  0  0  0  0  0  0  0  0  0  0
  -35.6267   61.7642   66.7135 C   0  0  0  0  0  0  0  0  0  0  0  0
  -35.1995   62.8679   67.5766 C   0  0  0  0  0  0  0  0  0  0  0  0
  -35.2216   64.1792   67.0999 C   0  0  0  0  0  0  0  0  0  0  0  0
  -34.5989   65.1938   67.8062 C   0  0  0  0  0  0  0  0  0  0  0  0
  -33.9487   64.9224   68.9903 C   0  0  0  0  0  0  0  0  0  0  0  0
  -33.9082   63.6305   69.4823 C   0  0  0  0  0  0  0  0  0  0  0  0
  -34.5264   62.5969   68.7857 C   0  0  0  0  0  0  0  0  0  0  0  0
  -33.5193   59.6651   61.4950 C   0  0  0  0  0  0  0  0  0  0  0  0
  -31.8009   61.3349   61.2209 C   0  0  2  0  0  0  0  0  0  0  0  0
  -30.5557   60.4970   61.3661 C   0  0  0  0  0  0  0  0  0  0  0  0
  -31.6268   62.7301   61.7887 C   0  0  0  0  0  0  0  0  0  0  0  0
  -31.2175   62.7274   63.2448 C   0  0  0  0  0  0  0  0  0  0  0  0
  -31.7934   63.4017   65.5161 C   0  0  1  0  0  0  0  0  0  0  0  0
  -30.9883   62.1752   65.9600 C   0  0  0  0  0  0  0  0  0  0  0  0
  -31.0508   61.9138   67.4610 C   0  0  0  0  0  0  0  0  0  0  0  0
  -30.4886   63.0149   68.3381 C   0  0  0  0  0  0  0  0  0  0  0  0
  -31.2504   64.3212   68.2579 C   0  0  0  0  0  0  0  0  0  0  0  0
  -30.9930   64.6638   65.7959 C   0  0  0  0  0  0  0  0  0  0  0  0
  -38.0287   60.5838   60.2886 H   0  0  0  0  0  0  0  0  0  0  0  0
  -40.7799   51.1786   58.6634 H   0  0  0  0  0  0  0  0  0  0  0  0
  -39.9002   52.6873   58.7187 H   0  0  0  0  0  0  0  0  0  0  0  0
  -40.9246   52.3229   57.3509 H   0  0  0  0  0  0  0  0  0  0  0  0
  -41.8503   52.7482   60.1630 H   0  0  0  0  0  0  0  0  0  0  0  0
  -42.8653   52.3981   58.7495 H   0  0  0  0  0  0  0  0  0  0  0  0
  -35.5154   60.0655   63.1688 H   0  0  0  0  0  0  0  0  0  0  0  0
  -42.9454   54.7332   59.3377 H   0  0  0  0  0  0  0  0  0  0  0  0
  -42.1990   54.4406   57.7437 H   0  0  0  0  0  0  0  0  0  0  0  0
  -40.7264   55.0752   60.2484 H   0  0  0  0  0  0  0  0  0  0  0  0
  -41.0852   56.1907   58.9129 H   0  0  0  0  0  0  0  0  0  0  0  0
  -32.8721   63.7552   63.7330 H   0  0  0  0  0  0  0  0  0  0  0  0
  -34.8529   60.6261   68.8602 H   0  0  0  0  0  0  0  0  0  0  0  0
  -39.7639   54.8726   57.4221 H   0  0  0  0  0  0  0  0  0  0  0  0
  -39.4155   53.7432   58.7535 H   0  0  0  0  0  0  0  0  0  0  0  0
  -30.7450   66.0500   67.1904 H   0  0  0  0  0  0  0  0  0  0  0  0
  -38.2218   55.4407   59.9195 H   0  0  0  0  0  0  0  0  0  0  0  0
  -38.5827   56.5810   58.5976 H   0  0  0  0  0  0  0  0  0  0  0  0
  -36.9091   54.1355   58.3625 H   0  0  0  0  0  0  0  0  0  0  0  0
  -36.3388   55.8194   58.4853 H   0  0  0  0  0  0  0  0  0  0  0  0
  -37.3681   56.3510   56.4069 H   0  0  0  0  0  0  0  0  0  0  0  0
  -37.9655   54.6844   56.2815 H   0  0  0  0  0  0  0  0  0  0  0  0
  -35.7259   53.8655   56.1398 H   0  0  0  0  0  0  0  0  0  0  0  0
  -35.1163   55.5220   56.2869 H   0  0  0  0  0  0  0  0  0  0  0  0
  -36.7904   54.4788   54.0547 H   0  0  0  0  0  0  0  0  0  0  0  0
  -35.0328   54.7815   54.0313 H   0  0  0  0  0  0  0  0  0  0  0  0
  -37.1353   56.8511   54.3883 H   0  0  0  0  0  0  0  0  0  0  0  0
  -36.2263   56.5069   52.9042 H   0  0  0  0  0  0  0  0  0  0  0  0
  -34.1845   57.1107   53.9855 H   0  0  0  0  0  0  0  0  0  0  0  0
  -35.0888   57.4406   55.4797 H   0  0  0  0  0  0  0  0  0  0  0  0
  -35.3912   58.9191   52.9116 H   0  0  0  0  0  0  0  0  0  0  0  0
  -34.5120   59.4640   54.3563 H   0  0  0  0  0  0  0  0  0  0  0  0
  -36.6771   60.5049   54.1940 H   0  0  0  0  0  0  0  0  0  0  0  0
  -36.5205   59.4348   55.6123 H   0  0  0  0  0  0  0  0  0  0  0  0
  -37.8084   57.7586   54.5286 H   0  0  0  0  0  0  0  0  0  0  0  0
  -37.9525   58.8039   53.0979 H   0  0  0  0  0  0  0  0  0  0  0  0
  -39.9756   58.8144   54.4099 H   0  0  0  0  0  0  0  0  0  0  0  0
  -39.1698   60.4002   54.3613 H   0  0  0  0  0  0  0  0  0  0  0  0
  -39.0773   58.4885   56.6506 H   0  0  0  0  0  0  0  0  0  0  0  0
  -40.0734   59.9403   56.5459 H   0  0  0  0  0  0  0  0  0  0  0  0
  -37.6978   61.0688   56.1625 H   0  0  0  0  0  0  0  0  0  0  0  0
  -36.6369   60.8443   58.1463 H   0  0  0  0  0  0  0  0  0  0  0  0
  -38.6582   57.8163   60.9368 H   0  0  0  0  0  0  0  0  0  0  0  0
  -38.9129   59.2259   61.9570 H   0  0  0  0  0  0  0  0  0  0  0  0
  -37.1937   57.7896   62.8603 H   0  0  0  0  0  0  0  0  0  0  0  0
  -36.5565   59.3772   62.3453 H   0  0  0  0  0  0  0  0  0  0  0  0
  -35.6238   58.4067   60.3945 H   0  0  0  0  0  0  0  0  0  0  0  0
  -36.2729   56.8255   60.8717 H   0  0  0  0  0  0  0  0  0  0  0  0
  -33.9009   56.9930   61.3512 H   0  0  0  0  0  0  0  0  0  0  0  0
  -34.8793   56.8156   62.8138 H   0  0  0  0  0  0  0  0  0  0  0  0
  -33.1195   58.4233   63.1557 H   0  0  0  0  0  0  0  0  0  0  0  0
  -36.2139   58.0573   66.8806 H   0  0  0  0  0  0  0  0  0  0  0  0
  -37.4082   58.3012   65.6287 H   0  0  0  0  0  0  0  0  0  0  0  0
  -37.4517   59.2745   67.0792 H   0  0  0  0  0  0  0  0  0  0  0  0
  -36.3093   61.0628   63.9906 H   0  0  0  0  0  0  0  0  0  0  0  0
  -37.7350   60.6040   64.8155 H   0  0  0  0  0  0  0  0  0  0  0  0
  -35.7058   64.3941   66.2142 H   0  0  0  0  0  0  0  0  0  0  0  0
  -34.6217   66.1598   67.4436 H   0  0  0  0  0  0  0  0  0  0  0  0
  -33.4902   65.6858   69.5119 H   0  0  0  0  0  0  0  0  0  0  0  0
  -33.4181   63.4326   70.3687 H   0  0  0  0  0  0  0  0  0  0  0  0
  -32.0238   61.3955   60.1762 H   0  0  0  0  0  0  0  0  0  0  0  0
  -30.3006   60.4136   62.4019 H   0  0  0  0  0  0  0  0  0  0  0  0
  -29.7499   60.9609   60.8366 H   0  0  0  0  0  0  0  0  0  0  0  0
  -30.7329   59.5218   60.9628 H   0  0  0  0  0  0  0  0  0  0  0  0
  -32.5549   63.2545   61.6961 H   0  0  0  0  0  0  0  0  0  0  0  0
  -30.8433   63.2056   61.2364 H   0  0  0  0  0  0  0  0  0  0  0  0
  -32.7174   63.4169   66.0556 H   0  0  0  0  0  0  0  0  0  0  0  0
  -29.9651   62.3249   65.6851 H   0  0  0  0  0  0  0  0  0  0  0  0
  -31.4200   61.3246   65.4753 H   0  0  0  0  0  0  0  0  0  0  0  0
  -30.5011   61.0182   67.6629 H   0  0  0  0  0  0  0  0  0  0  0  0
  -32.0904   61.8453   67.7046 H   0  0  0  0  0  0  0  0  0  0  0  0
  -29.4771   63.1973   68.0408 H   0  0  0  0  0  0  0  0  0  0  0  0
  -30.5682   62.6738   69.3491 H   0  0  0  0  0  0  0  0  0  0  0  0
  -32.2973   64.1015   68.2805 H   0  0  0  0  0  0  0  0  0  0  0  0
  -30.9340   64.9140   69.0906 H   0  0  0  0  0  0  0  0  0  0  0  0
  1 33  1  0  0  0  0
  1 34  1  0  0  0  0
  1 61  1  0  0  0  0
  2  4  1  0  0  0  0
  2 62  1  0  0  0  0
  2 63  1  0  0  0  0
  2 64  1  0  0  0  0
  3 33  2  0  0  0  0
  4  7  1  0  0  0  0
  4 65  1  0  0  0  0
  4 66  1  0  0  0  0
  5 38  1  0  0  0  0
  5 39  1  0  0  0  0
  5 67  1  0  0  0  0
  6 39  2  0  0  0  0
  7 10  1  0  0  0  0
  7 68  1  0  0  0  0
  7 69  1  0  0  0  0
  8 40  1  0  0  0  0
  8 43  2  0  0  0  0
  9 42  1  0  0  0  0
  9 43  1  0  0  0  0
 10 13  1  0  0  0  0
 10 70  1  0  0  0  0
 10 71  1  0  0  0  0
 11 54  1  0  0  0  0
 11 55  1  0  0  0  0
 11 72  1  0  0  0  0
 12 49  1  0  0  0  0
 12 73  1  0  0  0  0
 13 16  1  0  0  0  0
 13 74  1  0  0  0  0
 13 75  1  0  0  0  0
 14 59  1  0  0  0  0
 14 60  1  0  0  0  0
 14 76  1  0  0  0  0
 15 50  2  0  0  0  0
 16 18  1  0  0  0  0
 16 77  1  0  0  0  0
 16 78  1  0  0  0  0
 17 50  1  0  0  0  0
 17 51  1  0  0  0  0
 18 20  1  0  0  0  0
 18 79  1  0  0  0  0
 18 80  1  0  0  0  0
 19 54  2  0  0  0  0
 20 22  1  0  0  0  0
 20 81  1  0  0  0  0
 20 82  1  0  0  0  0
 21 60  2  0  0  0  0
 22 23  1  0  0  0  0
 22 83  1  0  0  0  0
 22 84  1  0  0  0  0
 23 24  1  0  0  0  0
 23 85  1  0  0  0  0
 23 86  1  0  0  0  0
 24 25  1  0  0  0  0
 24 87  1  0  0  0  0
 24 88  1  0  0  0  0
 25 26  1  0  0  0  0
 25 89  1  0  0  0  0
 25 90  1  0  0  0  0
 26 27  1  0  0  0  0
 26 91  1  0  0  0  0
 26 92  1  0  0  0  0
 27 28  1  0  0  0  0
 27 93  1  0  0  0  0
 27 94  1  0  0  0  0
 28 29  1  0  0  0  0
 28 95  1  0  0  0  0
 28 96  1  0  0  0  0
 29 30  1  0  0  0  0
 29 97  1  0  0  0  0
 29 98  1  0  0  0  0
 30 31  1  0  0  0  0
 30 99  1  0  0  0  0
 30100  1  0  0  0  0
 31 32  2  0  0  0  0
 31101  1  0  0  0  0
 32 33  1  0  0  0  0
 32102  1  0  0  0  0
 34 35  1  0  0  0  0
 34103  1  0  0  0  0
 34104  1  0  0  0  0
 35 36  1  0  0  0  0
 35105  1  0  0  0  0
 35106  1  0  0  0  0
 36 37  1  0  0  0  0
 36107  1  0  0  0  0
 36108  1  0  0  0  0
 37 38  1  0  0  0  0
 37109  1  0  0  0  0
 37110  1  0  0  0  0
 38 50  1  0  0  0  0
 38111  1  1  0  0  0
 40 39  1  6  0  0  0
 40 41  1  0  0  0  0
 40 42  1  0  0  0  0
 41112  1  0  0  0  0
 41113  1  0  0  0  0
 41114  1  0  0  0  0
 42115  1  0  0  0  0
 42116  1  0  0  0  0
 43 44  1  0  0  0  0
 44 45  2  0  0  0  0
 44 49  1  0  0  0  0
 45 46  1  0  0  0  0
 45117  1  0  0  0  0
 46 47  2  0  0  0  0
 46118  1  0  0  0  0
 47 48  1  0  0  0  0
 47119  1  0  0  0  0
 48 49  2  0  0  0  0
 48120  1  0  0  0  0
 51 52  1  0  0  0  0
 51 53  1  0  0  0  0
 51121  1  6  0  0  0
 52122  1  0  0  0  0
 52123  1  0  0  0  0
 52124  1  0  0  0  0
 53 54  1  0  0  0  0
 53125  1  0  0  0  0
 53126  1  0  0  0  0
 55 56  1  0  0  0  0
 55 60  1  0  0  0  0
 55127  1  1  0  0  0
 56 57  1  0  0  0  0
 56128  1  0  0  0  0
 56129  1  0  0  0  0
 57 58  1  0  0  0  0
 57130  1  0  0  0  0
 57131  1  0  0  0  0
 58 59  1  0  0  0  0
 58132  1  0  0  0  0
 58133  1  0  0  0  0
 59134  1  0  0  0  0
 59135  1  0  0  0  0
M  END
$$$$
/media/chris/experiments/cd1a-new-docking/inputs/ligands/7ryo_ligand.pdb
 OpenBabel07032304133D

135137  0  0  1  0  0  0  0  0999 V2000
  -37.6438   60.3330   63.4177 N   0  0  0  0  0  0  0  0  0  0  0  0
  -42.3544   63.3936   60.6108 C   0  0  0  0  0  0  0  0  0  0  0  0
  -39.1160   61.9983   63.8087 O   0  0  0  0  0  0  0  0  0  0  0  0
  -42.1696   63.3708   62.1054 C   0  0  0  0  0  0  0  0  0  0  0  0
  -35.3848   55.2330   62.7177 N   0  0  0  0  0  0  0  0  0  0  0  0
  -35.5611   54.3952   64.7963 O   0  0  0  0  0  0  0  0  0  0  0  0
  -42.6576   64.6354   62.7884 C   0  0  0  0  0  0  0  0  0  0  0  0
  -37.4327   53.1660   62.2375 N   0  0  0  0  0  0  0  0  0  0  0  0
  -36.0807   51.9952   60.8647 O   0  0  0  0  0  0  0  0  0  0  0  0
  -44.1386   64.9215   62.5989 C   0  0  0  0  0  0  0  0  0  0  0  0
  -38.7702   53.7945   66.9742 N   0  0  0  0  0  0  0  0  0  0  0  0
  -40.0931   52.9313   61.5081 O   0  0  0  0  0  0  0  0  0  0  0  0
  -45.0423   63.8281   63.1521 C   0  0  0  0  0  0  0  0  0  0  0  0
  -41.5363   52.7617   64.8823 N   0  0  0  0  0  0  0  0  0  0  0  0
  -36.3404   58.2172   64.0561 O   0  0  0  0  0  0  0  0  0  0  0  0
  -44.8891   63.5993   64.6478 C   0  0  0  0  0  0  0  0  0  0  0  0
  -35.9357   56.3635   65.2730 O   0  0  0  0  0  0  0  0  0  0  0  0
  -43.4866   63.2059   65.0778 C   0  0  0  0  0  0  0  0  0  0  0  0
  -37.6919   54.4563   65.1139 O   0  0  0  0  0  0  0  0  0  0  0  0
  -43.3395   62.9612   66.5707 C   0  0  0  0  0  0  0  0  0  0  0  0
  -41.2510   54.4626   66.3163 O   0  0  0  0  0  0  0  0  0  0  0  0
  -43.6965   64.1704   67.4124 C   0  0  0  0  0  0  0  0  0  0  0  0
  -42.8395   65.3802   67.0930 C   0  0  0  0  0  0  0  0  0  0  0  0
  -42.9514   65.8654   65.6616 C   0  0  0  0  0  0  0  0  0  0  0  0
  -42.0708   67.0645   65.3693 C   0  0  0  0  0  0  0  0  0  0  0  0
  -40.5894   66.7937   65.5736 C   0  0  0  0  0  0  0  0  0  0  0  0
  -40.0474   65.6938   64.6802 C   0  0  0  0  0  0  0  0  0  0  0  0
  -40.1719   65.9761   63.1923 C   0  0  0  0  0  0  0  0  0  0  0  0
  -39.6396   64.8566   62.3145 C   0  0  0  0  0  0  0  0  0  0  0  0
  -38.1671   64.5403   62.5460 C   0  0  0  0  0  0  0  0  0  0  0  0
  -37.6878   63.4439   61.6466 C   0  0  0  0  0  0  0  0  0  0  0  0
  -37.6882   62.1394   61.8848 C   0  0  0  0  0  0  0  0  0  0  0  0
  -38.2001   61.5133   63.1244 C   0  0  0  0  0  0  0  0  0  0  0  0
  -36.5610   59.7701   62.6268 C   0  0  0  0  0  0  0  0  0  0  0  0
  -36.9560   58.4330   62.0390 C   0  0  0  0  0  0  0  0  0  0  0  0
  -35.8780   57.7610   61.2090 C   0  0  0  0  0  0  0  0  0  0  0  0
  -34.6110   57.4590   62.0020 C   0  0  0  0  0  0  0  0  0  0  0  0
  -34.8704   56.5130   63.1754 C   0  0  1  0  0  0  0  0  0  0  0  0
  -35.6907   54.2677   63.5879 C   0  0  0  0  0  0  0  0  0  0  0  0
  -36.2067   52.9355   63.0194 C   0  0  1  0  0  0  0  0  0  0  0  0
  -36.5254   51.9949   64.1776 C   0  0  0  0  0  0  0  0  0  0  0  0
  -35.2440   52.2897   62.0120 C   0  0  0  0  0  0  0  0  0  0  0  0
  -37.2601   52.6262   61.1024 C   0  0  0  0  0  0  0  0  0  0  0  0
  -38.2239   52.6065   59.9995 C   0  0  0  0  0  0  0  0  0  0  0  0
  -37.7761   52.5806   58.6782 C   0  0  0  0  0  0  0  0  0  0  0  0
  -38.6562   52.8065   57.6339 C   0  0  0  0  0  0  0  0  0  0  0  0
  -39.9870   53.0600   57.8854 C   0  0  0  0  0  0  0  0  0  0  0  0
  -40.4554   53.0957   59.1862 C   0  0  0  0  0  0  0  0  0  0  0  0
  -39.5858   52.8732   60.2493 C   0  0  0  0  0  0  0  0  0  0  0  0
  -35.8061   57.1511   64.1912 C   0  0  0  0  0  0  0  0  0  0  0  0
  -36.7876   56.8312   66.3708 C   0  0  2  0  0  0  0  0  0  0  0  0
  -35.9925   57.8125   67.1945 C   0  0  0  0  0  0  0  0  0  0  0  0
  -37.1603   55.5882   67.1553 C   0  0  0  0  0  0  0  0  0  0  0  0
  -37.8931   54.5617   66.3205 C   0  0  0  0  0  0  0  0  0  0  0  0
  -39.5521   52.7750   66.2968 C   0  0  1  0  0  0  0  0  0  0  0  0
  -39.8564   51.6197   67.2571 C   0  0  0  0  0  0  0  0  0  0  0  0
  -40.2610   50.3295   66.5522 C   0  0  0  0  0  0  0  0  0  0  0  0
  -41.5252   50.4107   65.7198 C   0  0  0  0  0  0  0  0  0  0  0  0
  -41.4283   51.3488   64.5349 C   0  0  0  0  0  0  0  0  0  0  0  0
  -40.8550   53.4064   65.8322 C   0  0  0  0  0  0  0  0  0  0  0  0
  -37.9782   59.8288   64.1944 H   0  0  0  0  0  0  0  0  0  0  0  0
  -41.9921   62.4778   60.1925 H   0  0  0  0  0  0  0  0  0  0  0  0
  -41.8086   64.2154   60.1964 H   0  0  0  0  0  0  0  0  0  0  0  0
  -43.3937   63.5039   60.3815 H   0  0  0  0  0  0  0  0  0  0  0  0
  -41.1278   63.2503   62.3173 H   0  0  0  0  0  0  0  0  0  0  0  0
  -42.7540   62.5589   62.4852 H   0  0  0  0  0  0  0  0  0  0  0  0
  -35.5092   55.0758   61.7538 H   0  0  0  0  0  0  0  0  0  0  0  0
  -42.1042   65.4626   62.3954 H   0  0  0  0  0  0  0  0  0  0  0  0
  -42.5065   64.4927   63.8381 H   0  0  0  0  0  0  0  0  0  0  0  0
  -44.3327   65.0242   61.5517 H   0  0  0  0  0  0  0  0  0  0  0  0
  -44.3588   65.8171   63.1414 H   0  0  0  0  0  0  0  0  0  0  0  0
  -38.8899   53.9239   67.9428 H   0  0  0  0  0  0  0  0  0  0  0  0
  -39.5339   52.7862   62.2457 H   0  0  0  0  0  0  0  0  0  0  0  0
  -44.8128   62.9135   62.6462 H   0  0  0  0  0  0  0  0  0  0  0  0
  -46.0506   64.1465   62.9885 H   0  0  0  0  0  0  0  0  0  0  0  0
  -42.1789   53.2957   64.3616 H   0  0  0  0  0  0  0  0  0  0  0  0
  -45.5604   62.8184   64.9382 H   0  0  0  0  0  0  0  0  0  0  0  0
  -45.1063   64.5321   65.1250 H   0  0  0  0  0  0  0  0  0  0  0  0
  -42.8168   63.9923   64.7988 H   0  0  0  0  0  0  0  0  0  0  0  0
  -43.2635   62.2797   64.5905 H   0  0  0  0  0  0  0  0  0  0  0  0
  -42.3232   62.6942   66.7729 H   0  0  0  0  0  0  0  0  0  0  0  0
  -44.0207   62.1789   66.8332 H   0  0  0  0  0  0  0  0  0  0  0  0
  -43.5642   63.9201   68.4443 H   0  0  0  0  0  0  0  0  0  0  0  0
  -44.7120   64.4273   67.1943 H   0  0  0  0  0  0  0  0  0  0  0  0
  -41.8175   65.1257   67.2813 H   0  0  0  0  0  0  0  0  0  0  0  0
  -43.1919   66.1770   67.7143 H   0  0  0  0  0  0  0  0  0  0  0  0
  -43.9691   66.1361   65.4724 H   0  0  0  0  0  0  0  0  0  0  0  0
  -42.6245   65.0675   65.0279 H   0  0  0  0  0  0  0  0  0  0  0  0
  -42.3614   67.8641   66.0182 H   0  0  0  0  0  0  0  0  0  0  0  0
  -42.2061   67.3097   64.3367 H   0  0  0  0  0  0  0  0  0  0  0  0
  -40.4343   66.5093   66.5933 H   0  0  0  0  0  0  0  0  0  0  0  0
  -40.0668   67.6922   65.3195 H   0  0  0  0  0  0  0  0  0  0  0  0
  -40.5829   64.7929   64.8960 H   0  0  0  0  0  0  0  0  0  0  0  0
  -39.0011   65.6170   64.8904 H   0  0  0  0  0  0  0  0  0  0  0  0
  -39.6253   66.8689   62.9705 H   0  0  0  0  0  0  0  0  0  0  0  0
  -41.2155   66.0741   62.9776 H   0  0  0  0  0  0  0  0  0  0  0  0
  -39.7666   65.1413   61.2909 H   0  0  0  0  0  0  0  0  0  0  0  0
  -40.1909   63.9747   62.5659 H   0  0  0  0  0  0  0  0  0  0  0  0
  -38.0334   64.2373   63.5635 H   0  0  0  0  0  0  0  0  0  0  0  0
  -37.5990   65.4209   62.3300 H   0  0  0  0  0  0  0  0  0  0  0  0
  -37.3122   63.7385   60.7317 H   0  0  0  0  0  0  0  0  0  0  0  0
  -37.3051   61.5178   61.1556 H   0  0  0  0  0  0  0  0  0  0  0  0
  -35.7032   59.6374   63.2524 H   0  0  0  0  0  0  0  0  0  0  0  0
  -36.3399   60.4428   61.8246 H   0  0  0  0  0  0  0  0  0  0  0  0
  -37.8119   58.5833   61.4147 H   0  0  0  0  0  0  0  0  0  0  0  0
  -37.1476   57.7838   62.8677 H   0  0  0  0  0  0  0  0  0  0  0  0
  -35.6238   58.4067   60.3945 H   0  0  0  0  0  0  0  0  0  0  0  0
  -36.2729   56.8255   60.8717 H   0  0  0  0  0  0  0  0  0  0  0  0
  -34.2161   58.3779   62.3821 H   0  0  0  0  0  0  0  0  0  0  0  0
  -33.9192   56.9787   61.3420 H   0  0  0  0  0  0  0  0  0  0  0  0
  -33.9347   56.3288   63.6606 H   0  0  0  0  0  0  0  0  0  0  0  0
  -37.1967   52.4789   64.8559 H   0  0  0  0  0  0  0  0  0  0  0  0
  -35.6212   51.7417   64.6906 H   0  0  0  0  0  0  0  0  0  0  0  0
  -36.9819   51.1044   63.7987 H   0  0  0  0  0  0  0  0  0  0  0  0
  -34.4601   52.9679   61.7468 H   0  0  0  0  0  0  0  0  0  0  0  0
  -34.7619   51.4186   62.4040 H   0  0  0  0  0  0  0  0  0  0  0  0
  -36.7815   52.3915   58.4780 H   0  0  0  0  0  0  0  0  0  0  0  0
  -38.3134   52.7850   56.6607 H   0  0  0  0  0  0  0  0  0  0  0  0
  -40.6366   53.2238   57.1004 H   0  0  0  0  0  0  0  0  0  0  0  0
  -41.4528   53.2880   59.3689 H   0  0  0  0  0  0  0  0  0  0  0  0
  -37.6753   57.3332   66.0468 H   0  0  0  0  0  0  0  0  0  0  0  0
  -35.0937   57.3443   67.5375 H   0  0  0  0  0  0  0  0  0  0  0  0
  -36.5747   58.1263   68.0356 H   0  0  0  0  0  0  0  0  0  0  0  0
  -35.7450   58.6634   66.5947 H   0  0  0  0  0  0  0  0  0  0  0  0
  -37.7891   55.8758   67.9719 H   0  0  0  0  0  0  0  0  0  0  0  0
  -36.2505   55.1370   67.4924 H   0  0  0  0  0  0  0  0  0  0  0  0
  -39.0042   52.3898   65.4623 H   0  0  0  0  0  0  0  0  0  0  0  0
  -40.6565   51.9179   67.9020 H   0  0  0  0  0  0  0  0  0  0  0  0
  -38.9548   51.4135   67.7952 H   0  0  0  0  0  0  0  0  0  0  0  0
  -40.4055   49.5770   67.2990 H   0  0  0  0  0  0  0  0  0  0  0  0
  -39.4704   50.1089   65.8657 H   0  0  0  0  0  0  0  0  0  0  0  0
  -42.3213   50.7475   66.3504 H   0  0  0  0  0  0  0  0  0  0  0  0
  -41.6964   49.4315   65.3238 H   0  0  0  0  0  0  0  0  0  0  0  0
  -40.4833   51.1914   64.0583 H   0  0  0  0  0  0  0  0  0  0  0  0
  -42.2566   51.1245   63.8958 H   0  0  0  0  0  0  0  0  0  0  0  0
  1 33  1  0  0  0  0
  1 34  1  0  0  0  0
  1 61  1  0  0  0  0
  2  4  1  0  0  0  0
  2 62  1  0  0  0  0
  2 63  1  0  0  0  0
  2 64  1  0  0  0  0
  3 33  2  0  0  0  0
  4  7  1  0  0  0  0
  4 65  1  0  0  0  0
  4 66  1  0  0  0  0
  5 38  1  0  0  0  0
  5 39  1  0  0  0  0
  5 67  1  0  0  0  0
  6 39  2  0  0  0  0
  7 10  1  0  0  0  0
  7 68  1  0  0  0  0
  7 69  1  0  0  0  0
  8 40  1  0  0  0  0
  8 43  2  0  0  0  0
  9 42  1  0  0  0  0
  9 43  1  0  0  0  0
 10 13  1  0  0  0  0
 10 70  1  0  0  0  0
 10 71  1  0  0  0  0
 11 54  1  0  0  0  0
 11 55  1  0  0  0  0
 11 72  1  0  0  0  0
 12 49  1  0  0  0  0
 12 73  1  0  0  0  0
 13 16  1  0  0  0  0
 13 74  1  0  0  0  0
 13 75  1  0  0  0  0
 14 59  1  0  0  0  0
 14 60  1  0  0  0  0
 14 76  1  0  0  0  0
 15 50  2  0  0  0  0
 16 18  1  0  0  0  0
 16 77  1  0  0  0  0
 16 78  1  0  0  0  0
 17 50  1  0  0  0  0
 17 51  1  0  0  0  0
 18 20  1  0  0  0  0
 18 79  1  0  0  0  0
 18 80  1  0  0  0  0
 19 54  2  0  0  0  0
 20 22  1  0  0  0  0
 20 81  1  0  0  0  0
 20 82  1  0  0  0  0
 21 60  2  0  0  0  0
 22 23  1  0  0  0  0
 22 83  1  0  0  0  0
 22 84  1  0  0  0  0
 23 24  1  0  0  0  0
 23 85  1  0  0  0  0
 23 86  1  0  0  0  0
 24 25  1  0  0  0  0
 24 87  1  0  0  0  0
 24 88  1  0  0  0  0
 25 26  1  0  0  0  0
 25 89  1  0  0  0  0
 25 90  1  0  0  0  0
 26 27  1  0  0  0  0
 26 91  1  0  0  0  0
 26 92  1  0  0  0  0
 27 28  1  0  0  0  0
 27 93  1  0  0  0  0
 27 94  1  0  0  0  0
 28 29  1  0  0  0  0
 28 95  1  0  0  0  0
 28 96  1  0  0  0  0
 29 30  1  0  0  0  0
 29 97  1  0  0  0  0
 29 98  1  0  0  0  0
 30 31  1  0  0  0  0
 30 99  1  0  0  0  0
 30100  1  0  0  0  0
 31 32  2  0  0  0  0
 31101  1  0  0  0  0
 32 33  1  0  0  0  0
 32102  1  0  0  0  0
 34 35  1  0  0  0  0
 34103  1  0  0  0  0
 34104  1  0  0  0  0
 35 36  1  0  0  0  0
 35105  1  0  0  0  0
 35106  1  0  0  0  0
 36 37  1  0  0  0  0
 36107  1  0  0  0  0
 36108  1  0  0  0  0
 37 38  1  0  0  0  0
 37109  1  0  0  0  0
 37110  1  0  0  0  0
 38 50  1  0  0  0  0
 38111  1  1  0  0  0
 40 39  1  1  0  0  0
 40 41  1  0  0  0  0
 40 42  1  0  0  0  0
 41112  1  0  0  0  0
 41113  1  0  0  0  0
 41114  1  0  0  0  0
 42115  1  0  0  0  0
 42116  1  0  0  0  0
 43 44  1  0  0  0  0
 44 45  2  0  0  0  0
 44 49  1  0  0  0  0
 45 46  1  0  0  0  0
 45117  1  0  0  0  0
 46 47  2  0  0  0  0
 46118  1  0  0  0  0
 47 48  1  0  0  0  0
 47119  1  0  0  0  0
 48 49  2  0  0  0  0
 48120  1  0  0  0  0
 51 52  1  0  0  0  0
 51 53  1  0  0  0  0
 51121  1  6  0  0  0
 52122  1  0  0  0  0
 52123  1  0  0  0  0
 52124  1  0  0  0  0
 53 54  1  0  0  0  0
 53125  1  0  0  0  0
 53126  1  0  0  0  0
 55 56  1  0  0  0  0
 55 60  1  0  0  0  0
 55127  1  6  0  0  0
 56 57  1  0  0  0  0
 56128  1  0  0  0  0
 56129  1  0  0  0  0
 57 58  1  0  0  0  0
 57130  1  0  0  0  0
 57131  1  0  0  0  0
 58 59  1  0  0  0  0
 58132  1  0  0  0  0
 58133  1  0  0  0  0
 59134  1  0  0  0  0
 59135  1  0  0  0  0
M  END
$$$$
/media/chris/experiments/cd1a-new-docking/inputs/ligands/7ryo_ligand.pdb
 OpenBabel07032304133D

135137  0  0  1  0  0  0  0  0999 V2000
  -38.4618   58.3450   63.9648 N   0  0  0  0  0  0  0  0  0  0  0  0
  -42.8348   64.4662   63.6564 C   0  0  0  0  0  0  0  0  0  0  0  0
  -37.0190   59.4178   65.3291 O   0  0  0  0  0  0  0  0  0  0  0  0
  -41.7507   63.5295   63.1919 C   0  0  0  0  0  0  0  0  0  0  0  0
  -33.1324   57.6580   60.0424 N   0  0  0  0  0  0  0  0  0  0  0  0
  -35.2034   57.7505   59.1729 O   0  0  0  0  0  0  0  0  0  0  0  0
  -41.9374   62.1062   63.6853 C   0  0  0  0  0  0  0  0  0  0  0  0
  -34.5838   59.8665   57.5491 N   0  0  0  0  0  0  0  0  0  0  0  0
  -32.8084   61.2004   57.9387 O   0  0  0  0  0  0  0  0  0  0  0  0
  -41.9693   61.9639   65.1985 C   0  0  0  0  0  0  0  0  0  0  0  0
  -30.8216   54.4392   62.6889 N   0  0  0  0  0  0  0  0  0  0  0  0
  -36.8773   61.4792   58.1896 O   0  0  0  0  0  0  0  0  0  0  0  0
  -43.1046   62.7368   65.8557 C   0  0  0  0  0  0  0  0  0  0  0  0
  -31.3663   51.0732   61.4777 N   0  0  0  0  0  0  0  0  0  0  0  0
  -35.1244   55.1625   60.3520 O   0  0  0  0  0  0  0  0  0  0  0  0
  -43.1366   62.6158   67.3714 C   0  0  0  0  0  0  0  0  0  0  0  0
  -32.9598   54.5796   60.5876 O   0  0  0  0  0  0  0  0  0  0  0  0
  -43.2833   61.1923   67.8802 C   0  0  0  0  0  0  0  0  0  0  0  0
  -32.1350   55.5759   64.1188 O   0  0  0  0  0  0  0  0  0  0  0  0
  -43.3321   61.0751   69.3948 C   0  0  0  0  0  0  0  0  0  0  0  0
  -31.1137   51.9412   63.5304 O   0  0  0  0  0  0  0  0  0  0  0  0
  -42.0941   61.6230   70.0768 C   0  0  0  0  0  0  0  0  0  0  0  0
  -41.8761   63.0979   69.7984 C   0  0  0  0  0  0  0  0  0  0  0  0
  -40.6378   63.6807   70.4494 C   0  0  0  0  0  0  0  0  0  0  0  0
  -40.4569   65.1592   70.1666 C   0  0  0  0  0  0  0  0  0  0  0  0
  -40.3414   65.4844   68.6865 C   0  0  0  0  0  0  0  0  0  0  0  0
  -39.1770   64.7910   68.0047 C   0  0  0  0  0  0  0  0  0  0  0  0
  -39.2386   63.2732   68.0480 C   0  0  0  0  0  0  0  0  0  0  0  0
  -38.0563   62.5974   67.3754 C   0  0  0  0  0  0  0  0  0  0  0  0
  -38.1213   61.0752   67.4008 C   0  0  0  0  0  0  0  0  0  0  0  0
  -39.3330   60.5603   66.6885 C   0  0  0  0  0  0  0  0  0  0  0  0
  -39.3752   59.7561   65.6349 C   0  0  0  0  0  0  0  0  0  0  0  0
  -38.1839   59.1898   64.9637 C   0  0  0  0  0  0  0  0  0  0  0  0
  -37.4201   57.6362   63.2386 C   0  0  0  0  0  0  0  0  0  0  0  0
  -36.9560   58.4330   62.0390 C   0  0  0  0  0  0  0  0  0  0  0  0
  -35.8780   57.7610   61.2090 C   0  0  0  0  0  0  0  0  0  0  0  0
  -34.6110   57.4590   62.0020 C   0  0  0  0  0  0  0  0  0  0  0  0
  -33.5311   56.7980   61.1441 C   0  0  1  0  0  0  0  0  0  0  0  0
  -34.0234   58.0662   59.1357 C   0  0  0  0  0  0  0  0  0  0  0  0
  -33.5145   58.9550   57.9889 C   0  0  1  0  0  0  0  0  0  0  0  0
  -33.1071   58.0653   56.8183 C   0  0  0  0  0  0  0  0  0  0  0  0
  -32.3769   59.8978   58.4081 C   0  0  0  0  0  0  0  0  0  0  0  0
  -34.1033   61.0405   57.5603 C   0  0  0  0  0  0  0  0  0  0  0  0
  -34.8133   62.2681   57.1933 C   0  0  0  0  0  0  0  0  0  0  0  0
  -34.1152   63.3429   56.6412 C   0  0  0  0  0  0  0  0  0  0  0  0
  -34.7181   64.5827   56.5175 C   0  0  0  0  0  0  0  0  0  0  0  0
  -36.0166   64.7722   56.9378 C   0  0  0  0  0  0  0  0  0  0  0  0
  -36.7290   63.7246   57.4925 C   0  0  0  0  0  0  0  0  0  0  0  0
  -36.1394   62.4715   57.6272 C   0  0  0  0  0  0  0  0  0  0  0  0
  -33.9929   55.4382   60.6419 C   0  0  0  0  0  0  0  0  0  0  0  0
  -33.0303   53.3605   61.3991 C   0  0  2  0  0  0  0  0  0  0  0  0
  -34.2309   52.5674   60.9483 C   0  0  0  0  0  0  0  0  0  0  0  0
  -33.1570   53.8332   62.8344 C   0  0  0  0  0  0  0  0  0  0  0  0
  -31.9943   54.6937   63.2765 C   0  0  0  0  0  0  0  0  0  0  0  0
  -30.6767   53.4012   61.6832 C   0  0  1  0  0  0  0  0  0  0  0  0
  -29.2219   53.3300   61.2056 C   0  0  0  0  0  0  0  0  0  0  0  0
  -29.0520   52.6173   59.8683 C   0  0  0  0  0  0  0  0  0  0  0  0
  -29.4801   51.1634   59.8459 C   0  0  0  0  0  0  0  0  0  0  0  0
  -30.9605   50.9492   60.0818 C   0  0  0  0  0  0  0  0  0  0  0  0
  -31.0713   52.0736   62.3108 C   0  0  0  0  0  0  0  0  0  0  0  0
  -39.4021   58.1983   63.7129 H   0  0  0  0  0  0  0  0  0  0  0  0
  -42.6448   65.4481   63.2760 H   0  0  0  0  0  0  0  0  0  0  0  0
  -42.8477   64.4944   64.7260 H   0  0  0  0  0  0  0  0  0  0  0  0
  -43.7820   64.1217   63.2973 H   0  0  0  0  0  0  0  0  0  0  0  0
  -40.8105   63.8931   63.5507 H   0  0  0  0  0  0  0  0  0  0  0  0
  -41.7905   63.5028   62.1230 H   0  0  0  0  0  0  0  0  0  0  0  0
  -32.1934   57.9432   59.9638 H   0  0  0  0  0  0  0  0  0  0  0  0
  -41.1290   61.5136   63.3107 H   0  0  0  0  0  0  0  0  0  0  0  0
  -42.8928   61.7826   63.3285 H   0  0  0  0  0  0  0  0  0  0  0  0
  -41.0417   62.3237   65.5925 H   0  0  0  0  0  0  0  0  0  0  0  0
  -42.1265   60.9279   65.4147 H   0  0  0  0  0  0  0  0  0  0  0  0
  -30.0332   54.9704   62.9449 H   0  0  0  0  0  0  0  0  0  0  0  0
  -36.5095   60.6239   58.2946 H   0  0  0  0  0  0  0  0  0  0  0  0
  -44.0314   62.3679   65.4687 H   0  0  0  0  0  0  0  0  0  0  0  0
  -42.9474   63.7709   65.6302 H   0  0  0  0  0  0  0  0  0  0  0  0
  -31.9153   50.3425   61.8436 H   0  0  0  0  0  0  0  0  0  0  0  0
  -43.9631   63.1892   67.7363 H   0  0  0  0  0  0  0  0  0  0  0  0
  -42.1935   62.9739   67.7282 H   0  0  0  0  0  0  0  0  0  0  0  0
  -42.4503   60.6217   67.5260 H   0  0  0  0  0  0  0  0  0  0  0  0
  -44.2202   60.8290   67.5128 H   0  0  0  0  0  0  0  0  0  0  0  0
  -43.4331   60.0416   69.6528 H   0  0  0  0  0  0  0  0  0  0  0  0
  -44.1644   61.6570   69.7319 H   0  0  0  0  0  0  0  0  0  0  0  0
  -41.2416   61.0791   69.7270 H   0  0  0  0  0  0  0  0  0  0  0  0
  -42.2300   61.5102   71.1321 H   0  0  0  0  0  0  0  0  0  0  0  0
  -42.7281   63.6360   70.1581 H   0  0  0  0  0  0  0  0  0  0  0  0
  -41.7391   63.1925   68.7415 H   0  0  0  0  0  0  0  0  0  0  0  0
  -39.7808   63.1563   70.0814 H   0  0  0  0  0  0  0  0  0  0  0  0
  -40.7515   63.5699   71.5075 H   0  0  0  0  0  0  0  0  0  0  0  0
  -39.5656   65.4911   70.6567 H   0  0  0  0  0  0  0  0  0  0  0  0
  -41.3306   65.6582   70.5308 H   0  0  0  0  0  0  0  0  0  0  0  0
  -40.2152   66.5416   68.5807 H   0  0  0  0  0  0  0  0  0  0  0  0
  -41.2362   65.1339   68.2161 H   0  0  0  0  0  0  0  0  0  0  0  0
  -38.2734   65.1032   68.4853 H   0  0  0  0  0  0  0  0  0  0  0  0
  -39.2175   65.0692   66.9723 H   0  0  0  0  0  0  0  0  0  0  0  0
  -40.1343   62.9568   67.5554 H   0  0  0  0  0  0  0  0  0  0  0  0
  -39.2186   62.9875   69.0789 H   0  0  0  0  0  0  0  0  0  0  0  0
  -37.1622   62.9052   67.8761 H   0  0  0  0  0  0  0  0  0  0  0  0
  -38.0723   62.8926   66.3470 H   0  0  0  0  0  0  0  0  0  0  0  0
  -38.1518   60.7465   68.4186 H   0  0  0  0  0  0  0  0  0  0  0  0
  -37.2545   60.6961   66.9010 H   0  0  0  0  0  0  0  0  0  0  0  0
  -40.2445   60.8680   67.0620 H   0  0  0  0  0  0  0  0  0  0  0  0
  -40.3029   59.5079   65.2569 H   0  0  0  0  0  0  0  0  0  0  0  0
  -37.8045   56.6947   62.9057 H   0  0  0  0  0  0  0  0  0  0  0  0
  -36.5868   57.4908   63.8939 H   0  0  0  0  0  0  0  0  0  0  0  0
  -36.5724   59.3687   62.3887 H   0  0  0  0  0  0  0  0  0  0  0  0
  -37.8072   58.5391   61.3994 H   0  0  0  0  0  0  0  0  0  0  0  0
  -35.6238   58.4067   60.3945 H   0  0  0  0  0  0  0  0  0  0  0  0
  -36.2729   56.8255   60.8717 H   0  0  0  0  0  0  0  0  0  0  0  0
  -34.8590   56.8018   62.8091 H   0  0  0  0  0  0  0  0  0  0  0  0
  -34.2203   58.3886   62.3599 H   0  0  0  0  0  0  0  0  0  0  0  0
  -32.6704   56.6456   61.7612 H   0  0  0  0  0  0  0  0  0  0  0  0
  -33.9232   57.4248   56.5562 H   0  0  0  0  0  0  0  0  0  0  0  0
  -32.2630   57.4707   57.0991 H   0  0  0  0  0  0  0  0  0  0  0  0
  -32.8494   58.6764   55.9787 H   0  0  0  0  0  0  0  0  0  0  0  0
  -32.2554   59.8979   59.4712 H   0  0  0  0  0  0  0  0  0  0  0  0
  -31.4307   59.6069   58.0019 H   0  0  0  0  0  0  0  0  0  0  0  0
  -33.1422   63.2124   56.3229 H   0  0  0  0  0  0  0  0  0  0  0  0
  -34.1918   65.3702   56.1078 H   0  0  0  0  0  0  0  0  0  0  0  0
  -36.4592   65.6992   56.8383 H   0  0  0  0  0  0  0  0  0  0  0  0
  -37.7005   63.8727   57.8074 H   0  0  0  0  0  0  0  0  0  0  0  0
  -32.1746   52.7255   61.3023 H   0  0  0  0  0  0  0  0  0  0  0  0
  -35.1096   53.1723   61.0312 H   0  0  0  0  0  0  0  0  0  0  0  0
  -34.3364   51.6989   61.5643 H   0  0  0  0  0  0  0  0  0  0  0  0
  -34.0987   52.2682   59.9295 H   0  0  0  0  0  0  0  0  0  0  0  0
  -33.2091   52.9760   63.4726 H   0  0  0  0  0  0  0  0  0  0  0  0
  -34.0414   54.4320   62.8979 H   0  0  0  0  0  0  0  0  0  0  0  0
  -31.3017   53.6185   60.8424 H   0  0  0  0  0  0  0  0  0  0  0  0
  -28.6492   52.8070   61.9427 H   0  0  0  0  0  0  0  0  0  0  0  0
  -28.8871   54.3371   61.0690 H   0  0  0  0  0  0  0  0  0  0  0  0
  -28.0169   52.6606   59.6007 H   0  0  0  0  0  0  0  0  0  0  0  0
  -29.6963   53.1244   59.1808 H   0  0  0  0  0  0  0  0  0  0  0  0
  -28.9398   50.6426   60.6086 H   0  0  0  0  0  0  0  0  0  0  0  0
  -29.2685   50.7954   58.8637 H   0  0  0  0  0  0  0  0  0  0  0  0
  -31.5002   51.6745   59.5094 H   0  0  0  0  0  0  0  0  0  0  0  0
  -31.1774   49.9440   59.7860 H   0  0  0  0  0  0  0  0  0  0  0  0
  1 33  1  0  0  0  0
  1 34  1  0  0  0  0
  1 61  1  0  0  0  0
  2  4  1  0  0  0  0
  2 62  1  0  0  0  0
  2 63  1  0  0  0  0
  2 64  1  0  0  0  0
  3 33  2  0  0  0  0
  4  7  1  0  0  0  0
  4 65  1  0  0  0  0
  4 66  1  0  0  0  0
  5 38  1  0  0  0  0
  5 39  1  0  0  0  0
  5 67  1  0  0  0  0
  6 39  2  0  0  0  0
  7 10  1  0  0  0  0
  7 68  1  0  0  0  0
  7 69  1  0  0  0  0
  8 40  1  0  0  0  0
  8 43  2  0  0  0  0
  9 42  1  0  0  0  0
  9 43  1  0  0  0  0
 10 13  1  0  0  0  0
 10 70  1  0  0  0  0
 10 71  1  0  0  0  0
 11 54  1  0  0  0  0
 11 55  1  0  0  0  0
 11 72  1  0  0  0  0
 12 49  1  0  0  0  0
 12 73  1  0  0  0  0
 13 16  1  0  0  0  0
 13 74  1  0  0  0  0
 13 75  1  0  0  0  0
 14 59  1  0  0  0  0
 14 60  1  0  0  0  0
 14 76  1  0  0  0  0
 15 50  2  0  0  0  0
 16 18  1  0  0  0  0
 16 77  1  0  0  0  0
 16 78  1  0  0  0  0
 17 50  1  0  0  0  0
 17 51  1  0  0  0  0
 18 20  1  0  0  0  0
 18 79  1  0  0  0  0
 18 80  1  0  0  0  0
 19 54  2  0  0  0  0
 20 22  1  0  0  0  0
 20 81  1  0  0  0  0
 20 82  1  0  0  0  0
 21 60  2  0  0  0  0
 22 23  1  0  0  0  0
 22 83  1  0  0  0  0
 22 84  1  0  0  0  0
 23 24  1  0  0  0  0
 23 85  1  0  0  0  0
 23 86  1  0  0  0  0
 24 25  1  0  0  0  0
 24 87  1  0  0  0  0
 24 88  1  0  0  0  0
 25 26  1  0  0  0  0
 25 89  1  0  0  0  0
 25 90  1  0  0  0  0
 26 27  1  0  0  0  0
 26 91  1  0  0  0  0
 26 92  1  0  0  0  0
 27 28  1  0  0  0  0
 27 93  1  0  0  0  0
 27 94  1  0  0  0  0
 28 29  1  0  0  0  0
 28 95  1  0  0  0  0
 28 96  1  0  0  0  0
 29 30  1  0  0  0  0
 29 97  1  0  0  0  0
 29 98  1  0  0  0  0
 30 31  1  0  0  0  0
 30 99  1  0  0  0  0
 30100  1  0  0  0  0
 31 32  2  0  0  0  0
 31101  1  0  0  0  0
 32 33  1  0  0  0  0
 32102  1  0  0  0  0
 34 35  1  0  0  0  0
 34103  1  0  0  0  0
 34104  1  0  0  0  0
 35 36  1  0  0  0  0
 35105  1  0  0  0  0
 35106  1  0  0  0  0
 36 37  1  0  0  0  0
 36107  1  0  0  0  0
 36108  1  0  0  0  0
 37 38  1  0  0  0  0
 37109  1  0  0  0  0
 37110  1  0  0  0  0
 38 50  1  0  0  0  0
 38111  1  1  0  0  0
 40 39  1  1  0  0  0
 40 41  1  0  0  0  0
 40 42  1  0  0  0  0
 41112  1  0  0  0  0
 41113  1  0  0  0  0
 41114  1  0  0  0  0
 42115  1  0  0  0  0
 42116  1  0  0  0  0
 43 44  1  0  0  0  0
 44 45  2  0  0  0  0
 44 49  1  0  0  0  0
 45 46  1  0  0  0  0
 45117  1  0  0  0  0
 46 47  2  0  0  0  0
 46118  1  0  0  0  0
 47 48  1  0  0  0  0
 47119  1  0  0  0  0
 48 49  2  0  0  0  0
 48120  1  0  0  0  0
 51 52  1  0  0  0  0
 51 53  1  0  0  0  0
 51121  1  6  0  0  0
 52122  1  0  0  0  0
 52123  1  0  0  0  0
 52124  1  0  0  0  0
 53 54  1  0  0  0  0
 53125  1  0  0  0  0
 53126  1  0  0  0  0
 55 56  1  0  0  0  0
 55 60  1  0  0  0  0
 55127  1  6  0  0  0
 56 57  1  0  0  0  0
 56128  1  0  0  0  0
 56129  1  0  0  0  0
 57 58  1  0  0  0  0
 57130  1  0  0  0  0
 57131  1  0  0  0  0
 58 59  1  0  0  0  0
 58132  1  0  0  0  0
 58133  1  0  0  0  0
 59134  1  0  0  0  0
 59135  1  0  0  0  0
M  END
$$$$
/media/chris/experiments/cd1a-new-docking/inputs/ligands/7ryo_ligand.pdb
 OpenBabel07032304133D

135137  0  0  1  0  0  0  0  0999 V2000
  -36.3215   57.3918   64.1597 N   0  0  0  0  0  0  0  0  0  0  0  0
  -35.3392   65.6077   72.5446 C   0  0  0  0  0  0  0  0  0  0  0  0
  -35.9321   59.5812   64.5455 O   0  0  0  0  0  0  0  0  0  0  0  0
  -34.8572   65.5604   73.9707 C   0  0  0  0  0  0  0  0  0  0  0  0
  -33.1324   57.6580   60.0424 N   0  0  0  0  0  0  0  0  0  0  0  0
  -35.2034   57.7505   59.1729 O   0  0  0  0  0  0  0  0  0  0  0  0
  -33.3578   65.3563   74.0896 C   0  0  0  0  0  0  0  0  0  0  0  0
  -32.4979   58.2313   57.2076 N   0  0  0  0  0  0  0  0  0  0  0  0
  -33.9877   58.9649   55.6827 O   0  0  0  0  0  0  0  0  0  0  0  0
  -32.8435   65.2874   75.5185 C   0  0  0  0  0  0  0  0  0  0  0  0
  -32.0963   53.5270   63.3908 N   0  0  0  0  0  0  0  0  0  0  0  0
  -31.5015   55.7543   56.1385 O   0  0  0  0  0  0  0  0  0  0  0  0
  -31.3355   65.0996   75.6111 C   0  0  0  0  0  0  0  0  0  0  0  0
  -30.3093   56.0115   65.3215 N   0  0  0  0  0  0  0  0  0  0  0  0
  -34.9053   55.2614   59.8825 O   0  0  0  0  0  0  0  0  0  0  0  0
  -30.8290   63.8344   74.9359 C   0  0  0  0  0  0  0  0  0  0  0  0
  -33.2496   54.4578   61.1839 O   0  0  0  0  0  0  0  0  0  0  0  0
  -31.1164   63.7650   73.4462 C   0  0  0  0  0  0  0  0  0  0  0  0
  -30.8225   51.7451   62.8768 O   0  0  0  0  0  0  0  0  0  0  0  0
  -30.6244   62.4924   72.7765 C   0  0  0  0  0  0  0  0  0  0  0  0
  -30.7434   55.7933   63.1318 O   0  0  0  0  0  0  0  0  0  0  0  0
  -31.2575   61.2364   73.3420 C   0  0  0  0  0  0  0  0  0  0  0  0
  -30.7462   59.9725   72.6777 C   0  0  0  0  0  0  0  0  0  0  0  0
  -30.9837   59.9122   71.1821 C   0  0  0  0  0  0  0  0  0  0  0  0
  -30.4771   58.6303   70.5505 C   0  0  0  0  0  0  0  0  0  0  0  0
  -30.6949   58.5667   69.0478 C   0  0  0  0  0  0  0  0  0  0  0  0
  -32.1532   58.6746   68.6436 C   0  0  0  0  0  0  0  0  0  0  0  0
  -32.8255   59.9716   69.0620 C   0  0  0  0  0  0  0  0  0  0  0  0
  -34.2889   60.0539   68.6635 C   0  0  0  0  0  0  0  0  0  0  0  0
  -34.5254   59.9397   67.1625 C   0  0  0  0  0  0  0  0  0  0  0  0
  -34.0382   58.6314   66.6227 C   0  0  0  0  0  0  0  0  0  0  0  0
  -34.5178   57.9488   65.5919 C   0  0  0  0  0  0  0  0  0  0  0  0
  -35.6529   58.3884   64.7501 C   0  0  0  0  0  0  0  0  0  0  0  0
  -37.4201   57.6362   63.2386 C   0  0  0  0  0  0  0  0  0  0  0  0
  -36.9560   58.4330   62.0390 C   0  0  0  0  0  0  0  0  0  0  0  0
  -35.8780   57.7610   61.2090 C   0  0  0  0  0  0  0  0  0  0  0  0
  -34.6110   57.4590   62.0020 C   0  0  0  0  0  0  0  0  0  0  0  0
  -33.5311   56.7980   61.1441 C   0  0  1  0  0  0  0  0  0  0  0  0
  -34.0234   58.0662   59.1357 C   0  0  0  0  0  0  0  0  0  0  0  0
  -33.5145   58.9550   57.9889 C   0  0  1  0  0  0  0  0  0  0  0  0
  -32.8843   60.2121   58.5810 C   0  0  0  0  0  0  0  0  0  0  0  0
  -34.5984   59.2961   56.9557 C   0  0  0  0  0  0  0  0  0  0  0  0
  -32.8468   58.2943   55.9895 C   0  0  0  0  0  0  0  0  0  0  0  0
  -32.1281   57.7119   54.8538 C   0  0  0  0  0  0  0  0  0  0  0  0
  -32.1948   58.3165   53.5979 C   0  0  0  0  0  0  0  0  0  0  0  0
  -31.7298   57.6549   52.4744 C   0  0  0  0  0  0  0  0  0  0  0  0
  -31.1943   56.3898   52.5813 C   0  0  0  0  0  0  0  0  0  0  0  0
  -31.1209   55.7665   53.8137 C   0  0  0  0  0  0  0  0  0  0  0  0
  -31.5850   56.4145   54.9542 C   0  0  0  0  0  0  0  0  0  0  0  0
  -33.9929   55.4382   60.6419 C   0  0  0  0  0  0  0  0  0  0  0  0
  -33.8810   53.1533   61.4055 C   0  0  2  0  0  0  0  0  0  0  0  0
  -34.6843   53.2328   62.6791 C   0  0  0  0  0  0  0  0  0  0  0  0
  -32.7397   52.1597   61.5044 C   0  0  0  0  0  0  0  0  0  0  0  0
  -31.7964   52.4572   62.6486 C   0  0  0  0  0  0  0  0  0  0  0  0
  -31.2842   53.9242   64.5277 C   0  0  1  0  0  0  0  0  0  0  0  0
  -30.1086   52.9557   64.6992 C   0  0  0  0  0  0  0  0  0  0  0  0
  -29.4751   53.0030   66.0854 C   0  0  0  0  0  0  0  0  0  0  0  0
  -28.8678   54.3349   66.4791 C   0  0  0  0  0  0  0  0  0  0  0  0
  -29.8715   55.4624   66.6003 C   0  0  0  0  0  0  0  0  0  0  0  0
  -30.7546   55.3253   64.2666 C   0  0  0  0  0  0  0  0  0  0  0  0
  -36.0615   56.4626   64.3550 H   0  0  0  0  0  0  0  0  0  0  0  0
  -36.3992   65.7529   72.5309 H   0  0  0  0  0  0  0  0  0  0  0  0
  -35.0991   64.6864   72.0562 H   0  0  0  0  0  0  0  0  0  0  0  0
  -34.8617   66.4174   72.0334 H   0  0  0  0  0  0  0  0  0  0  0  0
  -35.3508   64.7528   74.4697 H   0  0  0  0  0  0  0  0  0  0  0  0
  -35.0851   66.5070   74.4146 H   0  0  0  0  0  0  0  0  0  0  0  0
  -32.1934   57.9432   59.9638 H   0  0  0  0  0  0  0  0  0  0  0  0
  -32.8693   66.1712   73.5973 H   0  0  0  0  0  0  0  0  0  0  0  0
  -33.1427   64.4085   73.6421 H   0  0  0  0  0  0  0  0  0  0  0  0
  -33.3185   64.4644   76.0104 H   0  0  0  0  0  0  0  0  0  0  0  0
  -33.0738   66.2239   75.9821 H   0  0  0  0  0  0  0  0  0  0  0  0
  -32.8904   54.0614   63.1605 H   0  0  0  0  0  0  0  0  0  0  0  0
  -31.8053   56.1629   56.9251 H   0  0  0  0  0  0  0  0  0  0  0  0
  -31.0637   65.0613   76.6453 H   0  0  0  0  0  0  0  0  0  0  0  0
  -30.8878   65.9253   75.0987 H   0  0  0  0  0  0  0  0  0  0  0  0
  -30.2724   56.9907   65.2266 H   0  0  0  0  0  0  0  0  0  0  0  0
  -31.2942   62.9937   75.4068 H   0  0  0  0  0  0  0  0  0  0  0  0
  -29.7644   63.8338   75.0438 H   0  0  0  0  0  0  0  0  0  0  0  0
  -30.6407   64.5987   72.9733 H   0  0  0  0  0  0  0  0  0  0  0  0
  -32.1807   63.7789   73.3369 H   0  0  0  0  0  0  0  0  0  0  0  0
  -29.5644   62.4273   72.9073 H   0  0  0  0  0  0  0  0  0  0  0  0
  -30.8994   62.5498   71.7441 H   0  0  0  0  0  0  0  0  0  0  0  0
  -32.3165   61.2933   73.2000 H   0  0  0  0  0  0  0  0  0  0  0  0
  -30.9993   61.1833   74.3790 H   0  0  0  0  0  0  0  0  0  0  0  0
  -31.2368   59.1353   73.1286 H   0  0  0  0  0  0  0  0  0  0  0  0
  -29.6857   59.9601   72.8195 H   0  0  0  0  0  0  0  0  0  0  0  0
  -30.4821   60.7389   70.7240 H   0  0  0  0  0  0  0  0  0  0  0  0
  -32.0416   59.9486   71.0253 H   0  0  0  0  0  0  0  0  0  0  0  0
  -30.9879   57.8056   71.0019 H   0  0  0  0  0  0  0  0  0  0  0  0
  -29.4207   58.5940   70.7169 H   0  0  0  0  0  0  0  0  0  0  0  0
  -30.3120   57.6342   68.6891 H   0  0  0  0  0  0  0  0  0  0  0  0
  -30.1864   59.4053   68.6199 H   0  0  0  0  0  0  0  0  0  0  0  0
  -32.6858   57.8618   69.0916 H   0  0  0  0  0  0  0  0  0  0  0  0
  -32.1767   58.6492   67.5742 H   0  0  0  0  0  0  0  0  0  0  0  0
  -32.3039   60.7860   68.6041 H   0  0  0  0  0  0  0  0  0  0  0  0
  -32.7883   60.0140   70.1305 H   0  0  0  0  0  0  0  0  0  0  0  0
  -34.6765   60.9944   68.9955 H   0  0  0  0  0  0  0  0  0  0  0  0
  -34.7834   59.2225   69.1209 H   0  0  0  0  0  0  0  0  0  0  0  0
  -34.0056   60.7338   66.6683 H   0  0  0  0  0  0  0  0  0  0  0  0
  -35.5788   60.0019   66.9853 H   0  0  0  0  0  0  0  0  0  0  0  0
  -33.2327   58.2101   67.1113 H   0  0  0  0  0  0  0  0  0  0  0  0
  -34.0686   57.0489   65.3607 H   0  0  0  0  0  0  0  0  0  0  0  0
  -38.1871   58.1830   63.7462 H   0  0  0  0  0  0  0  0  0  0  0  0
  -37.7944   56.6937   62.8973 H   0  0  0  0  0  0  0  0  0  0  0  0
  -36.5724   59.3687   62.3887 H   0  0  0  0  0  0  0  0  0  0  0  0
  -37.8072   58.5391   61.3994 H   0  0  0  0  0  0  0  0  0  0  0  0
  -35.6238   58.4067   60.3945 H   0  0  0  0  0  0  0  0  0  0  0  0
  -36.2729   56.8255   60.8717 H   0  0  0  0  0  0  0  0  0  0  0  0
  -34.8590   56.8018   62.8091 H   0  0  0  0  0  0  0  0  0  0  0  0
  -34.2203   58.3886   62.3599 H   0  0  0  0  0  0  0  0  0  0  0  0
  -32.6704   56.6456   61.7612 H   0  0  0  0  0  0  0  0  0  0  0  0
  -32.1365   59.9342   59.2941 H   0  0  0  0  0  0  0  0  0  0  0  0
  -33.6395   60.7955   59.0650 H   0  0  0  0  0  0  0  0  0  0  0  0
  -32.4351   60.7880   57.7991 H   0  0  0  0  0  0  0  0  0  0  0  0
  -35.4779   58.7091   57.1196 H   0  0  0  0  0  0  0  0  0  0  0  0
  -34.9103   60.3182   57.0088 H   0  0  0  0  0  0  0  0  0  0  0  0
  -32.5937   59.2638   53.5060 H   0  0  0  0  0  0  0  0  0  0  0  0
  -31.7845   58.1121   51.5508 H   0  0  0  0  0  0  0  0  0  0  0  0
  -30.8469   55.9056   51.7388 H   0  0  0  0  0  0  0  0  0  0  0  0
  -30.7207   54.8181   53.8877 H   0  0  0  0  0  0  0  0  0  0  0  0
  -34.5504   52.8576   60.6249 H   0  0  0  0  0  0  0  0  0  0  0  0
  -34.0458   53.5270   63.4857 H   0  0  0  0  0  0  0  0  0  0  0  0
  -35.1102   52.2747   62.8926 H   0  0  0  0  0  0  0  0  0  0  0  0
  -35.4669   53.9531   62.5628 H   0  0  0  0  0  0  0  0  0  0  0  0
  -32.1852   52.1849   60.5896 H   0  0  0  0  0  0  0  0  0  0  0  0
  -33.1683   51.1960   61.6844 H   0  0  0  0  0  0  0  0  0  0  0  0
  -31.8736   53.9069   65.4205 H   0  0  0  0  0  0  0  0  0  0  0  0
  -29.3591   53.2021   63.9763 H   0  0  0  0  0  0  0  0  0  0  0  0
  -30.4947   51.9669   64.5646 H   0  0  0  0  0  0  0  0  0  0  0  0
  -28.7014   52.2647   66.1199 H   0  0  0  0  0  0  0  0  0  0  0  0
  -30.2706   52.8260   66.7787 H   0  0  0  0  0  0  0  0  0  0  0  0
  -28.1455   54.6067   65.7379 H   0  0  0  0  0  0  0  0  0  0  0  0
  -28.4360   54.2016   67.4490 H   0  0  0  0  0  0  0  0  0  0  0  0
  -30.7311   55.0924   67.1189 H   0  0  0  0  0  0  0  0  0  0  0  0
  -29.3816   56.2560   67.1249 H   0  0  0  0  0  0  0  0  0  0  0  0
  1 33  1  0  0  0  0
  1 34  1  0  0  0  0
  1 61  1  0  0  0  0
  2  4  1  0  0  0  0
  2 62  1  0  0  0  0
  2 63  1  0  0  0  0
  2 64  1  0  0  0  0
  3 33  2  0  0  0  0
  4  7  1  0  0  0  0
  4 65  1  0  0  0  0
  4 66  1  0  0  0  0
  5 38  1  0  0  0  0
  5 39  1  0  0  0  0
  5 67  1  0  0  0  0
  6 39  2  0  0  0  0
  7 10  1  0  0  0  0
  7 68  1  0  0  0  0
  7 69  1  0  0  0  0
  8 40  1  0  0  0  0
  8 43  2  0  0  0  0
  9 42  1  0  0  0  0
  9 43  1  0  0  0  0
 10 13  1  0  0  0  0
 10 70  1  0  0  0  0
 10 71  1  0  0  0  0
 11 54  1  0  0  0  0
 11 55  1  0  0  0  0
 11 72  1  0  0  0  0
 12 49  1  0  0  0  0
 12 73  1  0  0  0  0
 13 16  1  0  0  0  0
 13 74  1  0  0  0  0
 13 75  1  0  0  0  0
 14 59  1  0  0  0  0
 14 60  1  0  0  0  0
 14 76  1  0  0  0  0
 15 50  2  0  0  0  0
 16 18  1  0  0  0  0
 16 77  1  0  0  0  0
 16 78  1  0  0  0  0
 17 50  1  0  0  0  0
 17 51  1  0  0  0  0
 18 20  1  0  0  0  0
 18 79  1  0  0  0  0
 18 80  1  0  0  0  0
 19 54  2  0  0  0  0
 20 22  1  0  0  0  0
 20 81  1  0  0  0  0
 20 82  1  0  0  0  0
 21 60  2  0  0  0  0
 22 23  1  0  0  0  0
 22 83  1  0  0  0  0
 22 84  1  0  0  0  0
 23 24  1  0  0  0  0
 23 85  1  0  0  0  0
 23 86  1  0  0  0  0
 24 25  1  0  0  0  0
 24 87  1  0  0  0  0
 24 88  1  0  0  0  0
 25 26  1  0  0  0  0
 25 89  1  0  0  0  0
 25 90  1  0  0  0  0
 26 27  1  0  0  0  0
 26 91  1  0  0  0  0
 26 92  1  0  0  0  0
 27 28  1  0  0  0  0
 27 93  1  0  0  0  0
 27 94  1  0  0  0  0
 28 29  1  0  0  0  0
 28 95  1  0  0  0  0
 28 96  1  0  0  0  0
 29 30  1  0  0  0  0
 29 97  1  0  0  0  0
 29 98  1  0  0  0  0
 30 31  1  0  0  0  0
 30 99  1  0  0  0  0
 30100  1  0  0  0  0
 31 32  2  0  0  0  0
 31101  1  0  0  0  0
 32 33  1  0  0  0  0
 32102  1  0  0  0  0
 34 35  1  0  0  0  0
 34103  1  0  0  0  0
 34104  1  0  0  0  0
 35 36  1  0  0  0  0
 35105  1  0  0  0  0
 35106  1  0  0  0  0
 36 37  1  0  0  0  0
 36107  1  0  0  0  0
 36108  1  0  0  0  0
 37 38  1  0  0  0  0
 37109  1  0  0  0  0
 37110  1  0  0  0  0
 38 50  1  0  0  0  0
 38111  1  1  0  0  0
 40 39  1  1  0  0  0
 40 41  1  0  0  0  0
 40 42  1  0  0  0  0
 41112  1  0  0  0  0
 41113  1  0  0  0  0
 41114  1  0  0  0  0
 42115  1  0  0  0  0
 42116  1  0  0  0  0
 43 44  1  0  0  0  0
 44 45  2  0  0  0  0
 44 49  1  0  0  0  0
 45 46  1  0  0  0  0
 45117  1  0  0  0  0
 46 47  2  0  0  0  0
 46118  1  0  0  0  0
 47 48  1  0  0  0  0
 47119  1  0  0  0  0
 48 49  2  0  0  0  0
 48120  1  0  0  0  0
 51 52  1  0  0  0  0
 51 53  1  0  0  0  0
 51121  1  6  0  0  0
 52122  1  0  0  0  0
 52123  1  0  0  0  0
 52124  1  0  0  0  0
 53 54  1  0  0  0  0
 53125  1  0  0  0  0
 53126  1  0  0  0  0
 55 56  1  0  0  0  0
 55 60  1  0  0  0  0
 55127  1  1  0  0  0
 56 57  1  0  0  0  0
 56128  1  0  0  0  0
 56129  1  0  0  0  0
 57 58  1  0  0  0  0
 57130  1  0  0  0  0
 57131  1  0  0  0  0
 58 59  1  0  0  0  0
 58132  1  0  0  0  0
 58133  1  0  0  0  0
 59134  1  0  0  0  0
 59135  1  0  0  0  0
M  END
$$$$
/media/chris/experiments/cd1a-new-docking/inputs/ligands/7ryo_ligand.pdb
 OpenBabel07032304133D

135137  0  0  1  0  0  0  0  0999 V2000
  -37.9843   59.6092   60.1567 N   0  0  0  0  0  0  0  0  0  0  0  0
  -53.6272   53.9998   55.8341 C   0  0  0  0  0  0  0  0  0  0  0  0
  -39.6701   58.7680   58.9139 O   0  0  0  0  0  0  0  0  0  0  0  0
  -52.1345   53.9296   56.0225 C   0  0  0  0  0  0  0  0  0  0  0  0
  -33.1324   57.6580   60.0424 N   0  0  0  0  0  0  0  0  0  0  0  0
  -35.2034   57.7505   59.1729 O   0  0  0  0  0  0  0  0  0  0  0  0
  -51.5017   55.2811   56.2998 C   0  0  0  0  0  0  0  0  0  0  0  0
  -32.4979   58.2313   57.2076 N   0  0  0  0  0  0  0  0  0  0  0  0
  -33.9877   58.9649   55.6827 O   0  0  0  0  0  0  0  0  0  0  0  0
  -49.9924   55.2445   56.4779 C   0  0  0  0  0  0  0  0  0  0  0  0
  -38.3793   53.9233   58.8809 N   0  0  0  0  0  0  0  0  0  0  0  0
  -34.1322   57.6705   53.4911 O   0  0  0  0  0  0  0  0  0  0  0  0
  -49.3839   56.6088   56.7717 C   0  0  0  0  0  0  0  0  0  0  0  0
  -41.8470   52.9811   59.3065 N   0  0  0  0  0  0  0  0  0  0  0  0
  -33.4892   54.3903   60.9393 O   0  0  0  0  0  0  0  0  0  0  0  0
  -49.6398   57.6446   55.6878 C   0  0  0  0  0  0  0  0  0  0  0  0
  -35.0325   55.5742   59.8004 O   0  0  0  0  0  0  0  0  0  0  0  0
  -49.0214   59.0037   55.9659 C   0  0  0  0  0  0  0  0  0  0  0  0
  -37.9880   56.0689   59.4334 O   0  0  0  0  0  0  0  0  0  0  0  0
  -47.5074   58.9826   56.0985 C   0  0  0  0  0  0  0  0  0  0  0  0
  -40.6513   53.6667   57.5370 O   0  0  0  0  0  0  0  0  0  0  0  0
  -46.9142   60.3463   56.3926 C   0  0  0  0  0  0  0  0  0  0  0  0
  -45.4022   60.3155   56.5057 C   0  0  0  0  0  0  0  0  0  0  0  0
  -44.8749   59.3980   57.5906 C   0  0  0  0  0  0  0  0  0  0  0  0
  -43.3620   59.4020   57.6898 C   0  0  0  0  0  0  0  0  0  0  0  0
  -42.6685   58.9721   56.4077 C   0  0  0  0  0  0  0  0  0  0  0  0
  -42.9771   59.8692   55.2238 C   0  0  0  0  0  0  0  0  0  0  0  0
  -42.5542   61.3172   55.4074 C   0  0  0  0  0  0  0  0  0  0  0  0
  -41.0610   61.4917   55.6241 C   0  0  0  0  0  0  0  0  0  0  0  0
  -40.5261   60.7544   56.8457 C   0  0  0  0  0  0  0  0  0  0  0  0
  -39.0559   60.9717   57.0243 C   0  0  0  0  0  0  0  0  0  0  0  0
  -38.2699   60.4727   57.9687 C   0  0  0  0  0  0  0  0  0  0  0  0
  -38.7243   59.5625   59.0436 C   0  0  0  0  0  0  0  0  0  0  0  0
  -38.2360   58.7337   61.2903 C   0  0  0  0  0  0  0  0  0  0  0  0
  -36.9560   58.4330   62.0390 C   0  0  0  0  0  0  0  0  0  0  0  0
  -35.8780   57.7610   61.2090 C   0  0  0  0  0  0  0  0  0  0  0  0
  -34.6110   57.4590   62.0020 C   0  0  0  0  0  0  0  0  0  0  0  0
  -33.5311   56.7980   61.1441 C   0  0  1  0  0  0  0  0  0  0  0  0
  -34.0234   58.0662   59.1357 C   0  0  0  0  0  0  0  0  0  0  0  0
  -33.5145   58.9550   57.9889 C   0  0  1  0  0  0  0  0  0  0  0  0
  -32.8843   60.2121   58.5810 C   0  0  0  0  0  0  0  0  0  0  0  0
  -34.5984   59.2961   56.9557 C   0  0  0  0  0  0  0  0  0  0  0  0
  -32.8468   58.2943   55.9895 C   0  0  0  0  0  0  0  0  0  0  0  0
  -32.1281   57.7119   54.8538 C   0  0  0  0  0  0  0  0  0  0  0  0
  -30.7407   57.5701   54.9008 C   0  0  0  0  0  0  0  0  0  0  0  0
  -30.0279   57.2535   53.7571 C   0  0  0  0  0  0  0  0  0  0  0  0
  -30.6794   57.0738   52.5564 C   0  0  0  0  0  0  0  0  0  0  0  0
  -32.0534   57.2131   52.4818 C   0  0  0  0  0  0  0  0  0  0  0  0
  -32.7869   57.5330   53.6200 C   0  0  0  0  0  0  0  0  0  0  0  0
  -33.9929   55.4382   60.6419 C   0  0  0  0  0  0  0  0  0  0  0  0
  -35.1887   54.5859   58.7288 C   0  0  2  0  0  0  0  0  0  0  0  0
  -33.9451   54.6195   57.8766 C   0  0  0  0  0  0  0  0  0  0  0  0
  -36.4258   55.0095   57.9609 C   0  0  0  0  0  0  0  0  0  0  0  0
  -37.6683   55.0531   58.8223 C   0  0  0  0  0  0  0  0  0  0  0  0
  -39.5890   53.8186   59.6779 C   0  0  1  0  0  0  0  0  0  0  0  0
  -39.8714   55.1495   60.3840 C   0  0  0  0  0  0  0  0  0  0  0  0
  -40.8239   55.0230   61.5680 C   0  0  0  0  0  0  0  0  0  0  0  0
  -42.2154   54.5227   61.2343 C   0  0  0  0  0  0  0  0  0  0  0  0
  -42.2537   53.1055   60.7021 C   0  0  0  0  0  0  0  0  0  0  0  0
  -40.7433   53.4821   58.7471 C   0  0  0  0  0  0  0  0  0  0  0  0
  -37.2452   60.2572   60.2104 H   0  0  0  0  0  0  0  0  0  0  0  0
  -54.0091   53.0187   55.6431 H   0  0  0  0  0  0  0  0  0  0  0  0
  -53.8524   54.6379   55.0052 H   0  0  0  0  0  0  0  0  0  0  0  0
  -54.0804   54.3927   56.7201 H   0  0  0  0  0  0  0  0  0  0  0  0
  -51.6982   53.5261   55.1327 H   0  0  0  0  0  0  0  0  0  0  0  0
  -51.9509   53.3117   56.8765 H   0  0  0  0  0  0  0  0  0  0  0  0
  -32.1934   57.9432   59.9638 H   0  0  0  0  0  0  0  0  0  0  0  0
  -51.9346   55.6757   57.1952 H   0  0  0  0  0  0  0  0  0  0  0  0
  -51.6926   55.8892   55.4404 H   0  0  0  0  0  0  0  0  0  0  0  0
  -49.5541   54.8643   55.5788 H   0  0  0  0  0  0  0  0  0  0  0  0
  -49.7895   54.6201   57.3228 H   0  0  0  0  0  0  0  0  0  0  0  0
  -38.0745   53.1395   58.3691 H   0  0  0  0  0  0  0  0  0  0  0  0
  -34.6549   57.8856   54.2385 H   0  0  0  0  0  0  0  0  0  0  0  0
  -48.3261   56.4895   56.8805 H   0  0  0  0  0  0  0  0  0  0  0  0
  -49.8506   56.9713   57.6637 H   0  0  0  0  0  0  0  0  0  0  0  0
  -42.4497   52.4746   58.7153 H   0  0  0  0  0  0  0  0  0  0  0  0
  -50.6975   57.7715   55.5881 H   0  0  0  0  0  0  0  0  0  0  0  0
  -49.1802   57.2749   54.7950 H   0  0  0  0  0  0  0  0  0  0  0  0
  -49.4332   59.3794   56.8791 H   0  0  0  0  0  0  0  0  0  0  0  0
  -49.2481   59.6233   55.1236 H   0  0  0  0  0  0  0  0  0  0  0  0
  -47.0907   58.6211   55.1816 H   0  0  0  0  0  0  0  0  0  0  0  0
  -47.2697   58.3475   56.9262 H   0  0  0  0  0  0  0  0  0  0  0  0
  -47.3193   60.7038   57.3162 H   0  0  0  0  0  0  0  0  0  0  0  0
  -47.1638   60.9901   55.5752 H   0  0  0  0  0  0  0  0  0  0  0  0
  -45.0616   61.3086   56.7124 H   0  0  0  0  0  0  0  0  0  0  0  0
  -45.0338   59.9335   55.5766 H   0  0  0  0  0  0  0  0  0  0  0  0
  -45.1997   58.4004   57.3804 H   0  0  0  0  0  0  0  0  0  0  0  0
  -45.2568   59.7554   58.5241 H   0  0  0  0  0  0  0  0  0  0  0  0
  -43.0723   58.7323   58.4724 H   0  0  0  0  0  0  0  0  0  0  0  0
  -43.0625   60.4103   57.8864 H   0  0  0  0  0  0  0  0  0  0  0  0
  -42.9825   57.9772   56.1699 H   0  0  0  0  0  0  0  0  0  0  0  0
  -41.6149   59.0335   56.5835 H   0  0  0  0  0  0  0  0  0  0  0  0
  -44.0333   59.8479   55.0539 H   0  0  0  0  0  0  0  0  0  0  0  0
  -42.4142   59.4888   54.3972 H   0  0  0  0  0  0  0  0  0  0  0  0
  -43.0681   61.7145   56.2577 H   0  0  0  0  0  0  0  0  0  0  0  0
  -42.8027   61.8337   54.5039 H   0  0  0  0  0  0  0  0  0  0  0  0
  -40.8572   62.5352   55.7439 H   0  0  0  0  0  0  0  0  0  0  0  0
  -40.5713   61.0741   54.7692 H   0  0  0  0  0  0  0  0  0  0  0  0
  -40.7098   59.7071   56.7265 H   0  0  0  0  0  0  0  0  0  0  0  0
  -41.0270   61.1358   57.7109 H   0  0  0  0  0  0  0  0  0  0  0  0
  -38.5993   61.5829   56.3293 H   0  0  0  0  0  0  0  0  0  0  0  0
  -37.2726   60.7373   57.9529 H   0  0  0  0  0  0  0  0  0  0  0  0
  -38.6582   57.8163   60.9368 H   0  0  0  0  0  0  0  0  0  0  0  0
  -38.9129   59.2259   61.9570 H   0  0  0  0  0  0  0  0  0  0  0  0
  -37.1937   57.7896   62.8603 H   0  0  0  0  0  0  0  0  0  0  0  0
  -36.5565   59.3772   62.3453 H   0  0  0  0  0  0  0  0  0  0  0  0
  -35.6238   58.4067   60.3945 H   0  0  0  0  0  0  0  0  0  0  0  0
  -36.2729   56.8255   60.8717 H   0  0  0  0  0  0  0  0  0  0  0  0
  -34.8590   56.8018   62.8091 H   0  0  0  0  0  0  0  0  0  0  0  0
  -34.2203   58.3886   62.3599 H   0  0  0  0  0  0  0  0  0  0  0  0
  -32.6704   56.6456   61.7612 H   0  0  0  0  0  0  0  0  0  0  0  0
  -32.1365   59.9342   59.2941 H   0  0  0  0  0  0  0  0  0  0  0  0
  -33.6395   60.7955   59.0650 H   0  0  0  0  0  0  0  0  0  0  0  0
  -32.4351   60.7880   57.7991 H   0  0  0  0  0  0  0  0  0  0  0  0
  -35.4779   58.7091   57.1196 H   0  0  0  0  0  0  0  0  0  0  0  0
  -34.9103   60.3182   57.0088 H   0  0  0  0  0  0  0  0  0  0  0  0
  -30.2423   57.7022   55.7948 H   0  0  0  0  0  0  0  0  0  0  0  0
  -29.0021   57.1514   53.8041 H   0  0  0  0  0  0  0  0  0  0  0  0
  -30.1402   56.8344   51.7096 H   0  0  0  0  0  0  0  0  0  0  0  0
  -32.5359   57.0793   51.5794 H   0  0  0  0  0  0  0  0  0  0  0  0
  -35.3075   53.5819   59.0792 H   0  0  0  0  0  0  0  0  0  0  0  0
  -33.7930   55.6119   57.5067 H   0  0  0  0  0  0  0  0  0  0  0  0
  -34.0586   53.9454   57.0534 H   0  0  0  0  0  0  0  0  0  0  0  0
  -33.1015   54.3249   58.4652 H   0  0  0  0  0  0  0  0  0  0  0  0
  -36.5874   54.3141   57.1638 H   0  0  0  0  0  0  0  0  0  0  0  0
  -36.2533   56.0006   57.5966 H   0  0  0  0  0  0  0  0  0  0  0  0
  -39.4720   53.0567   60.4199 H   0  0  0  0  0  0  0  0  0  0  0  0
  -40.3022   55.8243   59.6741 H   0  0  0  0  0  0  0  0  0  0  0  0
  -38.9382   55.5044   60.7689 H   0  0  0  0  0  0  0  0  0  0  0  0
  -40.9199   55.9886   62.0188 H   0  0  0  0  0  0  0  0  0  0  0  0
  -40.3937   54.2867   62.2144 H   0  0  0  0  0  0  0  0  0  0  0  0
  -42.6365   55.1707   60.4943 H   0  0  0  0  0  0  0  0  0  0  0  0
  -42.7702   54.5230   62.1492 H   0  0  0  0  0  0  0  0  0  0  0  0
  -41.5981   52.5052   61.2977 H   0  0  0  0  0  0  0  0  0  0  0  0
  -43.2727   52.7836   60.7559 H   0  0  0  0  0  0  0  0  0  0  0  0
  1 33  1  0  0  0  0
  1 34  1  0  0  0  0
  1 61  1  0  0  0  0
  2  4  1  0  0  0  0
  2 62  1  0  0  0  0
  2 63  1  0  0  0  0
  2 64  1  0  0  0  0
  3 33  2  0  0  0  0
  4  7  1  0  0  0  0
  4 65  1  0  0  0  0
  4 66  1  0  0  0  0
  5 38  1  0  0  0  0
  5 39  1  0  0  0  0
  5 67  1  0  0  0  0
  6 39  2  0  0  0  0
  7 10  1  0  0  0  0
  7 68  1  0  0  0  0
  7 69  1  0  0  0  0
  8 40  1  0  0  0  0
  8 43  2  0  0  0  0
  9 42  1  0  0  0  0
  9 43  1  0  0  0  0
 10 13  1  0  0  0  0
 10 70  1  0  0  0  0
 10 71  1  0  0  0  0
 11 54  1  0  0  0  0
 11 55  1  0  0  0  0
 11 72  1  0  0  0  0
 12 49  1  0  0  0  0
 12 73  1  0  0  0  0
 13 16  1  0  0  0  0
 13 74  1  0  0  0  0
 13 75  1  0  0  0  0
 14 59  1  0  0  0  0
 14 60  1  0  0  0  0
 14 76  1  0  0  0  0
 15 50  2  0  0  0  0
 16 18  1  0  0  0  0
 16 77  1  0  0  0  0
 16 78  1  0  0  0  0
 17 50  1  0  0  0  0
 17 51  1  0  0  0  0
 18 20  1  0  0  0  0
 18 79  1  0  0  0  0
 18 80  1  0  0  0  0
 19 54  2  0  0  0  0
 20 22  1  0  0  0  0
 20 81  1  0  0  0  0
 20 82  1  0  0  0  0
 21 60  2  0  0  0  0
 22 23  1  0  0  0  0
 22 83  1  0  0  0  0
 22 84  1  0  0  0  0
 23 24  1  0  0  0  0
 23 85  1  0  0  0  0
 23 86  1  0  0  0  0
 24 25  1  0  0  0  0
 24 87  1  0  0  0  0
 24 88  1  0  0  0  0
 25 26  1  0  0  0  0
 25 89  1  0  0  0  0
 25 90  1  0  0  0  0
 26 27  1  0  0  0  0
 26 91  1  0  0  0  0
 26 92  1  0  0  0  0
 27 28  1  0  0  0  0
 27 93  1  0  0  0  0
 27 94  1  0  0  0  0
 28 29  1  0  0  0  0
 28 95  1  0  0  0  0
 28 96  1  0  0  0  0
 29 30  1  0  0  0  0
 29 97  1  0  0  0  0
 29 98  1  0  0  0  0
 30 31  1  0  0  0  0
 30 99  1  0  0  0  0
 30100  1  0  0  0  0
 31 32  2  0  0  0  0
 31101  1  0  0  0  0
 32 33  1  0  0  0  0
 32102  1  0  0  0  0
 34 35  1  0  0  0  0
 34103  1  0  0  0  0
 34104  1  0  0  0  0
 35 36  1  0  0  0  0
 35105  1  0  0  0  0
 35106  1  0  0  0  0
 36 37  1  0  0  0  0
 36107  1  0  0  0  0
 36108  1  0  0  0  0
 37 38  1  0  0  0  0
 37109  1  0  0  0  0
 37110  1  0  0  0  0
 38 50  1  0  0  0  0
 38111  1  1  0  0  0
 40 39  1  1  0  0  0
 40 41  1  0  0  0  0
 40 42  1  0  0  0  0
 41112  1  0  0  0  0
 41113  1  0  0  0  0
 41114  1  0  0  0  0
 42115  1  0  0  0  0
 42116  1  0  0  0  0
 43 44  1  0  0  0  0
 44 45  2  0  0  0  0
 44 49  1  0  0  0  0
 45 46  1  0  0  0  0
 45117  1  0  0  0  0
 46 47  2  0  0  0  0
 46118  1  0  0  0  0
 47 48  1  0  0  0  0
 47119  1  0  0  0  0
 48 49  2  0  0  0  0
 48120  1  0  0  0  0
 51 52  1  0  0  0  0
 51 53  1  0  0  0  0
 51121  1  1  0  0  0
 52122  1  0  0  0  0
 52123  1  0  0  0  0
 52124  1  0  0  0  0
 53 54  1  0  0  0  0
 53125  1  0  0  0  0
 53126  1  0  0  0  0
 55 56  1  0  0  0  0
 55 60  1  0  0  0  0
 55127  1  1  0  0  0
 56 57  1  0  0  0  0
 56128  1  0  0  0  0
 56129  1  0  0  0  0
 57 58  1  0  0  0  0
 57130  1  0  0  0  0
 57131  1  0  0  0  0
 58 59  1  0  0  0  0
 58132  1  0  0  0  0
 58133  1  0  0  0  0
 59134  1  0  0  0  0
 59135  1  0  0  0  0
M  END
$$$$
/media/chris/experiments/cd1a-new-docking/inputs/ligands/7ryo_ligand.pdb
 OpenBabel07032304133D

135137  0  0  1  0  0  0  0  0999 V2000
  -39.2043   59.3899   62.1545 N   0  0  0  0  0  0  0  0  0  0  0  0
  -34.8495   60.9683   55.9116 C   0  0  0  0  0  0  0  0  0  0  0  0
  -40.7915   59.5309   60.5561 O   0  0  0  0  0  0  0  0  0  0  0  0
  -35.1305   59.5021   56.1109 C   0  0  0  0  0  0  0  0  0  0  0  0
  -34.0017   55.5459   60.5756 N   0  0  0  0  0  0  0  0  0  0  0  0
  -35.6789   56.5223   59.4411 O   0  0  0  0  0  0  0  0  0  0  0  0
  -36.1670   58.9545   55.1466 C   0  0  0  0  0  0  0  0  0  0  0  0
  -36.9573   54.1546   58.9852 N   0  0  0  0  0  0  0  0  0  0  0  0
  -36.0618   53.4248   57.0491 O   0  0  0  0  0  0  0  0  0  0  0  0
  -37.5230   59.6373   55.2261 C   0  0  0  0  0  0  0  0  0  0  0  0
  -26.8211   57.9823   61.3311 N   0  0  0  0  0  0  0  0  0  0  0  0
  -37.7046   51.6144   55.9533 O   0  0  0  0  0  0  0  0  0  0  0  0
  -38.5496   59.0592   54.2617 C   0  0  0  0  0  0  0  0  0  0  0  0
  -23.3733   58.7371   60.5331 N   0  0  0  0  0  0  0  0  0  0  0  0
  -32.1446   55.8670   62.8909 O   0  0  0  0  0  0  0  0  0  0  0  0
  -39.9055   59.7456   54.3200 C   0  0  0  0  0  0  0  0  0  0  0  0
  -31.2621   57.3590   61.4502 O   0  0  0  0  0  0  0  0  0  0  0  0
  -40.9401   59.1634   53.3727 C   0  0  0  0  0  0  0  0  0  0  0  0
  -27.1966   56.3046   59.8800 O   0  0  0  0  0  0  0  0  0  0  0  0
  -42.2894   59.8615   53.4203 C   0  0  0  0  0  0  0  0  0  0  0  0
  -25.2974   58.9898   59.4084 O   0  0  0  0  0  0  0  0  0  0  0  0
  -42.9323   59.8264   54.7927 C   0  0  0  0  0  0  0  0  0  0  0  0
  -44.2853   60.5110   54.8234 C   0  0  0  0  0  0  0  0  0  0  0  0
  -44.9546   60.5125   56.1832 C   0  0  0  0  0  0  0  0  0  0  0  0
  -44.1448   61.2319   57.2440 C   0  0  0  0  0  0  0  0  0  0  0  0
  -44.7990   61.2246   58.6157 C   0  0  0  0  0  0  0  0  0  0  0  0
  -43.9956   61.9595   59.6722 C   0  0  0  0  0  0  0  0  0  0  0  0
  -44.6232   61.9505   61.0562 C   0  0  0  0  0  0  0  0  0  0  0  0
  -44.8042   60.5568   61.6325 C   0  0  0  0  0  0  0  0  0  0  0  0
  -43.5001   59.7873   61.8029 C   0  0  0  0  0  0  0  0  0  0  0  0
  -42.5622   60.4862   62.7369 C   0  0  0  0  0  0  0  0  0  0  0  0
  -41.2363   60.4700   62.7195 C   0  0  0  0  0  0  0  0  0  0  0  0
  -40.4196   59.7432   61.7219 C   0  0  0  0  0  0  0  0  0  0  0  0
  -38.2360   58.7337   61.2903 C   0  0  0  0  0  0  0  0  0  0  0  0
  -36.9560   58.4330   62.0390 C   0  0  0  0  0  0  0  0  0  0  0  0
  -35.8780   57.7610   61.2090 C   0  0  0  0  0  0  0  0  0  0  0  0
  -34.6110   57.4590   62.0020 C   0  0  0  0  0  0  0  0  0  0  0  0
  -33.5311   56.7980   61.1441 C   0  0  1  0  0  0  0  0  0  0  0  0
  -35.0564   55.5194   59.7572 C   0  0  0  0  0  0  0  0  0  0  0  0
  -35.5035   54.1507   59.2180 C   0  0  1  0  0  0  0  0  0  0  0  0
  -35.1686   53.0796   60.2517 C   0  0  0  0  0  0  0  0  0  0  0  0
  -34.9115   53.8156   57.8411 C   0  0  0  0  0  0  0  0  0  0  0  0
  -37.1474   53.7531   57.7969 C   0  0  0  0  0  0  0  0  0  0  0  0
  -38.4447   53.5972   57.1348 C   0  0  0  0  0  0  0  0  0  0  0  0
  -39.5169   54.4152   57.4930 C   0  0  0  0  0  0  0  0  0  0  0  0
  -40.7986   54.1232   57.0590 C   0  0  0  0  0  0  0  0  0  0  0  0
  -41.0327   53.0204   56.2668 C   0  0  0  0  0  0  0  0  0  0  0  0
  -39.9880   52.1910   55.9014 C   0  0  0  0  0  0  0  0  0  0  0  0
  -38.6932   52.4667   56.3295 C   0  0  0  0  0  0  0  0  0  0  0  0
  -32.2521   56.5942   61.9423 C   0  0  0  0  0  0  0  0  0  0  0  0
  -29.8822   56.8885   61.6059 C   0  0  2  0  0  0  0  0  0  0  0  0
  -29.4293   57.2223   63.0049 C   0  0  0  0  0  0  0  0  0  0  0  0
  -29.0797   57.6226   60.5492 C   0  0  0  0  0  0  0  0  0  0  0  0
  -27.6155   57.2433   60.5514 C   0  0  0  0  0  0  0  0  0  0  0  0
  -25.3959   57.7238   61.4387 C   0  0  1  0  0  0  0  0  0  0  0  0
  -25.1129   56.2334   61.2195 C   0  0  0  0  0  0  0  0  0  0  0  0
  -23.7540   55.7854   61.7468 C   0  0  0  0  0  0  0  0  0  0  0  0
  -22.5537   56.4494   61.1017 C   0  0  0  0  0  0  0  0  0  0  0  0
  -22.4628   57.9407   61.3487 C   0  0  0  0  0  0  0  0  0  0  0  0
  -24.6835   58.5389   60.3710 C   0  0  0  0  0  0  0  0  0  0  0  0
  -38.9572   59.5804   63.0882 H   0  0  0  0  0  0  0  0  0  0  0  0
  -34.1141   61.2899   56.6192 H   0  0  0  0  0  0  0  0  0  0  0  0
  -35.7508   61.5269   56.0551 H   0  0  0  0  0  0  0  0  0  0  0  0
  -34.4840   61.1297   54.9190 H   0  0  0  0  0  0  0  0  0  0  0  0
  -35.4853   59.3567   57.1099 H   0  0  0  0  0  0  0  0  0  0  0  0
  -34.2170   58.9759   55.9278 H   0  0  0  0  0  0  0  0  0  0  0  0
  -33.5369   54.7066   60.7968 H   0  0  0  0  0  0  0  0  0  0  0  0
  -36.3034   57.9144   55.3574 H   0  0  0  0  0  0  0  0  0  0  0  0
  -35.7919   59.1353   54.1610 H   0  0  0  0  0  0  0  0  0  0  0  0
  -37.3935   60.6753   55.0012 H   0  0  0  0  0  0  0  0  0  0  0  0
  -37.8973   59.4810   56.2162 H   0  0  0  0  0  0  0  0  0  0  0  0
  -27.2130   58.7233   61.8475 H   0  0  0  0  0  0  0  0  0  0  0  0
  -36.8217   51.7718   56.2249 H   0  0  0  0  0  0  0  0  0  0  0  0
  -38.6858   58.0240   54.4954 H   0  0  0  0  0  0  0  0  0  0  0  0
  -38.1672   59.2108   53.2739 H   0  0  0  0  0  0  0  0  0  0  0  0
  -22.9803   59.5007   60.0517 H   0  0  0  0  0  0  0  0  0  0  0  0
  -39.7696   60.7782   54.0747 H   0  0  0  0  0  0  0  0  0  0  0  0
  -40.2808   59.6005   55.3115 H   0  0  0  0  0  0  0  0  0  0  0  0
  -41.0855   58.1340   53.6258 H   0  0  0  0  0  0  0  0  0  0  0  0
  -40.5594   59.2962   52.3816 H   0  0  0  0  0  0  0  0  0  0  0  0
  -42.9456   59.3809   52.7250 H   0  0  0  0  0  0  0  0  0  0  0  0
  -42.1243   60.8893   53.1728 H   0  0  0  0  0  0  0  0  0  0  0  0
  -42.2839   60.3187   55.4870 H   0  0  0  0  0  0  0  0  0  0  0  0
  -43.0840   58.7995   55.0521 H   0  0  0  0  0  0  0  0  0  0  0  0
  -44.9304   60.0087   54.1333 H   0  0  0  0  0  0  0  0  0  0  0  0
  -44.1155   61.5354   54.5652 H   0  0  0  0  0  0  0  0  0  0  0  0
  -45.0976   59.4984   56.4934 H   0  0  0  0  0  0  0  0  0  0  0  0
  -45.8827   61.0350   56.0813 H   0  0  0  0  0  0  0  0  0  0  0  0
  -44.0125   62.2485   56.9375 H   0  0  0  0  0  0  0  0  0  0  0  0
  -43.2147   60.7112   57.3366 H   0  0  0  0  0  0  0  0  0  0  0  0
  -44.9200   60.2084   58.9281 H   0  0  0  0  0  0  0  0  0  0  0  0
  -45.7353   61.7338   58.5210 H   0  0  0  0  0  0  0  0  0  0  0  0
  -43.8855   62.9774   59.3612 H   0  0  0  0  0  0  0  0  0  0  0  0
  -43.0606   61.4463   59.7572 H   0  0  0  0  0  0  0  0  0  0  0  0
  -45.5834   62.4187   60.9953 H   0  0  0  0  0  0  0  0  0  0  0  0
  -43.9553   62.4750   61.7071 H   0  0  0  0  0  0  0  0  0  0  0  0
  -45.4407   60.0006   60.9765 H   0  0  0  0  0  0  0  0  0  0  0  0
  -45.2255   60.6758   62.6088 H   0  0  0  0  0  0  0  0  0  0  0  0
  -43.0284   59.6886   60.8476 H   0  0  0  0  0  0  0  0  0  0  0  0
  -43.7307   58.8283   62.2178 H   0  0  0  0  0  0  0  0  0  0  0  0
  -42.9998   61.0480   63.4839 H   0  0  0  0  0  0  0  0  0  0  0  0
  -40.7397   61.0007   63.4520 H   0  0  0  0  0  0  0  0  0  0  0  0
  -38.0148   59.3748   60.4627 H   0  0  0  0  0  0  0  0  0  0  0  0
  -38.6554   57.8106   60.9484 H   0  0  0  0  0  0  0  0  0  0  0  0
  -37.1937   57.7896   62.8603 H   0  0  0  0  0  0  0  0  0  0  0  0
  -36.5565   59.3772   62.3453 H   0  0  0  0  0  0  0  0  0  0  0  0
  -35.6238   58.4067   60.3945 H   0  0  0  0  0  0  0  0  0  0  0  0
  -36.2729   56.8255   60.8717 H   0  0  0  0  0  0  0  0  0  0  0  0
  -34.8590   56.8018   62.8091 H   0  0  0  0  0  0  0  0  0  0  0  0
  -34.2203   58.3886   62.3599 H   0  0  0  0  0  0  0  0  0  0  0  0
  -33.3097   57.4574   60.3310 H   0  0  0  0  0  0  0  0  0  0  0  0
  -35.5970   53.3478   61.1948 H   0  0  0  0  0  0  0  0  0  0  0  0
  -34.1063   53.0005   60.3520 H   0  0  0  0  0  0  0  0  0  0  0  0
  -35.5678   52.1393   59.9331 H   0  0  0  0  0  0  0  0  0  0  0  0
  -34.4301   54.6713   57.4158 H   0  0  0  0  0  0  0  0  0  0  0  0
  -34.1658   53.0497   57.8893 H   0  0  0  0  0  0  0  0  0  0  0  0
  -39.3533   55.2440   58.0858 H   0  0  0  0  0  0  0  0  0  0  0  0
  -41.5837   54.7354   57.3305 H   0  0  0  0  0  0  0  0  0  0  0  0
  -41.9909   52.8126   55.9450 H   0  0  0  0  0  0  0  0  0  0  0  0
  -40.1695   51.3653   55.3096 H   0  0  0  0  0  0  0  0  0  0  0  0
  -29.7674   55.8325   61.4775 H   0  0  0  0  0  0  0  0  0  0  0  0
  -29.5300   58.2745   63.1709 H   0  0  0  0  0  0  0  0  0  0  0  0
  -28.4046   56.9387   63.1252 H   0  0  0  0  0  0  0  0  0  0  0  0
  -30.0319   56.6905   63.7113 H   0  0  0  0  0  0  0  0  0  0  0  0
  -29.1600   58.6743   60.7291 H   0  0  0  0  0  0  0  0  0  0  0  0
  -29.4802   57.3496   59.5953 H   0  0  0  0  0  0  0  0  0  0  0  0
  -25.0482   57.9975   62.4130 H   0  0  0  0  0  0  0  0  0  0  0  0
  -25.1509   56.0329   60.1691 H   0  0  0  0  0  0  0  0  0  0  0  0
  -25.8556   55.6897   61.7651 H   0  0  0  0  0  0  0  0  0  0  0  0
  -23.6710   54.7302   61.5902 H   0  0  0  0  0  0  0  0  0  0  0  0
  -23.7297   56.0711   62.7776 H   0  0  0  0  0  0  0  0  0  0  0  0
  -22.6075   56.2867   60.0455 H   0  0  0  0  0  0  0  0  0  0  0  0
  -21.6842   56.0105   61.5447 H   0  0  0  0  0  0  0  0  0  0  0  0
  -22.6865   58.1247   62.3788 H   0  0  0  0  0  0  0  0  0  0  0  0
  -21.4701   58.2374   61.0815 H   0  0  0  0  0  0  0  0  0  0  0  0
  1 33  1  0  0  0  0
  1 34  1  0  0  0  0
  1 61  1  0  0  0  0
  2  4  1  0  0  0  0
  2 62  1  0  0  0  0
  2 63  1  0  0  0  0
  2 64  1  0  0  0  0
  3 33  2  0  0  0  0
  4  7  1  0  0  0  0
  4 65  1  0  0  0  0
  4 66  1  0  0  0  0
  5 38  1  0  0  0  0
  5 39  1  0  0  0  0
  5 67  1  0  0  0  0
  6 39  2  0  0  0  0
  7 10  1  0  0  0  0
  7 68  1  0  0  0  0
  7 69  1  0  0  0  0
  8 40  1  0  0  0  0
  8 43  2  0  0  0  0
  9 42  1  0  0  0  0
  9 43  1  0  0  0  0
 10 13  1  0  0  0  0
 10 70  1  0  0  0  0
 10 71  1  0  0  0  0
 11 54  1  0  0  0  0
 11 55  1  0  0  0  0
 11 72  1  0  0  0  0
 12 49  1  0  0  0  0
 12 73  1  0  0  0  0
 13 16  1  0  0  0  0
 13 74  1  0  0  0  0
 13 75  1  0  0  0  0
 14 59  1  0  0  0  0
 14 60  1  0  0  0  0
 14 76  1  0  0  0  0
 15 50  2  0  0  0  0
 16 18  1  0  0  0  0
 16 77  1  0  0  0  0
 16 78  1  0  0  0  0
 17 50  1  0  0  0  0
 17 51  1  0  0  0  0
 18 20  1  0  0  0  0
 18 79  1  0  0  0  0
 18 80  1  0  0  0  0
 19 54  2  0  0  0  0
 20 22  1  0  0  0  0
 20 81  1  0  0  0  0
 20 82  1  0  0  0  0
 21 60  2  0  0  0  0
 22 23  1  0  0  0  0
 22 83  1  0  0  0  0
 22 84  1  0  0  0  0
 23 24  1  0  0  0  0
 23 85  1  0  0  0  0
 23 86  1  0  0  0  0
 24 25  1  0  0  0  0
 24 87  1  0  0  0  0
 24 88  1  0  0  0  0
 25 26  1  0  0  0  0
 25 89  1  0  0  0  0
 25 90  1  0  0  0  0
 26 27  1  0  0  0  0
 26 91  1  0  0  0  0
 26 92  1  0  0  0  0
 27 28  1  0  0  0  0
 27 93  1  0  0  0  0
 27 94  1  0  0  0  0
 28 29  1  0  0  0  0
 28 95  1  0  0  0  0
 28 96  1  0  0  0  0
 29 30  1  0  0  0  0
 29 97  1  0  0  0  0
 29 98  1  0  0  0  0
 30 31  1  0  0  0  0
 30 99  1  0  0  0  0
 30100  1  0  0  0  0
 31 32  2  0  0  0  0
 31101  1  0  0  0  0
 32 33  1  0  0  0  0
 32102  1  0  0  0  0
 34 35  1  0  0  0  0
 34103  1  0  0  0  0
 34104  1  0  0  0  0
 35 36  1  0  0  0  0
 35105  1  0  0  0  0
 35106  1  0  0  0  0
 36 37  1  0  0  0  0
 36107  1  0  0  0  0
 36108  1  0  0  0  0
 37 38  1  0  0  0  0
 37109  1  0  0  0  0
 37110  1  0  0  0  0
 38 50  1  0  0  0  0
 38111  1  6  0  0  0
 40 39  1  1  0  0  0
 40 41  1  0  0  0  0
 40 42  1  0  0  0  0
 41112  1  0  0  0  0
 41113  1  0  0  0  0
 41114  1  0  0  0  0
 42115  1  0  0  0  0
 42116  1  0  0  0  0
 43 44  1  0  0  0  0
 44 45  2  0  0  0  0
 44 49  1  0  0  0  0
 45 46  1  0  0  0  0
 45117  1  0  0  0  0
 46 47  2  0  0  0  0
 46118  1  0  0  0  0
 47 48  1  0  0  0  0
 47119  1  0  0  0  0
 48 49  2  0  0  0  0
 48120  1  0  0  0  0
 51 52  1  0  0  0  0
 51 53  1  0  0  0  0
 51121  1  6  0  0  0
 52122  1  0  0  0  0
 52123  1  0  0  0  0
 52124  1  0  0  0  0
 53 54  1  0  0  0  0
 53125  1  0  0  0  0
 53126  1  0  0  0  0
 55 56  1  0  0  0  0
 55 60  1  0  0  0  0
 55127  1  1  0  0  0
 56 57  1  0  0  0  0
 56128  1  0  0  0  0
 56129  1  0  0  0  0
 57 58  1  0  0  0  0
 57130  1  0  0  0  0
 57131  1  0  0  0  0
 58 59  1  0  0  0  0
 58132  1  0  0  0  0
 58133  1  0  0  0  0
 59134  1  0  0  0  0
 59135  1  0  0  0  0
M  END
$$$$
/media/chris/experiments/cd1a-new-docking/inputs/ligands/7ryo_ligand.pdb
 OpenBabel07032304133D

135137  0  0  1  0  0  0  0  0999 V2000
  -36.2311   60.7237   61.5795 N   0  0  0  0  0  0  0  0  0  0  0  0
  -29.1440   55.1450   66.9050 C   0  0  0  0  0  0  0  0  0  0  0  0
  -34.7328   61.8482   62.8383 O   0  0  0  0  0  0  0  0  0  0  0  0
  -28.2844   56.3382   67.2305 C   0  0  0  0  0  0  0  0  0  0  0  0
  -33.1324   57.6580   60.0424 N   0  0  0  0  0  0  0  0  0  0  0  0
  -31.4954   58.6525   61.2194 O   0  0  0  0  0  0  0  0  0  0  0  0
  -28.0920   57.2766   66.0530 C   0  0  0  0  0  0  0  0  0  0  0  0
  -31.9397   60.8348   59.3380 N   0  0  0  0  0  0  0  0  0  0  0  0
  -29.8714   60.6839   58.4533 O   0  0  0  0  0  0  0  0  0  0  0  0
  -29.3786   57.8790   65.5118 C   0  0  0  0  0  0  0  0  0  0  0  0
  -32.4684   52.3381   60.0725 N   0  0  0  0  0  0  0  0  0  0  0  0
  -32.9219   63.4206   59.2238 O   0  0  0  0  0  0  0  0  0  0  0  0
  -30.1325   58.7169   66.5353 C   0  0  0  0  0  0  0  0  0  0  0  0
  -29.0812   52.4469   58.8041 N   0  0  0  0  0  0  0  0  0  0  0  0
  -34.3862   54.5462   61.3419 O   0  0  0  0  0  0  0  0  0  0  0  0
  -29.3456   59.9097   67.0559 C   0  0  0  0  0  0  0  0  0  0  0  0
  -33.8796   55.3659   59.3043 O   0  0  0  0  0  0  0  0  0  0  0  0
  -30.0849   60.7408   68.0900 C   0  0  0  0  0  0  0  0  0  0  0  0
  -32.6366   52.5146   57.8359 O   0  0  0  0  0  0  0  0  0  0  0  0
  -31.3979   61.3250   67.5951 C   0  0  0  0  0  0  0  0  0  0  0  0
  -31.0775   52.8924   57.8836 O   0  0  0  0  0  0  0  0  0  0  0  0
  -32.1094   62.1642   68.6381 C   0  0  0  0  0  0  0  0  0  0  0  0
  -33.4259   62.7274   68.1383 C   0  0  0  0  0  0  0  0  0  0  0  0
  -34.4421   61.6779   67.7349 C   0  0  0  0  0  0  0  0  0  0  0  0
  -35.7402   62.2720   67.2242 C   0  0  0  0  0  0  0  0  0  0  0  0
  -35.5659   63.1397   65.9888 C   0  0  0  0  0  0  0  0  0  0  0  0
  -36.8632   63.7471   65.4891 C   0  0  0  0  0  0  0  0  0  0  0  0
  -36.7150   64.6054   64.2439 C   0  0  0  0  0  0  0  0  0  0  0  0
  -36.1755   63.8471   63.0435 C   0  0  0  0  0  0  0  0  0  0  0  0
  -36.0087   64.7070   61.7966 C   0  0  0  0  0  0  0  0  0  0  0  0
  -35.4914   63.9107   60.6395 C   0  0  0  0  0  0  0  0  0  0  0  0
  -35.1898   62.6196   60.6121 C   0  0  0  0  0  0  0  0  0  0  0  0
  -35.3353   61.6998   61.7624 C   0  0  0  0  0  0  0  0  0  0  0  0
  -36.5610   59.7701   62.6268 C   0  0  0  0  0  0  0  0  0  0  0  0
  -36.9560   58.4330   62.0390 C   0  0  0  0  0  0  0  0  0  0  0  0
  -35.8780   57.7610   61.2090 C   0  0  0  0  0  0  0  0  0  0  0  0
  -34.6110   57.4590   62.0020 C   0  0  0  0  0  0  0  0  0  0  0  0
  -33.5311   56.7980   61.1441 C   0  0  1  0  0  0  0  0  0  0  0  0
  -32.1284   58.5272   60.1816 C   0  0  0  0  0  0  0  0  0  0  0  0
  -31.7856   59.4163   58.9749 C   0  0  1  0  0  0  0  0  0  0  0  0
  -32.7426   59.0889   57.8327 C   0  0  0  0  0  0  0  0  0  0  0  0
  -30.3182   59.3066   58.5350 C   0  0  0  0  0  0  0  0  0  0  0  0
  -30.8609   61.4220   59.0203 C   0  0  0  0  0  0  0  0  0  0  0  0
  -30.5673   62.8459   59.1994 C   0  0  0  0  0  0  0  0  0  0  0  0
  -29.2563   63.2682   59.4232 C   0  0  0  0  0  0  0  0  0  0  0  0
  -28.9964   64.5645   59.8333 C   0  0  0  0  0  0  0  0  0  0  0  0
  -30.0295   65.4558   60.0258 C   0  0  0  0  0  0  0  0  0  0  0  0
  -31.3381   65.0611   59.8152 C   0  0  0  0  0  0  0  0  0  0  0  0
  -31.6196   63.7618   59.4049 C   0  0  0  0  0  0  0  0  0  0  0  0
  -33.9929   55.4382   60.6419 C   0  0  0  0  0  0  0  0  0  0  0  0
  -34.8023   54.4875   58.5785 C   0  0  2  0  0  0  0  0  0  0  0  0
  -36.2072   54.9722   58.8332 C   0  0  0  0  0  0  0  0  0  0  0  0
  -34.5623   53.0968   59.1334 C   0  0  0  0  0  0  0  0  0  0  0  0
  -33.1360   52.6275   58.9519 C   0  0  0  0  0  0  0  0  0  0  0  0
  -31.0950   51.8662   60.0472 C   0  0  1  0  0  0  0  0  0  0  0  0
  -31.0653   50.3353   59.9748 C   0  0  0  0  0  0  0  0  0  0  0  0
  -29.7300   49.7296   60.3934 C   0  0  0  0  0  0  0  0  0  0  0  0
  -28.5397   50.1251   59.5421 C   0  0  0  0  0  0  0  0  0  0  0  0
  -28.1991   51.5995   59.5993 C   0  0  0  0  0  0  0  0  0  0  0  0
  -30.4161   52.4465   58.8166 C   0  0  0  0  0  0  0  0  0  0  0  0
  -36.6819   60.6483   60.7075 H   0  0  0  0  0  0  0  0  0  0  0  0
  -29.2396   54.5269   67.7731 H   0  0  0  0  0  0  0  0  0  0  0  0
  -28.6903   54.5833   66.1154 H   0  0  0  0  0  0  0  0  0  0  0  0
  -30.1128   55.4773   66.5953 H   0  0  0  0  0  0  0  0  0  0  0  0
  -27.3239   55.9889   67.5473 H   0  0  0  0  0  0  0  0  0  0  0  0
  -28.7850   56.8904   67.9982 H   0  0  0  0  0  0  0  0  0  0  0  0
  -33.6085   57.5990   59.1827 H   0  0  0  0  0  0  0  0  0  0  0  0
  -27.6205   56.7299   65.2632 H   0  0  0  0  0  0  0  0  0  0  0  0
  -27.4987   58.0933   66.4078 H   0  0  0  0  0  0  0  0  0  0  0  0
  -30.0164   57.0826   65.1896 H   0  0  0  0  0  0  0  0  0  0  0  0
  -29.1077   58.5313   64.7080 H   0  0  0  0  0  0  0  0  0  0  0  0
  -32.9203   52.4479   60.9402 H   0  0  0  0  0  0  0  0  0  0  0  0
  -33.1451   62.5534   58.9479 H   0  0  0  0  0  0  0  0  0  0  0  0
  -30.3824   58.0899   67.3655 H   0  0  0  0  0  0  0  0  0  0  0  0
  -30.9970   59.1075   66.0403 H   0  0  0  0  0  0  0  0  0  0  0  0
  -28.6465   53.0860   58.1944 H   0  0  0  0  0  0  0  0  0  0  0  0
  -29.1065   60.5417   66.2263 H   0  0  0  0  0  0  0  0  0  0  0  0
  -28.4772   59.5163   67.5418 H   0  0  0  0  0  0  0  0  0  0  0  0
  -29.4495   61.5482   68.3885 H   0  0  0  0  0  0  0  0  0  0  0  0
  -30.3260   60.0830   68.8988 H   0  0  0  0  0  0  0  0  0  0  0  0
  -32.0421   60.5199   67.3093 H   0  0  0  0  0  0  0  0  0  0  0  0
  -31.1690   61.9687   66.7716 H   0  0  0  0  0  0  0  0  0  0  0  0
  -31.4724   62.9779   68.9154 H   0  0  0  0  0  0  0  0  0  0  0  0
  -32.3256   61.5287   69.4713 H   0  0  0  0  0  0  0  0  0  0  0  0
  -33.2248   63.3434   67.2869 H   0  0  0  0  0  0  0  0  0  0  0  0
  -33.8552   63.2709   68.9539 H   0  0  0  0  0  0  0  0  0  0  0  0
  -34.6587   61.0683   68.5872 H   0  0  0  0  0  0  0  0  0  0  0  0
  -34.0144   61.1106   66.9348 H   0  0  0  0  0  0  0  0  0  0  0  0
  -36.1671   62.8711   68.0012 H   0  0  0  0  0  0  0  0  0  0  0  0
  -36.3727   61.4545   66.9476 H   0  0  0  0  0  0  0  0  0  0  0  0
  -35.1506   62.5377   65.2077 H   0  0  0  0  0  0  0  0  0  0  0  0
  -34.9228   63.9503   66.2612 H   0  0  0  0  0  0  0  0  0  0  0  0
  -37.2700   64.3561   66.2691 H   0  0  0  0  0  0  0  0  0  0  0  0
  -37.5008   62.9300   65.2230 H   0  0  0  0  0  0  0  0  0  0  0  0
  -36.0447   65.4096   64.4652 H   0  0  0  0  0  0  0  0  0  0  0  0
  -37.6933   64.9513   63.9828 H   0  0  0  0  0  0  0  0  0  0  0  0
  -36.8525   63.0504   62.8158 H   0  0  0  0  0  0  0  0  0  0  0  0
  -35.2015   63.4935   63.3105 H   0  0  0  0  0  0  0  0  0  0  0  0
  -35.3191   65.4968   62.0099 H   0  0  0  0  0  0  0  0  0  0  0  0
  -36.9686   65.0973   61.5300 H   0  0  0  0  0  0  0  0  0  0  0  0
  -35.3528   64.4284   59.7576 H   0  0  0  0  0  0  0  0  0  0  0  0
  -34.8287   62.2293   59.7276 H   0  0  0  0  0  0  0  0  0  0  0  0
  -37.3764   60.1530   63.2042 H   0  0  0  0  0  0  0  0  0  0  0  0
  -35.6979   59.6294   63.2434 H   0  0  0  0  0  0  0  0  0  0  0  0
  -37.8119   58.5833   61.4147 H   0  0  0  0  0  0  0  0  0  0  0  0
  -37.1476   57.7838   62.8677 H   0  0  0  0  0  0  0  0  0  0  0  0
  -35.6238   58.4067   60.3945 H   0  0  0  0  0  0  0  0  0  0  0  0
  -36.2729   56.8255   60.8717 H   0  0  0  0  0  0  0  0  0  0  0  0
  -34.8590   56.8018   62.8091 H   0  0  0  0  0  0  0  0  0  0  0  0
  -34.2203   58.3886   62.3599 H   0  0  0  0  0  0  0  0  0  0  0  0
  -32.6704   56.6456   61.7612 H   0  0  0  0  0  0  0  0  0  0  0  0
  -33.7520   59.1760   58.1770 H   0  0  0  0  0  0  0  0  0  0  0  0
  -32.5660   58.0890   57.4950 H   0  0  0  0  0  0  0  0  0  0  0  0
  -32.5811   59.7719   57.0251 H   0  0  0  0  0  0  0  0  0  0  0  0
  -29.7446   58.7631   59.2565 H   0  0  0  0  0  0  0  0  0  0  0  0
  -30.2042   58.7815   57.6097 H   0  0  0  0  0  0  0  0  0  0  0  0
  -28.4747   62.6092   59.2820 H   0  0  0  0  0  0  0  0  0  0  0  0
  -28.0227   64.8654   59.9959 H   0  0  0  0  0  0  0  0  0  0  0  0
  -29.8259   66.4213   60.3281 H   0  0  0  0  0  0  0  0  0  0  0  0
  -32.1080   65.7323   59.9628 H   0  0  0  0  0  0  0  0  0  0  0  0
  -34.6539   54.4839   57.5189 H   0  0  0  0  0  0  0  0  0  0  0  0
  -36.3931   54.9894   59.8868 H   0  0  0  0  0  0  0  0  0  0  0  0
  -36.9036   54.3127   58.3588 H   0  0  0  0  0  0  0  0  0  0  0  0
  -36.3219   55.9586   58.4347 H   0  0  0  0  0  0  0  0  0  0  0  0
  -35.2134   52.4121   58.6313 H   0  0  0  0  0  0  0  0  0  0  0  0
  -34.7565   53.1333   60.1850 H   0  0  0  0  0  0  0  0  0  0  0  0
  -30.5866   52.1757   60.9363 H   0  0  0  0  0  0  0  0  0  0  0  0
  -31.2692   50.0404   58.9667 H   0  0  0  0  0  0  0  0  0  0  0  0
  -31.8022   49.9747   60.6617 H   0  0  0  0  0  0  0  0  0  0  0  0
  -29.8242   48.6645   60.3542 H   0  0  0  0  0  0  0  0  0  0  0  0
  -29.5294   50.1085   61.3738 H   0  0  0  0  0  0  0  0  0  0  0  0
  -28.7543   49.8693   58.5256 H   0  0  0  0  0  0  0  0  0  0  0  0
  -27.6939   49.5984   59.9321 H   0  0  0  0  0  0  0  0  0  0  0  0
  -28.2567   51.9182   60.6191 H   0  0  0  0  0  0  0  0  0  0  0  0
  -27.2170   51.7051   59.1877 H   0  0  0  0  0  0  0  0  0  0  0  0
  1 33  1  0  0  0  0
  1 34  1  0  0  0  0
  1 61  1  0  0  0  0
  2  4  1  0  0  0  0
  2 62  1  0  0  0  0
  2 63  1  0  0  0  0
  2 64  1  0  0  0  0
  3 33  2  0  0  0  0
  4  7  1  0  0  0  0
  4 65  1  0  0  0  0
  4 66  1  0  0  0  0
  5 38  1  0  0  0  0
  5 39  1  0  0  0  0
  5 67  1  0  0  0  0
  6 39  2  0  0  0  0
  7 10  1  0  0  0  0
  7 68  1  0  0  0  0
  7 69  1  0  0  0  0
  8 40  1  0  0  0  0
  8 43  2  0  0  0  0
  9 42  1  0  0  0  0
  9 43  1  0  0  0  0
 10 13  1  0  0  0  0
 10 70  1  0  0  0  0
 10 71  1  0  0  0  0
 11 54  1  0  0  0  0
 11 55  1  0  0  0  0
 11 72  1  0  0  0  0
 12 49  1  0  0  0  0
 12 73  1  0  0  0  0
 13 16  1  0  0  0  0
 13 74  1  0  0  0  0
 13 75  1  0  0  0  0
 14 59  1  0  0  0  0
 14 60  1  0  0  0  0
 14 76  1  0  0  0  0
 15 50  2  0  0  0  0
 16 18  1  0  0  0  0
 16 77  1  0  0  0  0
 16 78  1  0  0  0  0
 17 50  1  0  0  0  0
 17 51  1  0  0  0  0
 18 20  1  0  0  0  0
 18 79  1  0  0  0  0
 18 80  1  0  0  0  0
 19 54  2  0  0  0  0
 20 22  1  0  0  0  0
 20 81  1  0  0  0  0
 20 82  1  0  0  0  0
 21 60  2  0  0  0  0
 22 23  1  0  0  0  0
 22 83  1  0  0  0  0
 22 84  1  0  0  0  0
 23 24  1  0  0  0  0
 23 85  1  0  0  0  0
 23 86  1  0  0  0  0
 24 25  1  0  0  0  0
 24 87  1  0  0  0  0
 24 88  1  0  0  0  0
 25 26  1  0  0  0  0
 25 89  1  0  0  0  0
 25 90  1  0  0  0  0
 26 27  1  0  0  0  0
 26 91  1  0  0  0  0
 26 92  1  0  0  0  0
 27 28  1  0  0  0  0
 27 93  1  0  0  0  0
 27 94  1  0  0  0  0
 28 29  1  0  0  0  0
 28 95  1  0  0  0  0
 28 96  1  0  0  0  0
 29 30  1  0  0  0  0
 29 97  1  0  0  0  0
 29 98  1  0  0  0  0
 30 31  1  0  0  0  0
 30 99  1  0  0  0  0
 30100  1  0  0  0  0
 31 32  2  0  0  0  0
 31101  1  0  0  0  0
 32 33  1  0  0  0  0
 32102  1  0  0  0  0
 34 35  1  0  0  0  0
 34103  1  0  0  0  0
 34104  1  0  0  0  0
 35 36  1  0  0  0  0
 35105  1  0  0  0  0
 35106  1  0  0  0  0
 36 37  1  0  0  0  0
 36107  1  0  0  0  0
 36108  1  0  0  0  0
 37 38  1  0  0  0  0
 37109  1  0  0  0  0
 37110  1  0  0  0  0
 38 50  1  0  0  0  0
 38111  1  1  0  0  0
 40 39  1  1  0  0  0
 40 41  1  0  0  0  0
 40 42  1  0  0  0  0
 41112  1  0  0  0  0
 41113  1  0  0  0  0
 41114  1  0  0  0  0
 42115  1  0  0  0  0
 42116  1  0  0  0  0
 43 44  1  0  0  0  0
 44 45  2  0  0  0  0
 44 49  1  0  0  0  0
 45 46  1  0  0  0  0
 45117  1  0  0  0  0
 46 47  2  0  0  0  0
 46118  1  0  0  0  0
 47 48  1  0  0  0  0
 47119  1  0  0  0  0
 48 49  2  0  0  0  0
 48120  1  0  0  0  0
 51 52  1  0  0  0  0
 51 53  1  0  0  0  0
 51121  1  6  0  0  0
 52122  1  0  0  0  0
 52123  1  0  0  0  0
 52124  1  0  0  0  0
 53 54  1  0  0  0  0
 53125  1  0  0  0  0
 53126  1  0  0  0  0
 55 56  1  0  0  0  0
 55 60  1  0  0  0  0
 55127  1  1  0  0  0
 56 57  1  0  0  0  0
 56128  1  0  0  0  0
 56129  1  0  0  0  0
 57 58  1  0  0  0  0
 57130  1  0  0  0  0
 57131  1  0  0  0  0
 58 59  1  0  0  0  0
 58132  1  0  0  0  0
 58133  1  0  0  0  0
 59134  1  0  0  0  0
 59135  1  0  0  0  0
M  END
$$$$
/media/chris/experiments/cd1a-new-docking/inputs/ligands/7ryo_ligand.pdb
 OpenBabel07032304133D

135137  0  0  1  0  0  0  0  0999 V2000
  -39.2043   59.3899   62.1545 N   0  0  0  0  0  0  0  0  0  0  0  0
  -51.6457   50.4490   56.3912 C   0  0  0  0  0  0  0  0  0  0  0  0
  -40.1500   57.4612   62.8468 O   0  0  0  0  0  0  0  0  0  0  0  0
  -51.1068   51.7136   57.0069 C   0  0  0  0  0  0  0  0  0  0  0  0
  -34.0017   55.5459   60.5756 N   0  0  0  0  0  0  0  0  0  0  0  0
  -34.4110   54.6195   62.5826 O   0  0  0  0  0  0  0  0  0  0  0  0
  -50.6772   51.5400   58.4523 C   0  0  0  0  0  0  0  0  0  0  0  0
  -34.5881   52.0970   61.5564 N   0  0  0  0  0  0  0  0  0  0  0  0
  -36.7654   51.8917   61.0086 O   0  0  0  0  0  0  0  0  0  0  0  0
  -50.1441   52.8045   59.1064 C   0  0  0  0  0  0  0  0  0  0  0  0
  -31.2861   60.7842   66.1006 N   0  0  0  0  0  0  0  0  0  0  0  0
  -37.3723   49.2909   60.7960 O   0  0  0  0  0  0  0  0  0  0  0  0
  -49.7042   52.6006   60.5497 C   0  0  0  0  0  0  0  0  0  0  0  0
  -29.5928   60.7019   69.2974 N   0  0  0  0  0  0  0  0  0  0  0  0
  -31.6963   55.5408   62.0894 O   0  0  0  0  0  0  0  0  0  0  0  0
  -49.1847   53.8629   61.2203 C   0  0  0  0  0  0  0  0  0  0  0  0
  -31.8409   57.7562   62.4790 O   0  0  0  0  0  0  0  0  0  0  0  0
  -50.2009   54.9887   61.3022 C   0  0  0  0  0  0  0  0  0  0  0  0
  -30.7660   58.6293   66.4849 O   0  0  0  0  0  0  0  0  0  0  0  0
  -50.7267   55.4512   59.9532 C   0  0  0  0  0  0  0  0  0  0  0  0
  -29.8139   59.2055   67.6413 O   0  0  0  0  0  0  0  0  0  0  0  0
  -49.6370   55.9562   59.0283 C   0  0  0  0  0  0  0  0  0  0  0  0
  -48.8707   57.1282   59.6109 C   0  0  0  0  0  0  0  0  0  0  0  0
  -48.1558   56.8233   60.9119 C   0  0  0  0  0  0  0  0  0  0  0  0
  -47.4137   58.0184   61.4773 C   0  0  0  0  0  0  0  0  0  0  0  0
  -46.6790   57.7190   62.7735 C   0  0  0  0  0  0  0  0  0  0  0  0
  -45.9509   58.9203   63.3466 C   0  0  0  0  0  0  0  0  0  0  0  0
  -45.1950   58.6394   64.6346 C   0  0  0  0  0  0  0  0  0  0  0  0
  -44.1105   57.5864   64.4857 C   0  0  0  0  0  0  0  0  0  0  0  0
  -43.0251   57.9584   63.4829 C   0  0  0  0  0  0  0  0  0  0  0  0
  -42.3110   59.2128   63.8791 C   0  0  0  0  0  0  0  0  0  0  0  0
  -41.0506   59.5426   63.6318 C   0  0  0  0  0  0  0  0  0  0  0  0
  -40.0967   58.7017   62.8746 C   0  0  0  0  0  0  0  0  0  0  0  0
  -38.2360   58.7337   61.2903 C   0  0  0  0  0  0  0  0  0  0  0  0
  -36.9560   58.4330   62.0390 C   0  0  0  0  0  0  0  0  0  0  0  0
  -35.8780   57.7610   61.2090 C   0  0  0  0  0  0  0  0  0  0  0  0
  -34.6110   57.4590   62.0020 C   0  0  0  0  0  0  0  0  0  0  0  0
  -33.5311   56.7980   61.1441 C   0  0  1  0  0  0  0  0  0  0  0  0
  -34.4083   54.5469   61.3628 C   0  0  0  0  0  0  0  0  0  0  0  0
  -34.8688   53.2476   60.6818 C   0  0  1  0  0  0  0  0  0  0  0  0
  -34.1014   53.0769   59.3742 C   0  0  0  0  0  0  0  0  0  0  0  0
  -36.3873   53.1805   60.4617 C   0  0  0  0  0  0  0  0  0  0  0  0
  -35.6672   51.4394   61.6680 C   0  0  0  0  0  0  0  0  0  0  0  0
  -35.8547   50.2125   62.4461 C   0  0  0  0  0  0  0  0  0  0  0  0
  -35.0867   49.9830   63.5884 C   0  0  0  0  0  0  0  0  0  0  0  0
  -35.0769   48.7360   64.1891 C   0  0  0  0  0  0  0  0  0  0  0  0
  -35.8261   47.7041   63.6670 C   0  0  0  0  0  0  0  0  0  0  0  0
  -36.5922   47.9041   62.5331 C   0  0  0  0  0  0  0  0  0  0  0  0
  -36.6134   49.1498   61.9138 C   0  0  0  0  0  0  0  0  0  0  0  0
  -32.2521   56.5942   61.9423 C   0  0  0  0  0  0  0  0  0  0  0  0
  -31.7348   57.8445   63.9387 C   0  0  2  0  0  0  0  0  0  0  0  0
  -33.0957   57.5642   64.5243 C   0  0  0  0  0  0  0  0  0  0  0  0
  -31.2618   59.2559   64.2282 C   0  0  0  0  0  0  0  0  0  0  0  0
  -31.0782   59.5249   65.7052 C   0  0  0  0  0  0  0  0  0  0  0  0
  -31.1560   61.1831   67.4911 C   0  0  1  0  0  0  0  0  0  0  0  0
  -32.5027   61.0386   68.2088 C   0  0  0  0  0  0  0  0  0  0  0  0
  -32.5929   61.8363   69.5052 C   0  0  0  0  0  0  0  0  0  0  0  0
  -31.5998   61.4449   70.5814 C   0  0  0  0  0  0  0  0  0  0  0  0
  -30.1528   61.6931   70.2098 C   0  0  0  0  0  0  0  0  0  0  0  0
  -30.1286   60.2770   68.1509 C   0  0  0  0  0  0  0  0  0  0  0  0
  -39.2028   60.3728   62.2112 H   0  0  0  0  0  0  0  0  0  0  0  0
  -51.9291   50.6388   55.3770 H   0  0  0  0  0  0  0  0  0  0  0  0
  -52.5001   50.1190   56.9444 H   0  0  0  0  0  0  0  0  0  0  0  0
  -50.8909   49.6910   56.4148 H   0  0  0  0  0  0  0  0  0  0  0  0
  -51.8693   52.4631   56.9666 H   0  0  0  0  0  0  0  0  0  0  0  0
  -50.2378   51.9933   56.4487 H   0  0  0  0  0  0  0  0  0  0  0  0
  -34.0208   55.4328   59.5978 H   0  0  0  0  0  0  0  0  0  0  0  0
  -49.9084   50.7965   58.4857 H   0  0  0  0  0  0  0  0  0  0  0  0
  -51.5532   51.2599   58.9992 H   0  0  0  0  0  0  0  0  0  0  0  0
  -50.9150   53.5462   59.0886 H   0  0  0  0  0  0  0  0  0  0  0  0
  -49.2794   53.1056   58.5527 H   0  0  0  0  0  0  0  0  0  0  0  0
  -31.5346   61.4610   65.4302 H   0  0  0  0  0  0  0  0  0  0  0  0
  -37.4081   50.1170   60.3553 H   0  0  0  0  0  0  0  0  0  0  0  0
  -48.9257   51.8667   60.5641 H   0  0  0  0  0  0  0  0  0  0  0  0
  -50.5701   52.2921   61.0974 H   0  0  0  0  0  0  0  0  0  0  0  0
  -28.7293   60.3049   69.5541 H   0  0  0  0  0  0  0  0  0  0  0  0
  -48.3394   54.2137   60.6658 H   0  0  0  0  0  0  0  0  0  0  0  0
  -48.9390   53.5969   62.2272 H   0  0  0  0  0  0  0  0  0  0  0  0
  -49.7389   55.8234   61.7867 H   0  0  0  0  0  0  0  0  0  0  0  0
  -51.0400   54.6071   61.8455 H   0  0  0  0  0  0  0  0  0  0  0  0
  -51.4289   56.2421   60.1151 H   0  0  0  0  0  0  0  0  0  0  0  0
  -51.1774   54.6037   59.4803 H   0  0  0  0  0  0  0  0  0  0  0  0
  -50.0857   56.2646   58.1072 H   0  0  0  0  0  0  0  0  0  0  0  0
  -48.9415   55.1565   58.8817 H   0  0  0  0  0  0  0  0  0  0  0  0
  -49.5621   57.9256   59.7877 H   0  0  0  0  0  0  0  0  0  0  0  0
  -48.1140   57.3831   58.8987 H   0  0  0  0  0  0  0  0  0  0  0  0
  -47.4517   56.0367   60.7373 H   0  0  0  0  0  0  0  0  0  0  0  0
  -48.9007   56.5429   61.6271 H   0  0  0  0  0  0  0  0  0  0  0  0
  -48.1210   58.7998   61.6617 H   0  0  0  0  0  0  0  0  0  0  0  0
  -46.6758   58.3004   60.7555 H   0  0  0  0  0  0  0  0  0  0  0  0
  -45.9628   56.9463   62.5864 H   0  0  0  0  0  0  0  0  0  0  0  0
  -47.4149   57.4242   63.4920 H   0  0  0  0  0  0  0  0  0  0  0  0
  -46.6715   59.6868   63.5418 H   0  0  0  0  0  0  0  0  0  0  0  0
  -45.2205   59.2101   62.6205 H   0  0  0  0  0  0  0  0  0  0  0  0
  -45.8945   58.3027   65.3710 H   0  0  0  0  0  0  0  0  0  0  0  0
  -44.7111   59.5502   64.9195 H   0  0  0  0  0  0  0  0  0  0  0  0
  -44.5680   56.6740   64.1646 H   0  0  0  0  0  0  0  0  0  0  0  0
  -43.6345   57.4925   65.4394 H   0  0  0  0  0  0  0  0  0  0  0  0
  -43.4751   58.1040   62.5231 H   0  0  0  0  0  0  0  0  0  0  0  0
  -42.3103   57.1626   63.4548 H   0  0  0  0  0  0  0  0  0  0  0  0
  -42.8660   59.9037   64.4080 H   0  0  0  0  0  0  0  0  0  0  0  0
  -40.7114   60.4481   63.9923 H   0  0  0  0  0  0  0  0  0  0  0  0
  -38.0148   59.3748   60.4627 H   0  0  0  0  0  0  0  0  0  0  0  0
  -38.6554   57.8106   60.9484 H   0  0  0  0  0  0  0  0  0  0  0  0
  -37.1937   57.7896   62.8603 H   0  0  0  0  0  0  0  0  0  0  0  0
  -36.5565   59.3772   62.3453 H   0  0  0  0  0  0  0  0  0  0  0  0
  -35.6238   58.4067   60.3945 H   0  0  0  0  0  0  0  0  0  0  0  0
  -36.2729   56.8255   60.8717 H   0  0  0  0  0  0  0  0  0  0  0  0
  -34.8590   56.8018   62.8091 H   0  0  0  0  0  0  0  0  0  0  0  0
  -34.2203   58.3886   62.3599 H   0  0  0  0  0  0  0  0  0  0  0  0
  -33.3097   57.4574   60.3310 H   0  0  0  0  0  0  0  0  0  0  0  0
  -33.0504   53.1293   59.5680 H   0  0  0  0  0  0  0  0  0  0  0  0
  -34.3779   53.8552   58.6941 H   0  0  0  0  0  0  0  0  0  0  0  0
  -34.3376   52.1263   58.9435 H   0  0  0  0  0  0  0  0  0  0  0  0
  -36.8822   53.9740   60.9815 H   0  0  0  0  0  0  0  0  0  0  0  0
  -36.6588   53.2862   59.4321 H   0  0  0  0  0  0  0  0  0  0  0  0
  -34.5219   50.7487   63.9882 H   0  0  0  0  0  0  0  0  0  0  0  0
  -34.5049   48.5781   65.0334 H   0  0  0  0  0  0  0  0  0  0  0  0
  -35.8154   46.7787   64.1237 H   0  0  0  0  0  0  0  0  0  0  0  0
  -37.1498   47.1271   62.1452 H   0  0  0  0  0  0  0  0  0  0  0  0
  -31.0527   57.1402   64.3670 H   0  0  0  0  0  0  0  0  0  0  0  0
  -33.8076   58.2519   64.1177 H   0  0  0  0  0  0  0  0  0  0  0  0
  -33.0569   57.6780   65.5875 H   0  0  0  0  0  0  0  0  0  0  0  0
  -33.3885   56.5636   64.2832 H   0  0  0  0  0  0  0  0  0  0  0  0
  -31.9854   59.9439   63.8434 H   0  0  0  0  0  0  0  0  0  0  0  0
  -30.3077   59.3768   63.7592 H   0  0  0  0  0  0  0  0  0  0  0  0
  -30.8461   62.2055   67.5496 H   0  0  0  0  0  0  0  0  0  0  0  0
  -32.6551   60.0044   68.4368 H   0  0  0  0  0  0  0  0  0  0  0  0
  -33.2521   61.4252   67.5501 H   0  0  0  0  0  0  0  0  0  0  0  0
  -33.5779   61.7087   69.9032 H   0  0  0  0  0  0  0  0  0  0  0  0
  -32.3612   62.8480   69.2449 H   0  0  0  0  0  0  0  0  0  0  0  0
  -31.7197   60.4014   70.7855 H   0  0  0  0  0  0  0  0  0  0  0  0
  -31.8090   62.0599   71.4317 H   0  0  0  0  0  0  0  0  0  0  0  0
  -30.0858   62.6541   69.7441 H   0  0  0  0  0  0  0  0  0  0  0  0
  -29.5871   61.6320   71.1160 H   0  0  0  0  0  0  0  0  0  0  0  0
  1 33  1  0  0  0  0
  1 34  1  0  0  0  0
  1 61  1  0  0  0  0
  2  4  1  0  0  0  0
  2 62  1  0  0  0  0
  2 63  1  0  0  0  0
  2 64  1  0  0  0  0
  3 33  2  0  0  0  0
  4  7  1  0  0  0  0
  4 65  1  0  0  0  0
  4 66  1  0  0  0  0
  5 38  1  0  0  0  0
  5 39  1  0  0  0  0
  5 67  1  0  0  0  0
  6 39  2  0  0  0  0
  7 10  1  0  0  0  0
  7 68  1  0  0  0  0
  7 69  1  0  0  0  0
  8 40  1  0  0  0  0
  8 43  2  0  0  0  0
  9 42  1  0  0  0  0
  9 43  1  0  0  0  0
 10 13  1  0  0  0  0
 10 70  1  0  0  0  0
 10 71  1  0  0  0  0
 11 54  1  0  0  0  0
 11 55  1  0  0  0  0
 11 72  1  0  0  0  0
 12 49  1  0  0  0  0
 12 73  1  0  0  0  0
 13 16  1  0  0  0  0
 13 74  1  0  0  0  0
 13 75  1  0  0  0  0
 14 59  1  0  0  0  0
 14 60  1  0  0  0  0
 14 76  1  0  0  0  0
 15 50  2  0  0  0  0
 16 18  1  0  0  0  0
 16 77  1  0  0  0  0
 16 78  1  0  0  0  0
 17 50  1  0  0  0  0
 17 51  1  0  0  0  0
 18 20  1  0  0  0  0
 18 79  1  0  0  0  0
 18 80  1  0  0  0  0
 19 54  2  0  0  0  0
 20 22  1  0  0  0  0
 20 81  1  0  0  0  0
 20 82  1  0  0  0  0
 21 60  2  0  0  0  0
 22 23  1  0  0  0  0
 22 83  1  0  0  0  0
 22 84  1  0  0  0  0
 23 24  1  0  0  0  0
 23 85  1  0  0  0  0
 23 86  1  0  0  0  0
 24 25  1  0  0  0  0
 24 87  1  0  0  0  0
 24 88  1  0  0  0  0
 25 26  1  0  0  0  0
 25 89  1  0  0  0  0
 25 90  1  0  0  0  0
 26 27  1  0  0  0  0
 26 91  1  0  0  0  0
 26 92  1  0  0  0  0
 27 28  1  0  0  0  0
 27 93  1  0  0  0  0
 27 94  1  0  0  0  0
 28 29  1  0  0  0  0
 28 95  1  0  0  0  0
 28 96  1  0  0  0  0
 29 30  1  0  0  0  0
 29 97  1  0  0  0  0
 29 98  1  0  0  0  0
 30 31  1  0  0  0  0
 30 99  1  0  0  0  0
 30100  1  0  0  0  0
 31 32  2  0  0  0  0
 31101  1  0  0  0  0
 32 33  1  0  0  0  0
 32102  1  0  0  0  0
 34 35  1  0  0  0  0
 34103  1  0  0  0  0
 34104  1  0  0  0  0
 35 36  1  0  0  0  0
 35105  1  0  0  0  0
 35106  1  0  0  0  0
 36 37  1  0  0  0  0
 36107  1  0  0  0  0
 36108  1  0  0  0  0
 37 38  1  0  0  0  0
 37109  1  0  0  0  0
 37110  1  0  0  0  0
 38 50  1  0  0  0  0
 38111  1  6  0  0  0
 40 39  1  1  0  0  0
 40 41  1  0  0  0  0
 40 42  1  0  0  0  0
 41112  1  0  0  0  0
 41113  1  0  0  0  0
 41114  1  0  0  0  0
 42115  1  0  0  0  0
 42116  1  0  0  0  0
 43 44  1  0  0  0  0
 44 45  2  0  0  0  0
 44 49  1  0  0  0  0
 45 46  1  0  0  0  0
 45117  1  0  0  0  0
 46 47  2  0  0  0  0
 46118  1  0  0  0  0
 47 48  1  0  0  0  0
 47119  1  0  0  0  0
 48 49  2  0  0  0  0
 48120  1  0  0  0  0
 51 52  1  0  0  0  0
 51 53  1  0  0  0  0
 51121  1  1  0  0  0
 52122  1  0  0  0  0
 52123  1  0  0  0  0
 52124  1  0  0  0  0
 53 54  1  0  0  0  0
 53125  1  0  0  0  0
 53126  1  0  0  0  0
 55 56  1  0  0  0  0
 55 60  1  0  0  0  0
 55127  1  1  0  0  0
 56 57  1  0  0  0  0
 56128  1  0  0  0  0
 56129  1  0  0  0  0
 57 58  1  0  0  0  0
 57130  1  0  0  0  0
 57131  1  0  0  0  0
 58 59  1  0  0  0  0
 58132  1  0  0  0  0
 58133  1  0  0  0  0
 59134  1  0  0  0  0
 59135  1  0  0  0  0
M  END
$$$$
/media/chris/experiments/cd1a-new-docking/inputs/ligands/7ryo_ligand.pdb
 OpenBabel07032304133D

135137  0  0  1  0  0  0  0  0999 V2000
  -39.2043   59.3899   62.1545 N   0  0  0  0  0  0  0  0  0  0  0  0
  -36.3305   61.8410   70.6396 C   0  0  0  0  0  0  0  0  0  0  0  0
  -40.1500   57.4612   62.8468 O   0  0  0  0  0  0  0  0  0  0  0  0
  -36.1423   63.2872   70.2633 C   0  0  0  0  0  0  0  0  0  0  0  0
  -33.1324   57.6580   60.0424 N   0  0  0  0  0  0  0  0  0  0  0  0
  -34.5525   59.3022   60.6199 O   0  0  0  0  0  0  0  0  0  0  0  0
  -37.2188   64.1973   70.8262 C   0  0  0  0  0  0  0  0  0  0  0  0
  -33.5196   58.9769   57.4199 N   0  0  0  0  0  0  0  0  0  0  0  0
  -34.4196   61.0243   57.1341 O   0  0  0  0  0  0  0  0  0  0  0  0
  -37.0649   65.6619   70.4489 C   0  0  0  0  0  0  0  0  0  0  0  0
  -32.0339   51.0839   59.2857 N   0  0  0  0  0  0  0  0  0  0  0  0
  -36.3371   61.2223   55.4658 O   0  0  0  0  0  0  0  0  0  0  0  0
  -37.1169   65.9094   68.9476 C   0  0  0  0  0  0  0  0  0  0  0  0
  -32.1117   48.4721   56.7825 N   0  0  0  0  0  0  0  0  0  0  0  0
  -35.1244   55.1625   60.3520 O   0  0  0  0  0  0  0  0  0  0  0  0
  -38.4252   65.4864   68.2977 C   0  0  0  0  0  0  0  0  0  0  0  0
  -32.9598   54.5796   60.5876 O   0  0  0  0  0  0  0  0  0  0  0  0
  -38.7572   64.0138   68.4657 C   0  0  0  0  0  0  0  0  0  0  0  0
  -30.9912   53.0388   58.8950 O   0  0  0  0  0  0  0  0  0  0  0  0
  -40.0566   63.5895   67.8011 C   0  0  0  0  0  0  0  0  0  0  0  0
  -31.5207   48.5043   58.9459 O   0  0  0  0  0  0  0  0  0  0  0  0
  -40.3757   62.1205   67.9963 C   0  0  0  0  0  0  0  0  0  0  0  0
  -41.6653   61.7055   67.3146 C   0  0  0  0  0  0  0  0  0  0  0  0
  -42.0292   60.2460   67.5002 C   0  0  0  0  0  0  0  0  0  0  0  0
  -43.3133   59.8585   66.7933 C   0  0  0  0  0  0  0  0  0  0  0  0
  -43.6966   58.4007   66.9870 C   0  0  0  0  0  0  0  0  0  0  0  0
  -44.9727   58.0105   66.2651 C   0  0  0  0  0  0  0  0  0  0  0  0
  -44.9173   58.1829   64.7563 C   0  0  0  0  0  0  0  0  0  0  0  0
  -43.8427   57.3431   64.0876 C   0  0  0  0  0  0  0  0  0  0  0  0
  -42.4325   57.6406   64.5823 C   0  0  0  0  0  0  0  0  0  0  0  0
  -42.0565   59.0717   64.3565 C   0  0  0  0  0  0  0  0  0  0  0  0
  -41.0506   59.5426   63.6318 C   0  0  0  0  0  0  0  0  0  0  0  0
  -40.0967   58.7017   62.8746 C   0  0  0  0  0  0  0  0  0  0  0  0
  -38.2360   58.7337   61.2903 C   0  0  0  0  0  0  0  0  0  0  0  0
  -36.9560   58.4330   62.0390 C   0  0  0  0  0  0  0  0  0  0  0  0
  -35.8780   57.7610   61.2090 C   0  0  0  0  0  0  0  0  0  0  0  0
  -34.6110   57.4590   62.0020 C   0  0  0  0  0  0  0  0  0  0  0  0
  -33.5311   56.7980   61.1441 C   0  0  1  0  0  0  0  0  0  0  0  0
  -33.6908   58.8593   59.8752 C   0  0  0  0  0  0  0  0  0  0  0  0
  -33.2290   59.6964   58.6711 C   0  0  1  0  0  0  0  0  0  0  0  0
  -31.7240   59.9235   58.7758 C   0  0  0  0  0  0  0  0  0  0  0  0
  -33.9936   61.0199   58.5204 C   0  0  0  0  0  0  0  0  0  0  0  0
  -34.1604   59.7743   56.6694 C   0  0  0  0  0  0  0  0  0  0  0  0
  -34.6550   59.4830   55.3218 C   0  0  0  0  0  0  0  0  0  0  0  0
  -33.9800   58.5709   54.5096 C   0  0  0  0  0  0  0  0  0  0  0  0
  -34.2868   58.4680   53.1637 C   0  0  0  0  0  0  0  0  0  0  0  0
  -35.2636   59.2651   52.6078 C   0  0  0  0  0  0  0  0  0  0  0  0
  -35.9443   60.1803   53.3899 C   0  0  0  0  0  0  0  0  0  0  0  0
  -35.6487   60.3000   54.7442 C   0  0  0  0  0  0  0  0  0  0  0  0
  -33.9929   55.4382   60.6419 C   0  0  0  0  0  0  0  0  0  0  0  0
  -33.0303   53.3605   61.3991 C   0  0  2  0  0  0  0  0  0  0  0  0
  -33.1686   53.7680   62.8442 C   0  0  0  0  0  0  0  0  0  0  0  0
  -31.7364   52.6169   61.1306 C   0  0  0  0  0  0  0  0  0  0  0  0
  -31.5489   52.2678   59.6709 C   0  0  0  0  0  0  0  0  0  0  0  0
  -31.9339   50.6242   57.9116 C   0  0  1  0  0  0  0  0  0  0  0  0
  -30.6828   51.2119   57.2492 C   0  0  0  0  0  0  0  0  0  0  0  0
  -30.7213   51.1703   55.7254 C   0  0  0  0  0  0  0  0  0  0  0  0
  -30.8015   49.7859   55.1133 C   0  0  0  0  0  0  0  0  0  0  0  0
  -32.0772   49.0373   55.4379 C   0  0  0  0  0  0  0  0  0  0  0  0
  -31.8372   49.1068   57.9244 C   0  0  0  0  0  0  0  0  0  0  0  0
  -39.2028   60.3728   62.2112 H   0  0  0  0  0  0  0  0  0  0  0  0
  -35.5424   61.2561   70.2134 H   0  0  0  0  0  0  0  0  0  0  0  0
  -37.2724   61.4953   70.2677 H   0  0  0  0  0  0  0  0  0  0  0  0
  -36.3105   61.7441   71.7050 H   0  0  0  0  0  0  0  0  0  0  0  0
  -36.1550   63.3652   69.1962 H   0  0  0  0  0  0  0  0  0  0  0  0
  -35.2088   63.6046   70.6789 H   0  0  0  0  0  0  0  0  0  0  0  0
  -32.4418   57.3510   59.4115 H   0  0  0  0  0  0  0  0  0  0  0  0
  -37.1956   64.1226   71.8933 H   0  0  0  0  0  0  0  0  0  0  0  0
  -38.1461   63.8697   70.4046 H   0  0  0  0  0  0  0  0  0  0  0  0
  -36.1225   66.0096   70.8174 H   0  0  0  0  0  0  0  0  0  0  0  0
  -37.8889   66.1880   70.8840 H   0  0  0  0  0  0  0  0  0  0  0  0
  -32.4717   50.5067   59.9524 H   0  0  0  0  0  0  0  0  0  0  0  0
  -36.1618   61.3277   56.3802 H   0  0  0  0  0  0  0  0  0  0  0  0
  -36.3203   65.3622   68.4883 H   0  0  0  0  0  0  0  0  0  0  0  0
  -37.0262   66.9658   68.8038 H   0  0  0  0  0  0  0  0  0  0  0  0
  -32.3638   47.5232   56.8553 H   0  0  0  0  0  0  0  0  0  0  0  0
  -38.3639   65.6990   67.2508 H   0  0  0  0  0  0  0  0  0  0  0  0
  -39.2028   66.0343   68.7876 H   0  0  0  0  0  0  0  0  0  0  0  0
  -38.8310   63.8036   69.5122 H   0  0  0  0  0  0  0  0  0  0  0  0
  -37.9731   63.4648   67.9875 H   0  0  0  0  0  0  0  0  0  0  0  0
  -39.9813   63.7846   66.7518 H   0  0  0  0  0  0  0  0  0  0  0  0
  -40.8452   64.1495   68.2587 H   0  0  0  0  0  0  0  0  0  0  0  0
  -40.4649   61.9260   69.0447 H   0  0  0  0  0  0  0  0  0  0  0  0
  -39.5810   61.5559   67.5551 H   0  0  0  0  0  0  0  0  0  0  0  0
  -41.5658   61.8950   66.2662 H   0  0  0  0  0  0  0  0  0  0  0  0
  -42.4485   62.2759   67.7687 H   0  0  0  0  0  0  0  0  0  0  0  0
  -42.1453   60.0544   68.5464 H   0  0  0  0  0  0  0  0  0  0  0  0
  -41.2407   59.6637   67.0712 H   0  0  0  0  0  0  0  0  0  0  0  0
  -43.1913   60.0402   65.7459 H   0  0  0  0  0  0  0  0  0  0  0  0
  -44.0973   60.4491   67.2194 H   0  0  0  0  0  0  0  0  0  0  0  0
  -43.8310   58.2218   68.0333 H   0  0  0  0  0  0  0  0  0  0  0  0
  -42.9068   57.8095   66.5728 H   0  0  0  0  0  0  0  0  0  0  0  0
  -45.7695   58.6168   66.6423 H   0  0  0  0  0  0  0  0  0  0  0  0
  -45.1206   56.9667   66.4483 H   0  0  0  0  0  0  0  0  0  0  0  0
  -44.7248   59.2130   64.5403 H   0  0  0  0  0  0  0  0  0  0  0  0
  -45.8589   57.8548   64.3682 H   0  0  0  0  0  0  0  0  0  0  0  0
  -43.8768   57.5283   63.0343 H   0  0  0  0  0  0  0  0  0  0  0  0
  -44.0492   56.3218   64.3309 H   0  0  0  0  0  0  0  0  0  0  0  0
  -41.7418   57.0138   64.0580 H   0  0  0  0  0  0  0  0  0  0  0  0
  -42.4012   57.4498   65.6347 H   0  0  0  0  0  0  0  0  0  0  0  0
  -42.6511   59.7762   64.8202 H   0  0  0  0  0  0  0  0  0  0  0  0
  -40.9242   60.5661   63.5933 H   0  0  0  0  0  0  0  0  0  0  0  0
  -38.0148   59.3748   60.4627 H   0  0  0  0  0  0  0  0  0  0  0  0
  -38.6554   57.8106   60.9484 H   0  0  0  0  0  0  0  0  0  0  0  0
  -37.1937   57.7896   62.8603 H   0  0  0  0  0  0  0  0  0  0  0  0
  -36.5565   59.3772   62.3453 H   0  0  0  0  0  0  0  0  0  0  0  0
  -35.6238   58.4067   60.3945 H   0  0  0  0  0  0  0  0  0  0  0  0
  -36.2729   56.8255   60.8717 H   0  0  0  0  0  0  0  0  0  0  0  0
  -34.8590   56.8018   62.8091 H   0  0  0  0  0  0  0  0  0  0  0  0
  -34.2203   58.3886   62.3599 H   0  0  0  0  0  0  0  0  0  0  0  0
  -32.6704   56.6456   61.7612 H   0  0  0  0  0  0  0  0  0  0  0  0
  -31.2275   58.9813   58.8792 H   0  0  0  0  0  0  0  0  0  0  0  0
  -31.5138   60.5331   59.6296 H   0  0  0  0  0  0  0  0  0  0  0  0
  -31.3751   60.4153   57.8918 H   0  0  0  0  0  0  0  0  0  0  0  0
  -34.8376   61.0483   59.1775 H   0  0  0  0  0  0  0  0  0  0  0  0
  -33.3954   61.8713   58.7696 H   0  0  0  0  0  0  0  0  0  0  0  0
  -33.2467   57.9687   54.9153 H   0  0  0  0  0  0  0  0  0  0  0  0
  -33.7806   57.7899   52.5729 H   0  0  0  0  0  0  0  0  0  0  0  0
  -35.4880   59.1789   51.6042 H   0  0  0  0  0  0  0  0  0  0  0  0
  -36.6736   60.7762   52.9678 H   0  0  0  0  0  0  0  0  0  0  0  0
  -33.8635   52.7315   61.1646 H   0  0  0  0  0  0  0  0  0  0  0  0
  -32.3496   54.4007   63.1163 H   0  0  0  0  0  0  0  0  0  0  0  0
  -33.1657   52.8950   63.4628 H   0  0  0  0  0  0  0  0  0  0  0  0
  -34.0885   54.2976   62.9791 H   0  0  0  0  0  0  0  0  0  0  0  0
  -31.7387   51.7113   61.7005 H   0  0  0  0  0  0  0  0  0  0  0  0
  -30.9310   53.2629   61.4118 H   0  0  0  0  0  0  0  0  0  0  0  0
  -32.7934   50.9400   57.3580 H   0  0  0  0  0  0  0  0  0  0  0  0
  -29.8313   50.6554   57.5813 H   0  0  0  0  0  0  0  0  0  0  0  0
  -30.6321   52.2422   57.5336 H   0  0  0  0  0  0  0  0  0  0  0  0
  -29.8329   51.6415   55.3600 H   0  0  0  0  0  0  0  0  0  0  0  0
  -31.6229   51.6708   55.4401 H   0  0  0  0  0  0  0  0  0  0  0  0
  -29.9741   49.2111   55.4736 H   0  0  0  0  0  0  0  0  0  0  0  0
  -30.7834   49.9173   54.0516 H   0  0  0  0  0  0  0  0  0  0  0  0
  -32.8991   49.7150   55.3373 H   0  0  0  0  0  0  0  0  0  0  0  0
  -32.1336   48.2144   54.7562 H   0  0  0  0  0  0  0  0  0  0  0  0
  1 33  1  0  0  0  0
  1 34  1  0  0  0  0
  1 61  1  0  0  0  0
  2  4  1  0  0  0  0
  2 62  1  0  0  0  0
  2 63  1  0  0  0  0
  2 64  1  0  0  0  0
  3 33  2  0  0  0  0
  4  7  1  0  0  0  0
  4 65  1  0  0  0  0
  4 66  1  0  0  0  0
  5 38  1  0  0  0  0
  5 39  1  0  0  0  0
  5 67  1  0  0  0  0
  6 39  2  0  0  0  0
  7 10  1  0  0  0  0
  7 68  1  0  0  0  0
  7 69  1  0  0  0  0
  8 40  1  0  0  0  0
  8 43  2  0  0  0  0
  9 42  1  0  0  0  0
  9 43  1  0  0  0  0
 10 13  1  0  0  0  0
 10 70  1  0  0  0  0
 10 71  1  0  0  0  0
 11 54  1  0  0  0  0
 11 55  1  0  0  0  0
 11 72  1  0  0  0  0
 12 49  1  0  0  0  0
 12 73  1  0  0  0  0
 13 16  1  0  0  0  0
 13 74  1  0  0  0  0
 13 75  1  0  0  0  0
 14 59  1  0  0  0  0
 14 60  1  0  0  0  0
 14 76  1  0  0  0  0
 15 50  2  0  0  0  0
 16 18  1  0  0  0  0
 16 77  1  0  0  0  0
 16 78  1  0  0  0  0
 17 50  1  0  0  0  0
 17 51  1  0  0  0  0
 18 20  1  0  0  0  0
 18 79  1  0  0  0  0
 18 80  1  0  0  0  0
 19 54  2  0  0  0  0
 20 22  1  0  0  0  0
 20 81  1  0  0  0  0
 20 82  1  0  0  0  0
 21 60  2  0  0  0  0
 22 23  1  0  0  0  0
 22 83  1  0  0  0  0
 22 84  1  0  0  0  0
 23 24  1  0  0  0  0
 23 85  1  0  0  0  0
 23 86  1  0  0  0  0
 24 25  1  0  0  0  0
 24 87  1  0  0  0  0
 24 88  1  0  0  0  0
 25 26  1  0  0  0  0
 25 89  1  0  0  0  0
 25 90  1  0  0  0  0
 26 27  1  0  0  0  0
 26 91  1  0  0  0  0
 26 92  1  0  0  0  0
 27 28  1  0  0  0  0
 27 93  1  0  0  0  0
 27 94  1  0  0  0  0
 28 29  1  0  0  0  0
 28 95  1  0  0  0  0
 28 96  1  0  0  0  0
 29 30  1  0  0  0  0
 29 97  1  0  0  0  0
 29 98  1  0  0  0  0
 30 31  1  0  0  0  0
 30 99  1  0  0  0  0
 30100  1  0  0  0  0
 31 32  2  0  0  0  0
 31101  1  0  0  0  0
 32 33  1  0  0  0  0
 32102  1  0  0  0  0
 34 35  1  0  0  0  0
 34103  1  0  0  0  0
 34104  1  0  0  0  0
 35 36  1  0  0  0  0
 35105  1  0  0  0  0
 35106  1  0  0  0  0
 36 37  1  0  0  0  0
 36107  1  0  0  0  0
 36108  1  0  0  0  0
 37 38  1  0  0  0  0
 37109  1  0  0  0  0
 37110  1  0  0  0  0
 38 50  1  0  0  0  0
 38111  1  1  0  0  0
 40 39  1  1  0  0  0
 40 41  1  0  0  0  0
 40 42  1  0  0  0  0
 41112  1  0  0  0  0
 41113  1  0  0  0  0
 41114  1  0  0  0  0
 42115  1  0  0  0  0
 42116  1  0  0  0  0
 43 44  1  0  0  0  0
 44 45  2  0  0  0  0
 44 49  1  0  0  0  0
 45 46  1  0  0  0  0
 45117  1  0  0  0  0
 46 47  2  0  0  0  0
 46118  1  0  0  0  0
 47 48  1  0  0  0  0
 47119  1  0  0  0  0
 48 49  2  0  0  0  0
 48120  1  0  0  0  0
 51 52  1  0  0  0  0
 51 53  1  0  0  0  0
 51121  1  6  0  0  0
 52122  1  0  0  0  0
 52123  1  0  0  0  0
 52124  1  0  0  0  0
 53 54  1  0  0  0  0
 53125  1  0  0  0  0
 53126  1  0  0  0  0
 55 56  1  0  0  0  0
 55 60  1  0  0  0  0
 55127  1  6  0  0  0
 56 57  1  0  0  0  0
 56128  1  0  0  0  0
 56129  1  0  0  0  0
 57 58  1  0  0  0  0
 57130  1  0  0  0  0
 57131  1  0  0  0  0
 58 59  1  0  0  0  0
 58132  1  0  0  0  0
 58133  1  0  0  0  0
 59134  1  0  0  0  0
 59135  1  0  0  0  0
M  END
$$$$
/media/chris/experiments/cd1a-new-docking/inputs/ligands/7ryo_ligand.pdb
 OpenBabel07032304133D

135137  0  0  1  0  0  0  0  0999 V2000
  -39.2043   59.3899   62.1545 N   0  0  0  0  0  0  0  0  0  0  0  0
  -35.9792   67.1338   62.5168 C   0  0  0  0  0  0  0  0  0  0  0  0
  -37.8840   61.1734   62.5667 O   0  0  0  0  0  0  0  0  0  0  0  0
  -35.5294   67.7819   63.7999 C   0  0  0  0  0  0  0  0  0  0  0  0
  -33.1324   57.6580   60.0424 N   0  0  0  0  0  0  0  0  0  0  0  0
  -35.2034   57.7505   59.1729 O   0  0  0  0  0  0  0  0  0  0  0  0
  -34.5118   66.9544   64.5640 C   0  0  0  0  0  0  0  0  0  0  0  0
  -34.5838   59.8665   57.5491 N   0  0  0  0  0  0  0  0  0  0  0  0
  -32.8084   61.2004   57.9387 O   0  0  0  0  0  0  0  0  0  0  0  0
  -33.2208   66.6886   63.8066 C   0  0  0  0  0  0  0  0  0  0  0  0
  -31.6738   51.4976   63.5702 N   0  0  0  0  0  0  0  0  0  0  0  0
  -33.2946   63.6414   58.4906 O   0  0  0  0  0  0  0  0  0  0  0  0
  -32.2238   65.8429   64.5870 C   0  0  0  0  0  0  0  0  0  0  0  0
  -30.9998   51.2873   67.1191 N   0  0  0  0  0  0  0  0  0  0  0  0
  -34.9053   55.2614   59.8825 O   0  0  0  0  0  0  0  0  0  0  0  0
  -31.7982   66.4568   65.9118 C   0  0  0  0  0  0  0  0  0  0  0  0
  -33.2496   54.4578   61.1839 O   0  0  0  0  0  0  0  0  0  0  0  0
  -32.9378   66.6775   66.8913 C   0  0  0  0  0  0  0  0  0  0  0  0
  -31.1792   53.5169   62.7102 O   0  0  0  0  0  0  0  0  0  0  0  0
  -33.6644   65.4055   67.2967 C   0  0  0  0  0  0  0  0  0  0  0  0
  -32.8560   51.7133   65.9343 O   0  0  0  0  0  0  0  0  0  0  0  0
  -34.8079   65.6520   68.2610 C   0  0  0  0  0  0  0  0  0  0  0  0
  -35.5139   64.3740   68.6713 C   0  0  0  0  0  0  0  0  0  0  0  0
  -36.1124   63.5926   67.5189 C   0  0  0  0  0  0  0  0  0  0  0  0
  -36.8253   62.3302   67.9627 C   0  0  0  0  0  0  0  0  0  0  0  0
  -37.4147   61.5299   66.8131 C   0  0  0  0  0  0  0  0  0  0  0  0
  -38.4278   62.3064   65.9932 C   0  0  0  0  0  0  0  0  0  0  0  0
  -37.8723   63.5557   65.3299 C   0  0  0  0  0  0  0  0  0  0  0  0
  -38.9050   64.3285   64.5278 C   0  0  0  0  0  0  0  0  0  0  0  0
  -39.5414   63.5205   63.4034 C   0  0  0  0  0  0  0  0  0  0  0  0
  -40.2614   62.3164   63.9251 C   0  0  0  0  0  0  0  0  0  0  0  0
  -40.0265   61.0427   63.6401 C   0  0  0  0  0  0  0  0  0  0  0  0
  -38.9564   60.5697   62.7336 C   0  0  0  0  0  0  0  0  0  0  0  0
  -38.2360   58.7337   61.2903 C   0  0  0  0  0  0  0  0  0  0  0  0
  -36.9560   58.4330   62.0390 C   0  0  0  0  0  0  0  0  0  0  0  0
  -35.8780   57.7610   61.2090 C   0  0  0  0  0  0  0  0  0  0  0  0
  -34.6110   57.4590   62.0020 C   0  0  0  0  0  0  0  0  0  0  0  0
  -33.5311   56.7980   61.1441 C   0  0  1  0  0  0  0  0  0  0  0  0
  -34.0234   58.0662   59.1357 C   0  0  0  0  0  0  0  0  0  0  0  0
  -33.5145   58.9550   57.9889 C   0  0  1  0  0  0  0  0  0  0  0  0
  -33.1071   58.0653   56.8183 C   0  0  0  0  0  0  0  0  0  0  0  0
  -32.3769   59.8978   58.4081 C   0  0  0  0  0  0  0  0  0  0  0  0
  -34.1033   61.0405   57.5603 C   0  0  0  0  0  0  0  0  0  0  0  0
  -34.8133   62.2681   57.1933 C   0  0  0  0  0  0  0  0  0  0  0  0
  -35.8392   62.2282   56.2482 C   0  0  0  0  0  0  0  0  0  0  0  0
  -36.3489   63.3997   55.7152 C   0  0  0  0  0  0  0  0  0  0  0  0
  -35.8500   64.6215   56.1113 C   0  0  0  0  0  0  0  0  0  0  0  0
  -34.8302   64.6884   57.0431 C   0  0  0  0  0  0  0  0  0  0  0  0
  -34.3033   63.5219   57.5886 C   0  0  0  0  0  0  0  0  0  0  0  0
  -33.9929   55.4382   60.6419 C   0  0  0  0  0  0  0  0  0  0  0  0
  -33.8810   53.1533   61.4055 C   0  0  2  0  0  0  0  0  0  0  0  0
  -34.6843   53.2328   62.6791 C   0  0  0  0  0  0  0  0  0  0  0  0
  -32.7397   52.1597   61.5044 C   0  0  0  0  0  0  0  0  0  0  0  0
  -31.7964   52.4572   62.6486 C   0  0  0  0  0  0  0  0  0  0  0  0
  -30.7948   51.6432   64.7173 C   0  0  1  0  0  0  0  0  0  0  0  0
  -30.0897   53.0035   64.6712 C   0  0  0  0  0  0  0  0  0  0  0  0
  -28.8419   53.0749   65.5448 C   0  0  0  0  0  0  0  0  0  0  0  0
  -29.0731   52.8711   67.0289 C   0  0  0  0  0  0  0  0  0  0  0  0
  -29.5816   51.4921   67.3937 C   0  0  0  0  0  0  0  0  0  0  0  0
  -31.6400   51.5512   65.9779 C   0  0  0  0  0  0  0  0  0  0  0  0
  -40.0704   58.9515   62.3184 H   0  0  0  0  0  0  0  0  0  0  0  0
  -36.6924   67.7651   62.0293 H   0  0  0  0  0  0  0  0  0  0  0  0
  -36.4298   66.1879   62.7339 H   0  0  0  0  0  0  0  0  0  0  0  0
  -35.1350   66.9880   61.8758 H   0  0  0  0  0  0  0  0  0  0  0  0
  -36.3855   67.9294   64.4245 H   0  0  0  0  0  0  0  0  0  0  0  0
  -35.0567   68.7060   63.5402 H   0  0  0  0  0  0  0  0  0  0  0  0
  -32.1934   57.9432   59.9638 H   0  0  0  0  0  0  0  0  0  0  0  0
  -34.9589   66.0124   64.8037 H   0  0  0  0  0  0  0  0  0  0  0  0
  -34.2454   67.5229   65.4304 H   0  0  0  0  0  0  0  0  0  0  0  0
  -32.7624   67.6280   63.5777 H   0  0  0  0  0  0  0  0  0  0  0  0
  -33.4793   66.1388   62.9258 H   0  0  0  0  0  0  0  0  0  0  0  0
  -32.1941   50.6680   63.4687 H   0  0  0  0  0  0  0  0  0  0  0  0
  -32.9180   62.8751   58.8764 H   0  0  0  0  0  0  0  0  0  0  0  0
  -31.3512   65.7076   63.9827 H   0  0  0  0  0  0  0  0  0  0  0  0
  -32.7127   64.9191   64.8159 H   0  0  0  0  0  0  0  0  0  0  0  0
  -31.5414   50.9155   67.8524 H   0  0  0  0  0  0  0  0  0  0  0  0
  -31.3403   67.4029   65.7113 H   0  0  0  0  0  0  0  0  0  0  0  0
  -31.1283   65.7608   66.3717 H   0  0  0  0  0  0  0  0  0  0  0  0
  -33.6464   67.3391   66.4385 H   0  0  0  0  0  0  0  0  0  0  0  0
  -32.5044   67.0819   67.7820 H   0  0  0  0  0  0  0  0  0  0  0  0
  -32.9621   64.7468   67.7634 H   0  0  0  0  0  0  0  0  0  0  0  0
  -34.0837   64.9820   66.4081 H   0  0  0  0  0  0  0  0  0  0  0  0
  -35.5182   66.2997   67.7911 H   0  0  0  0  0  0  0  0  0  0  0  0
  -34.3957   66.0914   69.1452 H   0  0  0  0  0  0  0  0  0  0  0  0
  -36.3026   64.6296   69.3478 H   0  0  0  0  0  0  0  0  0  0  0  0
  -34.7719   63.7438   69.1153 H   0  0  0  0  0  0  0  0  0  0  0  0
  -35.3254   63.3208   66.8468 H   0  0  0  0  0  0  0  0  0  0  0  0
  -36.8400   64.2219   67.0505 H   0  0  0  0  0  0  0  0  0  0  0  0
  -37.6188   62.6049   68.6258 H   0  0  0  0  0  0  0  0  0  0  0  0
  -36.0961   61.7078   68.4378 H   0  0  0  0  0  0  0  0  0  0  0  0
  -37.8969   60.6636   67.2155 H   0  0  0  0  0  0  0  0  0  0  0  0
  -36.6069   61.2769   66.1585 H   0  0  0  0  0  0  0  0  0  0  0  0
  -39.2286   62.5986   66.6399 H   0  0  0  0  0  0  0  0  0  0  0  0
  -38.7451   61.6568   65.2043 H   0  0  0  0  0  0  0  0  0  0  0  0
  -37.0804   63.2655   64.6714 H   0  0  0  0  0  0  0  0  0  0  0  0
  -37.5343   64.2026   66.1123 H   0  0  0  0  0  0  0  0  0  0  0  0
  -38.4275   65.1848   64.0993 H   0  0  0  0  0  0  0  0  0  0  0  0
  -39.6906   64.5931   65.2044 H   0  0  0  0  0  0  0  0  0  0  0  0
  -38.7744   63.2008   62.7293 H   0  0  0  0  0  0  0  0  0  0  0  0
  -40.2536   64.1452   62.9059 H   0  0  0  0  0  0  0  0  0  0  0  0
  -41.0328   62.4992   64.5858 H   0  0  0  0  0  0  0  0  0  0  0  0
  -40.6317   60.3323   64.0807 H   0  0  0  0  0  0  0  0  0  0  0  0
  -38.0148   59.3748   60.4627 H   0  0  0  0  0  0  0  0  0  0  0  0
  -38.6554   57.8106   60.9484 H   0  0  0  0  0  0  0  0  0  0  0  0
  -37.1937   57.7896   62.8603 H   0  0  0  0  0  0  0  0  0  0  0  0
  -36.5565   59.3772   62.3453 H   0  0  0  0  0  0  0  0  0  0  0  0
  -35.6238   58.4067   60.3945 H   0  0  0  0  0  0  0  0  0  0  0  0
  -36.2729   56.8255   60.8717 H   0  0  0  0  0  0  0  0  0  0  0  0
  -34.8590   56.8018   62.8091 H   0  0  0  0  0  0  0  0  0  0  0  0
  -34.2203   58.3886   62.3599 H   0  0  0  0  0  0  0  0  0  0  0  0
  -32.6704   56.6456   61.7612 H   0  0  0  0  0  0  0  0  0  0  0  0
  -33.9232   57.4248   56.5562 H   0  0  0  0  0  0  0  0  0  0  0  0
  -32.2630   57.4707   57.0991 H   0  0  0  0  0  0  0  0  0  0  0  0
  -32.8494   58.6764   55.9787 H   0  0  0  0  0  0  0  0  0  0  0  0
  -32.2554   59.8979   59.4712 H   0  0  0  0  0  0  0  0  0  0  0  0
  -31.4307   59.6069   58.0019 H   0  0  0  0  0  0  0  0  0  0  0  0
  -36.2207   61.3187   55.9443 H   0  0  0  0  0  0  0  0  0  0  0  0
  -37.1075   63.3577   55.0168 H   0  0  0  0  0  0  0  0  0  0  0  0
  -36.2387   65.4897   55.7112 H   0  0  0  0  0  0  0  0  0  0  0  0
  -34.4590   65.6061   57.3346 H   0  0  0  0  0  0  0  0  0  0  0  0
  -34.5504   52.8576   60.6249 H   0  0  0  0  0  0  0  0  0  0  0  0
  -34.0458   53.5270   63.4857 H   0  0  0  0  0  0  0  0  0  0  0  0
  -35.1102   52.2747   62.8926 H   0  0  0  0  0  0  0  0  0  0  0  0
  -35.4669   53.9531   62.5628 H   0  0  0  0  0  0  0  0  0  0  0  0
  -32.1852   52.1849   60.5896 H   0  0  0  0  0  0  0  0  0  0  0  0
  -33.1683   51.1960   61.6844 H   0  0  0  0  0  0  0  0  0  0  0  0
  -30.0519   50.8733   64.7074 H   0  0  0  0  0  0  0  0  0  0  0  0
  -30.7780   53.7526   65.0030 H   0  0  0  0  0  0  0  0  0  0  0  0
  -29.7743   53.1591   63.6607 H   0  0  0  0  0  0  0  0  0  0  0  0
  -28.3992   54.0395   65.4093 H   0  0  0  0  0  0  0  0  0  0  0  0
  -28.2162   52.2657   65.2306 H   0  0  0  0  0  0  0  0  0  0  0  0
  -29.7917   53.5919   67.3588 H   0  0  0  0  0  0  0  0  0  0  0  0
  -28.1226   52.9850   67.5069 H   0  0  0  0  0  0  0  0  0  0  0  0
  -29.0236   50.7698   66.8352 H   0  0  0  0  0  0  0  0  0  0  0  0
  -29.4539   51.3862   68.4508 H   0  0  0  0  0  0  0  0  0  0  0  0
  1 33  1  0  0  0  0
  1 34  1  0  0  0  0
  1 61  1  0  0  0  0
  2  4  1  0  0  0  0
  2 62  1  0  0  0  0
  2 63  1  0  0  0  0
  2 64  1  0  0  0  0
  3 33  2  0  0  0  0
  4  7  1  0  0  0  0
  4 65  1  0  0  0  0
  4 66  1  0  0  0  0
  5 38  1  0  0  0  0
  5 39  1  0  0  0  0
  5 67  1  0  0  0  0
  6 39  2  0  0  0  0
  7 10  1  0  0  0  0
  7 68  1  0  0  0  0
  7 69  1  0  0  0  0
  8 40  1  0  0  0  0
  8 43  2  0  0  0  0
  9 42  1  0  0  0  0
  9 43  1  0  0  0  0
 10 13  1  0  0  0  0
 10 70  1  0  0  0  0
 10 71  1  0  0  0  0
 11 54  1  0  0  0  0
 11 55  1  0  0  0  0
 11 72  1  0  0  0  0
 12 49  1  0  0  0  0
 12 73  1  0  0  0  0
 13 16  1  0  0  0  0
 13 74  1  0  0  0  0
 13 75  1  0  0  0  0
 14 59  1  0  0  0  0
 14 60  1  0  0  0  0
 14 76  1  0  0  0  0
 15 50  2  0  0  0  0
 16 18  1  0  0  0  0
 16 77  1  0  0  0  0
 16 78  1  0  0  0  0
 17 50  1  0  0  0  0
 17 51  1  0  0  0  0
 18 20  1  0  0  0  0
 18 79  1  0  0  0  0
 18 80  1  0  0  0  0
 19 54  2  0  0  0  0
 20 22  1  0  0  0  0
 20 81  1  0  0  0  0
 20 82  1  0  0  0  0
 21 60  2  0  0  0  0
 22 23  1  0  0  0  0
 22 83  1  0  0  0  0
 22 84  1  0  0  0  0
 23 24  1  0  0  0  0
 23 85  1  0  0  0  0
 23 86  1  0  0  0  0
 24 25  1  0  0  0  0
 24 87  1  0  0  0  0
 24 88  1  0  0  0  0
 25 26  1  0  0  0  0
 25 89  1  0  0  0  0
 25 90  1  0  0  0  0
 26 27  1  0  0  0  0
 26 91  1  0  0  0  0
 26 92  1  0  0  0  0
 27 28  1  0  0  0  0
 27 93  1  0  0  0  0
 27 94  1  0  0  0  0
 28 29  1  0  0  0  0
 28 95  1  0  0  0  0
 28 96  1  0  0  0  0
 29 30  1  0  0  0  0
 29 97  1  0  0  0  0
 29 98  1  0  0  0  0
 30 31  1  0  0  0  0
 30 99  1  0  0  0  0
 30100  1  0  0  0  0
 31 32  2  0  0  0  0
 31101  1  0  0  0  0
 32 33  1  0  0  0  0
 32102  1  0  0  0  0
 34 35  1  0  0  0  0
 34103  1  0  0  0  0
 34104  1  0  0  0  0
 35 36  1  0  0  0  0
 35105  1  0  0  0  0
 35106  1  0  0  0  0
 36 37  1  0  0  0  0
 36107  1  0  0  0  0
 36108  1  0  0  0  0
 37 38  1  0  0  0  0
 37109  1  0  0  0  0
 37110  1  0  0  0  0
 38 50  1  0  0  0  0
 38111  1  1  0  0  0
 40 39  1  1  0  0  0
 40 41  1  0  0  0  0
 40 42  1  0  0  0  0
 41112  1  0  0  0  0
 41113  1  0  0  0  0
 41114  1  0  0  0  0
 42115  1  0  0  0  0
 42116  1  0  0  0  0
 43 44  1  0  0  0  0
 44 45  2  0  0  0  0
 44 49  1  0  0  0  0
 45 46  1  0  0  0  0
 45117  1  0  0  0  0
 46 47  2  0  0  0  0
 46118  1  0  0  0  0
 47 48  1  0  0  0  0
 47119  1  0  0  0  0
 48 49  2  0  0  0  0
 48120  1  0  0  0  0
 51 52  1  0  0  0  0
 51 53  1  0  0  0  0
 51121  1  6  0  0  0
 52122  1  0  0  0  0
 52123  1  0  0  0  0
 52124  1  0  0  0  0
 53 54  1  0  0  0  0
 53125  1  0  0  0  0
 53126  1  0  0  0  0
 55 56  1  0  0  0  0
 55 60  1  0  0  0  0
 55127  1  6  0  0  0
 56 57  1  0  0  0  0
 56128  1  0  0  0  0
 56129  1  0  0  0  0
 57 58  1  0  0  0  0
 57130  1  0  0  0  0
 57131  1  0  0  0  0
 58 59  1  0  0  0  0
 58132  1  0  0  0  0
 58133  1  0  0  0  0
 59134  1  0  0  0  0
 59135  1  0  0  0  0
M  END
$$$$
/media/chris/experiments/cd1a-new-docking/inputs/ligands/7ryo_ligand.pdb
 OpenBabel07032304133D

135137  0  0  1  0  0  0  0  0999 V2000
  -39.2043   59.3899   62.1545 N   0  0  0  0  0  0  0  0  0  0  0  0
  -38.5665   51.0230   70.6351 C   0  0  0  0  0  0  0  0  0  0  0  0
  -39.2782   57.6966   63.6448 O   0  0  0  0  0  0  0  0  0  0  0  0
  -38.1166   51.3990   72.0224 C   0  0  0  0  0  0  0  0  0  0  0  0
  -35.3848   55.2330   62.7177 N   0  0  0  0  0  0  0  0  0  0  0  0
  -33.5600   54.7745   61.4873 O   0  0  0  0  0  0  0  0  0  0  0  0
  -36.8551   52.2430   72.0346 C   0  0  0  0  0  0  0  0  0  0  0  0
  -36.5433   53.3953   60.7058 N   0  0  0  0  0  0  0  0  0  0  0  0
  -35.3403   52.0560   59.3485 O   0  0  0  0  0  0  0  0  0  0  0  0
  -35.6491   51.5814   71.3873 C   0  0  0  0  0  0  0  0  0  0  0  0
  -36.9133   62.6543   64.7251 N   0  0  0  0  0  0  0  0  0  0  0  0
  -35.8485   52.1809   56.8534 O   0  0  0  0  0  0  0  0  0  0  0  0
  -35.8583   51.2472   69.9167 C   0  0  0  0  0  0  0  0  0  0  0  0
  -37.6738   64.9484   67.4181 N   0  0  0  0  0  0  0  0  0  0  0  0
  -36.1056   56.6655   65.2470 O   0  0  0  0  0  0  0  0  0  0  0  0
  -36.1397   52.4596   69.0427 C   0  0  0  0  0  0  0  0  0  0  0  0
  -36.2688   58.3271   63.7327 O   0  0  0  0  0  0  0  0  0  0  0  0
  -37.3742   53.2465   69.4471 C   0  0  0  0  0  0  0  0  0  0  0  0
  -34.7288   62.5115   64.2063 O   0  0  0  0  0  0  0  0  0  0  0  0
  -37.6634   54.4480   68.5621 C   0  0  0  0  0  0  0  0  0  0  0  0
  -38.8182   63.2719   66.4639 O   0  0  0  0  0  0  0  0  0  0  0  0
  -38.8895   55.2275   68.9946 C   0  0  0  0  0  0  0  0  0  0  0  0
  -40.1503   54.3845   68.9929 C   0  0  0  0  0  0  0  0  0  0  0  0
  -41.4029   55.1321   69.4036 C   0  0  0  0  0  0  0  0  0  0  0  0
  -41.7278   56.2965   68.4885 C   0  0  0  0  0  0  0  0  0  0  0  0
  -42.9730   57.0638   68.9012 C   0  0  0  0  0  0  0  0  0  0  0  0
  -43.3061   58.2181   67.9748 C   0  0  0  0  0  0  0  0  0  0  0  0
  -43.5811   57.8091   66.5373 C   0  0  0  0  0  0  0  0  0  0  0  0
  -42.4165   57.0929   65.8757 C   0  0  0  0  0  0  0  0  0  0  0  0
  -41.1357   57.9170   65.8254 C   0  0  0  0  0  0  0  0  0  0  0  0
  -41.3298   59.1976   65.0751 C   0  0  0  0  0  0  0  0  0  0  0  0
  -40.6964   59.6030   63.9828 C   0  0  0  0  0  0  0  0  0  0  0  0
  -39.6580   58.8202   63.2762 C   0  0  0  0  0  0  0  0  0  0  0  0
  -38.2360   58.7337   61.2903 C   0  0  0  0  0  0  0  0  0  0  0  0
  -36.9560   58.4330   62.0390 C   0  0  0  0  0  0  0  0  0  0  0  0
  -35.8780   57.7610   61.2090 C   0  0  0  0  0  0  0  0  0  0  0  0
  -34.6110   57.4590   62.0020 C   0  0  0  0  0  0  0  0  0  0  0  0
  -34.8704   56.5130   63.1754 C   0  0  1  0  0  0  0  0  0  0  0  0
  -34.6680   54.4615   61.8968 C   0  0  0  0  0  0  0  0  0  0  0  0
  -35.2951   53.1335   61.4412 C   0  0  1  0  0  0  0  0  0  0  0  0
  -35.6111   52.2890   62.6720 C   0  0  0  0  0  0  0  0  0  0  0  0
  -34.4283   52.3651   60.4328 C   0  0  0  0  0  0  0  0  0  0  0  0
  -36.4640   52.7764   59.6012 C   0  0  0  0  0  0  0  0  0  0  0  0
  -37.4833   52.7520   58.5494 C   0  0  0  0  0  0  0  0  0  0  0  0
  -38.8332   52.8801   58.8789 C   0  0  0  0  0  0  0  0  0  0  0  0
  -39.8138   52.6170   57.9379 C   0  0  0  0  0  0  0  0  0  0  0  0
  -39.4697   52.2250   56.6625 C   0  0  0  0  0  0  0  0  0  0  0  0
  -38.1391   52.0861   56.3118 C   0  0  0  0  0  0  0  0  0  0  0  0
  -37.1392   52.3440   57.2443 C   0  0  0  0  0  0  0  0  0  0  0  0
  -35.8061   57.1511   64.1912 C   0  0  0  0  0  0  0  0  0  0  0  0
  -35.9836   59.5345   64.5141 C   0  0  2  0  0  0  0  0  0  0  0  0
  -36.9730   59.6010   65.6500 C   0  0  0  0  0  0  0  0  0  0  0  0
  -36.1375   60.6918   63.5465 C   0  0  0  0  0  0  0  0  0  0  0  0
  -35.8600   62.0348   64.1846 C   0  0  0  0  0  0  0  0  0  0  0  0
  -36.7912   63.9446   65.3807 C   0  0  1  0  0  0  0  0  0  0  0  0
  -37.0100   65.0733   64.3670 C   0  0  0  0  0  0  0  0  0  0  0  0
  -36.4693   66.4224   64.8283 C   0  0  0  0  0  0  0  0  0  0  0  0
  -37.1005   66.9810   66.0882 C   0  0  0  0  0  0  0  0  0  0  0  0
  -36.8500   66.1492   67.3286 C   0  0  0  0  0  0  0  0  0  0  0  0
  -37.8499   64.0264   66.4690 C   0  0  0  0  0  0  0  0  0  0  0  0
  -39.5365   60.2827   61.9057 H   0  0  0  0  0  0  0  0  0  0  0  0
  -39.4561   50.4316   70.6966 H   0  0  0  0  0  0  0  0  0  0  0  0
  -37.7965   50.4596   70.1508 H   0  0  0  0  0  0  0  0  0  0  0  0
  -38.7666   51.9107   70.0722 H   0  0  0  0  0  0  0  0  0  0  0  0
  -37.9304   50.5014   72.5743 H   0  0  0  0  0  0  0  0  0  0  0  0
  -38.8960   51.9865   72.4608 H   0  0  0  0  0  0  0  0  0  0  0  0
  -36.2728   54.9310   63.0167 H   0  0  0  0  0  0  0  0  0  0  0  0
  -36.6096   52.4629   73.0526 H   0  0  0  0  0  0  0  0  0  0  0  0
  -37.0685   53.1187   71.4579 H   0  0  0  0  0  0  0  0  0  0  0  0
  -35.4365   50.6747   71.9141 H   0  0  0  0  0  0  0  0  0  0  0  0
  -34.8401   52.2797   71.4401 H   0  0  0  0  0  0  0  0  0  0  0  0
  -37.7974   62.2238   64.6776 H   0  0  0  0  0  0  0  0  0  0  0  0
  -35.1516   52.3464   57.4575 H   0  0  0  0  0  0  0  0  0  0  0  0
  -36.6878   50.5759   69.8386 H   0  0  0  0  0  0  0  0  0  0  0  0
  -34.9452   50.8153   69.5636 H   0  0  0  0  0  0  0  0  0  0  0  0
  -38.1497   64.8028   68.2676 H   0  0  0  0  0  0  0  0  0  0  0  0
  -36.2712   52.1236   68.0353 H   0  0  0  0  0  0  0  0  0  0  0  0
  -35.3047   53.1193   69.1545 H   0  0  0  0  0  0  0  0  0  0  0  0
  -37.2377   53.5933   70.4500 H   0  0  0  0  0  0  0  0  0  0  0  0
  -38.2082   52.5834   69.3482 H   0  0  0  0  0  0  0  0  0  0  0  0
  -37.8151   54.1038   67.5604 H   0  0  0  0  0  0  0  0  0  0  0  0
  -36.8244   55.1077   68.6379 H   0  0  0  0  0  0  0  0  0  0  0  0
  -39.0266   56.0496   68.3236 H   0  0  0  0  0  0  0  0  0  0  0  0
  -38.7240   55.5589   69.9984 H   0  0  0  0  0  0  0  0  0  0  0  0
  -40.0090   53.5696   69.6717 H   0  0  0  0  0  0  0  0  0  0  0  0
  -40.3025   54.0643   67.9833 H   0  0  0  0  0  0  0  0  0  0  0  0
  -41.2656   55.5072   70.3962 H   0  0  0  0  0  0  0  0  0  0  0  0
  -42.2194   54.4430   69.3451 H   0  0  0  0  0  0  0  0  0  0  0  0
  -41.8759   55.9181   67.4987 H   0  0  0  0  0  0  0  0  0  0  0  0
  -40.9053   56.9787   68.5437 H   0  0  0  0  0  0  0  0  0  0  0  0
  -42.8202   57.4530   69.8861 H   0  0  0  0  0  0  0  0  0  0  0  0
  -43.7938   56.3787   68.8589 H   0  0  0  0  0  0  0  0  0  0  0  0
  -42.4802   58.8984   67.9772 H   0  0  0  0  0  0  0  0  0  0  0  0
  -44.2087   58.6571   68.3457 H   0  0  0  0  0  0  0  0  0  0  0  0
  -43.8022   58.6899   65.9714 H   0  0  0  0  0  0  0  0  0  0  0  0
  -44.4012   57.1222   66.5579 H   0  0  0  0  0  0  0  0  0  0  0  0
  -42.6980   56.8458   64.8734 H   0  0  0  0  0  0  0  0  0  0  0  0
  -42.2066   56.2268   66.4677 H   0  0  0  0  0  0  0  0  0  0  0  0
  -40.3733   57.3435   65.3410 H   0  0  0  0  0  0  0  0  0  0  0  0
  -40.8549   58.1581   66.8294 H   0  0  0  0  0  0  0  0  0  0  0  0
  -42.0416   59.8421   65.4531 H   0  0  0  0  0  0  0  0  0  0  0  0
  -40.9447   60.5282   63.5990 H   0  0  0  0  0  0  0  0  0  0  0  0
  -38.0148   59.3748   60.4627 H   0  0  0  0  0  0  0  0  0  0  0  0
  -38.6554   57.8106   60.9484 H   0  0  0  0  0  0  0  0  0  0  0  0
  -37.1937   57.7896   62.8603 H   0  0  0  0  0  0  0  0  0  0  0  0
  -36.5565   59.3772   62.3453 H   0  0  0  0  0  0  0  0  0  0  0  0
  -35.6238   58.4067   60.3945 H   0  0  0  0  0  0  0  0  0  0  0  0
  -36.2729   56.8255   60.8717 H   0  0  0  0  0  0  0  0  0  0  0  0
  -34.2161   58.3779   62.3821 H   0  0  0  0  0  0  0  0  0  0  0  0
  -33.9192   56.9787   61.3420 H   0  0  0  0  0  0  0  0  0  0  0  0
  -33.9347   56.3288   63.6606 H   0  0  0  0  0  0  0  0  0  0  0  0
  -36.2146   52.8569   63.3489 H   0  0  0  0  0  0  0  0  0  0  0  0
  -34.6989   52.0091   63.1563 H   0  0  0  0  0  0  0  0  0  0  0  0
  -36.1413   51.4087   62.3739 H   0  0  0  0  0  0  0  0  0  0  0  0
  -33.6184   52.9728   60.0868 H   0  0  0  0  0  0  0  0  0  0  0  0
  -33.9817   51.4901   60.8569 H   0  0  0  0  0  0  0  0  0  0  0  0
  -39.1025   53.1732   59.8311 H   0  0  0  0  0  0  0  0  0  0  0  0
  -40.8089   52.7150   58.1932 H   0  0  0  0  0  0  0  0  0  0  0  0
  -40.2075   52.0344   55.9666 H   0  0  0  0  0  0  0  0  0  0  0  0
  -37.8872   51.7903   55.3557 H   0  0  0  0  0  0  0  0  0  0  0  0
  -35.0039   59.5511   64.9439 H   0  0  0  0  0  0  0  0  0  0  0  0
  -37.9683   59.5864   65.2574 H   0  0  0  0  0  0  0  0  0  0  0  0
  -36.8209   60.5043   66.2031 H   0  0  0  0  0  0  0  0  0  0  0  0
  -36.8319   58.7595   66.2956 H   0  0  0  0  0  0  0  0  0  0  0  0
  -37.1398   60.6926   63.1720 H   0  0  0  0  0  0  0  0  0  0  0  0
  -35.4199   60.5539   62.7649 H   0  0  0  0  0  0  0  0  0  0  0  0
  -35.8129   64.0487   65.8014 H   0  0  0  0  0  0  0  0  0  0  0  0
  -38.0611   65.1721   64.1925 H   0  0  0  0  0  0  0  0  0  0  0  0
  -36.4732   64.8070   63.4805 H   0  0  0  0  0  0  0  0  0  0  0  0
  -36.6268   67.1281   64.0396 H   0  0  0  0  0  0  0  0  0  0  0  0
  -35.4377   66.2614   65.0626 H   0  0  0  0  0  0  0  0  0  0  0  0
  -38.1575   67.0443   65.9344 H   0  0  0  0  0  0  0  0  0  0  0  0
  -36.6492   67.9355   66.2614 H   0  0  0  0  0  0  0  0  0  0  0  0
  -35.8220   65.8523   67.3319 H   0  0  0  0  0  0  0  0  0  0  0  0
  -37.1063   66.7620   68.1675 H   0  0  0  0  0  0  0  0  0  0  0  0
  1 33  1  0  0  0  0
  1 34  1  0  0  0  0
  1 61  1  0  0  0  0
  2  4  1  0  0  0  0
  2 62  1  0  0  0  0
  2 63  1  0  0  0  0
  2 64  1  0  0  0  0
  3 33  2  0  0  0  0
  4  7  1  0  0  0  0
  4 65  1  0  0  0  0
  4 66  1  0  0  0  0
  5 38  1  0  0  0  0
  5 39  1  0  0  0  0
  5 67  1  0  0  0  0
  6 39  2  0  0  0  0
  7 10  1  0  0  0  0
  7 68  1  0  0  0  0
  7 69  1  0  0  0  0
  8 40  1  0  0  0  0
  8 43  2  0  0  0  0
  9 42  1  0  0  0  0
  9 43  1  0  0  0  0
 10 13  1  0  0  0  0
 10 70  1  0  0  0  0
 10 71  1  0  0  0  0
 11 54  1  0  0  0  0
 11 55  1  0  0  0  0
 11 72  1  0  0  0  0
 12 49  1  0  0  0  0
 12 73  1  0  0  0  0
 13 16  1  0  0  0  0
 13 74  1  0  0  0  0
 13 75  1  0  0  0  0
 14 59  1  0  0  0  0
 14 60  1  0  0  0  0
 14 76  1  0  0  0  0
 15 50  2  0  0  0  0
 16 18  1  0  0  0  0
 16 77  1  0  0  0  0
 16 78  1  0  0  0  0
 17 50  1  0  0  0  0
 17 51  1  0  0  0  0
 18 20  1  0  0  0  0
 18 79  1  0  0  0  0
 18 80  1  0  0  0  0
 19 54  2  0  0  0  0
 20 22  1  0  0  0  0
 20 81  1  0  0  0  0
 20 82  1  0  0  0  0
 21 60  2  0  0  0  0
 22 23  1  0  0  0  0
 22 83  1  0  0  0  0
 22 84  1  0  0  0  0
 23 24  1  0  0  0  0
 23 85  1  0  0  0  0
 23 86  1  0  0  0  0
 24 25  1  0  0  0  0
 24 87  1  0  0  0  0
 24 88  1  0  0  0  0
 25 26  1  0  0  0  0
 25 89  1  0  0  0  0
 25 90  1  0  0  0  0
 26 27  1  0  0  0  0
 26 91  1  0  0  0  0
 26 92  1  0  0  0  0
 27 28  1  0  0  0  0
 27 93  1  0  0  0  0
 27 94  1  0  0  0  0
 28 29  1  0  0  0  0
 28 95  1  0  0  0  0
 28 96  1  0  0  0  0
 29 30  1  0  0  0  0
 29 97  1  0  0  0  0
 29 98  1  0  0  0  0
 30 31  1  0  0  0  0
 30 99  1  0  0  0  0
 30100  1  0  0  0  0
 31 32  2  0  0  0  0
 31101  1  0  0  0  0
 32 33  1  0  0  0  0
 32102  1  0  0  0  0
 34 35  1  0  0  0  0
 34103  1  0  0  0  0
 34104  1  0  0  0  0
 35 36  1  0  0  0  0
 35105  1  0  0  0  0
 35106  1  0  0  0  0
 36 37  1  0  0  0  0
 36107  1  0  0  0  0
 36108  1  0  0  0  0
 37 38  1  0  0  0  0
 37109  1  0  0  0  0
 37110  1  0  0  0  0
 38 50  1  0  0  0  0
 38111  1  1  0  0  0
 40 39  1  1  0  0  0
 40 41  1  0  0  0  0
 40 42  1  0  0  0  0
 41112  1  0  0  0  0
 41113  1  0  0  0  0
 41114  1  0  0  0  0
 42115  1  0  0  0  0
 42116  1  0  0  0  0
 43 44  1  0  0  0  0
 44 45  2  0  0  0  0
 44 49  1  0  0  0  0
 45 46  1  0  0  0  0
 45117  1  0  0  0  0
 46 47  2  0  0  0  0
 46118  1  0  0  0  0
 47 48  1  0  0  0  0
 47119  1  0  0  0  0
 48 49  2  0  0  0  0
 48120  1  0  0  0  0
 51 52  1  0  0  0  0
 51 53  1  0  0  0  0
 51121  1  1  0  0  0
 52122  1  0  0  0  0
 52123  1  0  0  0  0
 52124  1  0  0  0  0
 53 54  1  0  0  0  0
 53125  1  0  0  0  0
 53126  1  0  0  0  0
 55 56  1  0  0  0  0
 55 60  1  0  0  0  0
 55127  1  1  0  0  0
 56 57  1  0  0  0  0
 56128  1  0  0  0  0
 56129  1  0  0  0  0
 57 58  1  0  0  0  0
 57130  1  0  0  0  0
 57131  1  0  0  0  0
 58 59  1  0  0  0  0
 58132  1  0  0  0  0
 58133  1  0  0  0  0
 59134  1  0  0  0  0
 59135  1  0  0  0  0
M  END
$$$$
/media/chris/experiments/cd1a-new-docking/inputs/ligands/7ryo_ligand.pdb
 OpenBabel07032304133D

135137  0  0  1  0  0  0  0  0999 V2000
  -39.2043   59.3899   62.1545 N   0  0  0  0  0  0  0  0  0  0  0  0
  -43.1760   62.0220   57.4706 C   0  0  0  0  0  0  0  0  0  0  0  0
  -40.9220   60.8288   62.4244 O   0  0  0  0  0  0  0  0  0  0  0  0
  -41.8937   62.5428   56.8763 C   0  0  0  0  0  0  0  0  0  0  0  0
  -33.1324   57.6580   60.0424 N   0  0  0  0  0  0  0  0  0  0  0  0
  -30.9871   57.7601   60.7067 O   0  0  0  0  0  0  0  0  0  0  0  0
  -42.0672   63.1052   55.4772 C   0  0  0  0  0  0  0  0  0  0  0  0
  -32.4345   58.7123   57.6086 N   0  0  0  0  0  0  0  0  0  0  0  0
  -32.5874   60.9396   57.9228 O   0  0  0  0  0  0  0  0  0  0  0  0
  -43.0263   64.2811   55.3862 C   0  0  0  0  0  0  0  0  0  0  0  0
  -38.4120   53.7408   62.5705 N   0  0  0  0  0  0  0  0  0  0  0  0
  -33.7980   62.4213   56.3716 O   0  0  0  0  0  0  0  0  0  0  0  0
  -44.4350   63.9519   55.8610 C   0  0  0  0  0  0  0  0  0  0  0  0
  -40.5757   55.7929   64.6201 N   0  0  0  0  0  0  0  0  0  0  0  0
  -33.3116   54.6686   60.0224 O   0  0  0  0  0  0  0  0  0  0  0  0
  -45.4081   65.1162   55.7588 C   0  0  0  0  0  0  0  0  0  0  0  0
  -35.2791   55.2259   60.9704 O   0  0  0  0  0  0  0  0  0  0  0  0
  -44.9998   66.3419   56.5575 C   0  0  0  0  0  0  0  0  0  0  0  0
  -36.8881   52.6490   61.3265 O   0  0  0  0  0  0  0  0  0  0  0  0
  -44.8473   66.0900   58.0486 C   0  0  0  0  0  0  0  0  0  0  0  0
  -40.1781   53.5868   64.5430 O   0  0  0  0  0  0  0  0  0  0  0  0
  -44.4562   67.3305   58.8273 C   0  0  0  0  0  0  0  0  0  0  0  0
  -44.2905   67.0629   60.3109 C   0  0  0  0  0  0  0  0  0  0  0  0
  -43.2171   66.0472   60.6470 C   0  0  0  0  0  0  0  0  0  0  0  0
  -43.0876   65.7891   62.1354 C   0  0  0  0  0  0  0  0  0  0  0  0
  -42.0022   64.7844   62.4850 C   0  0  0  0  0  0  0  0  0  0  0  0
  -40.6150   65.2175   62.0492 C   0  0  0  0  0  0  0  0  0  0  0  0
  -39.5158   64.2196   62.3738 C   0  0  0  0  0  0  0  0  0  0  0  0
  -39.7067   62.8673   61.7091 C   0  0  0  0  0  0  0  0  0  0  0  0
  -39.7263   62.9273   60.1866 C   0  0  0  0  0  0  0  0  0  0  0  0
  -39.9336   61.5741   59.5813 C   0  0  0  0  0  0  0  0  0  0  0  0
  -40.0893   60.4176   60.2115 C   0  0  0  0  0  0  0  0  0  0  0  0
  -40.1043   60.2597   61.6829 C   0  0  0  0  0  0  0  0  0  0  0  0
  -38.2360   58.7337   61.2903 C   0  0  0  0  0  0  0  0  0  0  0  0
  -36.9560   58.4330   62.0390 C   0  0  0  0  0  0  0  0  0  0  0  0
  -35.8780   57.7610   61.2090 C   0  0  0  0  0  0  0  0  0  0  0  0
  -34.6110   57.4590   62.0020 C   0  0  0  0  0  0  0  0  0  0  0  0
  -33.5311   56.7980   61.1441 C   0  0  1  0  0  0  0  0  0  0  0  0
  -31.8686   58.0712   59.9196 C   0  0  0  0  0  0  0  0  0  0  0  0
  -31.5354   58.9980   58.7389 C   0  0  1  0  0  0  0  0  0  0  0  0
  -30.0949   58.7453   58.3042 C   0  0  0  0  0  0  0  0  0  0  0  0
  -31.7849   60.4830   59.0411 C   0  0  0  0  0  0  0  0  0  0  0  0
  -32.9475   59.8157   57.2499 C   0  0  0  0  0  0  0  0  0  0  0  0
  -33.9039   60.0093   56.1574 C   0  0  0  0  0  0  0  0  0  0  0  0
  -34.3325   58.9184   55.4000 C   0  0  0  0  0  0  0  0  0  0  0  0
  -35.0363   59.1131   54.2240 C   0  0  0  0  0  0  0  0  0  0  0  0
  -35.3234   60.3875   53.7855 C   0  0  0  0  0  0  0  0  0  0  0  0
  -34.9060   61.4856   54.5153 C   0  0  0  0  0  0  0  0  0  0  0  0
  -34.1957   61.3103   55.6987 C   0  0  0  0  0  0  0  0  0  0  0  0
  -33.9929   55.4382   60.6419 C   0  0  0  0  0  0  0  0  0  0  0  0
  -36.2431   55.0100   59.8870 C   0  0  2  0  0  0  0  0  0  0  0  0
  -36.2272   56.2274   58.9974 C   0  0  0  0  0  0  0  0  0  0  0  0
  -37.5833   54.8104   60.5677 C   0  0  0  0  0  0  0  0  0  0  0  0
  -37.5913   53.6365   61.5214 C   0  0  0  0  0  0  0  0  0  0  0  0
  -39.2480   54.9104   62.7773 C   0  0  1  0  0  0  0  0  0  0  0  0
  -40.2123   55.0836   61.5984 C   0  0  0  0  0  0  0  0  0  0  0  0
  -40.7988   56.4870   61.4898 C   0  0  0  0  0  0  0  0  0  0  0  0
  -41.6350   56.9369   62.6713 C   0  0  0  0  0  0  0  0  0  0  0  0
  -40.8603   57.0657   63.9661 C   0  0  0  0  0  0  0  0  0  0  0  0
  -40.0421   54.7062   64.0578 C   0  0  0  0  0  0  0  0  0  0  0  0
  -39.1971   59.1874   63.1179 H   0  0  0  0  0  0  0  0  0  0  0  0
  -42.9855   61.6417   58.4524 H   0  0  0  0  0  0  0  0  0  0  0  0
  -43.5626   61.2382   56.8533 H   0  0  0  0  0  0  0  0  0  0  0  0
  -43.8908   62.8161   57.5282 H   0  0  0  0  0  0  0  0  0  0  0  0
  -41.1876   61.7400   56.8349 H   0  0  0  0  0  0  0  0  0  0  0  0
  -41.5564   63.3435   57.5009 H   0  0  0  0  0  0  0  0  0  0  0  0
  -33.8025   57.9396   59.3784 H   0  0  0  0  0  0  0  0  0  0  0  0
  -42.4354   62.3236   54.8459 H   0  0  0  0  0  0  0  0  0  0  0  0
  -41.1080   63.4699   55.1742 H   0  0  0  0  0  0  0  0  0  0  0  0
  -43.0780   64.5982   54.3656 H   0  0  0  0  0  0  0  0  0  0  0  0
  -42.6476   65.0476   56.0297 H   0  0  0  0  0  0  0  0  0  0  0  0
  -38.4512   53.0038   63.2221 H   0  0  0  0  0  0  0  0  0  0  0  0
  -33.3178   62.3375   57.1719 H   0  0  0  0  0  0  0  0  0  0  0  0
  -44.3823   63.6459   56.8850 H   0  0  0  0  0  0  0  0  0  0  0  0
  -44.8061   63.1799   55.2198 H   0  0  0  0  0  0  0  0  0  0  0  0
  -40.8008   55.7288   65.5764 H   0  0  0  0  0  0  0  0  0  0  0  0
  -46.3627   64.7876   56.1133 H   0  0  0  0  0  0  0  0  0  0  0  0
  -45.4265   65.4118   54.7306 H   0  0  0  0  0  0  0  0  0  0  0  0
  -45.7455   67.0966   56.4189 H   0  0  0  0  0  0  0  0  0  0  0  0
  -44.0378   66.6390   56.1954 H   0  0  0  0  0  0  0  0  0  0  0  0
  -44.0918   65.3461   58.1923 H   0  0  0  0  0  0  0  0  0  0  0  0
  -45.8004   65.7715   58.4162 H   0  0  0  0  0  0  0  0  0  0  0  0
  -45.2172   68.0711   58.6960 H   0  0  0  0  0  0  0  0  0  0  0  0
  -43.5111   67.6629   58.4516 H   0  0  0  0  0  0  0  0  0  0  0  0
  -45.2232   66.7031   60.6924 H   0  0  0  0  0  0  0  0  0  0  0  0
  -43.9869   67.9873   60.7562 H   0  0  0  0  0  0  0  0  0  0  0  0
  -42.2791   66.4094   60.2813 H   0  0  0  0  0  0  0  0  0  0  0  0
  -43.4970   65.1229   60.1862 H   0  0  0  0  0  0  0  0  0  0  0  0
  -44.0231   65.4164   62.4971 H   0  0  0  0  0  0  0  0  0  0  0  0
  -42.8159   66.7174   62.5930 H   0  0  0  0  0  0  0  0  0  0  0  0
  -42.2332   63.8557   62.0064 H   0  0  0  0  0  0  0  0  0  0  0  0
  -41.9848   64.6976   63.5513 H   0  0  0  0  0  0  0  0  0  0  0  0
  -40.3837   66.1410   62.5376 H   0  0  0  0  0  0  0  0  0  0  0  0
  -40.6430   65.3054   60.9832 H   0  0  0  0  0  0  0  0  0  0  0  0
  -39.4922   64.0752   63.4338 H   0  0  0  0  0  0  0  0  0  0  0  0
  -38.6007   64.6275   61.9983 H   0  0  0  0  0  0  0  0  0  0  0  0
  -40.6365   62.4559   62.0424 H   0  0  0  0  0  0  0  0  0  0  0  0
  -38.8684   62.2629   61.9862 H   0  0  0  0  0  0  0  0  0  0  0  0
  -38.7927   63.3214   59.8431 H   0  0  0  0  0  0  0  0  0  0  0  0
  -40.5405   63.5542   59.8881 H   0  0  0  0  0  0  0  0  0  0  0  0
  -39.9582   61.5365   58.5503 H   0  0  0  0  0  0  0  0  0  0  0  0
  -40.2084   59.5693   59.6360 H   0  0  0  0  0  0  0  0  0  0  0  0
  -38.0148   59.3748   60.4627 H   0  0  0  0  0  0  0  0  0  0  0  0
  -38.6554   57.8106   60.9484 H   0  0  0  0  0  0  0  0  0  0  0  0
  -37.1937   57.7896   62.8603 H   0  0  0  0  0  0  0  0  0  0  0  0
  -36.5565   59.3772   62.3453 H   0  0  0  0  0  0  0  0  0  0  0  0
  -35.6238   58.4067   60.3945 H   0  0  0  0  0  0  0  0  0  0  0  0
  -36.2729   56.8255   60.8717 H   0  0  0  0  0  0  0  0  0  0  0  0
  -34.8590   56.8018   62.8091 H   0  0  0  0  0  0  0  0  0  0  0  0
  -34.2203   58.3886   62.3599 H   0  0  0  0  0  0  0  0  0  0  0  0
  -32.6704   56.6456   61.7612 H   0  0  0  0  0  0  0  0  0  0  0  0
  -29.9606   57.7030   58.1033 H   0  0  0  0  0  0  0  0  0  0  0  0
  -29.4286   59.0467   59.0853 H   0  0  0  0  0  0  0  0  0  0  0  0
  -29.8852   59.3091   57.4193 H   0  0  0  0  0  0  0  0  0  0  0  0
  -32.3160   60.5993   59.9627 H   0  0  0  0  0  0  0  0  0  0  0  0
  -30.8772   61.0388   59.1502 H   0  0  0  0  0  0  0  0  0  0  0  0
  -34.1233   57.9595   55.7189 H   0  0  0  0  0  0  0  0  0  0  0  0
  -35.3480   58.2987   53.6722 H   0  0  0  0  0  0  0  0  0  0  0  0
  -35.8517   60.5229   52.9094 H   0  0  0  0  0  0  0  0  0  0  0  0
  -35.1221   62.4378   54.1811 H   0  0  0  0  0  0  0  0  0  0  0  0
  -36.0210   54.1632   59.2717 H   0  0  0  0  0  0  0  0  0  0  0  0
  -36.4460   57.0978   59.5800 H   0  0  0  0  0  0  0  0  0  0  0  0
  -36.9642   56.1176   58.2294 H   0  0  0  0  0  0  0  0  0  0  0  0
  -35.2600   56.3306   58.5514 H   0  0  0  0  0  0  0  0  0  0  0  0
  -38.3265   54.6445   59.8160 H   0  0  0  0  0  0  0  0  0  0  0  0
  -37.7859   55.6908   61.1412 H   0  0  0  0  0  0  0  0  0  0  0  0
  -38.6379   55.7863   62.8506 H   0  0  0  0  0  0  0  0  0  0  0  0
  -41.0176   54.3887   61.7153 H   0  0  0  0  0  0  0  0  0  0  0  0
  -39.6500   54.9088   60.7051 H   0  0  0  0  0  0  0  0  0  0  0  0
  -41.4167   56.5196   60.6169 H   0  0  0  0  0  0  0  0  0  0  0  0
  -39.9624   57.1532   61.4506 H   0  0  0  0  0  0  0  0  0  0  0  0
  -42.4190   56.2238   62.8187 H   0  0  0  0  0  0  0  0  0  0  0  0
  -42.0025   57.9135   62.4342 H   0  0  0  0  0  0  0  0  0  0  0  0
  -39.9299   57.5497   63.7541 H   0  0  0  0  0  0  0  0  0  0  0  0
  -41.4750   57.6269   64.6385 H   0  0  0  0  0  0  0  0  0  0  0  0
  1 33  1  0  0  0  0
  1 34  1  0  0  0  0
  1 61  1  0  0  0  0
  2  4  1  0  0  0  0
  2 62  1  0  0  0  0
  2 63  1  0  0  0  0
  2 64  1  0  0  0  0
  3 33  2  0  0  0  0
  4  7  1  0  0  0  0
  4 65  1  0  0  0  0
  4 66  1  0  0  0  0
  5 38  1  0  0  0  0
  5 39  1  0  0  0  0
  5 67  1  0  0  0  0
  6 39  2  0  0  0  0
  7 10  1  0  0  0  0
  7 68  1  0  0  0  0
  7 69  1  0  0  0  0
  8 40  1  0  0  0  0
  8 43  2  0  0  0  0
  9 42  1  0  0  0  0
  9 43  1  0  0  0  0
 10 13  1  0  0  0  0
 10 70  1  0  0  0  0
 10 71  1  0  0  0  0
 11 54  1  0  0  0  0
 11 55  1  0  0  0  0
 11 72  1  0  0  0  0
 12 49  1  0  0  0  0
 12 73  1  0  0  0  0
 13 16  1  0  0  0  0
 13 74  1  0  0  0  0
 13 75  1  0  0  0  0
 14 59  1  0  0  0  0
 14 60  1  0  0  0  0
 14 76  1  0  0  0  0
 15 50  2  0  0  0  0
 16 18  1  0  0  0  0
 16 77  1  0  0  0  0
 16 78  1  0  0  0  0
 17 50  1  0  0  0  0
 17 51  1  0  0  0  0
 18 20  1  0  0  0  0
 18 79  1  0  0  0  0
 18 80  1  0  0  0  0
 19 54  2  0  0  0  0
 20 22  1  0  0  0  0
 20 81  1  0  0  0  0
 20 82  1  0  0  0  0
 21 60  2  0  0  0  0
 22 23  1  0  0  0  0
 22 83  1  0  0  0  0
 22 84  1  0  0  0  0
 23 24  1  0  0  0  0
 23 85  1  0  0  0  0
 23 86  1  0  0  0  0
 24 25  1  0  0  0  0
 24 87  1  0  0  0  0
 24 88  1  0  0  0  0
 25 26  1  0  0  0  0
 25 89  1  0  0  0  0
 25 90  1  0  0  0  0
 26 27  1  0  0  0  0
 26 91  1  0  0  0  0
 26 92  1  0  0  0  0
 27 28  1  0  0  0  0
 27 93  1  0  0  0  0
 27 94  1  0  0  0  0
 28 29  1  0  0  0  0
 28 95  1  0  0  0  0
 28 96  1  0  0  0  0
 29 30  1  0  0  0  0
 29 97  1  0  0  0  0
 29 98  1  0  0  0  0
 30 31  1  0  0  0  0
 30 99  1  0  0  0  0
 30100  1  0  0  0  0
 31 32  2  0  0  0  0
 31101  1  0  0  0  0
 32 33  1  0  0  0  0
 32102  1  0  0  0  0
 34 35  1  0  0  0  0
 34103  1  0  0  0  0
 34104  1  0  0  0  0
 35 36  1  0  0  0  0
 35105  1  0  0  0  0
 35106  1  0  0  0  0
 36 37  1  0  0  0  0
 36107  1  0  0  0  0
 36108  1  0  0  0  0
 37 38  1  0  0  0  0
 37109  1  0  0  0  0
 37110  1  0  0  0  0
 38 50  1  0  0  0  0
 38111  1  1  0  0  0
 40 39  1  1  0  0  0
 40 41  1  0  0  0  0
 40 42  1  0  0  0  0
 41112  1  0  0  0  0
 41113  1  0  0  0  0
 41114  1  0  0  0  0
 42115  1  0  0  0  0
 42116  1  0  0  0  0
 43 44  1  0  0  0  0
 44 45  2  0  0  0  0
 44 49  1  0  0  0  0
 45 46  1  0  0  0  0
 45117  1  0  0  0  0
 46 47  2  0  0  0  0
 46118  1  0  0  0  0
 47 48  1  0  0  0  0
 47119  1  0  0  0  0
 48 49  2  0  0  0  0
 48120  1  0  0  0  0
 51 52  1  0  0  0  0
 51 53  1  0  0  0  0
 51121  1  6  0  0  0
 52122  1  0  0  0  0
 52123  1  0  0  0  0
 52124  1  0  0  0  0
 53 54  1  0  0  0  0
 53125  1  0  0  0  0
 53126  1  0  0  0  0
 55 56  1  0  0  0  0
 55 60  1  0  0  0  0
 55127  1  1  0  0  0
 56 57  1  0  0  0  0
 56128  1  0  0  0  0
 56129  1  0  0  0  0
 57 58  1  0  0  0  0
 57130  1  0  0  0  0
 57131  1  0  0  0  0
 58 59  1  0  0  0  0
 58132  1  0  0  0  0
 58133  1  0  0  0  0
 59134  1  0  0  0  0
 59135  1  0  0  0  0
M  END
$$$$
/media/chris/experiments/cd1a-new-docking/inputs/ligands/7ryo_ligand.pdb
 OpenBabel07032304133D

135137  0  0  1  0  0  0  0  0999 V2000
  -37.6438   60.3330   63.4177 N   0  0  0  0  0  0  0  0  0  0  0  0
  -30.5193   61.0896   72.7354 C   0  0  0  0  0  0  0  0  0  0  0  0
  -39.1160   61.9983   63.8087 O   0  0  0  0  0  0  0  0  0  0  0  0
  -29.6048   62.1475   72.1758 C   0  0  0  0  0  0  0  0  0  0  0  0
  -35.8432   57.0722   64.0991 N   0  0  0  0  0  0  0  0  0  0  0  0
  -37.8403   56.8763   65.1126 O   0  0  0  0  0  0  0  0  0  0  0  0
  -29.8037   62.3859   70.6900 C   0  0  0  0  0  0  0  0  0  0  0  0
  -35.9269   54.4131   63.4326 N   0  0  0  0  0  0  0  0  0  0  0  0
  -37.1910   52.8769   64.4934 O   0  0  0  0  0  0  0  0  0  0  0  0
  -31.1980   62.8574   70.3096 C   0  0  0  0  0  0  0  0  0  0  0  0
  -30.6755   60.1383   65.3610 N   0  0  0  0  0  0  0  0  0  0  0  0
  -33.8649   53.2411   62.0046 O   0  0  0  0  0  0  0  0  0  0  0  0
  -32.2969   61.8816   70.7073 C   0  0  0  0  0  0  0  0  0  0  0  0
  -29.9617   57.7600   67.9932 N   0  0  0  0  0  0  0  0  0  0  0  0
  -33.3308   55.0981   64.3873 O   0  0  0  0  0  0  0  0  0  0  0  0
  -33.6951   62.3347   70.3167 C   0  0  0  0  0  0  0  0  0  0  0  0
  -32.7405   57.2180   63.8989 O   0  0  0  0  0  0  0  0  0  0  0  0
  -33.8948   62.5228   68.8228 C   0  0  0  0  0  0  0  0  0  0  0  0
  -31.8534   60.0951   63.4447 O   0  0  0  0  0  0  0  0  0  0  0  0
  -35.2878   62.9919   68.4358 C   0  0  0  0  0  0  0  0  0  0  0  0
  -31.7743   58.9758   67.4764 O   0  0  0  0  0  0  0  0  0  0  0  0
  -35.6551   64.3338   69.0377 C   0  0  0  0  0  0  0  0  0  0  0  0
  -34.7238   65.4474   68.5988 C   0  0  0  0  0  0  0  0  0  0  0  0
  -34.7035   65.6927   67.1033 C   0  0  0  0  0  0  0  0  0  0  0  0
  -36.0563   66.0928   66.5477 C   0  0  0  0  0  0  0  0  0  0  0  0
  -36.0510   66.3248   65.0458 C   0  0  0  0  0  0  0  0  0  0  0  0
  -35.6565   65.0973   64.2462 C   0  0  0  0  0  0  0  0  0  0  0  0
  -36.5778   63.9035   64.4347 C   0  0  0  0  0  0  0  0  0  0  0  0
  -38.0132   64.1714   64.0164 C   0  0  0  0  0  0  0  0  0  0  0  0
  -38.1671   64.5403   62.5460 C   0  0  0  0  0  0  0  0  0  0  0  0
  -37.6878   63.4439   61.6466 C   0  0  0  0  0  0  0  0  0  0  0  0
  -37.6882   62.1394   61.8848 C   0  0  0  0  0  0  0  0  0  0  0  0
  -38.2001   61.5133   63.1244 C   0  0  0  0  0  0  0  0  0  0  0  0
  -36.5610   59.7701   62.6268 C   0  0  0  0  0  0  0  0  0  0  0  0
  -36.9560   58.4330   62.0390 C   0  0  0  0  0  0  0  0  0  0  0  0
  -35.8780   57.7610   61.2090 C   0  0  0  0  0  0  0  0  0  0  0  0
  -34.6110   57.4590   62.0020 C   0  0  0  0  0  0  0  0  0  0  0  0
  -34.8704   56.5130   63.1754 C   0  0  1  0  0  0  0  0  0  0  0  0
  -36.9896   56.4367   64.3534 C   0  0  0  0  0  0  0  0  0  0  0  0
  -37.2183   55.0807   63.6655 C   0  0  1  0  0  0  0  0  0  0  0  0
  -37.9046   55.3174   62.3236 C   0  0  0  0  0  0  0  0  0  0  0  0
  -37.9976   54.0814   64.5333 C   0  0  0  0  0  0  0  0  0  0  0  0
  -36.0176   53.2432   63.9150 C   0  0  0  0  0  0  0  0  0  0  0  0
  -34.9678   52.2217   63.9071 C   0  0  0  0  0  0  0  0  0  0  0  0
  -34.8991   51.2798   64.9345 C   0  0  0  0  0  0  0  0  0  0  0  0
  -33.7841   50.4711   65.0723 C   0  0  0  0  0  0  0  0  0  0  0  0
  -32.7268   50.5853   64.1962 C   0  0  0  0  0  0  0  0  0  0  0  0
  -32.7680   51.5140   63.1722 C   0  0  0  0  0  0  0  0  0  0  0  0
  -33.8790   52.3372   63.0186 C   0  0  0  0  0  0  0  0  0  0  0  0
  -33.5727   56.1622   63.8877 C   0  0  0  0  0  0  0  0  0  0  0  0
  -31.4434   57.0690   64.5660 C   0  0  2  0  0  0  0  0  0  0  0  0
  -31.6581   57.2370   66.0490 C   0  0  0  0  0  0  0  0  0  0  0  0
  -30.5591   58.1549   63.9844 C   0  0  0  0  0  0  0  0  0  0  0  0
  -31.0920   59.5477   64.2372 C   0  0  0  0  0  0  0  0  0  0  0  0
  -29.7624   59.4813   66.2800 C   0  0  1  0  0  0  0  0  0  0  0  0
  -28.8956   60.5231   66.9960 C   0  0  0  0  0  0  0  0  0  0  0  0
  -27.6313   59.9417   67.6194 C   0  0  0  0  0  0  0  0  0  0  0  0
  -27.8561   58.8999   68.6973 C   0  0  0  0  0  0  0  0  0  0  0  0
  -28.5238   57.6328   68.2053 C   0  0  0  0  0  0  0  0  0  0  0  0
  -30.5871   58.7164   67.3031 C   0  0  0  0  0  0  0  0  0  0  0  0
  -37.9782   59.8288   64.1944 H   0  0  0  0  0  0  0  0  0  0  0  0
  -30.3290   60.9708   73.7817 H   0  0  0  0  0  0  0  0  0  0  0  0
  -30.3411   60.1619   72.2329 H   0  0  0  0  0  0  0  0  0  0  0  0
  -31.5374   61.3846   72.5893 H   0  0  0  0  0  0  0  0  0  0  0  0
  -28.5923   61.8422   72.3385 H   0  0  0  0  0  0  0  0  0  0  0  0
  -29.8345   63.0639   72.6781 H   0  0  0  0  0  0  0  0  0  0  0  0
  -35.6545   57.9305   64.5430 H   0  0  0  0  0  0  0  0  0  0  0  0
  -29.6088   61.4685   70.1750 H   0  0  0  0  0  0  0  0  0  0  0  0
  -29.1307   63.1708   70.4145 H   0  0  0  0  0  0  0  0  0  0  0  0
  -31.2324   62.9926   69.2487 H   0  0  0  0  0  0  0  0  0  0  0  0
  -31.3784   63.7690   70.8401 H   0  0  0  0  0  0  0  0  0  0  0  0
  -30.9967   61.0446   65.5723 H   0  0  0  0  0  0  0  0  0  0  0  0
  -34.5977   53.8103   61.8742 H   0  0  0  0  0  0  0  0  0  0  0  0
  -32.2679   61.7564   71.7696 H   0  0  0  0  0  0  0  0  0  0  0  0
  -32.1077   60.9696   70.1807 H   0  0  0  0  0  0  0  0  0  0  0  0
  -30.5303   57.0679   68.4018 H   0  0  0  0  0  0  0  0  0  0  0  0
  -33.8931   63.2677   70.8016 H   0  0  0  0  0  0  0  0  0  0  0  0
  -34.3658   61.5584   70.6208 H   0  0  0  0  0  0  0  0  0  0  0  0
  -33.7092   61.5867   68.3388 H   0  0  0  0  0  0  0  0  0  0  0  0
  -33.2151   63.2898   68.5154 H   0  0  0  0  0  0  0  0  0  0  0  0
  -35.9969   62.2637   68.7702 H   0  0  0  0  0  0  0  0  0  0  0  0
  -35.3004   63.1065   67.3720 H   0  0  0  0  0  0  0  0  0  0  0  0
  -35.6139   64.2535   70.1038 H   0  0  0  0  0  0  0  0  0  0  0  0
  -36.6386   64.5822   68.6970 H   0  0  0  0  0  0  0  0  0  0  0  0
  -33.7315   65.1962   68.9103 H   0  0  0  0  0  0  0  0  0  0  0  0
  -35.0876   66.3463   69.0511 H   0  0  0  0  0  0  0  0  0  0  0  0
  -34.3871   64.7946   66.6152 H   0  0  0  0  0  0  0  0  0  0  0  0
  -34.0313   66.5053   66.9224 H   0  0  0  0  0  0  0  0  0  0  0  0
  -36.3658   66.9970   67.0288 H   0  0  0  0  0  0  0  0  0  0  0  0
  -36.7270   65.2812   66.7382 H   0  0  0  0  0  0  0  0  0  0  0  0
  -35.3573   67.1094   64.8265 H   0  0  0  0  0  0  0  0  0  0  0  0
  -37.0514   66.5773   64.7624 H   0  0  0  0  0  0  0  0  0  0  0  0
  -34.6695   64.8083   64.5416 H   0  0  0  0  0  0  0  0  0  0  0  0
  -35.7191   65.3717   63.2139 H   0  0  0  0  0  0  0  0  0  0  0  0
  -36.5721   63.6318   65.4696 H   0  0  0  0  0  0  0  0  0  0  0  0
  -36.2088   63.1200   63.8063 H   0  0  0  0  0  0  0  0  0  0  0  0
  -38.3918   64.9786   64.6080 H   0  0  0  0  0  0  0  0  0  0  0  0
  -38.5566   63.2623   64.1680 H   0  0  0  0  0  0  0  0  0  0  0  0
  -37.5974   65.4243   62.3489 H   0  0  0  0  0  0  0  0  0  0  0  0
  -39.2065   64.7019   62.3499 H   0  0  0  0  0  0  0  0  0  0  0  0
  -37.3122   63.7385   60.7317 H   0  0  0  0  0  0  0  0  0  0  0  0
  -37.3051   61.5178   61.1556 H   0  0  0  0  0  0  0  0  0  0  0  0
  -35.7032   59.6374   63.2524 H   0  0  0  0  0  0  0  0  0  0  0  0
  -36.3399   60.4428   61.8246 H   0  0  0  0  0  0  0  0  0  0  0  0
  -37.8119   58.5833   61.4147 H   0  0  0  0  0  0  0  0  0  0  0  0
  -37.1476   57.7838   62.8677 H   0  0  0  0  0  0  0  0  0  0  0  0
  -35.6238   58.4067   60.3945 H   0  0  0  0  0  0  0  0  0  0  0  0
  -36.2729   56.8255   60.8717 H   0  0  0  0  0  0  0  0  0  0  0  0
  -34.2161   58.3779   62.3821 H   0  0  0  0  0  0  0  0  0  0  0  0
  -33.9192   56.9787   61.3420 H   0  0  0  0  0  0  0  0  0  0  0  0
  -35.2841   55.6083   62.7813 H   0  0  0  0  0  0  0  0  0  0  0  0
  -37.3336   56.0168   61.7495 H   0  0  0  0  0  0  0  0  0  0  0  0
  -38.8864   55.7092   62.4893 H   0  0  0  0  0  0  0  0  0  0  0  0
  -37.9751   54.3921   61.7910 H   0  0  0  0  0  0  0  0  0  0  0  0
  -38.0928   54.4422   65.5361 H   0  0  0  0  0  0  0  0  0  0  0  0
  -38.9949   53.9206   64.1805 H   0  0  0  0  0  0  0  0  0  0  0  0
  -35.6853   51.1855   65.5963 H   0  0  0  0  0  0  0  0  0  0  0  0
  -33.7445   49.7783   65.8361 H   0  0  0  0  0  0  0  0  0  0  0  0
  -31.9011   49.9757   64.3045 H   0  0  0  0  0  0  0  0  0  0  0  0
  -31.9723   51.5965   62.5201 H   0  0  0  0  0  0  0  0  0  0  0  0
  -30.9866   56.1130   64.4167 H   0  0  0  0  0  0  0  0  0  0  0  0
  -32.1152   58.1858   66.2380 H   0  0  0  0  0  0  0  0  0  0  0  0
  -30.7158   57.1882   66.5536 H   0  0  0  0  0  0  0  0  0  0  0  0
  -32.2956   56.4561   66.4078 H   0  0  0  0  0  0  0  0  0  0  0  0
  -30.4844   58.0047   62.9277 H   0  0  0  0  0  0  0  0  0  0  0  0
  -29.6059   58.0841   64.4655 H   0  0  0  0  0  0  0  0  0  0  0  0
  -29.1208   58.8149   65.7423 H   0  0  0  0  0  0  0  0  0  0  0  0
  -29.4791   60.9730   67.7719 H   0  0  0  0  0  0  0  0  0  0  0  0
  -28.5837   61.2322   66.2579 H   0  0  0  0  0  0  0  0  0  0  0  0
  -27.0754   60.7479   68.0507 H   0  0  0  0  0  0  0  0  0  0  0  0
  -27.1169   59.4392   66.8272 H   0  0  0  0  0  0  0  0  0  0  0  0
  -28.4732   59.3312   69.4575 H   0  0  0  0  0  0  0  0  0  0  0  0
  -26.8894   58.6178   69.0590 H   0  0  0  0  0  0  0  0  0  0  0  0
  -28.0709   57.3531   67.2772 H   0  0  0  0  0  0  0  0  0  0  0  0
  -28.3891   56.8966   68.9700 H   0  0  0  0  0  0  0  0  0  0  0  0
  1 33  1  0  0  0  0
  1 34  1  0  0  0  0
  1 61  1  0  0  0  0
  2  4  1  0  0  0  0
  2 62  1  0  0  0  0
  2 63  1  0  0  0  0
  2 64  1  0  0  0  0
  3 33  2  0  0  0  0
  4  7  1  0  0  0  0
  4 65  1  0  0  0  0
  4 66  1  0  0  0  0
  5 38  1  0  0  0  0
  5 39  1  0  0  0  0
  5 67  1  0  0  0  0
  6 39  2  0  0  0  0
  7 10  1  0  0  0  0
  7 68  1  0  0  0  0
  7 69  1  0  0  0  0
  8 40  1  0  0  0  0
  8 43  2  0  0  0  0
  9 42  1  0  0  0  0
  9 43  1  0  0  0  0
 10 13  1  0  0  0  0
 10 70  1  0  0  0  0
 10 71  1  0  0  0  0
 11 54  1  0  0  0  0
 11 55  1  0  0  0  0
 11 72  1  0  0  0  0
 12 49  1  0  0  0  0
 12 73  1  0  0  0  0
 13 16  1  0  0  0  0
 13 74  1  0  0  0  0
 13 75  1  0  0  0  0
 14 59  1  0  0  0  0
 14 60  1  0  0  0  0
 14 76  1  0  0  0  0
 15 50  2  0  0  0  0
 16 18  1  0  0  0  0
 16 77  1  0  0  0  0
 16 78  1  0  0  0  0
 17 50  1  0  0  0  0
 17 51  1  0  0  0  0
 18 20  1  0  0  0  0
 18 79  1  0  0  0  0
 18 80  1  0  0  0  0
 19 54  2  0  0  0  0
 20 22  1  0  0  0  0
 20 81  1  0  0  0  0
 20 82  1  0  0  0  0
 21 60  2  0  0  0  0
 22 23  1  0  0  0  0
 22 83  1  0  0  0  0
 22 84  1  0  0  0  0
 23 24  1  0  0  0  0
 23 85  1  0  0  0  0
 23 86  1  0  0  0  0
 24 25  1  0  0  0  0
 24 87  1  0  0  0  0
 24 88  1  0  0  0  0
 25 26  1  0  0  0  0
 25 89  1  0  0  0  0
 25 90  1  0  0  0  0
 26 27  1  0  0  0  0
 26 91  1  0  0  0  0
 26 92  1  0  0  0  0
 27 28  1  0  0  0  0
 27 93  1  0  0  0  0
 27 94  1  0  0  0  0
 28 29  1  0  0  0  0
 28 95  1  0  0  0  0
 28 96  1  0  0  0  0
 29 30  1  0  0  0  0
 29 97  1  0  0  0  0
 29 98  1  0  0  0  0
 30 31  1  0  0  0  0
 30 99  1  0  0  0  0
 30100  1  0  0  0  0
 31 32  2  0  0  0  0
 31101  1  0  0  0  0
 32 33  1  0  0  0  0
 32102  1  0  0  0  0
 34 35  1  0  0  0  0
 34103  1  0  0  0  0
 34104  1  0  0  0  0
 35 36  1  0  0  0  0
 35105  1  0  0  0  0
 35106  1  0  0  0  0
 36 37  1  0  0  0  0
 36107  1  0  0  0  0
 36108  1  0  0  0  0
 37 38  1  0  0  0  0
 37109  1  0  0  0  0
 37110  1  0  0  0  0
 38 50  1  0  0  0  0
 38111  1  6  0  0  0
 40 39  1  1  0  0  0
 40 41  1  0  0  0  0
 40 42  1  0  0  0  0
 41112  1  0  0  0  0
 41113  1  0  0  0  0
 41114  1  0  0  0  0
 42115  1  0  0  0  0
 42116  1  0  0  0  0
 43 44  1  0  0  0  0
 44 45  2  0  0  0  0
 44 49  1  0  0  0  0
 45 46  1  0  0  0  0
 45117  1  0  0  0  0
 46 47  2  0  0  0  0
 46118  1  0  0  0  0
 47 48  1  0  0  0  0
 47119  1  0  0  0  0
 48 49  2  0  0  0  0
 48120  1  0  0  0  0
 51 52  1  0  0  0  0
 51 53  1  0  0  0  0
 51121  1  6  0  0  0
 52122  1  0  0  0  0
 52123  1  0  0  0  0
 52124  1  0  0  0  0
 53 54  1  0  0  0  0
 53125  1  0  0  0  0
 53126  1  0  0  0  0
 55 56  1  0  0  0  0
 55 60  1  0  0  0  0
 55127  1  6  0  0  0
 56 57  1  0  0  0  0
 56128  1  0  0  0  0
 56129  1  0  0  0  0
 57 58  1  0  0  0  0
 57130  1  0  0  0  0
 57131  1  0  0  0  0
 58 59  1  0  0  0  0
 58132  1  0  0  0  0
 58133  1  0  0  0  0
 59134  1  0  0  0  0
 59135  1  0  0  0  0
M  END
$$$$
/media/chris/experiments/cd1a-new-docking/inputs/ligands/7ryo_ligand.pdb
 OpenBabel07032304133D

135137  0  0  1  0  0  0  0  0999 V2000
  -36.2311   60.7237   61.5795 N   0  0  0  0  0  0  0  0  0  0  0  0
  -45.3381   67.6567   63.8529 C   0  0  0  0  0  0  0  0  0  0  0  0
  -35.5695   62.7896   60.9564 O   0  0  0  0  0  0  0  0  0  0  0  0
  -44.9254   66.6062   64.8501 C   0  0  0  0  0  0  0  0  0  0  0  0
  -35.8432   57.0722   64.0991 N   0  0  0  0  0  0  0  0  0  0  0  0
  -37.2875   55.3694   63.8380 O   0  0  0  0  0  0  0  0  0  0  0  0
  -43.9473   67.1200   65.8910 C   0  0  0  0  0  0  0  0  0  0  0  0
  -37.2353   57.9218   66.3042 N   0  0  0  0  0  0  0  0  0  0  0  0
  -38.7944   59.3111   65.4544 O   0  0  0  0  0  0  0  0  0  0  0  0
  -44.4791   68.2589   66.7460 C   0  0  0  0  0  0  0  0  0  0  0  0
  -32.4347   51.8484   67.8816 N   0  0  0  0  0  0  0  0  0  0  0  0
  -36.3433   58.7694   68.7843 O   0  0  0  0  0  0  0  0  0  0  0  0
  -43.4740   68.7677   67.7702 C   0  0  0  0  0  0  0  0  0  0  0  0
  -35.4952   53.3700   69.0698 N   0  0  0  0  0  0  0  0  0  0  0  0
  -32.4985   56.6279   63.6242 O   0  0  0  0  0  0  0  0  0  0  0  0
  -42.1952   69.3186   67.1585 C   0  0  0  0  0  0  0  0  0  0  0  0
  -33.7924   55.2407   64.8416 O   0  0  0  0  0  0  0  0  0  0  0  0
  -41.4254   68.3166   66.3157 C   0  0  0  0  0  0  0  0  0  0  0  0
  -30.8149   52.8556   66.6883 O   0  0  0  0  0  0  0  0  0  0  0  0
  -40.1391   68.8640   65.7191 C   0  0  0  0  0  0  0  0  0  0  0  0
  -33.3253   53.8336   69.3980 O   0  0  0  0  0  0  0  0  0  0  0  0
  -40.3608   70.0638   64.8194 C   0  0  0  0  0  0  0  0  0  0  0  0
  -39.0724   70.5902   64.2169 C   0  0  0  0  0  0  0  0  0  0  0  0
  -38.3354   69.5919   63.3468 C   0  0  0  0  0  0  0  0  0  0  0  0
  -39.1476   69.1297   62.1529 C   0  0  0  0  0  0  0  0  0  0  0  0
  -38.4241   68.1152   61.2828 C   0  0  0  0  0  0  0  0  0  0  0  0
  -38.0622   66.8381   62.0173 C   0  0  0  0  0  0  0  0  0  0  0  0
  -37.3227   65.8158   61.1704 C   0  0  0  0  0  0  0  0  0  0  0  0
  -36.9840   64.5378   61.9181 C   0  0  0  0  0  0  0  0  0  0  0  0
  -36.1091   64.7567   63.1462 C   0  0  0  0  0  0  0  0  0  0  0  0
  -35.7904   63.4674   63.8366 C   0  0  0  0  0  0  0  0  0  0  0  0
  -35.6789   62.2620   63.2951 C   0  0  0  0  0  0  0  0  0  0  0  0
  -35.8384   61.9727   61.8524 C   0  0  0  0  0  0  0  0  0  0  0  0
  -36.5610   59.7701   62.6268 C   0  0  0  0  0  0  0  0  0  0  0  0
  -36.9560   58.4330   62.0390 C   0  0  0  0  0  0  0  0  0  0  0  0
  -35.8780   57.7610   61.2090 C   0  0  0  0  0  0  0  0  0  0  0  0
  -34.6110   57.4590   62.0020 C   0  0  0  0  0  0  0  0  0  0  0  0
  -34.8704   56.5130   63.1754 C   0  0  1  0  0  0  0  0  0  0  0  0
  -36.9896   56.4367   64.3534 C   0  0  0  0  0  0  0  0  0  0  0  0
  -37.9743   57.1081   65.3248 C   0  0  1  0  0  0  0  0  0  0  0  0
  -38.7531   56.0251   66.0652 C   0  0  0  0  0  0  0  0  0  0  0  0
  -38.9116   58.1153   64.6424 C   0  0  0  0  0  0  0  0  0  0  0  0
  -37.7509   59.0809   66.2933 C   0  0  0  0  0  0  0  0  0  0  0  0
  -37.3330   60.2202   67.1138 C   0  0  0  0  0  0  0  0  0  0  0  0
  -37.4827   61.5218   66.6335 C   0  0  0  0  0  0  0  0  0  0  0  0
  -36.8767   62.5838   67.2825 C   0  0  0  0  0  0  0  0  0  0  0  0
  -36.1174   62.3696   68.4122 C   0  0  0  0  0  0  0  0  0  0  0  0
  -35.9496   61.0888   68.9061 C   0  0  0  0  0  0  0  0  0  0  0  0
  -36.5490   60.0083   68.2665 C   0  0  0  0  0  0  0  0  0  0  0  0
  -33.5727   56.1622   63.8877 C   0  0  0  0  0  0  0  0  0  0  0  0
  -32.7131   54.2992   65.1552 C   0  0  2  0  0  0  0  0  0  0  0  0
  -32.7268   53.2084   64.1142 C   0  0  0  0  0  0  0  0  0  0  0  0
  -33.0207   53.7747   66.5444 C   0  0  0  0  0  0  0  0  0  0  0  0
  -31.9880   52.7895   67.0448 C   0  0  0  0  0  0  0  0  0  0  0  0
  -33.8293   51.7762   68.2809 C   0  0  1  0  0  0  0  0  0  0  0  0
  -34.0386   50.6113   69.2550 C   0  0  0  0  0  0  0  0  0  0  0  0
  -35.4933   50.1705   69.3768 C   0  0  0  0  0  0  0  0  0  0  0  0
  -36.4503   51.2208   69.9050 C   0  0  0  0  0  0  0  0  0  0  0  0
  -36.6065   52.4271   69.0030 C   0  0  0  0  0  0  0  0  0  0  0  0
  -34.1955   53.0835   68.9656 C   0  0  0  0  0  0  0  0  0  0  0  0
  -36.2991   60.4406   60.6390 H   0  0  0  0  0  0  0  0  0  0  0  0
  -46.0246   67.2318   63.1507 H   0  0  0  0  0  0  0  0  0  0  0  0
  -44.4737   68.0154   63.3343 H   0  0  0  0  0  0  0  0  0  0  0  0
  -45.8093   68.4693   64.3653 H   0  0  0  0  0  0  0  0  0  0  0  0
  -44.4654   65.7976   64.3213 H   0  0  0  0  0  0  0  0  0  0  0  0
  -45.8083   66.2968   65.3694 H   0  0  0  0  0  0  0  0  0  0  0  0
  -35.6545   57.9305   64.5430 H   0  0  0  0  0  0  0  0  0  0  0  0
  -43.0697   67.4637   65.3843 H   0  0  0  0  0  0  0  0  0  0  0  0
  -43.7533   66.3044   66.5559 H   0  0  0  0  0  0  0  0  0  0  0  0
  -45.3485   67.9149   67.2662 H   0  0  0  0  0  0  0  0  0  0  0  0
  -44.6972   69.0730   66.0868 H   0  0  0  0  0  0  0  0  0  0  0  0
  -31.8003   51.1851   68.2377 H   0  0  0  0  0  0  0  0  0  0  0  0
  -36.7329   58.0208   68.3771 H   0  0  0  0  0  0  0  0  0  0  0  0
  -43.2150   67.9574   68.4193 H   0  0  0  0  0  0  0  0  0  0  0  0
  -43.9431   69.5769   68.2899 H   0  0  0  0  0  0  0  0  0  0  0  0
  -35.7281   54.3167   69.2061 H   0  0  0  0  0  0  0  0  0  0  0  0
  -41.5584   69.6482   67.9527 H   0  0  0  0  0  0  0  0  0  0  0  0
  -42.4856   70.1126   66.5028 H   0  0  0  0  0  0  0  0  0  0  0  0
  -42.0576   67.9962   65.5141 H   0  0  0  0  0  0  0  0  0  0  0  0
  -41.1460   67.5157   66.9680 H   0  0  0  0  0  0  0  0  0  0  0  0
  -39.6742   68.0899   65.1451 H   0  0  0  0  0  0  0  0  0  0  0  0
  -39.5234   69.1863   66.5327 H   0  0  0  0  0  0  0  0  0  0  0  0
  -40.8133   70.8441   65.3950 H   0  0  0  0  0  0  0  0  0  0  0  0
  -40.9903   69.7507   64.0128 H   0  0  0  0  0  0  0  0  0  0  0  0
  -38.4233   70.8810   65.0162 H   0  0  0  0  0  0  0  0  0  0  0  0
  -39.3436   71.4076   63.5819 H   0  0  0  0  0  0  0  0  0  0  0  0
  -38.0890   68.7378   63.9423 H   0  0  0  0  0  0  0  0  0  0  0  0
  -37.4626   70.0818   62.9684 H   0  0  0  0  0  0  0  0  0  0  0  0
  -39.3833   69.9835   61.5528 H   0  0  0  0  0  0  0  0  0  0  0  0
  -40.0230   68.6480   62.5357 H   0  0  0  0  0  0  0  0  0  0  0  0
  -37.5236   68.5630   60.9177 H   0  0  0  0  0  0  0  0  0  0  0  0
  -39.0922   67.8453   60.4917 H   0  0  0  0  0  0  0  0  0  0  0  0
  -38.9659   66.3882   62.3720 H   0  0  0  0  0  0  0  0  0  0  0  0
  -37.3978   67.1180   62.8080 H   0  0  0  0  0  0  0  0  0  0  0  0
  -36.4112   66.2578   60.8258 H   0  0  0  0  0  0  0  0  0  0  0  0
  -37.9736   65.5454   60.3653 H   0  0  0  0  0  0  0  0  0  0  0  0
  -36.4675   63.8821   61.2485 H   0  0  0  0  0  0  0  0  0  0  0  0
  -37.9086   64.1249   62.2639 H   0  0  0  0  0  0  0  0  0  0  0  0
  -36.6254   65.3977   63.8299 H   0  0  0  0  0  0  0  0  0  0  0  0
  -35.1892   65.1994   62.8256 H   0  0  0  0  0  0  0  0  0  0  0  0
  -35.6395   63.5232   64.8560 H   0  0  0  0  0  0  0  0  0  0  0  0
  -35.4661   61.4711   63.9230 H   0  0  0  0  0  0  0  0  0  0  0  0
  -37.3764   60.1530   63.2042 H   0  0  0  0  0  0  0  0  0  0  0  0
  -35.6979   59.6294   63.2434 H   0  0  0  0  0  0  0  0  0  0  0  0
  -37.8119   58.5833   61.4147 H   0  0  0  0  0  0  0  0  0  0  0  0
  -37.1476   57.7838   62.8677 H   0  0  0  0  0  0  0  0  0  0  0  0
  -35.6238   58.4067   60.3945 H   0  0  0  0  0  0  0  0  0  0  0  0
  -36.2729   56.8255   60.8717 H   0  0  0  0  0  0  0  0  0  0  0  0
  -34.2161   58.3779   62.3821 H   0  0  0  0  0  0  0  0  0  0  0  0
  -33.9192   56.9787   61.3420 H   0  0  0  0  0  0  0  0  0  0  0  0
  -35.2841   55.6083   62.7813 H   0  0  0  0  0  0  0  0  0  0  0  0
  -38.0678   55.3447   66.5260 H   0  0  0  0  0  0  0  0  0  0  0  0
  -39.3716   55.4937   65.3724 H   0  0  0  0  0  0  0  0  0  0  0  0
  -39.3663   56.4772   66.8166 H   0  0  0  0  0  0  0  0  0  0  0  0
  -38.5979   58.3060   63.6373 H   0  0  0  0  0  0  0  0  0  0  0  0
  -39.9188   57.7603   64.5760 H   0  0  0  0  0  0  0  0  0  0  0  0
  -38.0493   61.6940   65.7883 H   0  0  0  0  0  0  0  0  0  0  0  0
  -36.9943   63.5420   66.9179 H   0  0  0  0  0  0  0  0  0  0  0  0
  -35.6723   63.1679   68.8915 H   0  0  0  0  0  0  0  0  0  0  0  0
  -35.3783   60.9340   69.7514 H   0  0  0  0  0  0  0  0  0  0  0  0
  -31.7376   54.7386   65.1431 H   0  0  0  0  0  0  0  0  0  0  0  0
  -33.6906   52.7438   64.0970 H   0  0  0  0  0  0  0  0  0  0  0  0
  -31.9828   52.4776   64.3536 H   0  0  0  0  0  0  0  0  0  0  0  0
  -32.5168   53.6297   63.1534 H   0  0  0  0  0  0  0  0  0  0  0  0
  -33.9736   53.2885   66.5223 H   0  0  0  0  0  0  0  0  0  0  0  0
  -33.0154   54.6114   67.2114 H   0  0  0  0  0  0  0  0  0  0  0  0
  -34.4468   51.6177   67.4216 H   0  0  0  0  0  0  0  0  0  0  0  0
  -33.6947   50.9133   70.2221 H   0  0  0  0  0  0  0  0  0  0  0  0
  -33.4897   49.7777   68.8694 H   0  0  0  0  0  0  0  0  0  0  0  0
  -35.5289   49.3297   70.0375 H   0  0  0  0  0  0  0  0  0  0  0  0
  -35.8184   49.9503   68.3814 H   0  0  0  0  0  0  0  0  0  0  0  0
  -36.0894   51.5563   70.8548 H   0  0  0  0  0  0  0  0  0  0  0  0
  -37.4124   50.7567   69.9678 H   0  0  0  0  0  0  0  0  0  0  0  0
  -36.6944   52.0826   67.9938 H   0  0  0  0  0  0  0  0  0  0  0  0
  -37.4765   52.9519   69.3383 H   0  0  0  0  0  0  0  0  0  0  0  0
  1 33  1  0  0  0  0
  1 34  1  0  0  0  0
  1 61  1  0  0  0  0
  2  4  1  0  0  0  0
  2 62  1  0  0  0  0
  2 63  1  0  0  0  0
  2 64  1  0  0  0  0
  3 33  2  0  0  0  0
  4  7  1  0  0  0  0
  4 65  1  0  0  0  0
  4 66  1  0  0  0  0
  5 38  1  0  0  0  0
  5 39  1  0  0  0  0
  5 67  1  0  0  0  0
  6 39  2  0  0  0  0
  7 10  1  0  0  0  0
  7 68  1  0  0  0  0
  7 69  1  0  0  0  0
  8 40  1  0  0  0  0
  8 43  2  0  0  0  0
  9 42  1  0  0  0  0
  9 43  1  0  0  0  0
 10 13  1  0  0  0  0
 10 70  1  0  0  0  0
 10 71  1  0  0  0  0
 11 54  1  0  0  0  0
 11 55  1  0  0  0  0
 11 72  1  0  0  0  0
 12 49  1  0  0  0  0
 12 73  1  0  0  0  0
 13 16  1  0  0  0  0
 13 74  1  0  0  0  0
 13 75  1  0  0  0  0
 14 59  1  0  0  0  0
 14 60  1  0  0  0  0
 14 76  1  0  0  0  0
 15 50  2  0  0  0  0
 16 18  1  0  0  0  0
 16 77  1  0  0  0  0
 16 78  1  0  0  0  0
 17 50  1  0  0  0  0
 17 51  1  0  0  0  0
 18 20  1  0  0  0  0
 18 79  1  0  0  0  0
 18 80  1  0  0  0  0
 19 54  2  0  0  0  0
 20 22  1  0  0  0  0
 20 81  1  0  0  0  0
 20 82  1  0  0  0  0
 21 60  2  0  0  0  0
 22 23  1  0  0  0  0
 22 83  1  0  0  0  0
 22 84  1  0  0  0  0
 23 24  1  0  0  0  0
 23 85  1  0  0  0  0
 23 86  1  0  0  0  0
 24 25  1  0  0  0  0
 24 87  1  0  0  0  0
 24 88  1  0  0  0  0
 25 26  1  0  0  0  0
 25 89  1  0  0  0  0
 25 90  1  0  0  0  0
 26 27  1  0  0  0  0
 26 91  1  0  0  0  0
 26 92  1  0  0  0  0
 27 28  1  0  0  0  0
 27 93  1  0  0  0  0
 27 94  1  0  0  0  0
 28 29  1  0  0  0  0
 28 95  1  0  0  0  0
 28 96  1  0  0  0  0
 29 30  1  0  0  0  0
 29 97  1  0  0  0  0
 29 98  1  0  0  0  0
 30 31  1  0  0  0  0
 30 99  1  0  0  0  0
 30100  1  0  0  0  0
 31 32  2  0  0  0  0
 31101  1  0  0  0  0
 32 33  1  0  0  0  0
 32102  1  0  0  0  0
 34 35  1  0  0  0  0
 34103  1  0  0  0  0
 34104  1  0  0  0  0
 35 36  1  0  0  0  0
 35105  1  0  0  0  0
 35106  1  0  0  0  0
 36 37  1  0  0  0  0
 36107  1  0  0  0  0
 36108  1  0  0  0  0
 37 38  1  0  0  0  0
 37109  1  0  0  0  0
 37110  1  0  0  0  0
 38 50  1  0  0  0  0
 38111  1  6  0  0  0
 40 39  1  6  0  0  0
 40 41  1  0  0  0  0
 40 42  1  0  0  0  0
 41112  1  0  0  0  0
 41113  1  0  0  0  0
 41114  1  0  0  0  0
 42115  1  0  0  0  0
 42116  1  0  0  0  0
 43 44  1  0  0  0  0
 44 45  2  0  0  0  0
 44 49  1  0  0  0  0
 45 46  1  0  0  0  0
 45117  1  0  0  0  0
 46 47  2  0  0  0  0
 46118  1  0  0  0  0
 47 48  1  0  0  0  0
 47119  1  0  0  0  0
 48 49  2  0  0  0  0
 48120  1  0  0  0  0
 51 52  1  0  0  0  0
 51 53  1  0  0  0  0
 51121  1  6  0  0  0
 52122  1  0  0  0  0
 52123  1  0  0  0  0
 52124  1  0  0  0  0
 53 54  1  0  0  0  0
 53125  1  0  0  0  0
 53126  1  0  0  0  0
 55 56  1  0  0  0  0
 55 60  1  0  0  0  0
 55127  1  6  0  0  0
 56 57  1  0  0  0  0
 56128  1  0  0  0  0
 56129  1  0  0  0  0
 57 58  1  0  0  0  0
 57130  1  0  0  0  0
 57131  1  0  0  0  0
 58 59  1  0  0  0  0
 58132  1  0  0  0  0
 58133  1  0  0  0  0
 59134  1  0  0  0  0
 59135  1  0  0  0  0
M  END
$$$$
/media/chris/experiments/cd1a-new-docking/inputs/ligands/7ryo_ligand.pdb
 OpenBabel07032304133D

135137  0  0  1  0  0  0  0  0999 V2000
  -36.2311   60.7237   61.5795 N   0  0  0  0  0  0  0  0  0  0  0  0
  -29.3942   66.9111   65.9062 C   0  0  0  0  0  0  0  0  0  0  0  0
  -34.7328   61.8482   62.8383 O   0  0  0  0  0  0  0  0  0  0  0  0
  -28.9554   66.6574   67.3246 C   0  0  0  0  0  0  0  0  0  0  0  0
  -33.1324   57.6580   60.0424 N   0  0  0  0  0  0  0  0  0  0  0  0
  -31.6520   56.1749   59.2284 O   0  0  0  0  0  0  0  0  0  0  0  0
  -29.5409   67.6445   68.3181 C   0  0  0  0  0  0  0  0  0  0  0  0
  -32.6903   58.0204   56.8699 N   0  0  0  0  0  0  0  0  0  0  0  0
  -32.8325   60.2313   57.2880 O   0  0  0  0  0  0  0  0  0  0  0  0
  -31.0594   67.6392   68.3897 C   0  0  0  0  0  0  0  0  0  0  0  0
  -37.3639   54.3603   58.9926 N   0  0  0  0  0  0  0  0  0  0  0  0
  -33.3572   57.4232   54.2502 O   0  0  0  0  0  0  0  0  0  0  0  0
  -31.6226   68.6490   69.3802 C   0  0  0  0  0  0  0  0  0  0  0  0
  -40.0811   56.5313   57.9939 N   0  0  0  0  0  0  0  0  0  0  0  0
  -33.3116   54.6686   60.0224 O   0  0  0  0  0  0  0  0  0  0  0  0
  -31.2636   70.0920   69.0613 C   0  0  0  0  0  0  0  0  0  0  0  0
  -35.2791   55.2259   60.9704 O   0  0  0  0  0  0  0  0  0  0  0  0
  -31.7707   70.5774   67.7144 C   0  0  0  0  0  0  0  0  0  0  0  0
  -35.7540   53.7317   57.5522 O   0  0  0  0  0  0  0  0  0  0  0  0
  -31.2556   69.7759   66.5302 C   0  0  0  0  0  0  0  0  0  0  0  0
  -39.7591   55.1955   59.7666 O   0  0  0  0  0  0  0  0  0  0  0  0
  -31.7611   70.2887   65.1962 C   0  0  0  0  0  0  0  0  0  0  0  0
  -33.2743   70.2700   65.0967 C   0  0  0  0  0  0  0  0  0  0  0  0
  -33.8955   68.8985   65.2693 C   0  0  0  0  0  0  0  0  0  0  0  0
  -33.4115   67.8928   64.2431 C   0  0  0  0  0  0  0  0  0  0  0  0
  -34.0411   66.5182   64.3965 C   0  0  0  0  0  0  0  0  0  0  0  0
  -35.5506   66.5245   64.2442 C   0  0  0  0  0  0  0  0  0  0  0  0
  -36.0421   67.0093   62.8905 C   0  0  0  0  0  0  0  0  0  0  0  0
  -35.5569   66.1606   61.7280 C   0  0  0  0  0  0  0  0  0  0  0  0
  -36.0087   64.7070   61.7966 C   0  0  0  0  0  0  0  0  0  0  0  0
  -35.4914   63.9107   60.6395 C   0  0  0  0  0  0  0  0  0  0  0  0
  -35.1898   62.6196   60.6121 C   0  0  0  0  0  0  0  0  0  0  0  0
  -35.3353   61.6998   61.7624 C   0  0  0  0  0  0  0  0  0  0  0  0
  -36.5610   59.7701   62.6268 C   0  0  0  0  0  0  0  0  0  0  0  0
  -36.9560   58.4330   62.0390 C   0  0  0  0  0  0  0  0  0  0  0  0
  -35.8780   57.7610   61.2090 C   0  0  0  0  0  0  0  0  0  0  0  0
  -34.6110   57.4590   62.0020 C   0  0  0  0  0  0  0  0  0  0  0  0
  -33.5311   56.7980   61.1441 C   0  0  1  0  0  0  0  0  0  0  0  0
  -32.2084   57.2610   59.1640 C   0  0  0  0  0  0  0  0  0  0  0  0
  -31.8270   58.2406   58.0420 C   0  0  1  0  0  0  0  0  0  0  0  0
  -30.3751   57.9934   57.6434 C   0  0  0  0  0  0  0  0  0  0  0  0
  -32.0724   59.7117   58.4085 C   0  0  0  0  0  0  0  0  0  0  0  0
  -33.1805   59.1457   56.5491 C   0  0  0  0  0  0  0  0  0  0  0  0
  -34.0978   59.4030   55.4365 C   0  0  0  0  0  0  0  0  0  0  0  0
  -35.0338   60.4342   55.5242 C   0  0  0  0  0  0  0  0  0  0  0  0
  -36.0574   60.5341   54.5977 C   0  0  0  0  0  0  0  0  0  0  0  0
  -36.1657   59.6161   53.5759 C   0  0  0  0  0  0  0  0  0  0  0  0
  -35.2537   58.5820   53.4692 C   0  0  0  0  0  0  0  0  0  0  0  0
  -34.2191   58.4636   54.3919 C   0  0  0  0  0  0  0  0  0  0  0  0
  -33.9929   55.4382   60.6419 C   0  0  0  0  0  0  0  0  0  0  0  0
  -35.7226   53.8428   61.1706 C   0  0  2  0  0  0  0  0  0  0  0  0
  -34.9202   53.2537   62.3032 C   0  0  0  0  0  0  0  0  0  0  0  0
  -35.4649   53.1375   59.8532 C   0  0  0  0  0  0  0  0  0  0  0  0
  -36.2056   53.7654   58.6935 C   0  0  0  0  0  0  0  0  0  0  0  0
  -38.1750   55.0133   57.9800 C   0  0  1  0  0  0  0  0  0  0  0  0
  -38.6024   53.9993   56.9129 C   0  0  0  0  0  0  0  0  0  0  0  0
  -39.0537   54.6415   55.6056 C   0  0  0  0  0  0  0  0  0  0  0  0
  -40.2659   55.5459   55.7084 C   0  0  0  0  0  0  0  0  0  0  0  0
  -40.0478   56.7811   56.5568 C   0  0  0  0  0  0  0  0  0  0  0  0
  -39.4086   55.5885   58.6578 C   0  0  0  0  0  0  0  0  0  0  0  0
  -36.6819   60.6483   60.7075 H   0  0  0  0  0  0  0  0  0  0  0  0
  -28.9485   66.1843   65.2597 H   0  0  0  0  0  0  0  0  0  0  0  0
  -29.0859   67.8912   65.6074 H   0  0  0  0  0  0  0  0  0  0  0  0
  -30.4599   66.8379   65.8441 H   0  0  0  0  0  0  0  0  0  0  0  0
  -27.8884   66.7245   67.3675 H   0  0  0  0  0  0  0  0  0  0  0  0
  -29.3087   65.6850   67.5973 H   0  0  0  0  0  0  0  0  0  0  0  0
  -33.5487   58.5445   59.9426 H   0  0  0  0  0  0  0  0  0  0  0  0
  -29.2227   68.6275   68.0400 H   0  0  0  0  0  0  0  0  0  0  0  0
  -29.1891   67.3492   69.2845 H   0  0  0  0  0  0  0  0  0  0  0  0
  -31.3816   66.6616   68.6821 H   0  0  0  0  0  0  0  0  0  0  0  0
  -31.4219   67.9120   67.4206 H   0  0  0  0  0  0  0  0  0  0  0  0
  -37.6766   54.3560   59.9261 H   0  0  0  0  0  0  0  0  0  0  0  0
  -32.6498   57.3152   54.8550 H   0  0  0  0  0  0  0  0  0  0  0  0
  -31.2430   68.4145   70.3528 H   0  0  0  0  0  0  0  0  0  0  0  0
  -32.6887   68.5752   69.3263 H   0  0  0  0  0  0  0  0  0  0  0  0
  -40.6602   57.1198   58.5301 H   0  0  0  0  0  0  0  0  0  0  0  0
  -30.1974   70.1823   69.0706 H   0  0  0  0  0  0  0  0  0  0  0  0
  -31.7379   70.6981   69.8047 H   0  0  0  0  0  0  0  0  0  0  0  0
  -31.4669   71.5956   67.5884 H   0  0  0  0  0  0  0  0  0  0  0  0
  -32.8343   70.4612   67.7257 H   0  0  0  0  0  0  0  0  0  0  0  0
  -31.5699   68.7596   66.6450 H   0  0  0  0  0  0  0  0  0  0  0  0
  -30.1897   69.8688   66.5232 H   0  0  0  0  0  0  0  0  0  0  0  0
  -31.3594   69.6732   64.4186 H   0  0  0  0  0  0  0  0  0  0  0  0
  -31.4436   71.3059   65.0999 H   0  0  0  0  0  0  0  0  0  0  0  0
  -33.5511   70.6441   64.1332 H   0  0  0  0  0  0  0  0  0  0  0  0
  -33.6409   70.8749   65.8997 H   0  0  0  0  0  0  0  0  0  0  0  0
  -34.9576   68.9920   65.1798 H   0  0  0  0  0  0  0  0  0  0  0  0
  -33.6049   68.5357   66.2331 H   0  0  0  0  0  0  0  0  0  0  0  0
  -32.3508   67.7923   64.3416 H   0  0  0  0  0  0  0  0  0  0  0  0
  -33.6967   68.2636   63.2807 H   0  0  0  0  0  0  0  0  0  0  0  0
  -33.8002   66.1417   65.3687 H   0  0  0  0  0  0  0  0  0  0  0  0
  -33.6481   65.9025   63.6146 H   0  0  0  0  0  0  0  0  0  0  0  0
  -35.9604   67.1640   64.9978 H   0  0  0  0  0  0  0  0  0  0  0  0
  -35.8718   65.5084   64.3401 H   0  0  0  0  0  0  0  0  0  0  0  0
  -35.6974   68.0117   62.7445 H   0  0  0  0  0  0  0  0  0  0  0  0
  -37.1100   66.9440   62.9025 H   0  0  0  0  0  0  0  0  0  0  0  0
  -34.4871   66.1813   61.7187 H   0  0  0  0  0  0  0  0  0  0  0  0
  -35.9825   66.5774   60.8391 H   0  0  0  0  0  0  0  0  0  0  0  0
  -37.0782   64.6756   61.7885 H   0  0  0  0  0  0  0  0  0  0  0  0
  -35.6191   64.2790   62.6966 H   0  0  0  0  0  0  0  0  0  0  0  0
  -35.3528   64.4284   59.7576 H   0  0  0  0  0  0  0  0  0  0  0  0
  -34.8287   62.2293   59.7276 H   0  0  0  0  0  0  0  0  0  0  0  0
  -37.3764   60.1530   63.2042 H   0  0  0  0  0  0  0  0  0  0  0  0
  -35.6979   59.6294   63.2434 H   0  0  0  0  0  0  0  0  0  0  0  0
  -37.8119   58.5833   61.4147 H   0  0  0  0  0  0  0  0  0  0  0  0
  -37.1476   57.7838   62.8677 H   0  0  0  0  0  0  0  0  0  0  0  0
  -35.6238   58.4067   60.3945 H   0  0  0  0  0  0  0  0  0  0  0  0
  -36.2729   56.8255   60.8717 H   0  0  0  0  0  0  0  0  0  0  0  0
  -34.8590   56.8018   62.8091 H   0  0  0  0  0  0  0  0  0  0  0  0
  -34.2203   58.3886   62.3599 H   0  0  0  0  0  0  0  0  0  0  0  0
  -32.6704   56.6456   61.7612 H   0  0  0  0  0  0  0  0  0  0  0  0
  -30.2441   56.9607   57.3960 H   0  0  0  0  0  0  0  0  0  0  0  0
  -29.7326   58.2489   58.4599 H   0  0  0  0  0  0  0  0  0  0  0  0
  -30.1306   58.5973   56.7946 H   0  0  0  0  0  0  0  0  0  0  0  0
  -32.6330   59.7889   59.3166 H   0  0  0  0  0  0  0  0  0  0  0  0
  -31.1636   60.2514   58.5747 H   0  0  0  0  0  0  0  0  0  0  0  0
  -34.9622   61.1275   56.2853 H   0  0  0  0  0  0  0  0  0  0  0  0
  -36.7439   61.3010   54.6729 H   0  0  0  0  0  0  0  0  0  0  0  0
  -36.9301   59.7006   52.8877 H   0  0  0  0  0  0  0  0  0  0  0  0
  -35.3408   57.8961   52.7030 H   0  0  0  0  0  0  0  0  0  0  0  0
  -36.7562   53.7527   61.4322 H   0  0  0  0  0  0  0  0  0  0  0  0
  -33.8769   53.3261   62.0767 H   0  0  0  0  0  0  0  0  0  0  0  0
  -35.1866   52.2254   62.4320 H   0  0  0  0  0  0  0  0  0  0  0  0
  -35.1276   53.7914   63.2047 H   0  0  0  0  0  0  0  0  0  0  0  0
  -35.7764   52.1181   59.9452 H   0  0  0  0  0  0  0  0  0  0  0  0
  -34.4182   53.2174   59.6461 H   0  0  0  0  0  0  0  0  0  0  0  0
  -37.6115   55.7899   57.5065 H   0  0  0  0  0  0  0  0  0  0  0  0
  -39.4132   53.4199   57.3026 H   0  0  0  0  0  0  0  0  0  0  0  0
  -37.7448   53.4002   56.6883 H   0  0  0  0  0  0  0  0  0  0  0  0
  -39.2848   53.8573   54.9154 H   0  0  0  0  0  0  0  0  0  0  0  0
  -38.2452   55.2678   55.2910 H   0  0  0  0  0  0  0  0  0  0  0  0
  -41.0694   54.9830   56.1353 H   0  0  0  0  0  0  0  0  0  0  0  0
  -40.4801   55.8872   54.7171 H   0  0  0  0  0  0  0  0  0  0  0  0
  -39.0920   57.1938   56.3097 H   0  0  0  0  0  0  0  0  0  0  0  0
  -40.8552   57.4494   56.3414 H   0  0  0  0  0  0  0  0  0  0  0  0
  1 33  1  0  0  0  0
  1 34  1  0  0  0  0
  1 61  1  0  0  0  0
  2  4  1  0  0  0  0
  2 62  1  0  0  0  0
  2 63  1  0  0  0  0
  2 64  1  0  0  0  0
  3 33  2  0  0  0  0
  4  7  1  0  0  0  0
  4 65  1  0  0  0  0
  4 66  1  0  0  0  0
  5 38  1  0  0  0  0
  5 39  1  0  0  0  0
  5 67  1  0  0  0  0
  6 39  2  0  0  0  0
  7 10  1  0  0  0  0
  7 68  1  0  0  0  0
  7 69  1  0  0  0  0
  8 40  1  0  0  0  0
  8 43  2  0  0  0  0
  9 42  1  0  0  0  0
  9 43  1  0  0  0  0
 10 13  1  0  0  0  0
 10 70  1  0  0  0  0
 10 71  1  0  0  0  0
 11 54  1  0  0  0  0
 11 55  1  0  0  0  0
 11 72  1  0  0  0  0
 12 49  1  0  0  0  0
 12 73  1  0  0  0  0
 13 16  1  0  0  0  0
 13 74  1  0  0  0  0
 13 75  1  0  0  0  0
 14 59  1  0  0  0  0
 14 60  1  0  0  0  0
 14 76  1  0  0  0  0
 15 50  2  0  0  0  0
 16 18  1  0  0  0  0
 16 77  1  0  0  0  0
 16 78  1  0  0  0  0
 17 50  1  0  0  0  0
 17 51  1  0  0  0  0
 18 20  1  0  0  0  0
 18 79  1  0  0  0  0
 18 80  1  0  0  0  0
 19 54  2  0  0  0  0
 20 22  1  0  0  0  0
 20 81  1  0  0  0  0
 20 82  1  0  0  0  0
 21 60  2  0  0  0  0
 22 23  1  0  0  0  0
 22 83  1  0  0  0  0
 22 84  1  0  0  0  0
 23 24  1  0  0  0  0
 23 85  1  0  0  0  0
 23 86  1  0  0  0  0
 24 25  1  0  0  0  0
 24 87  1  0  0  0  0
 24 88  1  0  0  0  0
 25 26  1  0  0  0  0
 25 89  1  0  0  0  0
 25 90  1  0  0  0  0
 26 27  1  0  0  0  0
 26 91  1  0  0  0  0
 26 92  1  0  0  0  0
 27 28  1  0  0  0  0
 27 93  1  0  0  0  0
 27 94  1  0  0  0  0
 28 29  1  0  0  0  0
 28 95  1  0  0  0  0
 28 96  1  0  0  0  0
 29 30  1  0  0  0  0
 29 97  1  0  0  0  0
 29 98  1  0  0  0  0
 30 31  1  0  0  0  0
 30 99  1  0  0  0  0
 30100  1  0  0  0  0
 31 32  2  0  0  0  0
 31101  1  0  0  0  0
 32 33  1  0  0  0  0
 32102  1  0  0  0  0
 34 35  1  0  0  0  0
 34103  1  0  0  0  0
 34104  1  0  0  0  0
 35 36  1  0  0  0  0
 35105  1  0  0  0  0
 35106  1  0  0  0  0
 36 37  1  0  0  0  0
 36107  1  0  0  0  0
 36108  1  0  0  0  0
 37 38  1  0  0  0  0
 37109  1  0  0  0  0
 37110  1  0  0  0  0
 38 50  1  0  0  0  0
 38111  1  1  0  0  0
 40 39  1  1  0  0  0
 40 41  1  0  0  0  0
 40 42  1  0  0  0  0
 41112  1  0  0  0  0
 41113  1  0  0  0  0
 41114  1  0  0  0  0
 42115  1  0  0  0  0
 42116  1  0  0  0  0
 43 44  1  0  0  0  0
 44 45  2  0  0  0  0
 44 49  1  0  0  0  0
 45 46  1  0  0  0  0
 45117  1  0  0  0  0
 46 47  2  0  0  0  0
 46118  1  0  0  0  0
 47 48  1  0  0  0  0
 47119  1  0  0  0  0
 48 49  2  0  0  0  0
 48120  1  0  0  0  0
 51 52  1  0  0  0  0
 51 53  1  0  0  0  0
 51121  1  1  0  0  0
 52122  1  0  0  0  0
 52123  1  0  0  0  0
 52124  1  0  0  0  0
 53 54  1  0  0  0  0
 53125  1  0  0  0  0
 53126  1  0  0  0  0
 55 56  1  0  0  0  0
 55 60  1  0  0  0  0
 55127  1  6  0  0  0
 56 57  1  0  0  0  0
 56128  1  0  0  0  0
 56129  1  0  0  0  0
 57 58  1  0  0  0  0
 57130  1  0  0  0  0
 57131  1  0  0  0  0
 58 59  1  0  0  0  0
 58132  1  0  0  0  0
 58133  1  0  0  0  0
 59134  1  0  0  0  0
 59135  1  0  0  0  0
M  END
$$$$
/media/chris/experiments/cd1a-new-docking/inputs/ligands/7ryo_ligand.pdb
 OpenBabel07032304133D

135137  0  0  1  0  0  0  0  0999 V2000
  -37.6438   60.3330   63.4177 N   0  0  0  0  0  0  0  0  0  0  0  0
  -40.8043   65.6939   56.1860 C   0  0  0  0  0  0  0  0  0  0  0  0
  -38.7405   62.1314   64.2281 O   0  0  0  0  0  0  0  0  0  0  0  0
  -41.1995   67.1362   56.0061 C   0  0  0  0  0  0  0  0  0  0  0  0
  -35.8432   57.0722   64.0991 N   0  0  0  0  0  0  0  0  0  0  0  0
  -35.7434   55.3146   65.4972 O   0  0  0  0  0  0  0  0  0  0  0  0
  -42.6448   67.3120   55.5772 C   0  0  0  0  0  0  0  0  0  0  0  0
  -38.4292   56.1818   66.2276 N   0  0  0  0  0  0  0  0  0  0  0  0
  -37.8522   56.6580   68.3544 O   0  0  0  0  0  0  0  0  0  0  0  0
  -43.6646   66.7649   56.5629 C   0  0  0  0  0  0  0  0  0  0  0  0
  -32.3427   56.2806   66.7549 N   0  0  0  0  0  0  0  0  0  0  0  0
  -39.2397   56.0135   70.2848 O   0  0  0  0  0  0  0  0  0  0  0  0
  -45.1055   66.9379   56.1024 C   0  0  0  0  0  0  0  0  0  0  0  0
  -33.2976   56.6732   70.2230 N   0  0  0  0  0  0  0  0  0  0  0  0
  -33.4754   55.3715   64.7853 O   0  0  0  0  0  0  0  0  0  0  0  0
  -45.4245   66.2292   54.7951 C   0  0  0  0  0  0  0  0  0  0  0  0
  -32.5510   56.8775   63.3860 O   0  0  0  0  0  0  0  0  0  0  0  0
  -45.2319   64.7233   54.8393 C   0  0  0  0  0  0  0  0  0  0  0  0
  -30.5726   57.5187   66.1258 O   0  0  0  0  0  0  0  0  0  0  0  0
  -43.8176   64.2870   55.1851 C   0  0  0  0  0  0  0  0  0  0  0  0
  -33.7590   55.1192   68.6729 O   0  0  0  0  0  0  0  0  0  0  0  0
  -43.6452   62.7811   55.2067 C   0  0  0  0  0  0  0  0  0  0  0  0
  -44.5574   62.1013   56.2097 C   0  0  0  0  0  0  0  0  0  0  0  0
  -44.3608   62.5558   57.6420 C   0  0  0  0  0  0  0  0  0  0  0  0
  -42.9530   62.3201   58.1530 C   0  0  0  0  0  0  0  0  0  0  0  0
  -42.7494   62.7568   59.5944 C   0  0  0  0  0  0  0  0  0  0  0  0
  -41.3357   62.5359   60.0987 C   0  0  0  0  0  0  0  0  0  0  0  0
  -41.1137   62.9501   61.5439 C   0  0  0  0  0  0  0  0  0  0  0  0
  -39.6889   62.7372   62.0252 C   0  0  0  0  0  0  0  0  0  0  0  0
  -38.6496   63.5284   61.2404 C   0  0  0  0  0  0  0  0  0  0  0  0
  -37.2629   63.2714   61.7419 C   0  0  0  0  0  0  0  0  0  0  0  0
  -36.8930   62.4743   62.7351 C   0  0  0  0  0  0  0  0  0  0  0  0
  -37.8229   61.6526   63.5417 C   0  0  0  0  0  0  0  0  0  0  0  0
  -36.5610   59.7701   62.6268 C   0  0  0  0  0  0  0  0  0  0  0  0
  -36.9560   58.4330   62.0390 C   0  0  0  0  0  0  0  0  0  0  0  0
  -35.8780   57.7610   61.2090 C   0  0  0  0  0  0  0  0  0  0  0  0
  -34.6110   57.4590   62.0020 C   0  0  0  0  0  0  0  0  0  0  0  0
  -34.8704   56.5130   63.1754 C   0  0  1  0  0  0  0  0  0  0  0  0
  -36.2005   56.4086   65.2014 C   0  0  0  0  0  0  0  0  0  0  0  0
  -37.2531   57.0600   66.1134 C   0  0  1  0  0  0  0  0  0  0  0  0
  -37.6829   58.3893   65.5001 C   0  0  0  0  0  0  0  0  0  0  0  0
  -36.7796   57.2311   67.5644 C   0  0  0  0  0  0  0  0  0  0  0  0
  -38.6635   56.0286   67.4649 C   0  0  0  0  0  0  0  0  0  0  0  0
  -39.7456   55.2312   68.0471 C   0  0  0  0  0  0  0  0  0  0  0  0
  -40.6384   54.5505   67.2182 C   0  0  0  0  0  0  0  0  0  0  0  0
  -41.7976   53.9997   67.7368 C   0  0  0  0  0  0  0  0  0  0  0  0
  -42.0854   54.1161   69.0793 C   0  0  0  0  0  0  0  0  0  0  0  0
  -41.2195   54.7896   69.9214 C   0  0  0  0  0  0  0  0  0  0  0  0
  -40.0504   55.3519   69.4185 C   0  0  0  0  0  0  0  0  0  0  0  0
  -33.5727   56.1622   63.8877 C   0  0  0  0  0  0  0  0  0  0  0  0
  -31.2072   56.2933   63.4369 C   0  0  2  0  0  0  0  0  0  0  0  0
  -31.0755   55.3225   62.2907 C   0  0  0  0  0  0  0  0  0  0  0  0
  -31.1112   55.6088   64.7866 C   0  0  0  0  0  0  0  0  0  0  0  0
  -31.3167   56.5588   65.9455 C   0  0  0  0  0  0  0  0  0  0  0  0
  -32.6506   57.1013   67.9130 C   0  0  1  0  0  0  0  0  0  0  0  0
  -33.6309   58.2139   67.5246 C   0  0  0  0  0  0  0  0  0  0  0  0
  -33.6650   59.3718   68.5162 C   0  0  0  0  0  0  0  0  0  0  0  0
  -34.1089   59.0140   69.9207 C   0  0  0  0  0  0  0  0  0  0  0  0
  -33.1757   58.0651   70.6431 C   0  0  0  0  0  0  0  0  0  0  0  0
  -33.2846   56.2116   68.9706 C   0  0  0  0  0  0  0  0  0  0  0  0
  -38.2651   59.7228   63.8769 H   0  0  0  0  0  0  0  0  0  0  0  0
  -39.7790   65.6400   56.4871 H   0  0  0  0  0  0  0  0  0  0  0  0
  -40.9325   65.1710   55.2613 H   0  0  0  0  0  0  0  0  0  0  0  0
  -41.4207   65.2463   56.9373 H   0  0  0  0  0  0  0  0  0  0  0  0
  -40.5681   67.5711   55.2597 H   0  0  0  0  0  0  0  0  0  0  0  0
  -41.0894   67.6165   56.9559 H   0  0  0  0  0  0  0  0  0  0  0  0
  -36.2438   57.9514   63.9098 H   0  0  0  0  0  0  0  0  0  0  0  0
  -42.7799   66.8089   54.6425 H   0  0  0  0  0  0  0  0  0  0  0  0
  -42.8178   68.3660   55.5131 H   0  0  0  0  0  0  0  0  0  0  0  0
  -43.5430   67.2759   57.4951 H   0  0  0  0  0  0  0  0  0  0  0  0
  -43.4857   65.7136   56.6511 H   0  0  0  0  0  0  0  0  0  0  0  0
  -32.9061   55.4969   66.5608 H   0  0  0  0  0  0  0  0  0  0  0  0
  -38.4450   56.4035   69.9778 H   0  0  0  0  0  0  0  0  0  0  0  0
  -45.2948   67.9831   55.9738 H   0  0  0  0  0  0  0  0  0  0  0  0
  -45.7266   66.4971   56.8540 H   0  0  0  0  0  0  0  0  0  0  0  0
  -33.4001   56.0044   70.9382 H   0  0  0  0  0  0  0  0  0  0  0  0
  -44.7863   66.6267   54.0337 H   0  0  0  0  0  0  0  0  0  0  0  0
  -46.4621   66.4005   54.5981 H   0  0  0  0  0  0  0  0  0  0  0  0
  -45.4807   64.3246   53.8780 H   0  0  0  0  0  0  0  0  0  0  0  0
  -45.8670   64.3543   55.6174 H   0  0  0  0  0  0  0  0  0  0  0  0
  -43.5702   64.6715   56.1525 H   0  0  0  0  0  0  0  0  0  0  0  0
  -43.1716   64.6700   54.4229 H   0  0  0  0  0  0  0  0  0  0  0  0
  -42.6302   62.5565   55.4602 H   0  0  0  0  0  0  0  0  0  0  0  0
  -43.9016   62.4127   54.2354 H   0  0  0  0  0  0  0  0  0  0  0  0
  -44.3777   61.0475   56.1651 H   0  0  0  0  0  0  0  0  0  0  0  0
  -45.5587   62.3651   55.9400 H   0  0  0  0  0  0  0  0  0  0  0  0
  -45.0440   62.0189   58.2664 H   0  0  0  0  0  0  0  0  0  0  0  0
  -44.5376   63.6107   57.6691 H   0  0  0  0  0  0  0  0  0  0  0  0
  -42.2723   62.8667   57.5344 H   0  0  0  0  0  0  0  0  0  0  0  0
  -42.7777   61.2652   58.1164 H   0  0  0  0  0  0  0  0  0  0  0  0
  -43.4212   62.2012   60.2149 H   0  0  0  0  0  0  0  0  0  0  0  0
  -42.9374   63.8094   59.6343 H   0  0  0  0  0  0  0  0  0  0  0  0
  -40.6682   63.1009   59.4822 H   0  0  0  0  0  0  0  0  0  0  0  0
  -41.1555   61.4822   60.0515 H   0  0  0  0  0  0  0  0  0  0  0  0
  -41.7698   62.3765   62.1648 H   0  0  0  0  0  0  0  0  0  0  0  0
  -41.3116   63.9999   61.6034 H   0  0  0  0  0  0  0  0  0  0  0  0
  -39.4558   61.6965   61.9394 H   0  0  0  0  0  0  0  0  0  0  0  0
  -39.6466   63.0846   63.0363 H   0  0  0  0  0  0  0  0  0  0  0  0
  -38.8645   64.5723   61.3351 H   0  0  0  0  0  0  0  0  0  0  0  0
  -38.6970   63.2182   60.2175 H   0  0  0  0  0  0  0  0  0  0  0  0
  -36.5038   63.7747   61.2567 H   0  0  0  0  0  0  0  0  0  0  0  0
  -35.8874   62.4234   62.9612 H   0  0  0  0  0  0  0  0  0  0  0  0
  -35.7032   59.6374   63.2524 H   0  0  0  0  0  0  0  0  0  0  0  0
  -36.3399   60.4428   61.8246 H   0  0  0  0  0  0  0  0  0  0  0  0
  -37.8119   58.5833   61.4147 H   0  0  0  0  0  0  0  0  0  0  0  0
  -37.1476   57.7838   62.8677 H   0  0  0  0  0  0  0  0  0  0  0  0
  -35.6238   58.4067   60.3945 H   0  0  0  0  0  0  0  0  0  0  0  0
  -36.2729   56.8255   60.8717 H   0  0  0  0  0  0  0  0  0  0  0  0
  -34.2161   58.3779   62.3821 H   0  0  0  0  0  0  0  0  0  0  0  0
  -33.9192   56.9787   61.3420 H   0  0  0  0  0  0  0  0  0  0  0  0
  -35.2841   55.6083   62.7813 H   0  0  0  0  0  0  0  0  0  0  0  0
  -38.0051   58.2295   64.4923 H   0  0  0  0  0  0  0  0  0  0  0  0
  -36.8566   59.0690   65.5069 H   0  0  0  0  0  0  0  0  0  0  0  0
  -38.4886   58.8015   66.0710 H   0  0  0  0  0  0  0  0  0  0  0  0
  -35.8627   56.7048   67.7296 H   0  0  0  0  0  0  0  0  0  0  0  0
  -36.5841   58.2526   67.8156 H   0  0  0  0  0  0  0  0  0  0  0  0
  -40.4328   54.4571   66.2112 H   0  0  0  0  0  0  0  0  0  0  0  0
  -42.4504   53.4988   67.1140 H   0  0  0  0  0  0  0  0  0  0  0  0
  -42.9503   53.6991   69.4577 H   0  0  0  0  0  0  0  0  0  0  0  0
  -41.4411   54.8754   70.9257 H   0  0  0  0  0  0  0  0  0  0  0  0
  -30.4190   57.0103   63.3389 H   0  0  0  0  0  0  0  0  0  0  0  0
  -31.8502   54.5872   62.3553 H   0  0  0  0  0  0  0  0  0  0  0  0
  -30.1214   54.8406   62.3392 H   0  0  0  0  0  0  0  0  0  0  0  0
  -31.1616   55.8508   61.3641 H   0  0  0  0  0  0  0  0  0  0  0  0
  -30.1414   55.1658   64.8763 H   0  0  0  0  0  0  0  0  0  0  0  0
  -31.8899   54.8762   64.8306 H   0  0  0  0  0  0  0  0  0  0  0  0
  -31.7557   57.5510   68.2895 H   0  0  0  0  0  0  0  0  0  0  0  0
  -34.6126   57.7930   67.4623 H   0  0  0  0  0  0  0  0  0  0  0  0
  -33.2983   58.6122   66.5889 H   0  0  0  0  0  0  0  0  0  0  0  0
  -34.3379   60.1119   68.1361 H   0  0  0  0  0  0  0  0  0  0  0  0
  -32.6548   59.7131   68.6049 H   0  0  0  0  0  0  0  0  0  0  0  0
  -35.0738   58.5554   69.8612 H   0  0  0  0  0  0  0  0  0  0  0  0
  -34.1170   59.9247   70.4823 H   0  0  0  0  0  0  0  0  0  0  0  0
  -32.1696   58.3828   70.4648 H   0  0  0  0  0  0  0  0  0  0  0  0
  -33.4429   58.0989   71.6787 H   0  0  0  0  0  0  0  0  0  0  0  0
  1 33  1  0  0  0  0
  1 34  1  0  0  0  0
  1 61  1  0  0  0  0
  2  4  1  0  0  0  0
  2 62  1  0  0  0  0
  2 63  1  0  0  0  0
  2 64  1  0  0  0  0
  3 33  2  0  0  0  0
  4  7  1  0  0  0  0
  4 65  1  0  0  0  0
  4 66  1  0  0  0  0
  5 38  1  0  0  0  0
  5 39  1  0  0  0  0
  5 67  1  0  0  0  0
  6 39  2  0  0  0  0
  7 10  1  0  0  0  0
  7 68  1  0  0  0  0
  7 69  1  0  0  0  0
  8 40  1  0  0  0  0
  8 43  2  0  0  0  0
  9 42  1  0  0  0  0
  9 43  1  0  0  0  0
 10 13  1  0  0  0  0
 10 70  1  0  0  0  0
 10 71  1  0  0  0  0
 11 54  1  0  0  0  0
 11 55  1  0  0  0  0
 11 72  1  0  0  0  0
 12 49  1  0  0  0  0
 12 73  1  0  0  0  0
 13 16  1  0  0  0  0
 13 74  1  0  0  0  0
 13 75  1  0  0  0  0
 14 59  1  0  0  0  0
 14 60  1  0  0  0  0
 14 76  1  0  0  0  0
 15 50  2  0  0  0  0
 16 18  1  0  0  0  0
 16 77  1  0  0  0  0
 16 78  1  0  0  0  0
 17 50  1  0  0  0  0
 17 51  1  0  0  0  0
 18 20  1  0  0  0  0
 18 79  1  0  0  0  0
 18 80  1  0  0  0  0
 19 54  2  0  0  0  0
 20 22  1  0  0  0  0
 20 81  1  0  0  0  0
 20 82  1  0  0  0  0
 21 60  2  0  0  0  0
 22 23  1  0  0  0  0
 22 83  1  0  0  0  0
 22 84  1  0  0  0  0
 23 24  1  0  0  0  0
 23 85  1  0  0  0  0
 23 86  1  0  0  0  0
 24 25  1  0  0  0  0
 24 87  1  0  0  0  0
 24 88  1  0  0  0  0
 25 26  1  0  0  0  0
 25 89  1  0  0  0  0
 25 90  1  0  0  0  0
 26 27  1  0  0  0  0
 26 91  1  0  0  0  0
 26 92  1  0  0  0  0
 27 28  1  0  0  0  0
 27 93  1  0  0  0  0
 27 94  1  0  0  0  0
 28 29  1  0  0  0  0
 28 95  1  0  0  0  0
 28 96  1  0  0  0  0
 29 30  1  0  0  0  0
 29 97  1  0  0  0  0
 29 98  1  0  0  0  0
 30 31  1  0  0  0  0
 30 99  1  0  0  0  0
 30100  1  0  0  0  0
 31 32  2  0  0  0  0
 31101  1  0  0  0  0
 32 33  1  0  0  0  0
 32102  1  0  0  0  0
 34 35  1  0  0  0  0
 34103  1  0  0  0  0
 34104  1  0  0  0  0
 35 36  1  0  0  0  0
 35105  1  0  0  0  0
 35106  1  0  0  0  0
 36 37  1  0  0  0  0
 36107  1  0  0  0  0
 36108  1  0  0  0  0
 37 38  1  0  0  0  0
 37109  1  0  0  0  0
 37110  1  0  0  0  0
 38 50  1  0  0  0  0
 38111  1  6  0  0  0
 40 39  1  6  0  0  0
 40 41  1  0  0  0  0
 40 42  1  0  0  0  0
 41112  1  0  0  0  0
 41113  1  0  0  0  0
 41114  1  0  0  0  0
 42115  1  0  0  0  0
 42116  1  0  0  0  0
 43 44  1  0  0  0  0
 44 45  2  0  0  0  0
 44 49  1  0  0  0  0
 45 46  1  0  0  0  0
 45117  1  0  0  0  0
 46 47  2  0  0  0  0
 46118  1  0  0  0  0
 47 48  1  0  0  0  0
 47119  1  0  0  0  0
 48 49  2  0  0  0  0
 48120  1  0  0  0  0
 51 52  1  0  0  0  0
 51 53  1  0  0  0  0
 51121  1  6  0  0  0
 52122  1  0  0  0  0
 52123  1  0  0  0  0
 52124  1  0  0  0  0
 53 54  1  0  0  0  0
 53125  1  0  0  0  0
 53126  1  0  0  0  0
 55 56  1  0  0  0  0
 55 60  1  0  0  0  0
 55127  1  1  0  0  0
 56 57  1  0  0  0  0
 56128  1  0  0  0  0
 56129  1  0  0  0  0
 57 58  1  0  0  0  0
 57130  1  0  0  0  0
 57131  1  0  0  0  0
 58 59  1  0  0  0  0
 58132  1  0  0  0  0
 58133  1  0  0  0  0
 59134  1  0  0  0  0
 59135  1  0  0  0  0
M  END
$$$$
/media/chris/experiments/cd1a-new-docking/inputs/ligands/7ryo_ligand.pdb
 OpenBabel07032304133D

135137  0  0  1  0  0  0  0  0999 V2000
  -37.6438   60.3330   63.4177 N   0  0  0  0  0  0  0  0  0  0  0  0
  -25.9054   67.2130   72.2569 C   0  0  0  0  0  0  0  0  0  0  0  0
  -37.6996   58.6136   64.8787 O   0  0  0  0  0  0  0  0  0  0  0  0
  -26.7321   65.9570   72.3445 C   0  0  0  0  0  0  0  0  0  0  0  0
  -33.6519   56.2542   63.9242 N   0  0  0  0  0  0  0  0  0  0  0  0
  -34.6659   54.8731   65.3795 O   0  0  0  0  0  0  0  0  0  0  0  0
  -28.2081   66.2265   72.5742 C   0  0  0  0  0  0  0  0  0  0  0  0
  -32.2911   53.8912   66.3251 N   0  0  0  0  0  0  0  0  0  0  0  0
  -30.3679   54.0724   65.1625 O   0  0  0  0  0  0  0  0  0  0  0  0
  -28.8774   67.0392   71.4775 C   0  0  0  0  0  0  0  0  0  0  0  0
  -39.9508   51.9593   65.0212 N   0  0  0  0  0  0  0  0  0  0  0  0
  -28.4351   52.7434   66.4568 O   0  0  0  0  0  0  0  0  0  0  0  0
  -28.8304   66.3679   70.1118 C   0  0  0  0  0  0  0  0  0  0  0  0
  -43.0949   51.1343   63.4314 N   0  0  0  0  0  0  0  0  0  0  0  0
  -35.2785   54.6862   61.6466 O   0  0  0  0  0  0  0  0  0  0  0  0
  -29.5299   65.0182   70.0636 C   0  0  0  0  0  0  0  0  0  0  0  0
  -36.3849   54.7593   63.6090 O   0  0  0  0  0  0  0  0  0  0  0  0
  -31.0111   65.0717   70.3951 C   0  0  0  0  0  0  0  0  0  0  0  0
  -40.1833   52.9573   63.0183 O   0  0  0  0  0  0  0  0  0  0  0  0
  -31.7047   63.7196   70.3630 C   0  0  0  0  0  0  0  0  0  0  0  0
  -42.0373   53.0733   63.8217 O   0  0  0  0  0  0  0  0  0  0  0  0
  -31.6166   63.0347   69.0134 C   0  0  0  0  0  0  0  0  0  0  0  0
  -32.3267   61.6948   68.9890 C   0  0  0  0  0  0  0  0  0  0  0  0
  -32.2475   60.9693   67.6608 C   0  0  0  0  0  0  0  0  0  0  0  0
  -32.9806   59.6422   67.6632 C   0  0  0  0  0  0  0  0  0  0  0  0
  -34.4678   59.7709   67.9479 C   0  0  0  0  0  0  0  0  0  0  0  0
  -35.1968   58.4405   67.9667 C   0  0  0  0  0  0  0  0  0  0  0  0
  -36.6891   58.5469   68.2330 C   0  0  0  0  0  0  0  0  0  0  0  0
  -37.4357   59.3627   67.1919 C   0  0  0  0  0  0  0  0  0  0  0  0
  -38.9300   59.4870   67.4631 C   0  0  0  0  0  0  0  0  0  0  0  0
  -39.6215   60.2842   66.4016 C   0  0  0  0  0  0  0  0  0  0  0  0
  -39.2878   60.3961   65.1230 C   0  0  0  0  0  0  0  0  0  0  0  0
  -38.1377   59.7099   64.4932 C   0  0  0  0  0  0  0  0  0  0  0  0
  -36.5610   59.7701   62.6268 C   0  0  0  0  0  0  0  0  0  0  0  0
  -36.9560   58.4330   62.0390 C   0  0  0  0  0  0  0  0  0  0  0  0
  -35.8780   57.7610   61.2090 C   0  0  0  0  0  0  0  0  0  0  0  0
  -34.6110   57.4590   62.0020 C   0  0  0  0  0  0  0  0  0  0  0  0
  -34.8704   56.5130   63.1754 C   0  0  1  0  0  0  0  0  0  0  0  0
  -33.6588   55.4398   64.9822 C   0  0  0  0  0  0  0  0  0  0  0  0
  -32.3321   55.2384   65.7328 C   0  0  1  0  0  0  0  0  0  0  0  0
  -32.2337   56.2749   66.8481 C   0  0  0  0  0  0  0  0  0  0  0  0
  -31.1015   55.2741   64.8146 C   0  0  0  0  0  0  0  0  0  0  0  0
  -31.2031   53.3529   65.9565 C   0  0  0  0  0  0  0  0  0  0  0  0
  -30.7404   52.0091   66.3112 C   0  0  0  0  0  0  0  0  0  0  0  0
  -31.6640   50.9933   66.5610 C   0  0  0  0  0  0  0  0  0  0  0  0
  -31.2572   49.7983   67.1290 C   0  0  0  0  0  0  0  0  0  0  0  0
  -29.9339   49.5957   67.4552 C   0  0  0  0  0  0  0  0  0  0  0  0
  -28.9993   50.5881   67.2220 C   0  0  0  0  0  0  0  0  0  0  0  0
  -29.3892   51.7968   66.6539 C   0  0  0  0  0  0  0  0  0  0  0  0
  -35.5090   55.2173   62.6978 C   0  0  0  0  0  0  0  0  0  0  0  0
  -37.5436   53.9976   63.1325 C   0  0  2  0  0  0  0  0  0  0  0  0
  -38.3287   54.8787   62.1939 C   0  0  0  0  0  0  0  0  0  0  0  0
  -38.3312   53.6334   64.3762 C   0  0  0  0  0  0  0  0  0  0  0  0
  -39.5694   52.8195   64.0727 C   0  0  0  0  0  0  0  0  0  0  0  0
  -41.1274   51.1214   64.8689 C   0  0  1  0  0  0  0  0  0  0  0  0
  -41.7545   50.8398   66.2390 C   0  0  0  0  0  0  0  0  0  0  0  0
  -42.6914   49.6367   66.2465 C   0  0  0  0  0  0  0  0  0  0  0  0
  -43.9038   49.7494   65.3436 C   0  0  0  0  0  0  0  0  0  0  0  0
  -43.5728   49.8268   63.8679 C   0  0  0  0  0  0  0  0  0  0  0  0
  -42.1274   51.8614   63.9946 C   0  0  0  0  0  0  0  0  0  0  0  0
  -38.0256   61.2009   63.1530 H   0  0  0  0  0  0  0  0  0  0  0  0
  -24.8797   66.9544   72.0953 H   0  0  0  0  0  0  0  0  0  0  0  0
  -25.9947   67.7632   73.1703 H   0  0  0  0  0  0  0  0  0  0  0  0
  -26.2543   67.8137   71.4431 H   0  0  0  0  0  0  0  0  0  0  0  0
  -26.3645   65.3640   73.1558 H   0  0  0  0  0  0  0  0  0  0  0  0
  -26.6437   65.4525   71.4050 H   0  0  0  0  0  0  0  0  0  0  0  0
  -32.8109   56.6849   63.6478 H   0  0  0  0  0  0  0  0  0  0  0  0
  -28.3112   66.7600   73.4960 H   0  0  0  0  0  0  0  0  0  0  0  0
  -28.6937   65.2732   72.5867 H   0  0  0  0  0  0  0  0  0  0  0  0
  -28.3831   67.9856   71.4072 H   0  0  0  0  0  0  0  0  0  0  0  0
  -29.9087   67.1398   71.7442 H   0  0  0  0  0  0  0  0  0  0  0  0
  -39.4191   51.8914   65.8471 H   0  0  0  0  0  0  0  0  0  0  0  0
  -28.6650   53.5682   66.0762 H   0  0  0  0  0  0  0  0  0  0  0  0
  -27.8049   66.2256   69.8415 H   0  0  0  0  0  0  0  0  0  0  0  0
  -29.3493   67.0108   69.4319 H   0  0  0  0  0  0  0  0  0  0  0  0
  -43.5319   51.5210   62.6384 H   0  0  0  0  0  0  0  0  0  0  0  0
  -29.0522   64.3676   70.7660 H   0  0  0  0  0  0  0  0  0  0  0  0
  -29.4533   64.6684   69.0553 H   0  0  0  0  0  0  0  0  0  0  0  0
  -31.4912   65.7123   69.6853 H   0  0  0  0  0  0  0  0  0  0  0  0
  -31.0891   65.4340   71.3989 H   0  0  0  0  0  0  0  0  0  0  0  0
  -32.7372   63.8613   70.6056 H   0  0  0  0  0  0  0  0  0  0  0  0
  -31.2077   63.0905   71.0716 H   0  0  0  0  0  0  0  0  0  0  0  0
  -30.5851   62.8798   68.7750 H   0  0  0  0  0  0  0  0  0  0  0  0
  -32.0976   63.6682   68.2977 H   0  0  0  0  0  0  0  0  0  0  0  0
  -33.3585   61.8585   69.2200 H   0  0  0  0  0  0  0  0  0  0  0  0
  -31.8324   61.0738   69.7065 H   0  0  0  0  0  0  0  0  0  0  0  0
  -31.2178   60.7891   67.4321 H   0  0  0  0  0  0  0  0  0  0  0  0
  -32.7175   61.5921   66.9286 H   0  0  0  0  0  0  0  0  0  0  0  0
  -32.5451   59.0162   68.4138 H   0  0  0  0  0  0  0  0  0  0  0  0
  -32.8831   59.2274   66.6817 H   0  0  0  0  0  0  0  0  0  0  0  0
  -34.9058   60.3866   67.1903 H   0  0  0  0  0  0  0  0  0  0  0  0
  -34.5660   60.1979   68.9241 H   0  0  0  0  0  0  0  0  0  0  0  0
  -34.7627   57.8317   68.7321 H   0  0  0  0  0  0  0  0  0  0  0  0
  -35.0900   58.0196   66.9888 H   0  0  0  0  0  0  0  0  0  0  0  0
  -36.8302   59.0073   69.1885 H   0  0  0  0  0  0  0  0  0  0  0  0
  -37.0859   57.5538   68.1973 H   0  0  0  0  0  0  0  0  0  0  0  0
  -37.3037   58.8949   66.2386 H   0  0  0  0  0  0  0  0  0  0  0  0
  -37.0303   60.3525   67.2222 H   0  0  0  0  0  0  0  0  0  0  0  0
  -39.0720   59.9702   68.4072 H   0  0  0  0  0  0  0  0  0  0  0  0
  -39.3508   58.5033   67.4684 H   0  0  0  0  0  0  0  0  0  0  0  0
  -40.4579   60.8097   66.7004 H   0  0  0  0  0  0  0  0  0  0  0  0
  -39.8705   61.0036   64.5259 H   0  0  0  0  0  0  0  0  0  0  0  0
  -35.7032   59.6374   63.2524 H   0  0  0  0  0  0  0  0  0  0  0  0
  -36.3399   60.4428   61.8246 H   0  0  0  0  0  0  0  0  0  0  0  0
  -37.8119   58.5833   61.4147 H   0  0  0  0  0  0  0  0  0  0  0  0
  -37.1476   57.7838   62.8677 H   0  0  0  0  0  0  0  0  0  0  0  0
  -35.6238   58.4067   60.3945 H   0  0  0  0  0  0  0  0  0  0  0  0
  -36.2729   56.8255   60.8717 H   0  0  0  0  0  0  0  0  0  0  0  0
  -34.2161   58.3779   62.3821 H   0  0  0  0  0  0  0  0  0  0  0  0
  -33.9192   56.9787   61.3420 H   0  0  0  0  0  0  0  0  0  0  0  0
  -35.5592   56.9942   63.8379 H   0  0  0  0  0  0  0  0  0  0  0  0
  -33.1065   56.2194   67.4646 H   0  0  0  0  0  0  0  0  0  0  0  0
  -32.1606   57.2530   66.4206 H   0  0  0  0  0  0  0  0  0  0  0  0
  -31.3650   56.0791   67.4413 H   0  0  0  0  0  0  0  0  0  0  0  0
  -31.3943   55.2562   63.7856 H   0  0  0  0  0  0  0  0  0  0  0  0
  -30.5191   56.1628   64.9414 H   0  0  0  0  0  0  0  0  0  0  0  0
  -32.6577   51.1341   66.3205 H   0  0  0  0  0  0  0  0  0  0  0  0
  -31.9494   49.0544   67.3092 H   0  0  0  0  0  0  0  0  0  0  0  0
  -29.6391   48.7002   67.8750 H   0  0  0  0  0  0  0  0  0  0  0  0
  -28.0098   50.4316   67.4702 H   0  0  0  0  0  0  0  0  0  0  0  0
  -37.2867   53.1090   62.5948 H   0  0  0  0  0  0  0  0  0  0  0  0
  -38.6044   55.7810   62.6986 H   0  0  0  0  0  0  0  0  0  0  0  0
  -39.2112   54.3640   61.8759 H   0  0  0  0  0  0  0  0  0  0  0  0
  -37.7275   55.1164   61.3413 H   0  0  0  0  0  0  0  0  0  0  0  0
  -38.6283   54.5359   64.8683 H   0  0  0  0  0  0  0  0  0  0  0  0
  -37.6961   53.0330   64.9935 H   0  0  0  0  0  0  0  0  0  0  0  0
  -40.8554   50.1890   64.4199 H   0  0  0  0  0  0  0  0  0  0  0  0
  -42.3102   51.7030   66.5404 H   0  0  0  0  0  0  0  0  0  0  0  0
  -40.9524   50.6167   66.9110 H   0  0  0  0  0  0  0  0  0  0  0  0
  -43.0385   49.4953   67.2487 H   0  0  0  0  0  0  0  0  0  0  0  0
  -42.1187   48.8155   65.8690 H   0  0  0  0  0  0  0  0  0  0  0  0
  -44.4424   50.6336   65.6136 H   0  0  0  0  0  0  0  0  0  0  0  0
  -44.4762   48.8564   65.4842 H   0  0  0  0  0  0  0  0  0  0  0  0
  -42.8132   49.1036   63.6557 H   0  0  0  0  0  0  0  0  0  0  0  0
  -44.4830   49.6386   63.3377 H   0  0  0  0  0  0  0  0  0  0  0  0
  1 33  1  0  0  0  0
  1 34  1  0  0  0  0
  1 61  1  0  0  0  0
  2  4  1  0  0  0  0
  2 62  1  0  0  0  0
  2 63  1  0  0  0  0
  2 64  1  0  0  0  0
  3 33  2  0  0  0  0
  4  7  1  0  0  0  0
  4 65  1  0  0  0  0
  4 66  1  0  0  0  0
  5 38  1  0  0  0  0
  5 39  1  0  0  0  0
  5 67  1  0  0  0  0
  6 39  2  0  0  0  0
  7 10  1  0  0  0  0
  7 68  1  0  0  0  0
  7 69  1  0  0  0  0
  8 40  1  0  0  0  0
  8 43  2  0  0  0  0
  9 42  1  0  0  0  0
  9 43  1  0  0  0  0
 10 13  1  0  0  0  0
 10 70  1  0  0  0  0
 10 71  1  0  0  0  0
 11 54  1  0  0  0  0
 11 55  1  0  0  0  0
 11 72  1  0  0  0  0
 12 49  1  0  0  0  0
 12 73  1  0  0  0  0
 13 16  1  0  0  0  0
 13 74  1  0  0  0  0
 13 75  1  0  0  0  0
 14 59  1  0  0  0  0
 14 60  1  0  0  0  0
 14 76  1  0  0  0  0
 15 50  2  0  0  0  0
 16 18  1  0  0  0  0
 16 77  1  0  0  0  0
 16 78  1  0  0  0  0
 17 50  1  0  0  0  0
 17 51  1  0  0  0  0
 18 20  1  0  0  0  0
 18 79  1  0  0  0  0
 18 80  1  0  0  0  0
 19 54  2  0  0  0  0
 20 22  1  0  0  0  0
 20 81  1  0  0  0  0
 20 82  1  0  0  0  0
 21 60  2  0  0  0  0
 22 23  1  0  0  0  0
 22 83  1  0  0  0  0
 22 84  1  0  0  0  0
 23 24  1  0  0  0  0
 23 85  1  0  0  0  0
 23 86  1  0  0  0  0
 24 25  1  0  0  0  0
 24 87  1  0  0  0  0
 24 88  1  0  0  0  0
 25 26  1  0  0  0  0
 25 89  1  0  0  0  0
 25 90  1  0  0  0  0
 26 27  1  0  0  0  0
 26 91  1  0  0  0  0
 26 92  1  0  0  0  0
 27 28  1  0  0  0  0
 27 93  1  0  0  0  0
 27 94  1  0  0  0  0
 28 29  1  0  0  0  0
 28 95  1  0  0  0  0
 28 96  1  0  0  0  0
 29 30  1  0  0  0  0
 29 97  1  0  0  0  0
 29 98  1  0  0  0  0
 30 31  1  0  0  0  0
 30 99  1  0  0  0  0
 30100  1  0  0  0  0
 31 32  2  0  0  0  0
 31101  1  0  0  0  0
 32 33  1  0  0  0  0
 32102  1  0  0  0  0
 34 35  1  0  0  0  0
 34103  1  0  0  0  0
 34104  1  0  0  0  0
 35 36  1  0  0  0  0
 35105  1  0  0  0  0
 35106  1  0  0  0  0
 36 37  1  0  0  0  0
 36107  1  0  0  0  0
 36108  1  0  0  0  0
 37 38  1  0  0  0  0
 37109  1  0  0  0  0
 37110  1  0  0  0  0
 38 50  1  0  0  0  0
 38111  1  1  0  0  0
 40 39  1  6  0  0  0
 40 41  1  0  0  0  0
 40 42  1  0  0  0  0
 41112  1  0  0  0  0
 41113  1  0  0  0  0
 41114  1  0  0  0  0
 42115  1  0  0  0  0
 42116  1  0  0  0  0
 43 44  1  0  0  0  0
 44 45  2  0  0  0  0
 44 49  1  0  0  0  0
 45 46  1  0  0  0  0
 45117  1  0  0  0  0
 46 47  2  0  0  0  0
 46118  1  0  0  0  0
 47 48  1  0  0  0  0
 47119  1  0  0  0  0
 48 49  2  0  0  0  0
 48120  1  0  0  0  0
 51 52  1  0  0  0  0
 51 53  1  0  0  0  0
 51121  1  6  0  0  0
 52122  1  0  0  0  0
 52123  1  0  0  0  0
 52124  1  0  0  0  0
 53 54  1  0  0  0  0
 53125  1  0  0  0  0
 53126  1  0  0  0  0
 55 56  1  0  0  0  0
 55 60  1  0  0  0  0
 55127  1  6  0  0  0
 56 57  1  0  0  0  0
 56128  1  0  0  0  0
 56129  1  0  0  0  0
 57 58  1  0  0  0  0
 57130  1  0  0  0  0
 57131  1  0  0  0  0
 58 59  1  0  0  0  0
 58132  1  0  0  0  0
 58133  1  0  0  0  0
 59134  1  0  0  0  0
 59135  1  0  0  0  0
M  END
$$$$
/media/chris/experiments/cd1a-new-docking/inputs/ligands/7ryo_ligand.pdb
 OpenBabel07032304133D

135137  0  0  1  0  0  0  0  0999 V2000
  -37.9573   56.3471   62.8329 N   0  0  0  0  0  0  0  0  0  0  0  0
  -29.8627   45.1595   72.1641 C   0  0  0  0  0  0  0  0  0  0  0  0
  -37.3474   55.3010   64.7375 O   0  0  0  0  0  0  0  0  0  0  0  0
  -30.6072   46.3728   72.6561 C   0  0  0  0  0  0  0  0  0  0  0  0
  -34.0017   55.5459   60.5756 N   0  0  0  0  0  0  0  0  0  0  0  0
  -34.4515   54.3400   58.7324 O   0  0  0  0  0  0  0  0  0  0  0  0
  -30.0205   47.6797   72.1542 C   0  0  0  0  0  0  0  0  0  0  0  0
  -34.2915   56.5240   57.0886 N   0  0  0  0  0  0  0  0  0  0  0  0
  -34.4811   58.6310   57.8681 O   0  0  0  0  0  0  0  0  0  0  0  0
  -30.0198   47.8292   70.6414 C   0  0  0  0  0  0  0  0  0  0  0  0
  -30.1302   58.5282   64.2751 N   0  0  0  0  0  0  0  0  0  0  0  0
  -35.4626   60.4575   56.5386 O   0  0  0  0  0  0  0  0  0  0  0  0
  -29.2348   46.7387   69.9253 C   0  0  0  0  0  0  0  0  0  0  0  0
  -27.8399   61.2451   64.9580 N   0  0  0  0  0  0  0  0  0  0  0  0
  -31.2210   56.1784   61.4905 O   0  0  0  0  0  0  0  0  0  0  0  0
  -29.2128   46.8873   68.4119 C   0  0  0  0  0  0  0  0  0  0  0  0
  -32.4428   56.9252   63.2313 O   0  0  0  0  0  0  0  0  0  0  0  0
  -30.5865   46.8734   67.7641 C   0  0  0  0  0  0  0  0  0  0  0  0
  -31.4653   59.4698   65.8220 O   0  0  0  0  0  0  0  0  0  0  0  0
  -31.5033   47.9943   68.2262 C   0  0  0  0  0  0  0  0  0  0  0  0
  -29.1024   59.9379   66.2726 O   0  0  0  0  0  0  0  0  0  0  0  0
  -32.8736   47.9504   67.5795 C   0  0  0  0  0  0  0  0  0  0  0  0
  -33.7731   49.0831   68.0354 C   0  0  0  0  0  0  0  0  0  0  0  0
  -35.1597   49.0654   67.4239 C   0  0  0  0  0  0  0  0  0  0  0  0
  -35.1434   49.1477   65.9101 C   0  0  0  0  0  0  0  0  0  0  0  0
  -36.5297   49.1478   65.2872 C   0  0  0  0  0  0  0  0  0  0  0  0
  -37.3888   50.3190   65.7253 C   0  0  0  0  0  0  0  0  0  0  0  0
  -38.7858   50.3300   65.1275 C   0  0  0  0  0  0  0  0  0  0  0  0
  -39.6246   51.5186   65.5642 C   0  0  0  0  0  0  0  0  0  0  0  0
  -39.0336   52.8667   65.1704 C   0  0  0  0  0  0  0  0  0  0  0  0
  -38.8967   52.9994   63.6858 C   0  0  0  0  0  0  0  0  0  0  0  0
  -38.4110   54.0277   63.0035 C   0  0  0  0  0  0  0  0  0  0  0  0
  -37.8815   55.2661   63.6168 C   0  0  0  0  0  0  0  0  0  0  0  0
  -37.4201   57.6362   63.2386 C   0  0  0  0  0  0  0  0  0  0  0  0
  -36.9560   58.4330   62.0390 C   0  0  0  0  0  0  0  0  0  0  0  0
  -35.8780   57.7610   61.2090 C   0  0  0  0  0  0  0  0  0  0  0  0
  -34.6110   57.4590   62.0020 C   0  0  0  0  0  0  0  0  0  0  0  0
  -33.5311   56.7980   61.1441 C   0  0  1  0  0  0  0  0  0  0  0  0
  -34.0514   55.3707   59.2529 C   0  0  0  0  0  0  0  0  0  0  0  0
  -33.5563   56.5236   58.3641 C   0  0  1  0  0  0  0  0  0  0  0  0
  -32.0702   56.3255   58.0811 C   0  0  0  0  0  0  0  0  0  0  0  0
  -33.8416   57.9127   58.9536 C   0  0  0  0  0  0  0  0  0  0  0  0
  -34.7475   57.6957   56.9196 C   0  0  0  0  0  0  0  0  0  0  0  0
  -35.5436   58.1569   55.7797 C   0  0  0  0  0  0  0  0  0  0  0  0
  -35.8662   57.2747   54.7477 C   0  0  0  0  0  0  0  0  0  0  0  0
  -36.4005   57.7471   53.5614 C   0  0  0  0  0  0  0  0  0  0  0  0
  -36.6214   59.0956   53.3836 C   0  0  0  0  0  0  0  0  0  0  0  0
  -36.3061   59.9914   54.3891 C   0  0  0  0  0  0  0  0  0  0  0  0
  -35.7663   59.5360   55.5878 C   0  0  0  0  0  0  0  0  0  0  0  0
  -32.2521   56.5942   61.9423 C   0  0  0  0  0  0  0  0  0  0  0  0
  -31.6639   56.2146   64.2502 C   0  0  2  0  0  0  0  0  0  0  0  0
  -32.3291   54.8856   64.5048 C   0  0  0  0  0  0  0  0  0  0  0  0
  -31.6789   57.1110   65.4731 C   0  0  0  0  0  0  0  0  0  0  0  0
  -31.0823   58.4759   65.2111 C   0  0  0  0  0  0  0  0  0  0  0  0
  -29.4778   59.7744   63.9131 C   0  0  1  0  0  0  0  0  0  0  0  0
  -30.5145   60.7846   63.4088 C   0  0  0  0  0  0  0  0  0  0  0  0
  -29.9113   61.9253   62.5964 C   0  0  0  0  0  0  0  0  0  0  0  0
  -28.9257   62.8046   63.3401 C   0  0  0  0  0  0  0  0  0  0  0  0
  -27.6659   62.0890   63.7807 C   0  0  0  0  0  0  0  0  0  0  0  0
  -28.7897   60.3273   65.1512 C   0  0  0  0  0  0  0  0  0  0  0  0
  -38.3908   56.2676   61.9526 H   0  0  0  0  0  0  0  0  0  0  0  0
  -30.3248   44.2759   72.5520 H   0  0  0  0  0  0  0  0  0  0  0  0
  -28.8465   45.2057   72.4961 H   0  0  0  0  0  0  0  0  0  0  0  0
  -29.8877   45.1350   71.0947 H   0  0  0  0  0  0  0  0  0  0  0  0
  -30.5811   46.3771   73.7257 H   0  0  0  0  0  0  0  0  0  0  0  0
  -31.6061   46.3073   72.2782 H   0  0  0  0  0  0  0  0  0  0  0  0
  -34.2874   54.8177   61.1734 H   0  0  0  0  0  0  0  0  0  0  0  0
  -29.0091   47.7458   72.4972 H   0  0  0  0  0  0  0  0  0  0  0  0
  -30.6435   48.4607   72.5375 H   0  0  0  0  0  0  0  0  0  0  0  0
  -29.5871   48.7761   70.3945 H   0  0  0  0  0  0  0  0  0  0  0  0
  -31.0363   47.7514   70.3163 H   0  0  0  0  0  0  0  0  0  0  0  0
  -29.8633   57.6983   63.8177 H   0  0  0  0  0  0  0  0  0  0  0  0
  -35.0976   60.1835   57.3570 H   0  0  0  0  0  0  0  0  0  0  0  0
  -29.6760   45.7938   70.1646 H   0  0  0  0  0  0  0  0  0  0  0  0
  -28.2213   46.8156   70.2595 H   0  0  0  0  0  0  0  0  0  0  0  0
  -27.1885   61.3652   65.6864 H   0  0  0  0  0  0  0  0  0  0  0  0
  -28.6414   46.0799   68.0039 H   0  0  0  0  0  0  0  0  0  0  0  0
  -28.7846   47.8455   68.2035 H   0  0  0  0  0  0  0  0  0  0  0  0
  -31.0562   45.9396   67.9928 H   0  0  0  0  0  0  0  0  0  0  0  0
  -30.4335   47.0137   66.7144 H   0  0  0  0  0  0  0  0  0  0  0  0
  -31.0438   48.9302   67.9859 H   0  0  0  0  0  0  0  0  0  0  0  0
  -31.6452   47.8747   69.2799 H   0  0  0  0  0  0  0  0  0  0  0  0
  -33.3405   47.0207   67.8298 H   0  0  0  0  0  0  0  0  0  0  0  0
  -32.7358   48.0525   66.5233 H   0  0  0  0  0  0  0  0  0  0  0  0
  -33.3041   50.0088   67.7746 H   0  0  0  0  0  0  0  0  0  0  0  0
  -33.9030   48.9645   69.0908 H   0  0  0  0  0  0  0  0  0  0  0  0
  -35.7104   49.9001   67.8044 H   0  0  0  0  0  0  0  0  0  0  0  0
  -35.6128   48.1326   67.6877 H   0  0  0  0  0  0  0  0  0  0  0  0
  -34.6020   48.3062   65.5310 H   0  0  0  0  0  0  0  0  0  0  0  0
  -34.6822   50.0778   65.6507 H   0  0  0  0  0  0  0  0  0  0  0  0
  -37.0258   48.2412   65.5646 H   0  0  0  0  0  0  0  0  0  0  0  0
  -36.3995   49.2311   64.2285 H   0  0  0  0  0  0  0  0  0  0  0  0
  -36.8943   51.2231   65.4372 H   0  0  0  0  0  0  0  0  0  0  0  0
  -37.5102   50.2297   66.7846 H   0  0  0  0  0  0  0  0  0  0  0  0
  -39.2884   49.4335   65.4255 H   0  0  0  0  0  0  0  0  0  0  0  0
  -38.6724   50.3991   64.0657 H   0  0  0  0  0  0  0  0  0  0  0  0
  -39.7205   51.4905   66.6295 H   0  0  0  0  0  0  0  0  0  0  0  0
  -40.5676   51.4343   65.0656 H   0  0  0  0  0  0  0  0  0  0  0  0
  -38.0666   52.9653   65.6179 H   0  0  0  0  0  0  0  0  0  0  0  0
  -39.6954   53.6340   65.5140 H   0  0  0  0  0  0  0  0  0  0  0  0
  -39.2188   52.1944   63.1261 H   0  0  0  0  0  0  0  0  0  0  0  0
  -38.4018   53.9596   61.9738 H   0  0  0  0  0  0  0  0  0  0  0  0
  -36.5906   57.4783   63.8958 H   0  0  0  0  0  0  0  0  0  0  0  0
  -38.1924   58.1861   63.7346 H   0  0  0  0  0  0  0  0  0  0  0  0
  -36.5724   59.3687   62.3887 H   0  0  0  0  0  0  0  0  0  0  0  0
  -37.8072   58.5391   61.3994 H   0  0  0  0  0  0  0  0  0  0  0  0
  -35.6238   58.4067   60.3945 H   0  0  0  0  0  0  0  0  0  0  0  0
  -36.2729   56.8255   60.8717 H   0  0  0  0  0  0  0  0  0  0  0  0
  -34.8590   56.8018   62.8091 H   0  0  0  0  0  0  0  0  0  0  0  0
  -34.2203   58.3886   62.3599 H   0  0  0  0  0  0  0  0  0  0  0  0
  -33.3097   57.4574   60.3310 H   0  0  0  0  0  0  0  0  0  0  0  0
  -31.9118   55.3493   57.6727 H   0  0  0  0  0  0  0  0  0  0  0  0
  -31.5173   56.4251   58.9918 H   0  0  0  0  0  0  0  0  0  0  0  0
  -31.7391   57.0633   57.3804 H   0  0  0  0  0  0  0  0  0  0  0  0
  -34.4945   57.8405   59.7983 H   0  0  0  0  0  0  0  0  0  0  0  0
  -32.9563   58.4005   59.3046 H   0  0  0  0  0  0  0  0  0  0  0  0
  -35.7052   56.2627   54.8699 H   0  0  0  0  0  0  0  0  0  0  0  0
  -36.6350   57.0852   52.8051 H   0  0  0  0  0  0  0  0  0  0  0  0
  -37.0235   59.4383   52.4971 H   0  0  0  0  0  0  0  0  0  0  0  0
  -36.4718   61.0004   54.2498 H   0  0  0  0  0  0  0  0  0  0  0  0
  -30.6532   56.0146   63.9616 H   0  0  0  0  0  0  0  0  0  0  0  0
  -33.3459   55.0459   64.7970 H   0  0  0  0  0  0  0  0  0  0  0  0
  -31.8104   54.3710   65.2865 H   0  0  0  0  0  0  0  0  0  0  0  0
  -32.3032   54.2968   63.6118 H   0  0  0  0  0  0  0  0  0  0  0  0
  -31.1175   56.6367   66.2508 H   0  0  0  0  0  0  0  0  0  0  0  0
  -32.7018   57.2563   65.7516 H   0  0  0  0  0  0  0  0  0  0  0  0
  -28.7646   59.5999   63.1348 H   0  0  0  0  0  0  0  0  0  0  0  0
  -31.0193   61.2020   64.2549 H   0  0  0  0  0  0  0  0  0  0  0  0
  -31.1789   60.2541   62.7591 H   0  0  0  0  0  0  0  0  0  0  0  0
  -30.7127   62.5455   62.2530 H   0  0  0  0  0  0  0  0  0  0  0  0
  -29.3558   61.4629   61.8074 H   0  0  0  0  0  0  0  0  0  0  0  0
  -29.4126   63.1933   64.2100 H   0  0  0  0  0  0  0  0  0  0  0  0
  -28.6217   63.5712   62.6583 H   0  0  0  0  0  0  0  0  0  0  0  0
  -27.3295   61.4732   62.9729 H   0  0  0  0  0  0  0  0  0  0  0  0
  -26.9581   62.8463   64.0462 H   0  0  0  0  0  0  0  0  0  0  0  0
  1 33  1  0  0  0  0
  1 34  1  0  0  0  0
  1 61  1  0  0  0  0
  2  4  1  0  0  0  0
  2 62  1  0  0  0  0
  2 63  1  0  0  0  0
  2 64  1  0  0  0  0
  3 33  2  0  0  0  0
  4  7  1  0  0  0  0
  4 65  1  0  0  0  0
  4 66  1  0  0  0  0
  5 38  1  0  0  0  0
  5 39  1  0  0  0  0
  5 67  1  0  0  0  0
  6 39  2  0  0  0  0
  7 10  1  0  0  0  0
  7 68  1  0  0  0  0
  7 69  1  0  0  0  0
  8 40  1  0  0  0  0
  8 43  2  0  0  0  0
  9 42  1  0  0  0  0
  9 43  1  0  0  0  0
 10 13  1  0  0  0  0
 10 70  1  0  0  0  0
 10 71  1  0  0  0  0
 11 54  1  0  0  0  0
 11 55  1  0  0  0  0
 11 72  1  0  0  0  0
 12 49  1  0  0  0  0
 12 73  1  0  0  0  0
 13 16  1  0  0  0  0
 13 74  1  0  0  0  0
 13 75  1  0  0  0  0
 14 59  1  0  0  0  0
 14 60  1  0  0  0  0
 14 76  1  0  0  0  0
 15 50  2  0  0  0  0
 16 18  1  0  0  0  0
 16 77  1  0  0  0  0
 16 78  1  0  0  0  0
 17 50  1  0  0  0  0
 17 51  1  0  0  0  0
 18 20  1  0  0  0  0
 18 79  1  0  0  0  0
 18 80  1  0  0  0  0
 19 54  2  0  0  0  0
 20 22  1  0  0  0  0
 20 81  1  0  0  0  0
 20 82  1  0  0  0  0
 21 60  2  0  0  0  0
 22 23  1  0  0  0  0
 22 83  1  0  0  0  0
 22 84  1  0  0  0  0
 23 24  1  0  0  0  0
 23 85  1  0  0  0  0
 23 86  1  0  0  0  0
 24 25  1  0  0  0  0
 24 87  1  0  0  0  0
 24 88  1  0  0  0  0
 25 26  1  0  0  0  0
 25 89  1  0  0  0  0
 25 90  1  0  0  0  0
 26 27  1  0  0  0  0
 26 91  1  0  0  0  0
 26 92  1  0  0  0  0
 27 28  1  0  0  0  0
 27 93  1  0  0  0  0
 27 94  1  0  0  0  0
 28 29  1  0  0  0  0
 28 95  1  0  0  0  0
 28 96  1  0  0  0  0
 29 30  1  0  0  0  0
 29 97  1  0  0  0  0
 29 98  1  0  0  0  0
 30 31  1  0  0  0  0
 30 99  1  0  0  0  0
 30100  1  0  0  0  0
 31 32  2  0  0  0  0
 31101  1  0  0  0  0
 32 33  1  0  0  0  0
 32102  1  0  0  0  0
 34 35  1  0  0  0  0
 34103  1  0  0  0  0
 34104  1  0  0  0  0
 35 36  1  0  0  0  0
 35105  1  0  0  0  0
 35106  1  0  0  0  0
 36 37  1  0  0  0  0
 36107  1  0  0  0  0
 36108  1  0  0  0  0
 37 38  1  0  0  0  0
 37109  1  0  0  0  0
 37110  1  0  0  0  0
 38 50  1  0  0  0  0
 38111  1  6  0  0  0
 40 39  1  1  0  0  0
 40 41  1  0  0  0  0
 40 42  1  0  0  0  0
 41112  1  0  0  0  0
 41113  1  0  0  0  0
 41114  1  0  0  0  0
 42115  1  0  0  0  0
 42116  1  0  0  0  0
 43 44  1  0  0  0  0
 44 45  2  0  0  0  0
 44 49  1  0  0  0  0
 45 46  1  0  0  0  0
 45117  1  0  0  0  0
 46 47  2  0  0  0  0
 46118  1  0  0  0  0
 47 48  1  0  0  0  0
 47119  1  0  0  0  0
 48 49  2  0  0  0  0
 48120  1  0  0  0  0
 51 52  1  0  0  0  0
 51 53  1  0  0  0  0
 51121  1  6  0  0  0
 52122  1  0  0  0  0
 52123  1  0  0  0  0
 52124  1  0  0  0  0
 53 54  1  0  0  0  0
 53125  1  0  0  0  0
 53126  1  0  0  0  0
 55 56  1  0  0  0  0
 55 60  1  0  0  0  0
 55127  1  6  0  0  0
 56 57  1  0  0  0  0
 56128  1  0  0  0  0
 56129  1  0  0  0  0
 57 58  1  0  0  0  0
 57130  1  0  0  0  0
 57131  1  0  0  0  0
 58 59  1  0  0  0  0
 58132  1  0  0  0  0
 58133  1  0  0  0  0
 59134  1  0  0  0  0
 59135  1  0  0  0  0
M  END
$$$$
/media/chris/experiments/cd1a-new-docking/inputs/ligands/7ryo_ligand.pdb
 OpenBabel07032304133D

135137  0  0  1  0  0  0  0  0999 V2000
  -37.6438   60.3330   63.4177 N   0  0  0  0  0  0  0  0  0  0  0  0
  -38.6868   58.8865   57.8117 C   0  0  0  0  0  0  0  0  0  0  0  0
  -38.7405   62.1314   64.2281 O   0  0  0  0  0  0  0  0  0  0  0  0
  -37.2230   58.5353   57.8602 C   0  0  0  0  0  0  0  0  0  0  0  0
  -34.0017   55.5459   60.5756 N   0  0  0  0  0  0  0  0  0  0  0  0
  -32.0565   55.1196   59.5323 O   0  0  0  0  0  0  0  0  0  0  0  0
  -36.3794   59.3499   56.8965 C   0  0  0  0  0  0  0  0  0  0  0  0
  -33.7514   53.5520   57.7521 N   0  0  0  0  0  0  0  0  0  0  0  0
  -32.7606   51.6004   58.2935 O   0  0  0  0  0  0  0  0  0  0  0  0
  -36.4126   60.8495   57.1442 C   0  0  0  0  0  0  0  0  0  0  0  0
  -30.3095   54.2863   62.7468 N   0  0  0  0  0  0  0  0  0  0  0  0
  -32.1343   49.9152   56.6099 O   0  0  0  0  0  0  0  0  0  0  0  0
  -35.5728   61.6455   56.1547 C   0  0  0  0  0  0  0  0  0  0  0  0
  -29.4416   50.8875   61.8589 N   0  0  0  0  0  0  0  0  0  0  0  0
  -31.2210   56.1784   61.4905 O   0  0  0  0  0  0  0  0  0  0  0  0
  -36.0134   61.4908   54.7073 C   0  0  0  0  0  0  0  0  0  0  0  0
  -32.4428   56.9252   63.2313 O   0  0  0  0  0  0  0  0  0  0  0  0
  -37.4349   61.9517   54.4358 C   0  0  0  0  0  0  0  0  0  0  0  0
  -30.5246   54.6503   64.9566 O   0  0  0  0  0  0  0  0  0  0  0  0
  -38.4917   61.2191   55.2461 C   0  0  0  0  0  0  0  0  0  0  0  0
  -29.3441   52.8340   60.7488 O   0  0  0  0  0  0  0  0  0  0  0  0
  -39.9032   61.6837   54.9463 C   0  0  0  0  0  0  0  0  0  0  0  0
  -40.1045   63.1615   55.2217 C   0  0  0  0  0  0  0  0  0  0  0  0
  -39.8346   63.5729   56.6551 C   0  0  0  0  0  0  0  0  0  0  0  0
  -40.7157   62.8524   57.6568 C   0  0  0  0  0  0  0  0  0  0  0  0
  -40.4651   63.2700   59.0964 C   0  0  0  0  0  0  0  0  0  0  0  0
  -41.3357   62.5359   60.0987 C   0  0  0  0  0  0  0  0  0  0  0  0
  -41.1137   62.9501   61.5439 C   0  0  0  0  0  0  0  0  0  0  0  0
  -39.6889   62.7372   62.0252 C   0  0  0  0  0  0  0  0  0  0  0  0
  -38.6496   63.5284   61.2404 C   0  0  0  0  0  0  0  0  0  0  0  0
  -37.2629   63.2714   61.7419 C   0  0  0  0  0  0  0  0  0  0  0  0
  -36.8930   62.4743   62.7351 C   0  0  0  0  0  0  0  0  0  0  0  0
  -37.8229   61.6526   63.5417 C   0  0  0  0  0  0  0  0  0  0  0  0
  -36.5610   59.7701   62.6268 C   0  0  0  0  0  0  0  0  0  0  0  0
  -36.9560   58.4330   62.0390 C   0  0  0  0  0  0  0  0  0  0  0  0
  -35.8780   57.7610   61.2090 C   0  0  0  0  0  0  0  0  0  0  0  0
  -34.6110   57.4590   62.0020 C   0  0  0  0  0  0  0  0  0  0  0  0
  -33.5311   56.7980   61.1441 C   0  0  1  0  0  0  0  0  0  0  0  0
  -33.2051   54.8025   59.8038 C   0  0  0  0  0  0  0  0  0  0  0  0
  -33.7882   53.5037   59.2231 C   0  0  1  0  0  0  0  0  0  0  0  0
  -35.2374   53.3659   59.6798 C   0  0  0  0  0  0  0  0  0  0  0  0
  -32.9624   52.2565   59.5710 C   0  0  0  0  0  0  0  0  0  0  0  0
  -33.1802   52.4904   57.3567 C   0  0  0  0  0  0  0  0  0  0  0  0
  -32.9264   52.1131   55.9643 C   0  0  0  0  0  0  0  0  0  0  0  0
  -33.3249   52.9562   54.9262 C   0  0  0  0  0  0  0  0  0  0  0  0
  -33.3145   52.5099   53.6158 C   0  0  0  0  0  0  0  0  0  0  0  0
  -32.9100   51.2266   53.3190 C   0  0  0  0  0  0  0  0  0  0  0  0
  -32.5144   50.3697   54.3299 C   0  0  0  0  0  0  0  0  0  0  0  0
  -32.5201   50.7992   55.6533 C   0  0  0  0  0  0  0  0  0  0  0  0
  -32.2521   56.5942   61.9423 C   0  0  0  0  0  0  0  0  0  0  0  0
  -31.2916   57.4119   63.9978 C   0  0  2  0  0  0  0  0  0  0  0  0
  -31.0906   58.8689   63.6653 C   0  0  0  0  0  0  0  0  0  0  0  0
  -30.1197   56.5538   63.5623 C   0  0  0  0  0  0  0  0  0  0  0  0
  -30.3398   55.0799   63.8213 C   0  0  0  0  0  0  0  0  0  0  0  0
  -30.4946   52.8493   62.8490 C   0  0  1  0  0  0  0  0  0  0  0  0
  -31.9803   52.4985   62.7109 C   0  0  0  0  0  0  0  0  0  0  0  0
  -32.3333   51.1140   63.2436 C   0  0  0  0  0  0  0  0  0  0  0  0
  -31.6521   49.9539   62.5451 C   0  0  0  0  0  0  0  0  0  0  0  0
  -30.1465   49.9311   62.7056 C   0  0  0  0  0  0  0  0  0  0  0  0
  -29.7097   52.1885   61.7267 C   0  0  0  0  0  0  0  0  0  0  0  0
  -38.2651   59.7228   63.8769 H   0  0  0  0  0  0  0  0  0  0  0  0
  -39.2226   58.2795   58.5112 H   0  0  0  0  0  0  0  0  0  0  0  0
  -39.0632   58.7111   56.8256 H   0  0  0  0  0  0  0  0  0  0  0  0
  -38.8145   59.9185   58.0639 H   0  0  0  0  0  0  0  0  0  0  0  0
  -37.1137   57.4993   57.6156 H   0  0  0  0  0  0  0  0  0  0  0  0
  -36.8765   58.7539   58.8487 H   0  0  0  0  0  0  0  0  0  0  0  0
  -34.9194   55.2420   60.7619 H   0  0  0  0  0  0  0  0  0  0  0  0
  -36.7348   59.1669   55.9040 H   0  0  0  0  0  0  0  0  0  0  0  0
  -35.3657   59.0394   57.0412 H   0  0  0  0  0  0  0  0  0  0  0  0
  -36.0439   61.0384   58.1307 H   0  0  0  0  0  0  0  0  0  0  0  0
  -37.4274   61.1667   57.0235 H   0  0  0  0  0  0  0  0  0  0  0  0
  -30.1573   54.6871   61.8606 H   0  0  0  0  0  0  0  0  0  0  0  0
  -32.1270   50.1732   57.5106 H   0  0  0  0  0  0  0  0  0  0  0  0
  -34.5574   61.3177   56.2345 H   0  0  0  0  0  0  0  0  0  0  0  0
  -35.6923   62.6785   56.4068 H   0  0  0  0  0  0  0  0  0  0  0  0
  -28.6894   50.5366   61.3294 H   0  0  0  0  0  0  0  0  0  0  0  0
  -35.9399   60.4566   54.4430 H   0  0  0  0  0  0  0  0  0  0  0  0
  -35.3711   62.1153   54.1222 H   0  0  0  0  0  0  0  0  0  0  0  0
  -37.6441   61.8013   53.3972 H   0  0  0  0  0  0  0  0  0  0  0  0
  -37.4851   62.9812   54.7233 H   0  0  0  0  0  0  0  0  0  0  0  0
  -38.2946   61.3792   56.2856 H   0  0  0  0  0  0  0  0  0  0  0  0
  -38.4347   60.1841   54.9808 H   0  0  0  0  0  0  0  0  0  0  0  0
  -40.5836   61.1263   55.5556 H   0  0  0  0  0  0  0  0  0  0  0  0
  -40.0818   61.5222   53.9038 H   0  0  0  0  0  0  0  0  0  0  0  0
  -41.1182   63.4107   54.9871 H   0  0  0  0  0  0  0  0  0  0  0  0
  -39.3955   63.6849   54.6148 H   0  0  0  0  0  0  0  0  0  0  0  0
  -40.0064   64.6251   56.7455 H   0  0  0  0  0  0  0  0  0  0  0  0
  -38.8208   63.3119   56.8764 H   0  0  0  0  0  0  0  0  0  0  0  0
  -40.5343   61.8013   57.5727 H   0  0  0  0  0  0  0  0  0  0  0  0
  -41.7286   63.1095   57.4266 H   0  0  0  0  0  0  0  0  0  0  0  0
  -40.6586   64.3188   59.1835 H   0  0  0  0  0  0  0  0  0  0  0  0
  -39.4485   63.0252   59.3231 H   0  0  0  0  0  0  0  0  0  0  0  0
  -41.1320   61.4888   60.0155 H   0  0  0  0  0  0  0  0  0  0  0  0
  -42.3495   62.7833   59.8621 H   0  0  0  0  0  0  0  0  0  0  0  0
  -41.7698   62.3765   62.1648 H   0  0  0  0  0  0  0  0  0  0  0  0
  -41.3116   63.9999   61.6034 H   0  0  0  0  0  0  0  0  0  0  0  0
  -39.4558   61.6965   61.9394 H   0  0  0  0  0  0  0  0  0  0  0  0
  -39.6466   63.0846   63.0363 H   0  0  0  0  0  0  0  0  0  0  0  0
  -38.8645   64.5723   61.3351 H   0  0  0  0  0  0  0  0  0  0  0  0
  -38.6970   63.2182   60.2175 H   0  0  0  0  0  0  0  0  0  0  0  0
  -36.5038   63.7747   61.2567 H   0  0  0  0  0  0  0  0  0  0  0  0
  -35.8874   62.4234   62.9612 H   0  0  0  0  0  0  0  0  0  0  0  0
  -35.7032   59.6374   63.2524 H   0  0  0  0  0  0  0  0  0  0  0  0
  -36.3399   60.4428   61.8246 H   0  0  0  0  0  0  0  0  0  0  0  0
  -37.8119   58.5833   61.4147 H   0  0  0  0  0  0  0  0  0  0  0  0
  -37.1476   57.7838   62.8677 H   0  0  0  0  0  0  0  0  0  0  0  0
  -35.6238   58.4067   60.3945 H   0  0  0  0  0  0  0  0  0  0  0  0
  -36.2729   56.8255   60.8717 H   0  0  0  0  0  0  0  0  0  0  0  0
  -34.8590   56.8018   62.8091 H   0  0  0  0  0  0  0  0  0  0  0  0
  -34.2203   58.3886   62.3599 H   0  0  0  0  0  0  0  0  0  0  0  0
  -33.3097   57.4574   60.3310 H   0  0  0  0  0  0  0  0  0  0  0  0
  -35.7789   54.2516   59.4205 H   0  0  0  0  0  0  0  0  0  0  0  0
  -35.2656   53.2283   60.7405 H   0  0  0  0  0  0  0  0  0  0  0  0
  -35.6842   52.5211   59.1985 H   0  0  0  0  0  0  0  0  0  0  0  0
  -32.0257   52.5308   60.0095 H   0  0  0  0  0  0  0  0  0  0  0  0
  -33.4501   51.6260   60.2847 H   0  0  0  0  0  0  0  0  0  0  0  0
  -33.6297   53.9194   55.1368 H   0  0  0  0  0  0  0  0  0  0  0  0
  -33.6117   53.1424   52.8564 H   0  0  0  0  0  0  0  0  0  0  0  0
  -32.9021   50.9038   52.3388 H   0  0  0  0  0  0  0  0  0  0  0  0
  -32.2143   49.4090   54.1020 H   0  0  0  0  0  0  0  0  0  0  0  0
  -31.4161   57.3417   65.0582 H   0  0  0  0  0  0  0  0  0  0  0  0
  -30.9620   58.9791   62.6088 H   0  0  0  0  0  0  0  0  0  0  0  0
  -30.2205   59.2332   64.1704 H   0  0  0  0  0  0  0  0  0  0  0  0
  -31.9465   59.4281   63.9807 H   0  0  0  0  0  0  0  0  0  0  0  0
  -29.2487   56.8681   64.0984 H   0  0  0  0  0  0  0  0  0  0  0  0
  -30.0050   56.6800   62.5060 H   0  0  0  0  0  0  0  0  0  0  0  0
  -30.1494   52.5040   63.8011 H   0  0  0  0  0  0  0  0  0  0  0  0
  -32.2423   52.5388   61.6742 H   0  0  0  0  0  0  0  0  0  0  0  0
  -32.5259   53.2083   63.2968 H   0  0  0  0  0  0  0  0  0  0  0  0
  -33.3907   50.9828   63.1461 H   0  0  0  0  0  0  0  0  0  0  0  0
  -31.9880   51.0915   64.2561 H   0  0  0  0  0  0  0  0  0  0  0  0
  -31.8775   50.0118   61.5007 H   0  0  0  0  0  0  0  0  0  0  0  0
  -32.0238   49.0596   63.0000 H   0  0  0  0  0  0  0  0  0  0  0  0
  -29.9142   50.1515   63.7266 H   0  0  0  0  0  0  0  0  0  0  0  0
  -29.8196   48.9566   62.4080 H   0  0  0  0  0  0  0  0  0  0  0  0
  1 33  1  0  0  0  0
  1 34  1  0  0  0  0
  1 61  1  0  0  0  0
  2  4  1  0  0  0  0
  2 62  1  0  0  0  0
  2 63  1  0  0  0  0
  2 64  1  0  0  0  0
  3 33  2  0  0  0  0
  4  7  1  0  0  0  0
  4 65  1  0  0  0  0
  4 66  1  0  0  0  0
  5 38  1  0  0  0  0
  5 39  1  0  0  0  0
  5 67  1  0  0  0  0
  6 39  2  0  0  0  0
  7 10  1  0  0  0  0
  7 68  1  0  0  0  0
  7 69  1  0  0  0  0
  8 40  1  0  0  0  0
  8 43  2  0  0  0  0
  9 42  1  0  0  0  0
  9 43  1  0  0  0  0
 10 13  1  0  0  0  0
 10 70  1  0  0  0  0
 10 71  1  0  0  0  0
 11 54  1  0  0  0  0
 11 55  1  0  0  0  0
 11 72  1  0  0  0  0
 12 49  1  0  0  0  0
 12 73  1  0  0  0  0
 13 16  1  0  0  0  0
 13 74  1  0  0  0  0
 13 75  1  0  0  0  0
 14 59  1  0  0  0  0
 14 60  1  0  0  0  0
 14 76  1  0  0  0  0
 15 50  2  0  0  0  0
 16 18  1  0  0  0  0
 16 77  1  0  0  0  0
 16 78  1  0  0  0  0
 17 50  1  0  0  0  0
 17 51  1  0  0  0  0
 18 20  1  0  0  0  0
 18 79  1  0  0  0  0
 18 80  1  0  0  0  0
 19 54  2  0  0  0  0
 20 22  1  0  0  0  0
 20 81  1  0  0  0  0
 20 82  1  0  0  0  0
 21 60  2  0  0  0  0
 22 23  1  0  0  0  0
 22 83  1  0  0  0  0
 22 84  1  0  0  0  0
 23 24  1  0  0  0  0
 23 85  1  0  0  0  0
 23 86  1  0  0  0  0
 24 25  1  0  0  0  0
 24 87  1  0  0  0  0
 24 88  1  0  0  0  0
 25 26  1  0  0  0  0
 25 89  1  0  0  0  0
 25 90  1  0  0  0  0
 26 27  1  0  0  0  0
 26 91  1  0  0  0  0
 26 92  1  0  0  0  0
 27 28  1  0  0  0  0
 27 93  1  0  0  0  0
 27 94  1  0  0  0  0
 28 29  1  0  0  0  0
 28 95  1  0  0  0  0
 28 96  1  0  0  0  0
 29 30  1  0  0  0  0
 29 97  1  0  0  0  0
 29 98  1  0  0  0  0
 30 31  1  0  0  0  0
 30 99  1  0  0  0  0
 30100  1  0  0  0  0
 31 32  2  0  0  0  0
 31101  1  0  0  0  0
 32 33  1  0  0  0  0
 32102  1  0  0  0  0
 34 35  1  0  0  0  0
 34103  1  0  0  0  0
 34104  1  0  0  0  0
 35 36  1  0  0  0  0
 35105  1  0  0  0  0
 35106  1  0  0  0  0
 36 37  1  0  0  0  0
 36107  1  0  0  0  0
 36108  1  0  0  0  0
 37 38  1  0  0  0  0
 37109  1  0  0  0  0
 37110  1  0  0  0  0
 38 50  1  0  0  0  0
 38111  1  6  0  0  0
 40 39  1  1  0  0  0
 40 41  1  0  0  0  0
 40 42  1  0  0  0  0
 41112  1  0  0  0  0
 41113  1  0  0  0  0
 41114  1  0  0  0  0
 42115  1  0  0  0  0
 42116  1  0  0  0  0
 43 44  1  0  0  0  0
 44 45  2  0  0  0  0
 44 49  1  0  0  0  0
 45 46  1  0  0  0  0
 45117  1  0  0  0  0
 46 47  2  0  0  0  0
 46118  1  0  0  0  0
 47 48  1  0  0  0  0
 47119  1  0  0  0  0
 48 49  2  0  0  0  0
 48120  1  0  0  0  0
 51 52  1  0  0  0  0
 51 53  1  0  0  0  0
 51121  1  1  0  0  0
 52122  1  0  0  0  0
 52123  1  0  0  0  0
 52124  1  0  0  0  0
 53 54  1  0  0  0  0
 53125  1  0  0  0  0
 53126  1  0  0  0  0
 55 56  1  0  0  0  0
 55 60  1  0  0  0  0
 55127  1  1  0  0  0
 56 57  1  0  0  0  0
 56128  1  0  0  0  0
 56129  1  0  0  0  0
 57 58  1  0  0  0  0
 57130  1  0  0  0  0
 57131  1  0  0  0  0
 58 59  1  0  0  0  0
 58132  1  0  0  0  0
 58133  1  0  0  0  0
 59134  1  0  0  0  0
 59135  1  0  0  0  0
M  END
$$$$
