/media/chris/experiments/cd1a-new-docking/inputs/ligands/7ryo_ligand.pdb
 OpenBabel07032304133D

135137  0  0  1  0  0  0  0  0999 V2000
  -37.9843   59.6092   60.1567 N   0  0  0  0  0  0  0  0  0  0  0  0
  -32.5290   59.7917   53.0481 C   0  0  0  0  0  0  0  0  0  0  0  0
  -37.6236   57.9151   58.7096 O   0  0  0  0  0  0  0  0  0  0  0  0
  -32.4752   58.3067   53.2942 C   0  0  0  0  0  0  0  0  0  0  0  0
  -33.6307   59.6738   61.5549 N   0  0  0  0  0  0  0  0  0  0  0  0
  -35.6230   60.7123   61.6331 O   0  0  0  0  0  0  0  0  0  0  0  0
  -33.6996   57.5702   52.7822 C   0  0  0  0  0  0  0  0  0  0  0  0
  -34.0918   62.9494   60.5215 N   0  0  0  0  0  0  0  0  0  0  0  0
  -32.0319   62.6868   59.6436 O   0  0  0  0  0  0  0  0  0  0  0  0
  -35.0127   58.0309   53.3944 C   0  0  0  0  0  0  0  0  0  0  0  0
  -33.5342   61.5470   66.8735 N   0  0  0  0  0  0  0  0  0  0  0  0
  -34.8341   65.6145   60.6261 O   0  0  0  0  0  0  0  0  0  0  0  0
  -35.3232   59.4975   53.1286 C   0  0  0  0  0  0  0  0  0  0  0  0
  -32.6935   64.6209   65.1594 N   0  0  0  0  0  0  0  0  0  0  0  0
  -32.0144   57.4691   63.2340 O   0  0  0  0  0  0  0  0  0  0  0  0
  -36.6265   59.9746   53.7506 C   0  0  0  0  0  0  0  0  0  0  0  0
  -32.6856   59.2067   64.5032 O   0  0  0  0  0  0  0  0  0  0  0  0
  -36.9516   61.4324   53.4756 C   0  0  0  0  0  0  0  0  0  0  0  0
  -32.3664   59.9013   67.8683 O   0  0  0  0  0  0  0  0  0  0  0  0
  -37.1085   61.7672   52.0013 C   0  0  0  0  0  0  0  0  0  0  0  0
  -32.7324   64.0345   67.3240 O   0  0  0  0  0  0  0  0  0  0  0  0
  -37.4157   63.2302   51.7500 C   0  0  0  0  0  0  0  0  0  0  0  0
  -38.6937   63.6853   52.4281 C   0  0  0  0  0  0  0  0  0  0  0  0
  -38.6825   63.5516   53.9376 C   0  0  0  0  0  0  0  0  0  0  0  0
  -39.9791   63.9983   54.5841 C   0  0  0  0  0  0  0  0  0  0  0  0
  -39.9725   63.8843   56.0995 C   0  0  0  0  0  0  0  0  0  0  0  0
  -39.7308   62.4720   56.5982 C   0  0  0  0  0  0  0  0  0  0  0  0
  -40.7579   61.4562   56.1265 C   0  0  0  0  0  0  0  0  0  0  0  0
  -40.5088   60.0521   56.6496 C   0  0  0  0  0  0  0  0  0  0  0  0
  -39.1556   59.4773   56.2492 C   0  0  0  0  0  0  0  0  0  0  0  0
  -38.0245   60.3050   56.7748 C   0  0  0  0  0  0  0  0  0  0  0  0
  -37.3921   60.1741   57.9330 C   0  0  0  0  0  0  0  0  0  0  0  0
  -37.6945   59.1333   58.9408 C   0  0  0  0  0  0  0  0  0  0  0  0
  -38.2360   58.7337   61.2903 C   0  0  0  0  0  0  0  0  0  0  0  0
  -36.9560   58.4330   62.0390 C   0  0  0  0  0  0  0  0  0  0  0  0
  -35.8780   57.7610   61.2090 C   0  0  0  0  0  0  0  0  0  0  0  0
  -34.6110   57.4590   62.0020 C   0  0  0  0  0  0  0  0  0  0  0  0
  -33.9807   58.7203   62.5945 C   0  0  1  0  0  0  0  0  0  0  0  0
  -34.5020   60.6047   61.1586 C   0  0  0  0  0  0  0  0  0  0  0  0
  -34.0610   61.5595   60.0371 C   0  0  1  0  0  0  0  0  0  0  0  0
  -35.0254   61.4209   58.8630 C   0  0  0  0  0  0  0  0  0  0  0  0
  -32.6027   61.3543   59.6010 C   0  0  0  0  0  0  0  0  0  0  0  0
  -32.9595   63.4607   60.2651 C   0  0  0  0  0  0  0  0  0  0  0  0
  -32.5411   64.8309   60.5703 C   0  0  0  0  0  0  0  0  0  0  0  0
  -31.2009   65.1105   60.8406 C   0  0  0  0  0  0  0  0  0  0  0  0
  -30.8314   66.3373   61.3646 C   0  0  0  0  0  0  0  0  0  0  0  0
  -31.7825   67.2995   61.6260 C   0  0  0  0  0  0  0  0  0  0  0  0
  -33.1179   67.0459   61.3712 C   0  0  0  0  0  0  0  0  0  0  0  0
  -33.5093   65.8181   60.8467 C   0  0  0  0  0  0  0  0  0  0  0  0
  -32.7733   58.3728   63.4524 C   0  0  0  0  0  0  0  0  0  0  0  0
  -31.3568   59.4821   65.0584 C   0  0  2  0  0  0  0  0  0  0  0  0
  -30.9768   58.3308   65.9549 C   0  0  0  0  0  0  0  0  0  0  0  0
  -31.4959   60.7854   65.8209 C   0  0  0  0  0  0  0  0  0  0  0  0
  -32.5001   60.7043   66.9491 C   0  0  0  0  0  0  0  0  0  0  0  0
  -33.6842   62.4802   65.7706 C   0  0  1  0  0  0  0  0  0  0  0  0
  -35.1701   62.7465   65.5044 C   0  0  0  0  0  0  0  0  0  0  0  0
  -35.4484   63.3297   64.1232 C   0  0  0  0  0  0  0  0  0  0  0  0
  -34.8148   64.6785   63.8457 C   0  0  0  0  0  0  0  0  0  0  0  0
  -33.3006   64.6614   63.8333 C   0  0  0  0  0  0  0  0  0  0  0  0
  -32.9951   63.7808   66.1520 C   0  0  0  0  0  0  0  0  0  0  0  0
  -38.0287   60.5838   60.2886 H   0  0  0  0  0  0  0  0  0  0  0  0
  -31.6407   60.2491   53.4308 H   0  0  0  0  0  0  0  0  0  0  0  0
  -33.3839   60.2043   53.5419 H   0  0  0  0  0  0  0  0  0  0  0  0
  -32.6008   59.9766   51.9966 H   0  0  0  0  0  0  0  0  0  0  0  0
  -32.3938   58.1396   54.3479 H   0  0  0  0  0  0  0  0  0  0  0  0
  -31.6295   57.9267   52.7600 H   0  0  0  0  0  0  0  0  0  0  0  0
  -32.7399   59.6327   61.1377 H   0  0  0  0  0  0  0  0  0  0  0  0
  -33.5777   56.5290   52.9969 H   0  0  0  0  0  0  0  0  0  0  0  0
  -33.7631   57.7759   51.7341 H   0  0  0  0  0  0  0  0  0  0  0  0
  -34.9643   57.8811   54.4527 H   0  0  0  0  0  0  0  0  0  0  0  0
  -35.7919   57.4559   52.9392 H   0  0  0  0  0  0  0  0  0  0  0  0
  -34.2138   61.5351   67.5856 H   0  0  0  0  0  0  0  0  0  0  0  0
  -35.1304   64.7984   60.2736 H   0  0  0  0  0  0  0  0  0  0  0  0
  -35.3822   59.6428   52.0701 H   0  0  0  0  0  0  0  0  0  0  0  0
  -34.5375   60.0677   53.5786 H   0  0  0  0  0  0  0  0  0  0  0  0
  -31.9874   65.2825   65.3412 H   0  0  0  0  0  0  0  0  0  0  0  0
  -36.5617   59.8395   54.8101 H   0  0  0  0  0  0  0  0  0  0  0  0
  -37.4090   59.3961   53.3057 H   0  0  0  0  0  0  0  0  0  0  0  0
  -36.1613   62.0337   53.8741 H   0  0  0  0  0  0  0  0  0  0  0  0
  -37.8958   61.6301   53.9384 H   0  0  0  0  0  0  0  0  0  0  0  0
  -37.9079   61.1785   51.6022 H   0  0  0  0  0  0  0  0  0  0  0  0
  -36.1745   61.5523   51.5255 H   0  0  0  0  0  0  0  0  0  0  0  0
  -37.5146   63.3830   50.6956 H   0  0  0  0  0  0  0  0  0  0  0  0
  -36.6108   63.8042   52.1595 H   0  0  0  0  0  0  0  0  0  0  0  0
  -39.5027   63.0984   52.0460 H   0  0  0  0  0  0  0  0  0  0  0  0
  -38.7984   64.7285   52.2143 H   0  0  0  0  0  0  0  0  0  0  0  0
  -37.8846   64.1492   54.3265 H   0  0  0  0  0  0  0  0  0  0  0  0
  -38.5536   62.5140   54.1650 H   0  0  0  0  0  0  0  0  0  0  0  0
  -40.7740   63.3922   54.2025 H   0  0  0  0  0  0  0  0  0  0  0  0
  -40.1081   65.0337   54.3472 H   0  0  0  0  0  0  0  0  0  0  0  0
  -40.9204   64.2164   56.4684 H   0  0  0  0  0  0  0  0  0  0  0  0
  -39.1644   64.4875   56.4574 H   0  0  0  0  0  0  0  0  0  0  0  0
  -39.7427   62.4881   57.6680 H   0  0  0  0  0  0  0  0  0  0  0  0
  -38.7884   62.1631   56.1965 H   0  0  0  0  0  0  0  0  0  0  0  0
  -40.7386   61.4272   55.0571 H   0  0  0  0  0  0  0  0  0  0  0  0
  -41.7072   61.7694   56.5079 H   0  0  0  0  0  0  0  0  0  0  0  0
  -41.2745   59.4094   56.2681 H   0  0  0  0  0  0  0  0  0  0  0  0
  -40.5183   60.1115   57.7179 H   0  0  0  0  0  0  0  0  0  0  0  0
  -39.0948   59.4453   55.1814 H   0  0  0  0  0  0  0  0  0  0  0  0
  -39.0732   58.4960   56.6678 H   0  0  0  0  0  0  0  0  0  0  0  0
  -37.6978   61.0688   56.1625 H   0  0  0  0  0  0  0  0  0  0  0  0
  -36.6369   60.8443   58.1463 H   0  0  0  0  0  0  0  0  0  0  0  0
  -38.6582   57.8163   60.9368 H   0  0  0  0  0  0  0  0  0  0  0  0
  -38.9129   59.2259   61.9570 H   0  0  0  0  0  0  0  0  0  0  0  0
  -37.1937   57.7896   62.8603 H   0  0  0  0  0  0  0  0  0  0  0  0
  -36.5565   59.3772   62.3453 H   0  0  0  0  0  0  0  0  0  0  0  0
  -35.6238   58.4067   60.3945 H   0  0  0  0  0  0  0  0  0  0  0  0
  -36.2729   56.8255   60.8717 H   0  0  0  0  0  0  0  0  0  0  0  0
  -33.9009   56.9930   61.3512 H   0  0  0  0  0  0  0  0  0  0  0  0
  -34.8793   56.8156   62.8138 H   0  0  0  0  0  0  0  0  0  0  0  0
  -34.7094   59.1851   63.2253 H   0  0  0  0  0  0  0  0  0  0  0  0
  -36.0281   61.5700   59.2056 H   0  0  0  0  0  0  0  0  0  0  0  0
  -34.9347   60.4420   58.4406 H   0  0  0  0  0  0  0  0  0  0  0  0
  -34.7899   62.1534   58.1195 H   0  0  0  0  0  0  0  0  0  0  0  0
  -32.0923   60.7003   60.2767 H   0  0  0  0  0  0  0  0  0  0  0  0
  -32.5220   60.9029   58.6342 H   0  0  0  0  0  0  0  0  0  0  0  0
  -30.4801   64.3974   60.6486 H   0  0  0  0  0  0  0  0  0  0  0  0
  -29.8372   66.5326   61.5606 H   0  0  0  0  0  0  0  0  0  0  0  0
  -31.4972   68.2125   62.0132 H   0  0  0  0  0  0  0  0  0  0  0  0
  -33.8262   67.7695   61.5708 H   0  0  0  0  0  0  0  0  0  0  0  0
  -30.5893   59.5766   64.3190 H   0  0  0  0  0  0  0  0  0  0  0  0
  -31.7241   58.2051   66.7103 H   0  0  0  0  0  0  0  0  0  0  0  0
  -30.0335   58.5347   66.4169 H   0  0  0  0  0  0  0  0  0  0  0  0
  -30.9031   57.4354   65.3737 H   0  0  0  0  0  0  0  0  0  0  0  0
  -31.8098   61.5479   65.1390 H   0  0  0  0  0  0  0  0  0  0  0  0
  -30.5432   61.0062   66.2550 H   0  0  0  0  0  0  0  0  0  0  0  0
  -33.2467   62.0705   64.8842 H   0  0  0  0  0  0  0  0  0  0  0  0
  -35.5274   63.4357   66.2407 H   0  0  0  0  0  0  0  0  0  0  0  0
  -35.6714   61.8024   65.5529 H   0  0  0  0  0  0  0  0  0  0  0  0
  -36.5079   63.4349   64.0170 H   0  0  0  0  0  0  0  0  0  0  0  0
  -35.0108   62.6494   63.4229 H   0  0  0  0  0  0  0  0  0  0  0  0
  -35.1366   65.3627   64.6028 H   0  0  0  0  0  0  0  0  0  0  0  0
  -35.1273   64.9694   62.8646 H   0  0  0  0  0  0  0  0  0  0  0  0
  -32.9789   63.7975   63.2901 H   0  0  0  0  0  0  0  0  0  0  0  0
  -32.9858   65.5772   63.3782 H   0  0  0  0  0  0  0  0  0  0  0  0
  1 33  1  0  0  0  0
  1 34  1  0  0  0  0
  1 61  1  0  0  0  0
  2  4  1  0  0  0  0
  2 62  1  0  0  0  0
  2 63  1  0  0  0  0
  2 64  1  0  0  0  0
  3 33  2  0  0  0  0
  4  7  1  0  0  0  0
  4 65  1  0  0  0  0
  4 66  1  0  0  0  0
  5 38  1  0  0  0  0
  5 39  1  0  0  0  0
  5 67  1  0  0  0  0
  6 39  2  0  0  0  0
  7 10  1  0  0  0  0
  7 68  1  0  0  0  0
  7 69  1  0  0  0  0
  8 40  1  0  0  0  0
  8 43  2  0  0  0  0
  9 42  1  0  0  0  0
  9 43  1  0  0  0  0
 10 13  1  0  0  0  0
 10 70  1  0  0  0  0
 10 71  1  0  0  0  0
 11 54  1  0  0  0  0
 11 55  1  0  0  0  0
 11 72  1  0  0  0  0
 12 49  1  0  0  0  0
 12 73  1  0  0  0  0
 13 16  1  0  0  0  0
 13 74  1  0  0  0  0
 13 75  1  0  0  0  0
 14 59  1  0  0  0  0
 14 60  1  0  0  0  0
 14 76  1  0  0  0  0
 15 50  2  0  0  0  0
 16 18  1  0  0  0  0
 16 77  1  0  0  0  0
 16 78  1  0  0  0  0
 17 50  1  0  0  0  0
 17 51  1  0  0  0  0
 18 20  1  0  0  0  0
 18 79  1  0  0  0  0
 18 80  1  0  0  0  0
 19 54  2  0  0  0  0
 20 22  1  0  0  0  0
 20 81  1  0  0  0  0
 20 82  1  0  0  0  0
 21 60  2  0  0  0  0
 22 23  1  0  0  0  0
 22 83  1  0  0  0  0
 22 84  1  0  0  0  0
 23 24  1  0  0  0  0
 23 85  1  0  0  0  0
 23 86  1  0  0  0  0
 24 25  1  0  0  0  0
 24 87  1  0  0  0  0
 24 88  1  0  0  0  0
 25 26  1  0  0  0  0
 25 89  1  0  0  0  0
 25 90  1  0  0  0  0
 26 27  1  0  0  0  0
 26 91  1  0  0  0  0
 26 92  1  0  0  0  0
 27 28  1  0  0  0  0
 27 93  1  0  0  0  0
 27 94  1  0  0  0  0
 28 29  1  0  0  0  0
 28 95  1  0  0  0  0
 28 96  1  0  0  0  0
 29 30  1  0  0  0  0
 29 97  1  0  0  0  0
 29 98  1  0  0  0  0
 30 31  1  0  0  0  0
 30 99  1  0  0  0  0
 30100  1  0  0  0  0
 31 32  2  0  0  0  0
 31101  1  0  0  0  0
 32 33  1  0  0  0  0
 32102  1  0  0  0  0
 34 35  1  0  0  0  0
 34103  1  0  0  0  0
 34104  1  0  0  0  0
 35 36  1  0  0  0  0
 35105  1  0  0  0  0
 35106  1  0  0  0  0
 36 37  1  0  0  0  0
 36107  1  0  0  0  0
 36108  1  0  0  0  0
 37 38  1  0  0  0  0
 37109  1  0  0  0  0
 37110  1  0  0  0  0
 38 50  1  0  0  0  0
 38111  1  1  0  0  0
 40 39  1  1  0  0  0
 40 41  1  0  0  0  0
 40 42  1  0  0  0  0
 41112  1  0  0  0  0
 41113  1  0  0  0  0
 41114  1  0  0  0  0
 42115  1  0  0  0  0
 42116  1  0  0  0  0
 43 44  1  0  0  0  0
 44 45  2  0  0  0  0
 44 49  1  0  0  0  0
 45 46  1  0  0  0  0
 45117  1  0  0  0  0
 46 47  2  0  0  0  0
 46118  1  0  0  0  0
 47 48  1  0  0  0  0
 47119  1  0  0  0  0
 48 49  2  0  0  0  0
 48120  1  0  0  0  0
 51 52  1  0  0  0  0
 51 53  1  0  0  0  0
 51121  1  6  0  0  0
 52122  1  0  0  0  0
 52123  1  0  0  0  0
 52124  1  0  0  0  0
 53 54  1  0  0  0  0
 53125  1  0  0  0  0
 53126  1  0  0  0  0
 55 56  1  0  0  0  0
 55 60  1  0  0  0  0
 55127  1  6  0  0  0
 56 57  1  0  0  0  0
 56128  1  0  0  0  0
 56129  1  0  0  0  0
 57 58  1  0  0  0  0
 57130  1  0  0  0  0
 57131  1  0  0  0  0
 58 59  1  0  0  0  0
 58132  1  0  0  0  0
 58133  1  0  0  0  0
 59134  1  0  0  0  0
 59135  1  0  0  0  0
M  END
$$$$