/media/chris/experiments/cd1a-new-docking/inputs/ligands/7ryo_ligand.pdb
 OpenBabel07032304133D

135137  0  0  1  0  0  0  0  0999 V2000
  -38.8442   57.5132   60.7850 N   0  0  0  0  0  0  0  0  0  0  0  0
  -43.5499   53.0247   56.6911 C   0  0  0  0  0  0  0  0  0  0  0  0
  -40.5035   56.4794   59.6572 O   0  0  0  0  0  0  0  0  0  0  0  0
  -44.7153   53.1304   57.6393 C   0  0  0  0  0  0  0  0  0  0  0  0
  -33.1324   57.6580   60.0424 N   0  0  0  0  0  0  0  0  0  0  0  0
  -30.9871   57.7601   60.7067 O   0  0  0  0  0  0  0  0  0  0  0  0
  -45.5106   54.4122   57.4702 C   0  0  0  0  0  0  0  0  0  0  0  0
  -30.4303   59.8990   59.1057 N   0  0  0  0  0  0  0  0  0  0  0  0
  -29.7911   58.9602   57.1582 O   0  0  0  0  0  0  0  0  0  0  0  0
  -46.1309   54.5908   56.0938 C   0  0  0  0  0  0  0  0  0  0  0  0
  -37.6298   57.4051   57.4668 N   0  0  0  0  0  0  0  0  0  0  0  0
  -28.5932   61.4178   60.3780 O   0  0  0  0  0  0  0  0  0  0  0  0
  -45.1085   54.6042   54.9658 C   0  0  0  0  0  0  0  0  0  0  0  0
  -38.0804   60.9411   58.0888 N   0  0  0  0  0  0  0  0  0  0  0  0
  -33.3116   54.6686   60.0224 O   0  0  0  0  0  0  0  0  0  0  0  0
  -44.0689   55.7074   55.0888 C   0  0  0  0  0  0  0  0  0  0  0  0
  -35.2791   55.2259   60.9704 O   0  0  0  0  0  0  0  0  0  0  0  0
  -44.6490   57.1109   55.1110 C   0  0  0  0  0  0  0  0  0  0  0  0
  -37.4424   55.1680   57.3179 O   0  0  0  0  0  0  0  0  0  0  0  0
  -45.4553   57.4702   53.8737 C   0  0  0  0  0  0  0  0  0  0  0  0
  -38.4718   59.6364   56.3068 O   0  0  0  0  0  0  0  0  0  0  0  0
  -46.0099   58.8806   53.9105 C   0  0  0  0  0  0  0  0  0  0  0  0
  -46.9227   59.1203   55.0977 C   0  0  0  0  0  0  0  0  0  0  0  0
  -46.2558   58.9372   56.4462 C   0  0  0  0  0  0  0  0  0  0  0  0
  -47.1978   59.1670   57.6118 C   0  0  0  0  0  0  0  0  0  0  0  0
  -46.5349   59.0026   58.9695 C   0  0  0  0  0  0  0  0  0  0  0  0
  -45.9400   57.6243   59.1884 C   0  0  0  0  0  0  0  0  0  0  0  0
  -44.8534   57.2455   58.1960 C   0  0  0  0  0  0  0  0  0  0  0  0
  -43.6526   58.1752   58.2252 C   0  0  0  0  0  0  0  0  0  0  0  0
  -42.9389   58.2165   59.5709 C   0  0  0  0  0  0  0  0  0  0  0  0
  -41.7754   59.1581   59.5524 C   0  0  0  0  0  0  0  0  0  0  0  0
  -40.4989   58.8764   59.7760 C   0  0  0  0  0  0  0  0  0  0  0  0
  -39.9788   57.5239   60.0769 C   0  0  0  0  0  0  0  0  0  0  0  0
  -38.2360   58.7337   61.2903 C   0  0  0  0  0  0  0  0  0  0  0  0
  -36.9560   58.4330   62.0390 C   0  0  0  0  0  0  0  0  0  0  0  0
  -35.8780   57.7610   61.2090 C   0  0  0  0  0  0  0  0  0  0  0  0
  -34.6110   57.4590   62.0020 C   0  0  0  0  0  0  0  0  0  0  0  0
  -33.5311   56.7980   61.1441 C   0  0  1  0  0  0  0  0  0  0  0  0
  -31.8686   58.0712   59.9196 C   0  0  0  0  0  0  0  0  0  0  0  0
  -31.5354   58.9980   58.7389 C   0  0  1  0  0  0  0  0  0  0  0  0
  -32.7674   59.8333   58.4040 C   0  0  0  0  0  0  0  0  0  0  0  0
  -31.0056   58.2488   57.5073 C   0  0  0  0  0  0  0  0  0  0  0  0
  -29.5501   59.8013   58.1974 C   0  0  0  0  0  0  0  0  0  0  0  0
  -28.2757   60.5219   58.1482 C   0  0  0  0  0  0  0  0  0  0  0  0
  -27.4027   60.3290   57.0768 C   0  0  0  0  0  0  0  0  0  0  0  0
  -26.1047   60.8068   57.1339 C   0  0  0  0  0  0  0  0  0  0  0  0
  -25.6574   61.4799   58.2499 C   0  0  0  0  0  0  0  0  0  0  0  0
  -26.5012   61.6804   59.3271 C   0  0  0  0  0  0  0  0  0  0  0  0
  -27.8086   61.2058   59.2895 C   0  0  0  0  0  0  0  0  0  0  0  0
  -33.9929   55.4382   60.6419 C   0  0  0  0  0  0  0  0  0  0  0  0
  -36.2431   55.0100   59.8870 C   0  0  2  0  0  0  0  0  0  0  0  0
  -35.8198   53.7813   59.1223 C   0  0  0  0  0  0  0  0  0  0  0  0
  -36.1893   56.2651   59.0377 C   0  0  0  0  0  0  0  0  0  0  0  0
  -37.1452   56.2257   57.8661 C   0  0  0  0  0  0  0  0  0  0  0  0
  -37.2556   58.6484   58.1177 C   0  0  1  0  0  0  0  0  0  0  0  0
  -35.7430   58.8687   58.0028 C   0  0  0  0  0  0  0  0  0  0  0  0
  -35.1932   59.8717   59.0112 C   0  0  0  0  0  0  0  0  0  0  0  0
  -35.7432   61.2795   58.8960 C   0  0  0  0  0  0  0  0  0  0  0  0
  -37.2260   61.3913   59.1824 C   0  0  0  0  0  0  0  0  0  0  0  0
  -37.9890   59.7863   57.4254 C   0  0  0  0  0  0  0  0  0  0  0  0
  -38.4065   56.6510   60.9702 H   0  0  0  0  0  0  0  0  0  0  0  0
  -43.0339   52.1030   56.8615 H   0  0  0  0  0  0  0  0  0  0  0  0
  -42.8811   53.8436   56.8553 H   0  0  0  0  0  0  0  0  0  0  0  0
  -43.9069   53.0525   55.6828 H   0  0  0  0  0  0  0  0  0  0  0  0
  -44.3427   53.0913   58.6416 H   0  0  0  0  0  0  0  0  0  0  0  0
  -45.3753   52.3163   57.4234 H   0  0  0  0  0  0  0  0  0  0  0  0
  -33.8025   57.9396   59.3784 H   0  0  0  0  0  0  0  0  0  0  0  0
  -44.8556   55.2386   57.6516 H   0  0  0  0  0  0  0  0  0  0  0  0
  -46.3219   54.3617   58.1660 H   0  0  0  0  0  0  0  0  0  0  0  0
  -46.6634   55.5188   56.0798 H   0  0  0  0  0  0  0  0  0  0  0  0
  -46.7742   53.7522   55.9266 H   0  0  0  0  0  0  0  0  0  0  0  0
  -38.2585   57.4321   56.7096 H   0  0  0  0  0  0  0  0  0  0  0  0
  -29.4784   61.1107   60.3844 H   0  0  0  0  0  0  0  0  0  0  0  0
  -45.6296   54.7341   54.0404 H   0  0  0  0  0  0  0  0  0  0  0  0
  -44.5813   53.6743   55.0136 H   0  0  0  0  0  0  0  0  0  0  0  0
  -38.7998   61.5532   57.8110 H   0  0  0  0  0  0  0  0  0  0  0  0
  -43.4013   55.6336   54.2558 H   0  0  0  0  0  0  0  0  0  0  0  0
  -43.5776   55.5632   56.0283 H   0  0  0  0  0  0  0  0  0  0  0  0
  -43.8410   57.8069   55.1990 H   0  0  0  0  0  0  0  0  0  0  0  0
  -45.3233   57.1523   55.9407 H   0  0  0  0  0  0  0  0  0  0  0  0
  -46.2732   56.7853   53.7901 H   0  0  0  0  0  0  0  0  0  0  0  0
  -44.7937   57.4107   53.0349 H   0  0  0  0  0  0  0  0  0  0  0  0
  -46.5644   59.0538   53.0120 H   0  0  0  0  0  0  0  0  0  0  0  0
  -45.1810   59.5513   53.9998 H   0  0  0  0  0  0  0  0  0  0  0  0
  -47.7421   58.4352   55.0337 H   0  0  0  0  0  0  0  0  0  0  0  0
  -47.2302   60.1438   55.0451 H   0  0  0  0  0  0  0  0  0  0  0  0
  -45.4448   59.6310   56.5220 H   0  0  0  0  0  0  0  0  0  0  0  0
  -45.9215   57.9223   56.5016 H   0  0  0  0  0  0  0  0  0  0  0  0
  -48.0021   58.4650   57.5406 H   0  0  0  0  0  0  0  0  0  0  0  0
  -47.5360   60.1802   57.5477 H   0  0  0  0  0  0  0  0  0  0  0  0
  -47.2682   59.1797   59.7283 H   0  0  0  0  0  0  0  0  0  0  0  0
  -45.7285   59.7045   59.0135 H   0  0  0  0  0  0  0  0  0  0  0  0
  -46.7277   56.9040   59.1135 H   0  0  0  0  0  0  0  0  0  0  0  0
  -45.4800   57.6398   60.1544 H   0  0  0  0  0  0  0  0  0  0  0  0
  -45.2724   57.2650   57.2117 H   0  0  0  0  0  0  0  0  0  0  0  0
  -44.5035   56.2722   58.4701 H   0  0  0  0  0  0  0  0  0  0  0  0
  -43.9860   59.1643   57.9898 H   0  0  0  0  0  0  0  0  0  0  0  0
  -42.9499   57.7989   57.5114 H   0  0  0  0  0  0  0  0  0  0  0  0
  -42.5862   57.2342   59.8066 H   0  0  0  0  0  0  0  0  0  0  0  0
  -43.6349   58.5611   60.3069 H   0  0  0  0  0  0  0  0  0  0  0  0
  -41.9925   60.1444   59.3404 H   0  0  0  0  0  0  0  0  0  0  0  0
  -39.8215   59.6540   59.7374 H   0  0  0  0  0  0  0  0  0  0  0  0
  -38.9228   59.2185   61.9523 H   0  0  0  0  0  0  0  0  0  0  0  0
  -38.0041   59.3676   60.4601 H   0  0  0  0  0  0  0  0  0  0  0  0
  -37.1937   57.7896   62.8603 H   0  0  0  0  0  0  0  0  0  0  0  0
  -36.5565   59.3772   62.3453 H   0  0  0  0  0  0  0  0  0  0  0  0
  -35.6238   58.4067   60.3945 H   0  0  0  0  0  0  0  0  0  0  0  0
  -36.2729   56.8255   60.8717 H   0  0  0  0  0  0  0  0  0  0  0  0
  -34.8590   56.8018   62.8091 H   0  0  0  0  0  0  0  0  0  0  0  0
  -34.2203   58.3886   62.3599 H   0  0  0  0  0  0  0  0  0  0  0  0
  -32.6704   56.6456   61.7612 H   0  0  0  0  0  0  0  0  0  0  0  0
  -33.1059   60.3384   59.2844 H   0  0  0  0  0  0  0  0  0  0  0  0
  -33.5437   59.1935   58.0392 H   0  0  0  0  0  0  0  0  0  0  0  0
  -32.5168   60.5536   57.6535 H   0  0  0  0  0  0  0  0  0  0  0  0
  -30.7928   57.2277   57.7459 H   0  0  0  0  0  0  0  0  0  0  0  0
  -31.7131   58.2242   56.7049 H   0  0  0  0  0  0  0  0  0  0  0  0
  -27.7270   59.8265   56.2359 H   0  0  0  0  0  0  0  0  0  0  0  0
  -25.4681   60.6579   56.3354 H   0  0  0  0  0  0  0  0  0  0  0  0
  -24.6892   61.8356   58.2820 H   0  0  0  0  0  0  0  0  0  0  0  0
  -26.1602   62.1834   60.1612 H   0  0  0  0  0  0  0  0  0  0  0  0
  -37.2449   54.8453   60.2247 H   0  0  0  0  0  0  0  0  0  0  0  0
  -34.8186   53.9095   58.7673 H   0  0  0  0  0  0  0  0  0  0  0  0
  -36.4770   53.6347   58.2907 H   0  0  0  0  0  0  0  0  0  0  0  0
  -35.8634   52.9279   59.7662 H   0  0  0  0  0  0  0  0  0  0  0  0
  -35.1941   56.3807   58.6623 H   0  0  0  0  0  0  0  0  0  0  0  0
  -36.4786   57.0860   59.6600 H   0  0  0  0  0  0  0  0  0  0  0  0
  -37.5171   58.6102   59.1545 H   0  0  0  0  0  0  0  0  0  0  0  0
  -35.5273   59.2266   57.0178 H   0  0  0  0  0  0  0  0  0  0  0  0
  -35.2730   57.9293   58.2068 H   0  0  0  0  0  0  0  0  0  0  0  0
  -34.1321   59.9205   58.8829 H   0  0  0  0  0  0  0  0  0  0  0  0
  -35.4947   59.5159   59.9743 H   0  0  0  0  0  0  0  0  0  0  0  0
  -35.5664   61.6285   57.9001 H   0  0  0  0  0  0  0  0  0  0  0  0
  -35.2416   61.8674   59.6361 H   0  0  0  0  0  0  0  0  0  0  0  0
  -37.4467   60.8000   60.0463 H   0  0  0  0  0  0  0  0  0  0  0  0
  -37.4341   62.4307   59.3282 H   0  0  0  0  0  0  0  0  0  0  0  0
  1 33  1  0  0  0  0
  1 34  1  0  0  0  0
  1 61  1  0  0  0  0
  2  4  1  0  0  0  0
  2 62  1  0  0  0  0
  2 63  1  0  0  0  0
  2 64  1  0  0  0  0
  3 33  2  0  0  0  0
  4  7  1  0  0  0  0
  4 65  1  0  0  0  0
  4 66  1  0  0  0  0
  5 38  1  0  0  0  0
  5 39  1  0  0  0  0
  5 67  1  0  0  0  0
  6 39  2  0  0  0  0
  7 10  1  0  0  0  0
  7 68  1  0  0  0  0
  7 69  1  0  0  0  0
  8 40  1  0  0  0  0
  8 43  2  0  0  0  0
  9 42  1  0  0  0  0
  9 43  1  0  0  0  0
 10 13  1  0  0  0  0
 10 70  1  0  0  0  0
 10 71  1  0  0  0  0
 11 54  1  0  0  0  0
 11 55  1  0  0  0  0
 11 72  1  0  0  0  0
 12 49  1  0  0  0  0
 12 73  1  0  0  0  0
 13 16  1  0  0  0  0
 13 74  1  0  0  0  0
 13 75  1  0  0  0  0
 14 59  1  0  0  0  0
 14 60  1  0  0  0  0
 14 76  1  0  0  0  0
 15 50  2  0  0  0  0
 16 18  1  0  0  0  0
 16 77  1  0  0  0  0
 16 78  1  0  0  0  0
 17 50  1  0  0  0  0
 17 51  1  0  0  0  0
 18 20  1  0  0  0  0
 18 79  1  0  0  0  0
 18 80  1  0  0  0  0
 19 54  2  0  0  0  0
 20 22  1  0  0  0  0
 20 81  1  0  0  0  0
 20 82  1  0  0  0  0
 21 60  2  0  0  0  0
 22 23  1  0  0  0  0
 22 83  1  0  0  0  0
 22 84  1  0  0  0  0
 23 24  1  0  0  0  0
 23 85  1  0  0  0  0
 23 86  1  0  0  0  0
 24 25  1  0  0  0  0
 24 87  1  0  0  0  0
 24 88  1  0  0  0  0
 25 26  1  0  0  0  0
 25 89  1  0  0  0  0
 25 90  1  0  0  0  0
 26 27  1  0  0  0  0
 26 91  1  0  0  0  0
 26 92  1  0  0  0  0
 27 28  1  0  0  0  0
 27 93  1  0  0  0  0
 27 94  1  0  0  0  0
 28 29  1  0  0  0  0
 28 95  1  0  0  0  0
 28 96  1  0  0  0  0
 29 30  1  0  0  0  0
 29 97  1  0  0  0  0
 29 98  1  0  0  0  0
 30 31  1  0  0  0  0
 30 99  1  0  0  0  0
 30100  1  0  0  0  0
 31 32  2  0  0  0  0
 31101  1  0  0  0  0
 32 33  1  0  0  0  0
 32102  1  0  0  0  0
 34 35  1  0  0  0  0
 34103  1  0  0  0  0
 34104  1  0  0  0  0
 35 36  1  0  0  0  0
 35105  1  0  0  0  0
 35106  1  0  0  0  0
 36 37  1  0  0  0  0
 36107  1  0  0  0  0
 36108  1  0  0  0  0
 37 38  1  0  0  0  0
 37109  1  0  0  0  0
 37110  1  0  0  0  0
 38 50  1  0  0  0  0
 38111  1  1  0  0  0
 40 39  1  1  0  0  0
 40 41  1  0  0  0  0
 40 42  1  0  0  0  0
 41112  1  0  0  0  0
 41113  1  0  0  0  0
 41114  1  0  0  0  0
 42115  1  0  0  0  0
 42116  1  0  0  0  0
 43 44  1  0  0  0  0
 44 45  2  0  0  0  0
 44 49  1  0  0  0  0
 45 46  1  0  0  0  0
 45117  1  0  0  0  0
 46 47  2  0  0  0  0
 46118  1  0  0  0  0
 47 48  1  0  0  0  0
 47119  1  0  0  0  0
 48 49  2  0  0  0  0
 48120  1  0  0  0  0
 51 52  1  0  0  0  0
 51 53  1  0  0  0  0
 51121  1  1  0  0  0
 52122  1  0  0  0  0
 52123  1  0  0  0  0
 52124  1  0  0  0  0
 53 54  1  0  0  0  0
 53125  1  0  0  0  0
 53126  1  0  0  0  0
 55 56  1  0  0  0  0
 55 60  1  0  0  0  0
 55127  1  1  0  0  0
 56 57  1  0  0  0  0
 56128  1  0  0  0  0
 56129  1  0  0  0  0
 57 58  1  0  0  0  0
 57130  1  0  0  0  0
 57131  1  0  0  0  0
 58 59  1  0  0  0  0
 58132  1  0  0  0  0
 58133  1  0  0  0  0
 59134  1  0  0  0  0
 59135  1  0  0  0  0
M  END
$$$$