/media/chris/experiments/cd1a-new-docking/inputs/ligands/7ryo_ligand.pdb
 OpenBabel07032304133D

135137  0  0  1  0  0  0  0  0999 V2000
  -36.3215   57.3918   64.1597 N   0  0  0  0  0  0  0  0  0  0  0  0
  -35.3392   65.6077   72.5446 C   0  0  0  0  0  0  0  0  0  0  0  0
  -35.9321   59.5812   64.5455 O   0  0  0  0  0  0  0  0  0  0  0  0
  -34.8572   65.5604   73.9707 C   0  0  0  0  0  0  0  0  0  0  0  0
  -33.1324   57.6580   60.0424 N   0  0  0  0  0  0  0  0  0  0  0  0
  -35.2034   57.7505   59.1729 O   0  0  0  0  0  0  0  0  0  0  0  0
  -33.3578   65.3563   74.0896 C   0  0  0  0  0  0  0  0  0  0  0  0
  -32.4979   58.2313   57.2076 N   0  0  0  0  0  0  0  0  0  0  0  0
  -33.9877   58.9649   55.6827 O   0  0  0  0  0  0  0  0  0  0  0  0
  -32.8435   65.2874   75.5185 C   0  0  0  0  0  0  0  0  0  0  0  0
  -32.0963   53.5270   63.3908 N   0  0  0  0  0  0  0  0  0  0  0  0
  -31.5015   55.7543   56.1385 O   0  0  0  0  0  0  0  0  0  0  0  0
  -31.3355   65.0996   75.6111 C   0  0  0  0  0  0  0  0  0  0  0  0
  -30.3093   56.0115   65.3215 N   0  0  0  0  0  0  0  0  0  0  0  0
  -34.9053   55.2614   59.8825 O   0  0  0  0  0  0  0  0  0  0  0  0
  -30.8290   63.8344   74.9359 C   0  0  0  0  0  0  0  0  0  0  0  0
  -33.2496   54.4578   61.1839 O   0  0  0  0  0  0  0  0  0  0  0  0
  -31.1164   63.7650   73.4462 C   0  0  0  0  0  0  0  0  0  0  0  0
  -30.8225   51.7451   62.8768 O   0  0  0  0  0  0  0  0  0  0  0  0
  -30.6244   62.4924   72.7765 C   0  0  0  0  0  0  0  0  0  0  0  0
  -30.7434   55.7933   63.1318 O   0  0  0  0  0  0  0  0  0  0  0  0
  -31.2575   61.2364   73.3420 C   0  0  0  0  0  0  0  0  0  0  0  0
  -30.7462   59.9725   72.6777 C   0  0  0  0  0  0  0  0  0  0  0  0
  -30.9837   59.9122   71.1821 C   0  0  0  0  0  0  0  0  0  0  0  0
  -30.4771   58.6303   70.5505 C   0  0  0  0  0  0  0  0  0  0  0  0
  -30.6949   58.5667   69.0478 C   0  0  0  0  0  0  0  0  0  0  0  0
  -32.1532   58.6746   68.6436 C   0  0  0  0  0  0  0  0  0  0  0  0
  -32.8255   59.9716   69.0620 C   0  0  0  0  0  0  0  0  0  0  0  0
  -34.2889   60.0539   68.6635 C   0  0  0  0  0  0  0  0  0  0  0  0
  -34.5254   59.9397   67.1625 C   0  0  0  0  0  0  0  0  0  0  0  0
  -34.0382   58.6314   66.6227 C   0  0  0  0  0  0  0  0  0  0  0  0
  -34.5178   57.9488   65.5919 C   0  0  0  0  0  0  0  0  0  0  0  0
  -35.6529   58.3884   64.7501 C   0  0  0  0  0  0  0  0  0  0  0  0
  -37.4201   57.6362   63.2386 C   0  0  0  0  0  0  0  0  0  0  0  0
  -36.9560   58.4330   62.0390 C   0  0  0  0  0  0  0  0  0  0  0  0
  -35.8780   57.7610   61.2090 C   0  0  0  0  0  0  0  0  0  0  0  0
  -34.6110   57.4590   62.0020 C   0  0  0  0  0  0  0  0  0  0  0  0
  -33.5311   56.7980   61.1441 C   0  0  1  0  0  0  0  0  0  0  0  0
  -34.0234   58.0662   59.1357 C   0  0  0  0  0  0  0  0  0  0  0  0
  -33.5145   58.9550   57.9889 C   0  0  1  0  0  0  0  0  0  0  0  0
  -32.8843   60.2121   58.5810 C   0  0  0  0  0  0  0  0  0  0  0  0
  -34.5984   59.2961   56.9557 C   0  0  0  0  0  0  0  0  0  0  0  0
  -32.8468   58.2943   55.9895 C   0  0  0  0  0  0  0  0  0  0  0  0
  -32.1281   57.7119   54.8538 C   0  0  0  0  0  0  0  0  0  0  0  0
  -32.1948   58.3165   53.5979 C   0  0  0  0  0  0  0  0  0  0  0  0
  -31.7298   57.6549   52.4744 C   0  0  0  0  0  0  0  0  0  0  0  0
  -31.1943   56.3898   52.5813 C   0  0  0  0  0  0  0  0  0  0  0  0
  -31.1209   55.7665   53.8137 C   0  0  0  0  0  0  0  0  0  0  0  0
  -31.5850   56.4145   54.9542 C   0  0  0  0  0  0  0  0  0  0  0  0
  -33.9929   55.4382   60.6419 C   0  0  0  0  0  0  0  0  0  0  0  0
  -33.8810   53.1533   61.4055 C   0  0  2  0  0  0  0  0  0  0  0  0
  -34.6843   53.2328   62.6791 C   0  0  0  0  0  0  0  0  0  0  0  0
  -32.7397   52.1597   61.5044 C   0  0  0  0  0  0  0  0  0  0  0  0
  -31.7964   52.4572   62.6486 C   0  0  0  0  0  0  0  0  0  0  0  0
  -31.2842   53.9242   64.5277 C   0  0  1  0  0  0  0  0  0  0  0  0
  -30.1086   52.9557   64.6992 C   0  0  0  0  0  0  0  0  0  0  0  0
  -29.4751   53.0030   66.0854 C   0  0  0  0  0  0  0  0  0  0  0  0
  -28.8678   54.3349   66.4791 C   0  0  0  0  0  0  0  0  0  0  0  0
  -29.8715   55.4624   66.6003 C   0  0  0  0  0  0  0  0  0  0  0  0
  -30.7546   55.3253   64.2666 C   0  0  0  0  0  0  0  0  0  0  0  0
  -36.0615   56.4626   64.3550 H   0  0  0  0  0  0  0  0  0  0  0  0
  -36.3992   65.7529   72.5309 H   0  0  0  0  0  0  0  0  0  0  0  0
  -35.0991   64.6864   72.0562 H   0  0  0  0  0  0  0  0  0  0  0  0
  -34.8617   66.4174   72.0334 H   0  0  0  0  0  0  0  0  0  0  0  0
  -35.3508   64.7528   74.4697 H   0  0  0  0  0  0  0  0  0  0  0  0
  -35.0851   66.5070   74.4146 H   0  0  0  0  0  0  0  0  0  0  0  0
  -32.1934   57.9432   59.9638 H   0  0  0  0  0  0  0  0  0  0  0  0
  -32.8693   66.1712   73.5973 H   0  0  0  0  0  0  0  0  0  0  0  0
  -33.1427   64.4085   73.6421 H   0  0  0  0  0  0  0  0  0  0  0  0
  -33.3185   64.4644   76.0104 H   0  0  0  0  0  0  0  0  0  0  0  0
  -33.0738   66.2239   75.9821 H   0  0  0  0  0  0  0  0  0  0  0  0
  -32.8904   54.0614   63.1605 H   0  0  0  0  0  0  0  0  0  0  0  0
  -31.8053   56.1629   56.9251 H   0  0  0  0  0  0  0  0  0  0  0  0
  -31.0637   65.0613   76.6453 H   0  0  0  0  0  0  0  0  0  0  0  0
  -30.8878   65.9253   75.0987 H   0  0  0  0  0  0  0  0  0  0  0  0
  -30.2724   56.9907   65.2266 H   0  0  0  0  0  0  0  0  0  0  0  0
  -31.2942   62.9937   75.4068 H   0  0  0  0  0  0  0  0  0  0  0  0
  -29.7644   63.8338   75.0438 H   0  0  0  0  0  0  0  0  0  0  0  0
  -30.6407   64.5987   72.9733 H   0  0  0  0  0  0  0  0  0  0  0  0
  -32.1807   63.7789   73.3369 H   0  0  0  0  0  0  0  0  0  0  0  0
  -29.5644   62.4273   72.9073 H   0  0  0  0  0  0  0  0  0  0  0  0
  -30.8994   62.5498   71.7441 H   0  0  0  0  0  0  0  0  0  0  0  0
  -32.3165   61.2933   73.2000 H   0  0  0  0  0  0  0  0  0  0  0  0
  -30.9993   61.1833   74.3790 H   0  0  0  0  0  0  0  0  0  0  0  0
  -31.2368   59.1353   73.1286 H   0  0  0  0  0  0  0  0  0  0  0  0
  -29.6857   59.9601   72.8195 H   0  0  0  0  0  0  0  0  0  0  0  0
  -30.4821   60.7389   70.7240 H   0  0  0  0  0  0  0  0  0  0  0  0
  -32.0416   59.9486   71.0253 H   0  0  0  0  0  0  0  0  0  0  0  0
  -30.9879   57.8056   71.0019 H   0  0  0  0  0  0  0  0  0  0  0  0
  -29.4207   58.5940   70.7169 H   0  0  0  0  0  0  0  0  0  0  0  0
  -30.3120   57.6342   68.6891 H   0  0  0  0  0  0  0  0  0  0  0  0
  -30.1864   59.4053   68.6199 H   0  0  0  0  0  0  0  0  0  0  0  0
  -32.6858   57.8618   69.0916 H   0  0  0  0  0  0  0  0  0  0  0  0
  -32.1767   58.6492   67.5742 H   0  0  0  0  0  0  0  0  0  0  0  0
  -32.3039   60.7860   68.6041 H   0  0  0  0  0  0  0  0  0  0  0  0
  -32.7883   60.0140   70.1305 H   0  0  0  0  0  0  0  0  0  0  0  0
  -34.6765   60.9944   68.9955 H   0  0  0  0  0  0  0  0  0  0  0  0
  -34.7834   59.2225   69.1209 H   0  0  0  0  0  0  0  0  0  0  0  0
  -34.0056   60.7338   66.6683 H   0  0  0  0  0  0  0  0  0  0  0  0
  -35.5788   60.0019   66.9853 H   0  0  0  0  0  0  0  0  0  0  0  0
  -33.2327   58.2101   67.1113 H   0  0  0  0  0  0  0  0  0  0  0  0
  -34.0686   57.0489   65.3607 H   0  0  0  0  0  0  0  0  0  0  0  0
  -38.1871   58.1830   63.7462 H   0  0  0  0  0  0  0  0  0  0  0  0
  -37.7944   56.6937   62.8973 H   0  0  0  0  0  0  0  0  0  0  0  0
  -36.5724   59.3687   62.3887 H   0  0  0  0  0  0  0  0  0  0  0  0
  -37.8072   58.5391   61.3994 H   0  0  0  0  0  0  0  0  0  0  0  0
  -35.6238   58.4067   60.3945 H   0  0  0  0  0  0  0  0  0  0  0  0
  -36.2729   56.8255   60.8717 H   0  0  0  0  0  0  0  0  0  0  0  0
  -34.8590   56.8018   62.8091 H   0  0  0  0  0  0  0  0  0  0  0  0
  -34.2203   58.3886   62.3599 H   0  0  0  0  0  0  0  0  0  0  0  0
  -32.6704   56.6456   61.7612 H   0  0  0  0  0  0  0  0  0  0  0  0
  -32.1365   59.9342   59.2941 H   0  0  0  0  0  0  0  0  0  0  0  0
  -33.6395   60.7955   59.0650 H   0  0  0  0  0  0  0  0  0  0  0  0
  -32.4351   60.7880   57.7991 H   0  0  0  0  0  0  0  0  0  0  0  0
  -35.4779   58.7091   57.1196 H   0  0  0  0  0  0  0  0  0  0  0  0
  -34.9103   60.3182   57.0088 H   0  0  0  0  0  0  0  0  0  0  0  0
  -32.5937   59.2638   53.5060 H   0  0  0  0  0  0  0  0  0  0  0  0
  -31.7845   58.1121   51.5508 H   0  0  0  0  0  0  0  0  0  0  0  0
  -30.8469   55.9056   51.7388 H   0  0  0  0  0  0  0  0  0  0  0  0
  -30.7207   54.8181   53.8877 H   0  0  0  0  0  0  0  0  0  0  0  0
  -34.5504   52.8576   60.6249 H   0  0  0  0  0  0  0  0  0  0  0  0
  -34.0458   53.5270   63.4857 H   0  0  0  0  0  0  0  0  0  0  0  0
  -35.1102   52.2747   62.8926 H   0  0  0  0  0  0  0  0  0  0  0  0
  -35.4669   53.9531   62.5628 H   0  0  0  0  0  0  0  0  0  0  0  0
  -32.1852   52.1849   60.5896 H   0  0  0  0  0  0  0  0  0  0  0  0
  -33.1683   51.1960   61.6844 H   0  0  0  0  0  0  0  0  0  0  0  0
  -31.8736   53.9069   65.4205 H   0  0  0  0  0  0  0  0  0  0  0  0
  -29.3591   53.2021   63.9763 H   0  0  0  0  0  0  0  0  0  0  0  0
  -30.4947   51.9669   64.5646 H   0  0  0  0  0  0  0  0  0  0  0  0
  -28.7014   52.2647   66.1199 H   0  0  0  0  0  0  0  0  0  0  0  0
  -30.2706   52.8260   66.7787 H   0  0  0  0  0  0  0  0  0  0  0  0
  -28.1455   54.6067   65.7379 H   0  0  0  0  0  0  0  0  0  0  0  0
  -28.4360   54.2016   67.4490 H   0  0  0  0  0  0  0  0  0  0  0  0
  -30.7311   55.0924   67.1189 H   0  0  0  0  0  0  0  0  0  0  0  0
  -29.3816   56.2560   67.1249 H   0  0  0  0  0  0  0  0  0  0  0  0
  1 33  1  0  0  0  0
  1 34  1  0  0  0  0
  1 61  1  0  0  0  0
  2  4  1  0  0  0  0
  2 62  1  0  0  0  0
  2 63  1  0  0  0  0
  2 64  1  0  0  0  0
  3 33  2  0  0  0  0
  4  7  1  0  0  0  0
  4 65  1  0  0  0  0
  4 66  1  0  0  0  0
  5 38  1  0  0  0  0
  5 39  1  0  0  0  0
  5 67  1  0  0  0  0
  6 39  2  0  0  0  0
  7 10  1  0  0  0  0
  7 68  1  0  0  0  0
  7 69  1  0  0  0  0
  8 40  1  0  0  0  0
  8 43  2  0  0  0  0
  9 42  1  0  0  0  0
  9 43  1  0  0  0  0
 10 13  1  0  0  0  0
 10 70  1  0  0  0  0
 10 71  1  0  0  0  0
 11 54  1  0  0  0  0
 11 55  1  0  0  0  0
 11 72  1  0  0  0  0
 12 49  1  0  0  0  0
 12 73  1  0  0  0  0
 13 16  1  0  0  0  0
 13 74  1  0  0  0  0
 13 75  1  0  0  0  0
 14 59  1  0  0  0  0
 14 60  1  0  0  0  0
 14 76  1  0  0  0  0
 15 50  2  0  0  0  0
 16 18  1  0  0  0  0
 16 77  1  0  0  0  0
 16 78  1  0  0  0  0
 17 50  1  0  0  0  0
 17 51  1  0  0  0  0
 18 20  1  0  0  0  0
 18 79  1  0  0  0  0
 18 80  1  0  0  0  0
 19 54  2  0  0  0  0
 20 22  1  0  0  0  0
 20 81  1  0  0  0  0
 20 82  1  0  0  0  0
 21 60  2  0  0  0  0
 22 23  1  0  0  0  0
 22 83  1  0  0  0  0
 22 84  1  0  0  0  0
 23 24  1  0  0  0  0
 23 85  1  0  0  0  0
 23 86  1  0  0  0  0
 24 25  1  0  0  0  0
 24 87  1  0  0  0  0
 24 88  1  0  0  0  0
 25 26  1  0  0  0  0
 25 89  1  0  0  0  0
 25 90  1  0  0  0  0
 26 27  1  0  0  0  0
 26 91  1  0  0  0  0
 26 92  1  0  0  0  0
 27 28  1  0  0  0  0
 27 93  1  0  0  0  0
 27 94  1  0  0  0  0
 28 29  1  0  0  0  0
 28 95  1  0  0  0  0
 28 96  1  0  0  0  0
 29 30  1  0  0  0  0
 29 97  1  0  0  0  0
 29 98  1  0  0  0  0
 30 31  1  0  0  0  0
 30 99  1  0  0  0  0
 30100  1  0  0  0  0
 31 32  2  0  0  0  0
 31101  1  0  0  0  0
 32 33  1  0  0  0  0
 32102  1  0  0  0  0
 34 35  1  0  0  0  0
 34103  1  0  0  0  0
 34104  1  0  0  0  0
 35 36  1  0  0  0  0
 35105  1  0  0  0  0
 35106  1  0  0  0  0
 36 37  1  0  0  0  0
 36107  1  0  0  0  0
 36108  1  0  0  0  0
 37 38  1  0  0  0  0
 37109  1  0  0  0  0
 37110  1  0  0  0  0
 38 50  1  0  0  0  0
 38111  1  1  0  0  0
 40 39  1  1  0  0  0
 40 41  1  0  0  0  0
 40 42  1  0  0  0  0
 41112  1  0  0  0  0
 41113  1  0  0  0  0
 41114  1  0  0  0  0
 42115  1  0  0  0  0
 42116  1  0  0  0  0
 43 44  1  0  0  0  0
 44 45  2  0  0  0  0
 44 49  1  0  0  0  0
 45 46  1  0  0  0  0
 45117  1  0  0  0  0
 46 47  2  0  0  0  0
 46118  1  0  0  0  0
 47 48  1  0  0  0  0
 47119  1  0  0  0  0
 48 49  2  0  0  0  0
 48120  1  0  0  0  0
 51 52  1  0  0  0  0
 51 53  1  0  0  0  0
 51121  1  6  0  0  0
 52122  1  0  0  0  0
 52123  1  0  0  0  0
 52124  1  0  0  0  0
 53 54  1  0  0  0  0
 53125  1  0  0  0  0
 53126  1  0  0  0  0
 55 56  1  0  0  0  0
 55 60  1  0  0  0  0
 55127  1  1  0  0  0
 56 57  1  0  0  0  0
 56128  1  0  0  0  0
 56129  1  0  0  0  0
 57 58  1  0  0  0  0
 57130  1  0  0  0  0
 57131  1  0  0  0  0
 58 59  1  0  0  0  0
 58132  1  0  0  0  0
 58133  1  0  0  0  0
 59134  1  0  0  0  0
 59135  1  0  0  0  0
M  END
$$$$