/media/chris/experiments/cd1a-new-docking/inputs/ligands/7ryo_ligand.pdb
 OpenBabel07032304133D

135137  0  0  1  0  0  0  0  0999 V2000
  -39.2043   59.3899   62.1545 N   0  0  0  0  0  0  0  0  0  0  0  0
  -42.1023   66.2361   64.6064 C   0  0  0  0  0  0  0  0  0  0  0  0
  -40.9220   60.8288   62.4244 O   0  0  0  0  0  0  0  0  0  0  0  0
  -43.2994   67.1412   64.4799 C   0  0  0  0  0  0  0  0  0  0  0  0
  -33.1324   57.6580   60.0424 N   0  0  0  0  0  0  0  0  0  0  0  0
  -30.9871   57.7601   60.7067 O   0  0  0  0  0  0  0  0  0  0  0  0
  -44.5404   66.5913   65.1594 C   0  0  0  0  0  0  0  0  0  0  0  0
  -32.4345   58.7123   57.6086 N   0  0  0  0  0  0  0  0  0  0  0  0
  -32.5874   60.9396   57.9228 O   0  0  0  0  0  0  0  0  0  0  0  0
  -44.3932   66.3728   66.6566 C   0  0  0  0  0  0  0  0  0  0  0  0
  -38.9077   55.4560   62.8527 N   0  0  0  0  0  0  0  0  0  0  0  0
  -33.7980   62.4213   56.3716 O   0  0  0  0  0  0  0  0  0  0  0  0
  -43.2768   65.4036   67.0205 C   0  0  0  0  0  0  0  0  0  0  0  0
  -42.2267   54.1475   62.2479 N   0  0  0  0  0  0  0  0  0  0  0  0
  -33.3116   54.6686   60.0224 O   0  0  0  0  0  0  0  0  0  0  0  0
  -43.1310   65.1639   68.5152 C   0  0  0  0  0  0  0  0  0  0  0  0
  -35.2791   55.2259   60.9704 O   0  0  0  0  0  0  0  0  0  0  0  0
  -42.0082   64.2110   68.8871 C   0  0  0  0  0  0  0  0  0  0  0  0
  -36.8117   56.2649   62.9726 O   0  0  0  0  0  0  0  0  0  0  0  0
  -42.1432   62.8240   68.2804 C   0  0  0  0  0  0  0  0  0  0  0  0
  -41.4276   55.7164   63.6374 O   0  0  0  0  0  0  0  0  0  0  0  0
  -42.1447   62.8323   66.7645 C   0  0  0  0  0  0  0  0  0  0  0  0
  -40.8651   63.3995   66.1806 C   0  0  0  0  0  0  0  0  0  0  0  0
  -39.6127   62.6333   66.5566 C   0  0  0  0  0  0  0  0  0  0  0  0
  -38.3495   63.2343   65.9719 C   0  0  0  0  0  0  0  0  0  0  0  0
  -38.3560   63.3019   64.4537 C   0  0  0  0  0  0  0  0  0  0  0  0
  -39.4801   64.1516   63.8915 C   0  0  0  0  0  0  0  0  0  0  0  0
  -39.5158   64.2196   62.3738 C   0  0  0  0  0  0  0  0  0  0  0  0
  -39.7067   62.8673   61.7091 C   0  0  0  0  0  0  0  0  0  0  0  0
  -39.7263   62.9273   60.1866 C   0  0  0  0  0  0  0  0  0  0  0  0
  -39.9336   61.5741   59.5813 C   0  0  0  0  0  0  0  0  0  0  0  0
  -40.0893   60.4176   60.2115 C   0  0  0  0  0  0  0  0  0  0  0  0
  -40.1043   60.2597   61.6829 C   0  0  0  0  0  0  0  0  0  0  0  0
  -38.2360   58.7337   61.2903 C   0  0  0  0  0  0  0  0  0  0  0  0
  -36.9560   58.4330   62.0390 C   0  0  0  0  0  0  0  0  0  0  0  0
  -35.8780   57.7610   61.2090 C   0  0  0  0  0  0  0  0  0  0  0  0
  -34.6110   57.4590   62.0020 C   0  0  0  0  0  0  0  0  0  0  0  0
  -33.5311   56.7980   61.1441 C   0  0  1  0  0  0  0  0  0  0  0  0
  -31.8686   58.0712   59.9196 C   0  0  0  0  0  0  0  0  0  0  0  0
  -31.5354   58.9980   58.7389 C   0  0  1  0  0  0  0  0  0  0  0  0
  -30.0949   58.7453   58.3042 C   0  0  0  0  0  0  0  0  0  0  0  0
  -31.7849   60.4830   59.0411 C   0  0  0  0  0  0  0  0  0  0  0  0
  -32.9475   59.8157   57.2499 C   0  0  0  0  0  0  0  0  0  0  0  0
  -33.9039   60.0093   56.1574 C   0  0  0  0  0  0  0  0  0  0  0  0
  -34.3325   58.9184   55.4000 C   0  0  0  0  0  0  0  0  0  0  0  0
  -35.0363   59.1131   54.2240 C   0  0  0  0  0  0  0  0  0  0  0  0
  -35.3234   60.3875   53.7855 C   0  0  0  0  0  0  0  0  0  0  0  0
  -34.9060   61.4856   54.5153 C   0  0  0  0  0  0  0  0  0  0  0  0
  -34.1957   61.3103   55.6987 C   0  0  0  0  0  0  0  0  0  0  0  0
  -33.9929   55.4382   60.6419 C   0  0  0  0  0  0  0  0  0  0  0  0
  -35.5958   54.0683   61.8127 C   0  0  2  0  0  0  0  0  0  0  0  0
  -35.1300   52.8265   61.0953 C   0  0  0  0  0  0  0  0  0  0  0  0
  -37.1006   54.0979   61.9970 C   0  0  0  0  0  0  0  0  0  0  0  0
  -37.5900   55.3725   62.6480 C   0  0  0  0  0  0  0  0  0  0  0  0
  -39.8122   54.3839   62.4758 C   0  0  1  0  0  0  0  0  0  0  0  0
  -39.4517   53.1003   63.2323 C   0  0  0  0  0  0  0  0  0  0  0  0
  -40.0205   51.8363   62.5967 C   0  0  0  0  0  0  0  0  0  0  0  0
  -41.5331   51.7663   62.5264 C   0  0  0  0  0  0  0  0  0  0  0  0
  -42.1622   52.8220   61.6416 C   0  0  0  0  0  0  0  0  0  0  0  0
  -41.2271   54.8069   62.8378 C   0  0  0  0  0  0  0  0  0  0  0  0
  -39.1971   59.1874   63.1179 H   0  0  0  0  0  0  0  0  0  0  0  0
  -41.2655   66.6797   64.1085 H   0  0  0  0  0  0  0  0  0  0  0  0
  -42.3222   65.2891   64.1594 H   0  0  0  0  0  0  0  0  0  0  0  0
  -41.8686   66.0964   65.6412 H   0  0  0  0  0  0  0  0  0  0  0  0
  -43.5136   67.2783   63.4405 H   0  0  0  0  0  0  0  0  0  0  0  0
  -43.0536   68.0627   64.9650 H   0  0  0  0  0  0  0  0  0  0  0  0
  -33.8025   57.9396   59.3784 H   0  0  0  0  0  0  0  0  0  0  0  0
  -44.7814   65.6523   64.7065 H   0  0  0  0  0  0  0  0  0  0  0  0
  -45.3082   67.3256   65.0325 H   0  0  0  0  0  0  0  0  0  0  0  0
  -45.3158   65.9846   67.0348 H   0  0  0  0  0  0  0  0  0  0  0  0
  -44.1437   67.3186   67.0904 H   0  0  0  0  0  0  0  0  0  0  0  0
  -39.2761   56.2676   63.2710 H   0  0  0  0  0  0  0  0  0  0  0  0
  -33.3178   62.3375   57.1719 H   0  0  0  0  0  0  0  0  0  0  0  0
  -42.3538   65.7991   66.6512 H   0  0  0  0  0  0  0  0  0  0  0  0
  -43.5269   64.4620   66.5781 H   0  0  0  0  0  0  0  0  0  0  0  0
  -43.0988   54.6034   62.2190 H   0  0  0  0  0  0  0  0  0  0  0  0
  -44.0508   64.7575   68.8811 H   0  0  0  0  0  0  0  0  0  0  0  0
  -42.8905   66.1088   68.9558 H   0  0  0  0  0  0  0  0  0  0  0  0
  -41.9914   64.1114   69.9523 H   0  0  0  0  0  0  0  0  0  0  0  0
  -41.1053   64.6316   68.4963 H   0  0  0  0  0  0  0  0  0  0  0  0
  -43.0621   62.3928   68.6190 H   0  0  0  0  0  0  0  0  0  0  0  0
  -41.2926   62.2557   68.5943 H   0  0  0  0  0  0  0  0  0  0  0  0
  -42.9679   63.4264   66.4264 H   0  0  0  0  0  0  0  0  0  0  0  0
  -42.2275   61.8174   66.4361 H   0  0  0  0  0  0  0  0  0  0  0  0
  -40.7575   64.4067   66.5251 H   0  0  0  0  0  0  0  0  0  0  0  0
  -40.9577   63.3306   65.1168 H   0  0  0  0  0  0  0  0  0  0  0  0
  -39.7083   61.6288   66.2006 H   0  0  0  0  0  0  0  0  0  0  0  0
  -39.5218   62.6739   67.6220 H   0  0  0  0  0  0  0  0  0  0  0  0
  -37.5165   62.6379   66.2807 H   0  0  0  0  0  0  0  0  0  0  0  0
  -38.2844   64.2401   66.3312 H   0  0  0  0  0  0  0  0  0  0  0  0
  -38.4583   62.3081   64.0707 H   0  0  0  0  0  0  0  0  0  0  0  0
  -37.4358   63.7588   64.1547 H   0  0  0  0  0  0  0  0  0  0  0  0
  -39.3684   65.1467   64.2687 H   0  0  0  0  0  0  0  0  0  0  0  0
  -40.3952   63.6899   64.1985 H   0  0  0  0  0  0  0  0  0  0  0  0
  -38.5919   64.6372   62.0320 H   0  0  0  0  0  0  0  0  0  0  0  0
  -40.3584   64.8225   62.1065 H   0  0  0  0  0  0  0  0  0  0  0  0
  -40.6365   62.4559   62.0424 H   0  0  0  0  0  0  0  0  0  0  0  0
  -38.8684   62.2629   61.9862 H   0  0  0  0  0  0  0  0  0  0  0  0
  -38.7927   63.3214   59.8431 H   0  0  0  0  0  0  0  0  0  0  0  0
  -40.5405   63.5542   59.8881 H   0  0  0  0  0  0  0  0  0  0  0  0
  -39.9582   61.5365   58.5503 H   0  0  0  0  0  0  0  0  0  0  0  0
  -40.2084   59.5693   59.6360 H   0  0  0  0  0  0  0  0  0  0  0  0
  -38.0148   59.3748   60.4627 H   0  0  0  0  0  0  0  0  0  0  0  0
  -38.6554   57.8106   60.9484 H   0  0  0  0  0  0  0  0  0  0  0  0
  -37.1937   57.7896   62.8603 H   0  0  0  0  0  0  0  0  0  0  0  0
  -36.5565   59.3772   62.3453 H   0  0  0  0  0  0  0  0  0  0  0  0
  -35.6238   58.4067   60.3945 H   0  0  0  0  0  0  0  0  0  0  0  0
  -36.2729   56.8255   60.8717 H   0  0  0  0  0  0  0  0  0  0  0  0
  -34.8590   56.8018   62.8091 H   0  0  0  0  0  0  0  0  0  0  0  0
  -34.2203   58.3886   62.3599 H   0  0  0  0  0  0  0  0  0  0  0  0
  -32.6704   56.6456   61.7612 H   0  0  0  0  0  0  0  0  0  0  0  0
  -29.9606   57.7030   58.1033 H   0  0  0  0  0  0  0  0  0  0  0  0
  -29.4286   59.0467   59.0853 H   0  0  0  0  0  0  0  0  0  0  0  0
  -29.8852   59.3091   57.4193 H   0  0  0  0  0  0  0  0  0  0  0  0
  -32.3160   60.5993   59.9627 H   0  0  0  0  0  0  0  0  0  0  0  0
  -30.8772   61.0388   59.1502 H   0  0  0  0  0  0  0  0  0  0  0  0
  -34.1233   57.9595   55.7189 H   0  0  0  0  0  0  0  0  0  0  0  0
  -35.3480   58.2987   53.6722 H   0  0  0  0  0  0  0  0  0  0  0  0
  -35.8517   60.5229   52.9094 H   0  0  0  0  0  0  0  0  0  0  0  0
  -35.1221   62.4378   54.1811 H   0  0  0  0  0  0  0  0  0  0  0  0
  -35.1147   54.0832   62.7684 H   0  0  0  0  0  0  0  0  0  0  0  0
  -35.5921   52.7770   60.1315 H   0  0  0  0  0  0  0  0  0  0  0  0
  -35.4007   51.9625   61.6655 H   0  0  0  0  0  0  0  0  0  0  0  0
  -34.0668   52.8589   60.9799 H   0  0  0  0  0  0  0  0  0  0  0  0
  -37.3855   53.2697   62.6117 H   0  0  0  0  0  0  0  0  0  0  0  0
  -37.5439   54.0439   61.0246 H   0  0  0  0  0  0  0  0  0  0  0  0
  -39.7351   54.1941   61.4256 H   0  0  0  0  0  0  0  0  0  0  0  0
  -39.8315   53.1777   64.2296 H   0  0  0  0  0  0  0  0  0  0  0  0
  -38.3857   53.0110   63.2081 H   0  0  0  0  0  0  0  0  0  0  0  0
  -39.6776   50.9978   63.1661 H   0  0  0  0  0  0  0  0  0  0  0  0
  -39.6786   51.8373   61.5828 H   0  0  0  0  0  0  0  0  0  0  0  0
  -41.9210   51.8836   63.5167 H   0  0  0  0  0  0  0  0  0  0  0  0
  -41.7776   50.8180   62.0954 H   0  0  0  0  0  0  0  0  0  0  0  0
  -41.5876   52.8920   60.7417 H   0  0  0  0  0  0  0  0  0  0  0  0
  -43.1718   52.5145   61.4651 H   0  0  0  0  0  0  0  0  0  0  0  0
  1 33  1  0  0  0  0
  1 34  1  0  0  0  0
  1 61  1  0  0  0  0
  2  4  1  0  0  0  0
  2 62  1  0  0  0  0
  2 63  1  0  0  0  0
  2 64  1  0  0  0  0
  3 33  2  0  0  0  0
  4  7  1  0  0  0  0
  4 65  1  0  0  0  0
  4 66  1  0  0  0  0
  5 38  1  0  0  0  0
  5 39  1  0  0  0  0
  5 67  1  0  0  0  0
  6 39  2  0  0  0  0
  7 10  1  0  0  0  0
  7 68  1  0  0  0  0
  7 69  1  0  0  0  0
  8 40  1  0  0  0  0
  8 43  2  0  0  0  0
  9 42  1  0  0  0  0
  9 43  1  0  0  0  0
 10 13  1  0  0  0  0
 10 70  1  0  0  0  0
 10 71  1  0  0  0  0
 11 54  1  0  0  0  0
 11 55  1  0  0  0  0
 11 72  1  0  0  0  0
 12 49  1  0  0  0  0
 12 73  1  0  0  0  0
 13 16  1  0  0  0  0
 13 74  1  0  0  0  0
 13 75  1  0  0  0  0
 14 59  1  0  0  0  0
 14 60  1  0  0  0  0
 14 76  1  0  0  0  0
 15 50  2  0  0  0  0
 16 18  1  0  0  0  0
 16 77  1  0  0  0  0
 16 78  1  0  0  0  0
 17 50  1  0  0  0  0
 17 51  1  0  0  0  0
 18 20  1  0  0  0  0
 18 79  1  0  0  0  0
 18 80  1  0  0  0  0
 19 54  2  0  0  0  0
 20 22  1  0  0  0  0
 20 81  1  0  0  0  0
 20 82  1  0  0  0  0
 21 60  2  0  0  0  0
 22 23  1  0  0  0  0
 22 83  1  0  0  0  0
 22 84  1  0  0  0  0
 23 24  1  0  0  0  0
 23 85  1  0  0  0  0
 23 86  1  0  0  0  0
 24 25  1  0  0  0  0
 24 87  1  0  0  0  0
 24 88  1  0  0  0  0
 25 26  1  0  0  0  0
 25 89  1  0  0  0  0
 25 90  1  0  0  0  0
 26 27  1  0  0  0  0
 26 91  1  0  0  0  0
 26 92  1  0  0  0  0
 27 28  1  0  0  0  0
 27 93  1  0  0  0  0
 27 94  1  0  0  0  0
 28 29  1  0  0  0  0
 28 95  1  0  0  0  0
 28 96  1  0  0  0  0
 29 30  1  0  0  0  0
 29 97  1  0  0  0  0
 29 98  1  0  0  0  0
 30 31  1  0  0  0  0
 30 99  1  0  0  0  0
 30100  1  0  0  0  0
 31 32  2  0  0  0  0
 31101  1  0  0  0  0
 32 33  1  0  0  0  0
 32102  1  0  0  0  0
 34 35  1  0  0  0  0
 34103  1  0  0  0  0
 34104  1  0  0  0  0
 35 36  1  0  0  0  0
 35105  1  0  0  0  0
 35106  1  0  0  0  0
 36 37  1  0  0  0  0
 36107  1  0  0  0  0
 36108  1  0  0  0  0
 37 38  1  0  0  0  0
 37109  1  0  0  0  0
 37110  1  0  0  0  0
 38 50  1  0  0  0  0
 38111  1  1  0  0  0
 40 39  1  1  0  0  0
 40 41  1  0  0  0  0
 40 42  1  0  0  0  0
 41112  1  0  0  0  0
 41113  1  0  0  0  0
 41114  1  0  0  0  0
 42115  1  0  0  0  0
 42116  1  0  0  0  0
 43 44  1  0  0  0  0
 44 45  2  0  0  0  0
 44 49  1  0  0  0  0
 45 46  1  0  0  0  0
 45117  1  0  0  0  0
 46 47  2  0  0  0  0
 46118  1  0  0  0  0
 47 48  1  0  0  0  0
 47119  1  0  0  0  0
 48 49  2  0  0  0  0
 48120  1  0  0  0  0
 51 52  1  0  0  0  0
 51 53  1  0  0  0  0
 51121  1  1  0  0  0
 52122  1  0  0  0  0
 52123  1  0  0  0  0
 52124  1  0  0  0  0
 53 54  1  0  0  0  0
 53125  1  0  0  0  0
 53126  1  0  0  0  0
 55 56  1  0  0  0  0
 55 60  1  0  0  0  0
 55127  1  6  0  0  0
 56 57  1  0  0  0  0
 56128  1  0  0  0  0
 56129  1  0  0  0  0
 57 58  1  0  0  0  0
 57130  1  0  0  0  0
 57131  1  0  0  0  0
 58 59  1  0  0  0  0
 58132  1  0  0  0  0
 58133  1  0  0  0  0
 59134  1  0  0  0  0
 59135  1  0  0  0  0
M  END
$$$$