/media/chris/experiments/cd1a-new-docking/inputs/ligands/7ryo_ligand.pdb
 OpenBabel07032304133D

135137  0  0  1  0  0  0  0  0999 V2000
  -37.9843   59.6092   60.1567 N   0  0  0  0  0  0  0  0  0  0  0  0
  -46.1787   60.3172   61.7679 C   0  0  0  0  0  0  0  0  0  0  0  0
  -37.1331   61.2779   61.4155 O   0  0  0  0  0  0  0  0  0  0  0  0
  -47.4803   61.0750   61.7622 C   0  0  0  0  0  0  0  0  0  0  0  0
  -34.8919   59.3849   63.5113 N   0  0  0  0  0  0  0  0  0  0  0  0
  -34.1477   58.2506   65.3039 O   0  0  0  0  0  0  0  0  0  0  0  0
  -47.6649   61.9571   62.9836 C   0  0  0  0  0  0  0  0  0  0  0  0
  -37.2767   59.5238   65.2608 N   0  0  0  0  0  0  0  0  0  0  0  0
  -37.2773   59.0618   67.4675 O   0  0  0  0  0  0  0  0  0  0  0  0
  -47.6409   61.2110   64.3080 C   0  0  0  0  0  0  0  0  0  0  0  0
  -33.0668   56.7172   56.2828 N   0  0  0  0  0  0  0  0  0  0  0  0
  -39.0189   57.3967   68.3002 O   0  0  0  0  0  0  0  0  0  0  0  0
  -46.3291   60.4838   64.5697 C   0  0  0  0  0  0  0  0  0  0  0  0
  -32.6592   55.9126   52.7785 N   0  0  0  0  0  0  0  0  0  0  0  0
  -32.9132   60.6848   61.6770 O   0  0  0  0  0  0  0  0  0  0  0  0
  -45.1170   61.4005   64.6294 C   0  0  0  0  0  0  0  0  0  0  0  0
  -33.9036   59.2098   60.2898 O   0  0  0  0  0  0  0  0  0  0  0  0
  -44.8774   62.2004   63.3607 C   0  0  0  0  0  0  0  0  0  0  0  0
  -31.4013   57.9497   57.1598 O   0  0  0  0  0  0  0  0  0  0  0  0
  -43.6559   63.1033   63.4162 C   0  0  0  0  0  0  0  0  0  0  0  0
  -34.4227   55.8774   54.1639 O   0  0  0  0  0  0  0  0  0  0  0  0
  -43.4465   63.9040   62.1461 C   0  0  0  0  0  0  0  0  0  0  0  0
  -43.2713   63.0258   60.9221 C   0  0  0  0  0  0  0  0  0  0  0  0
  -43.0422   63.7886   59.6327 C   0  0  0  0  0  0  0  0  0  0  0  0
  -41.7920   64.6458   59.6627 C   0  0  0  0  0  0  0  0  0  0  0  0
  -41.5619   65.4285   58.3805 C   0  0  0  0  0  0  0  0  0  0  0  0
  -40.3014   66.2725   58.4058 C   0  0  0  0  0  0  0  0  0  0  0  0
  -39.0190   65.4788   58.5919 C   0  0  0  0  0  0  0  0  0  0  0  0
  -38.9835   64.6742   59.8797 C   0  0  0  0  0  0  0  0  0  0  0  0
  -37.6927   63.8896   60.0798 C   0  0  0  0  0  0  0  0  0  0  0  0
  -37.4555   62.9194   58.9649 C   0  0  0  0  0  0  0  0  0  0  0  0
  -37.3399   61.6008   59.0464 C   0  0  0  0  0  0  0  0  0  0  0  0
  -37.4477   60.8255   60.3025 C   0  0  0  0  0  0  0  0  0  0  0  0
  -38.2360   58.7337   61.2903 C   0  0  0  0  0  0  0  0  0  0  0  0
  -36.9560   58.4330   62.0390 C   0  0  0  0  0  0  0  0  0  0  0  0
  -35.8780   57.7610   61.2090 C   0  0  0  0  0  0  0  0  0  0  0  0
  -34.6110   57.4590   62.0020 C   0  0  0  0  0  0  0  0  0  0  0  0
  -33.9807   58.7203   62.5945 C   0  0  1  0  0  0  0  0  0  0  0  0
  -34.8939   59.0841   64.8122 C   0  0  0  0  0  0  0  0  0  0  0  0
  -35.9053   59.8164   65.7094 C   0  0  1  0  0  0  0  0  0  0  0  0
  -35.6588   61.3186   65.6073 C   0  0  0  0  0  0  0  0  0  0  0  0
  -35.8851   59.3358   67.1680 C   0  0  0  0  0  0  0  0  0  0  0  0
  -37.9257   59.1255   66.2755 C   0  0  0  0  0  0  0  0  0  0  0  0
  -39.3344   58.7246   66.2971 C   0  0  0  0  0  0  0  0  0  0  0  0
  -40.2388   59.2938   65.3997 C   0  0  0  0  0  0  0  0  0  0  0  0
  -41.6010   59.1118   65.5651 C   0  0  0  0  0  0  0  0  0  0  0  0
  -42.0824   58.3655   66.6186 C   0  0  0  0  0  0  0  0  0  0  0  0
  -41.2075   57.7944   67.5247 C   0  0  0  0  0  0  0  0  0  0  0  0
  -39.8350   57.9678   67.3765 C   0  0  0  0  0  0  0  0  0  0  0  0
  -33.5193   59.6651   61.4950 C   0  0  0  0  0  0  0  0  0  0  0  0
  -32.8646   58.9198   59.2967 C   0  0  2  0  0  0  0  0  0  0  0  0
  -32.4499   60.2222   58.6599 C   0  0  0  0  0  0  0  0  0  0  0  0
  -33.5046   57.9698   58.3031 C   0  0  0  0  0  0  0  0  0  0  0  0
  -32.5596   57.5444   57.2013 C   0  0  0  0  0  0  0  0  0  0  0  0
  -32.2762   56.2368   55.1630 C   0  0  1  0  0  0  0  0  0  0  0  0
  -31.5729   54.9275   55.5381 C   0  0  0  0  0  0  0  0  0  0  0  0
  -30.3939   54.5862   54.6332 C   0  0  0  0  0  0  0  0  0  0  0  0
  -30.7348   54.3728   53.1717 C   0  0  0  0  0  0  0  0  0  0  0  0
  -31.2659   55.6065   52.4723 C   0  0  0  0  0  0  0  0  0  0  0  0
  -33.2130   55.9928   53.9904 C   0  0  0  0  0  0  0  0  0  0  0  0
  -38.2165   59.2963   59.2526 H   0  0  0  0  0  0  0  0  0  0  0  0
  -46.1111   59.7177   60.8842 H   0  0  0  0  0  0  0  0  0  0  0  0
  -46.1371   59.6862   62.6310 H   0  0  0  0  0  0  0  0  0  0  0  0
  -45.3631   61.0094   61.7925 H   0  0  0  0  0  0  0  0  0  0  0  0
  -48.2841   60.3696   61.7277 H   0  0  0  0  0  0  0  0  0  0  0  0
  -47.4707   61.7163   60.9058 H   0  0  0  0  0  0  0  0  0  0  0  0
  -35.5154   60.0655   63.1688 H   0  0  0  0  0  0  0  0  0  0  0  0
  -48.6082   62.4547   62.8972 H   0  0  0  0  0  0  0  0  0  0  0  0
  -46.8358   62.6333   62.9995 H   0  0  0  0  0  0  0  0  0  0  0  0
  -48.4328   60.4915   64.3061 H   0  0  0  0  0  0  0  0  0  0  0  0
  -47.7576   61.9397   65.0827 H   0  0  0  0  0  0  0  0  0  0  0  0
  -34.0031   56.4250   56.3674 H   0  0  0  0  0  0  0  0  0  0  0  0
  -38.0898   57.4947   68.2289 H   0  0  0  0  0  0  0  0  0  0  0  0
  -46.1755   59.7731   63.7848 H   0  0  0  0  0  0  0  0  0  0  0  0
  -46.4166   60.0221   65.5310 H   0  0  0  0  0  0  0  0  0  0  0  0
  -33.2531   56.0773   52.0108 H   0  0  0  0  0  0  0  0  0  0  0  0
  -44.2512   60.8001   64.8159 H   0  0  0  0  0  0  0  0  0  0  0  0
  -45.3060   62.1094   65.4083 H   0  0  0  0  0  0  0  0  0  0  0  0
  -45.7379   62.8104   63.1808 H   0  0  0  0  0  0  0  0  0  0  0  0
  -44.7013   61.4918   62.5785 H   0  0  0  0  0  0  0  0  0  0  0  0
  -42.7910   62.4954   63.5814 H   0  0  0  0  0  0  0  0  0  0  0  0
  -43.8135   63.8027   64.2104 H   0  0  0  0  0  0  0  0  0  0  0  0
  -42.5706   64.5074   62.2625 H   0  0  0  0  0  0  0  0  0  0  0  0
  -44.3211   64.5009   61.9927 H   0  0  0  0  0  0  0  0  0  0  0  0
  -44.1537   62.4316   60.8073 H   0  0  0  0  0  0  0  0  0  0  0  0
  -42.3926   62.4388   61.0902 H   0  0  0  0  0  0  0  0  0  0  0  0
  -43.8860   64.4231   59.4580 H   0  0  0  0  0  0  0  0  0  0  0  0
  -42.9155   63.0667   58.8532 H   0  0  0  0  0  0  0  0  0  0  0  0
  -40.9483   64.0083   59.8263 H   0  0  0  0  0  0  0  0  0  0  0  0
  -41.9196   65.3605   60.4487 H   0  0  0  0  0  0  0  0  0  0  0  0
  -42.3997   66.0752   58.2233 H   0  0  0  0  0  0  0  0  0  0  0  0
  -41.4473   64.7146   57.5918 H   0  0  0  0  0  0  0  0  0  0  0  0
  -40.3826   66.9713   59.2120 H   0  0  0  0  0  0  0  0  0  0  0  0
  -40.2316   66.7464   57.4490 H   0  0  0  0  0  0  0  0  0  0  0  0
  -38.1958   66.1624   58.5973 H   0  0  0  0  0  0  0  0  0  0  0  0
  -38.9623   64.7800   57.7836 H   0  0  0  0  0  0  0  0  0  0  0  0
  -39.8001   63.9828   59.8681 H   0  0  0  0  0  0  0  0  0  0  0  0
  -39.0507   65.3741   60.6862 H   0  0  0  0  0  0  0  0  0  0  0  0
  -37.7543   63.3500   61.0017 H   0  0  0  0  0  0  0  0  0  0  0  0
  -36.8792   64.5845   60.0956 H   0  0  0  0  0  0  0  0  0  0  0  0
  -37.3720   63.3251   58.0196 H   0  0  0  0  0  0  0  0  0  0  0  0
  -37.1625   61.0793   58.1737 H   0  0  0  0  0  0  0  0  0  0  0  0
  -38.6582   57.8163   60.9368 H   0  0  0  0  0  0  0  0  0  0  0  0
  -38.9129   59.2259   61.9570 H   0  0  0  0  0  0  0  0  0  0  0  0
  -37.1937   57.7896   62.8603 H   0  0  0  0  0  0  0  0  0  0  0  0
  -36.5565   59.3772   62.3453 H   0  0  0  0  0  0  0  0  0  0  0  0
  -35.6238   58.4067   60.3945 H   0  0  0  0  0  0  0  0  0  0  0  0
  -36.2729   56.8255   60.8717 H   0  0  0  0  0  0  0  0  0  0  0  0
  -33.9009   56.9930   61.3512 H   0  0  0  0  0  0  0  0  0  0  0  0
  -34.8793   56.8156   62.8138 H   0  0  0  0  0  0  0  0  0  0  0  0
  -33.1195   58.4233   63.1557 H   0  0  0  0  0  0  0  0  0  0  0  0
  -35.6803   61.6144   64.5792 H   0  0  0  0  0  0  0  0  0  0  0  0
  -34.7022   61.5523   66.0258 H   0  0  0  0  0  0  0  0  0  0  0  0
  -36.4211   61.8425   66.1452 H   0  0  0  0  0  0  0  0  0  0  0  0
  -35.2932   58.4500   67.2682 H   0  0  0  0  0  0  0  0  0  0  0  0
  -35.4552   60.0559   67.8325 H   0  0  0  0  0  0  0  0  0  0  0  0
  -39.8895   59.8545   64.6069 H   0  0  0  0  0  0  0  0  0  0  0  0
  -42.2603   59.5378   64.8951 H   0  0  0  0  0  0  0  0  0  0  0  0
  -43.0995   58.2322   66.7319 H   0  0  0  0  0  0  0  0  0  0  0  0
  -41.5737   57.2381   68.3131 H   0  0  0  0  0  0  0  0  0  0  0  0
  -31.9843   58.4723   59.7086 H   0  0  0  0  0  0  0  0  0  0  0  0
  -33.3076   60.7006   58.2353 H   0  0  0  0  0  0  0  0  0  0  0  0
  -31.7313   60.0301   57.8907 H   0  0  0  0  0  0  0  0  0  0  0  0
  -32.0165   60.8599   59.4017 H   0  0  0  0  0  0  0  0  0  0  0  0
  -34.3481   58.4567   57.8601 H   0  0  0  0  0  0  0  0  0  0  0  0
  -33.7890   57.0887   58.8394 H   0  0  0  0  0  0  0  0  0  0  0  0
  -31.5329   56.9615   54.9040 H   0  0  0  0  0  0  0  0  0  0  0  0
  -32.2858   54.1318   55.4792 H   0  0  0  0  0  0  0  0  0  0  0  0
  -31.1833   55.0530   56.5267 H   0  0  0  0  0  0  0  0  0  0  0  0
  -29.9446   53.6878   55.0017 H   0  0  0  0  0  0  0  0  0  0  0  0
  -29.7446   55.4362   54.6628 H   0  0  0  0  0  0  0  0  0  0  0  0
  -31.4777   53.6053   53.1089 H   0  0  0  0  0  0  0  0  0  0  0  0
  -29.8229   54.1080   52.6785 H   0  0  0  0  0  0  0  0  0  0  0  0
  -30.6661   56.4429   52.7650 H   0  0  0  0  0  0  0  0  0  0  0  0
  -31.2173   55.4101   51.4216 H   0  0  0  0  0  0  0  0  0  0  0  0
  1 33  1  0  0  0  0
  1 34  1  0  0  0  0
  1 61  1  0  0  0  0
  2  4  1  0  0  0  0
  2 62  1  0  0  0  0
  2 63  1  0  0  0  0
  2 64  1  0  0  0  0
  3 33  2  0  0  0  0
  4  7  1  0  0  0  0
  4 65  1  0  0  0  0
  4 66  1  0  0  0  0
  5 38  1  0  0  0  0
  5 39  1  0  0  0  0
  5 67  1  0  0  0  0
  6 39  2  0  0  0  0
  7 10  1  0  0  0  0
  7 68  1  0  0  0  0
  7 69  1  0  0  0  0
  8 40  1  0  0  0  0
  8 43  2  0  0  0  0
  9 42  1  0  0  0  0
  9 43  1  0  0  0  0
 10 13  1  0  0  0  0
 10 70  1  0  0  0  0
 10 71  1  0  0  0  0
 11 54  1  0  0  0  0
 11 55  1  0  0  0  0
 11 72  1  0  0  0  0
 12 49  1  0  0  0  0
 12 73  1  0  0  0  0
 13 16  1  0  0  0  0
 13 74  1  0  0  0  0
 13 75  1  0  0  0  0
 14 59  1  0  0  0  0
 14 60  1  0  0  0  0
 14 76  1  0  0  0  0
 15 50  2  0  0  0  0
 16 18  1  0  0  0  0
 16 77  1  0  0  0  0
 16 78  1  0  0  0  0
 17 50  1  0  0  0  0
 17 51  1  0  0  0  0
 18 20  1  0  0  0  0
 18 79  1  0  0  0  0
 18 80  1  0  0  0  0
 19 54  2  0  0  0  0
 20 22  1  0  0  0  0
 20 81  1  0  0  0  0
 20 82  1  0  0  0  0
 21 60  2  0  0  0  0
 22 23  1  0  0  0  0
 22 83  1  0  0  0  0
 22 84  1  0  0  0  0
 23 24  1  0  0  0  0
 23 85  1  0  0  0  0
 23 86  1  0  0  0  0
 24 25  1  0  0  0  0
 24 87  1  0  0  0  0
 24 88  1  0  0  0  0
 25 26  1  0  0  0  0
 25 89  1  0  0  0  0
 25 90  1  0  0  0  0
 26 27  1  0  0  0  0
 26 91  1  0  0  0  0
 26 92  1  0  0  0  0
 27 28  1  0  0  0  0
 27 93  1  0  0  0  0
 27 94  1  0  0  0  0
 28 29  1  0  0  0  0
 28 95  1  0  0  0  0
 28 96  1  0  0  0  0
 29 30  1  0  0  0  0
 29 97  1  0  0  0  0
 29 98  1  0  0  0  0
 30 31  1  0  0  0  0
 30 99  1  0  0  0  0
 30100  1  0  0  0  0
 31 32  2  0  0  0  0
 31101  1  0  0  0  0
 32 33  1  0  0  0  0
 32102  1  0  0  0  0
 34 35  1  0  0  0  0
 34103  1  0  0  0  0
 34104  1  0  0  0  0
 35 36  1  0  0  0  0
 35105  1  0  0  0  0
 35106  1  0  0  0  0
 36 37  1  0  0  0  0
 36107  1  0  0  0  0
 36108  1  0  0  0  0
 37 38  1  0  0  0  0
 37109  1  0  0  0  0
 37110  1  0  0  0  0
 38 50  1  0  0  0  0
 38111  1  1  0  0  0
 40 39  1  6  0  0  0
 40 41  1  0  0  0  0
 40 42  1  0  0  0  0
 41112  1  0  0  0  0
 41113  1  0  0  0  0
 41114  1  0  0  0  0
 42115  1  0  0  0  0
 42116  1  0  0  0  0
 43 44  1  0  0  0  0
 44 45  2  0  0  0  0
 44 49  1  0  0  0  0
 45 46  1  0  0  0  0
 45117  1  0  0  0  0
 46 47  2  0  0  0  0
 46118  1  0  0  0  0
 47 48  1  0  0  0  0
 47119  1  0  0  0  0
 48 49  2  0  0  0  0
 48120  1  0  0  0  0
 51 52  1  0  0  0  0
 51 53  1  0  0  0  0
 51121  1  1  0  0  0
 52122  1  0  0  0  0
 52123  1  0  0  0  0
 52124  1  0  0  0  0
 53 54  1  0  0  0  0
 53125  1  0  0  0  0
 53126  1  0  0  0  0
 55 56  1  0  0  0  0
 55 60  1  0  0  0  0
 55127  1  6  0  0  0
 56 57  1  0  0  0  0
 56128  1  0  0  0  0
 56129  1  0  0  0  0
 57 58  1  0  0  0  0
 57130  1  0  0  0  0
 57131  1  0  0  0  0
 58 59  1  0  0  0  0
 58132  1  0  0  0  0
 58133  1  0  0  0  0
 59134  1  0  0  0  0
 59135  1  0  0  0  0
M  END
$$$$