/media/chris/experiments/cd1a-new-docking/inputs/ligands/7ryo_ligand.pdb
 OpenBabel07032304133D

135137  0  0  1  0  0  0  0  0999 V2000
  -36.2311   60.7237   61.5795 N   0  0  0  0  0  0  0  0  0  0  0  0
  -29.1440   55.1450   66.9050 C   0  0  0  0  0  0  0  0  0  0  0  0
  -34.7328   61.8482   62.8383 O   0  0  0  0  0  0  0  0  0  0  0  0
  -28.2844   56.3382   67.2305 C   0  0  0  0  0  0  0  0  0  0  0  0
  -33.1324   57.6580   60.0424 N   0  0  0  0  0  0  0  0  0  0  0  0
  -31.4954   58.6525   61.2194 O   0  0  0  0  0  0  0  0  0  0  0  0
  -28.0920   57.2766   66.0530 C   0  0  0  0  0  0  0  0  0  0  0  0
  -31.9397   60.8348   59.3380 N   0  0  0  0  0  0  0  0  0  0  0  0
  -29.8714   60.6839   58.4533 O   0  0  0  0  0  0  0  0  0  0  0  0
  -29.3786   57.8790   65.5118 C   0  0  0  0  0  0  0  0  0  0  0  0
  -32.4684   52.3381   60.0725 N   0  0  0  0  0  0  0  0  0  0  0  0
  -32.9219   63.4206   59.2238 O   0  0  0  0  0  0  0  0  0  0  0  0
  -30.1325   58.7169   66.5353 C   0  0  0  0  0  0  0  0  0  0  0  0
  -29.0812   52.4469   58.8041 N   0  0  0  0  0  0  0  0  0  0  0  0
  -34.3862   54.5462   61.3419 O   0  0  0  0  0  0  0  0  0  0  0  0
  -29.3456   59.9097   67.0559 C   0  0  0  0  0  0  0  0  0  0  0  0
  -33.8796   55.3659   59.3043 O   0  0  0  0  0  0  0  0  0  0  0  0
  -30.0849   60.7408   68.0900 C   0  0  0  0  0  0  0  0  0  0  0  0
  -32.6366   52.5146   57.8359 O   0  0  0  0  0  0  0  0  0  0  0  0
  -31.3979   61.3250   67.5951 C   0  0  0  0  0  0  0  0  0  0  0  0
  -31.0775   52.8924   57.8836 O   0  0  0  0  0  0  0  0  0  0  0  0
  -32.1094   62.1642   68.6381 C   0  0  0  0  0  0  0  0  0  0  0  0
  -33.4259   62.7274   68.1383 C   0  0  0  0  0  0  0  0  0  0  0  0
  -34.4421   61.6779   67.7349 C   0  0  0  0  0  0  0  0  0  0  0  0
  -35.7402   62.2720   67.2242 C   0  0  0  0  0  0  0  0  0  0  0  0
  -35.5659   63.1397   65.9888 C   0  0  0  0  0  0  0  0  0  0  0  0
  -36.8632   63.7471   65.4891 C   0  0  0  0  0  0  0  0  0  0  0  0
  -36.7150   64.6054   64.2439 C   0  0  0  0  0  0  0  0  0  0  0  0
  -36.1755   63.8471   63.0435 C   0  0  0  0  0  0  0  0  0  0  0  0
  -36.0087   64.7070   61.7966 C   0  0  0  0  0  0  0  0  0  0  0  0
  -35.4914   63.9107   60.6395 C   0  0  0  0  0  0  0  0  0  0  0  0
  -35.1898   62.6196   60.6121 C   0  0  0  0  0  0  0  0  0  0  0  0
  -35.3353   61.6998   61.7624 C   0  0  0  0  0  0  0  0  0  0  0  0
  -36.5610   59.7701   62.6268 C   0  0  0  0  0  0  0  0  0  0  0  0
  -36.9560   58.4330   62.0390 C   0  0  0  0  0  0  0  0  0  0  0  0
  -35.8780   57.7610   61.2090 C   0  0  0  0  0  0  0  0  0  0  0  0
  -34.6110   57.4590   62.0020 C   0  0  0  0  0  0  0  0  0  0  0  0
  -33.5311   56.7980   61.1441 C   0  0  1  0  0  0  0  0  0  0  0  0
  -32.1284   58.5272   60.1816 C   0  0  0  0  0  0  0  0  0  0  0  0
  -31.7856   59.4163   58.9749 C   0  0  1  0  0  0  0  0  0  0  0  0
  -32.7426   59.0889   57.8327 C   0  0  0  0  0  0  0  0  0  0  0  0
  -30.3182   59.3066   58.5350 C   0  0  0  0  0  0  0  0  0  0  0  0
  -30.8609   61.4220   59.0203 C   0  0  0  0  0  0  0  0  0  0  0  0
  -30.5673   62.8459   59.1994 C   0  0  0  0  0  0  0  0  0  0  0  0
  -29.2563   63.2682   59.4232 C   0  0  0  0  0  0  0  0  0  0  0  0
  -28.9964   64.5645   59.8333 C   0  0  0  0  0  0  0  0  0  0  0  0
  -30.0295   65.4558   60.0258 C   0  0  0  0  0  0  0  0  0  0  0  0
  -31.3381   65.0611   59.8152 C   0  0  0  0  0  0  0  0  0  0  0  0
  -31.6196   63.7618   59.4049 C   0  0  0  0  0  0  0  0  0  0  0  0
  -33.9929   55.4382   60.6419 C   0  0  0  0  0  0  0  0  0  0  0  0
  -34.8023   54.4875   58.5785 C   0  0  2  0  0  0  0  0  0  0  0  0
  -36.2072   54.9722   58.8332 C   0  0  0  0  0  0  0  0  0  0  0  0
  -34.5623   53.0968   59.1334 C   0  0  0  0  0  0  0  0  0  0  0  0
  -33.1360   52.6275   58.9519 C   0  0  0  0  0  0  0  0  0  0  0  0
  -31.0950   51.8662   60.0472 C   0  0  1  0  0  0  0  0  0  0  0  0
  -31.0653   50.3353   59.9748 C   0  0  0  0  0  0  0  0  0  0  0  0
  -29.7300   49.7296   60.3934 C   0  0  0  0  0  0  0  0  0  0  0  0
  -28.5397   50.1251   59.5421 C   0  0  0  0  0  0  0  0  0  0  0  0
  -28.1991   51.5995   59.5993 C   0  0  0  0  0  0  0  0  0  0  0  0
  -30.4161   52.4465   58.8166 C   0  0  0  0  0  0  0  0  0  0  0  0
  -36.6819   60.6483   60.7075 H   0  0  0  0  0  0  0  0  0  0  0  0
  -29.2396   54.5269   67.7731 H   0  0  0  0  0  0  0  0  0  0  0  0
  -28.6903   54.5833   66.1154 H   0  0  0  0  0  0  0  0  0  0  0  0
  -30.1128   55.4773   66.5953 H   0  0  0  0  0  0  0  0  0  0  0  0
  -27.3239   55.9889   67.5473 H   0  0  0  0  0  0  0  0  0  0  0  0
  -28.7850   56.8904   67.9982 H   0  0  0  0  0  0  0  0  0  0  0  0
  -33.6085   57.5990   59.1827 H   0  0  0  0  0  0  0  0  0  0  0  0
  -27.6205   56.7299   65.2632 H   0  0  0  0  0  0  0  0  0  0  0  0
  -27.4987   58.0933   66.4078 H   0  0  0  0  0  0  0  0  0  0  0  0
  -30.0164   57.0826   65.1896 H   0  0  0  0  0  0  0  0  0  0  0  0
  -29.1077   58.5313   64.7080 H   0  0  0  0  0  0  0  0  0  0  0  0
  -32.9203   52.4479   60.9402 H   0  0  0  0  0  0  0  0  0  0  0  0
  -33.1451   62.5534   58.9479 H   0  0  0  0  0  0  0  0  0  0  0  0
  -30.3824   58.0899   67.3655 H   0  0  0  0  0  0  0  0  0  0  0  0
  -30.9970   59.1075   66.0403 H   0  0  0  0  0  0  0  0  0  0  0  0
  -28.6465   53.0860   58.1944 H   0  0  0  0  0  0  0  0  0  0  0  0
  -29.1065   60.5417   66.2263 H   0  0  0  0  0  0  0  0  0  0  0  0
  -28.4772   59.5163   67.5418 H   0  0  0  0  0  0  0  0  0  0  0  0
  -29.4495   61.5482   68.3885 H   0  0  0  0  0  0  0  0  0  0  0  0
  -30.3260   60.0830   68.8988 H   0  0  0  0  0  0  0  0  0  0  0  0
  -32.0421   60.5199   67.3093 H   0  0  0  0  0  0  0  0  0  0  0  0
  -31.1690   61.9687   66.7716 H   0  0  0  0  0  0  0  0  0  0  0  0
  -31.4724   62.9779   68.9154 H   0  0  0  0  0  0  0  0  0  0  0  0
  -32.3256   61.5287   69.4713 H   0  0  0  0  0  0  0  0  0  0  0  0
  -33.2248   63.3434   67.2869 H   0  0  0  0  0  0  0  0  0  0  0  0
  -33.8552   63.2709   68.9539 H   0  0  0  0  0  0  0  0  0  0  0  0
  -34.6587   61.0683   68.5872 H   0  0  0  0  0  0  0  0  0  0  0  0
  -34.0144   61.1106   66.9348 H   0  0  0  0  0  0  0  0  0  0  0  0
  -36.1671   62.8711   68.0012 H   0  0  0  0  0  0  0  0  0  0  0  0
  -36.3727   61.4545   66.9476 H   0  0  0  0  0  0  0  0  0  0  0  0
  -35.1506   62.5377   65.2077 H   0  0  0  0  0  0  0  0  0  0  0  0
  -34.9228   63.9503   66.2612 H   0  0  0  0  0  0  0  0  0  0  0  0
  -37.2700   64.3561   66.2691 H   0  0  0  0  0  0  0  0  0  0  0  0
  -37.5008   62.9300   65.2230 H   0  0  0  0  0  0  0  0  0  0  0  0
  -36.0447   65.4096   64.4652 H   0  0  0  0  0  0  0  0  0  0  0  0
  -37.6933   64.9513   63.9828 H   0  0  0  0  0  0  0  0  0  0  0  0
  -36.8525   63.0504   62.8158 H   0  0  0  0  0  0  0  0  0  0  0  0
  -35.2015   63.4935   63.3105 H   0  0  0  0  0  0  0  0  0  0  0  0
  -35.3191   65.4968   62.0099 H   0  0  0  0  0  0  0  0  0  0  0  0
  -36.9686   65.0973   61.5300 H   0  0  0  0  0  0  0  0  0  0  0  0
  -35.3528   64.4284   59.7576 H   0  0  0  0  0  0  0  0  0  0  0  0
  -34.8287   62.2293   59.7276 H   0  0  0  0  0  0  0  0  0  0  0  0
  -37.3764   60.1530   63.2042 H   0  0  0  0  0  0  0  0  0  0  0  0
  -35.6979   59.6294   63.2434 H   0  0  0  0  0  0  0  0  0  0  0  0
  -37.8119   58.5833   61.4147 H   0  0  0  0  0  0  0  0  0  0  0  0
  -37.1476   57.7838   62.8677 H   0  0  0  0  0  0  0  0  0  0  0  0
  -35.6238   58.4067   60.3945 H   0  0  0  0  0  0  0  0  0  0  0  0
  -36.2729   56.8255   60.8717 H   0  0  0  0  0  0  0  0  0  0  0  0
  -34.8590   56.8018   62.8091 H   0  0  0  0  0  0  0  0  0  0  0  0
  -34.2203   58.3886   62.3599 H   0  0  0  0  0  0  0  0  0  0  0  0
  -32.6704   56.6456   61.7612 H   0  0  0  0  0  0  0  0  0  0  0  0
  -33.7520   59.1760   58.1770 H   0  0  0  0  0  0  0  0  0  0  0  0
  -32.5660   58.0890   57.4950 H   0  0  0  0  0  0  0  0  0  0  0  0
  -32.5811   59.7719   57.0251 H   0  0  0  0  0  0  0  0  0  0  0  0
  -29.7446   58.7631   59.2565 H   0  0  0  0  0  0  0  0  0  0  0  0
  -30.2042   58.7815   57.6097 H   0  0  0  0  0  0  0  0  0  0  0  0
  -28.4747   62.6092   59.2820 H   0  0  0  0  0  0  0  0  0  0  0  0
  -28.0227   64.8654   59.9959 H   0  0  0  0  0  0  0  0  0  0  0  0
  -29.8259   66.4213   60.3281 H   0  0  0  0  0  0  0  0  0  0  0  0
  -32.1080   65.7323   59.9628 H   0  0  0  0  0  0  0  0  0  0  0  0
  -34.6539   54.4839   57.5189 H   0  0  0  0  0  0  0  0  0  0  0  0
  -36.3931   54.9894   59.8868 H   0  0  0  0  0  0  0  0  0  0  0  0
  -36.9036   54.3127   58.3588 H   0  0  0  0  0  0  0  0  0  0  0  0
  -36.3219   55.9586   58.4347 H   0  0  0  0  0  0  0  0  0  0  0  0
  -35.2134   52.4121   58.6313 H   0  0  0  0  0  0  0  0  0  0  0  0
  -34.7565   53.1333   60.1850 H   0  0  0  0  0  0  0  0  0  0  0  0
  -30.5866   52.1757   60.9363 H   0  0  0  0  0  0  0  0  0  0  0  0
  -31.2692   50.0404   58.9667 H   0  0  0  0  0  0  0  0  0  0  0  0
  -31.8022   49.9747   60.6617 H   0  0  0  0  0  0  0  0  0  0  0  0
  -29.8242   48.6645   60.3542 H   0  0  0  0  0  0  0  0  0  0  0  0
  -29.5294   50.1085   61.3738 H   0  0  0  0  0  0  0  0  0  0  0  0
  -28.7543   49.8693   58.5256 H   0  0  0  0  0  0  0  0  0  0  0  0
  -27.6939   49.5984   59.9321 H   0  0  0  0  0  0  0  0  0  0  0  0
  -28.2567   51.9182   60.6191 H   0  0  0  0  0  0  0  0  0  0  0  0
  -27.2170   51.7051   59.1877 H   0  0  0  0  0  0  0  0  0  0  0  0
  1 33  1  0  0  0  0
  1 34  1  0  0  0  0
  1 61  1  0  0  0  0
  2  4  1  0  0  0  0
  2 62  1  0  0  0  0
  2 63  1  0  0  0  0
  2 64  1  0  0  0  0
  3 33  2  0  0  0  0
  4  7  1  0  0  0  0
  4 65  1  0  0  0  0
  4 66  1  0  0  0  0
  5 38  1  0  0  0  0
  5 39  1  0  0  0  0
  5 67  1  0  0  0  0
  6 39  2  0  0  0  0
  7 10  1  0  0  0  0
  7 68  1  0  0  0  0
  7 69  1  0  0  0  0
  8 40  1  0  0  0  0
  8 43  2  0  0  0  0
  9 42  1  0  0  0  0
  9 43  1  0  0  0  0
 10 13  1  0  0  0  0
 10 70  1  0  0  0  0
 10 71  1  0  0  0  0
 11 54  1  0  0  0  0
 11 55  1  0  0  0  0
 11 72  1  0  0  0  0
 12 49  1  0  0  0  0
 12 73  1  0  0  0  0
 13 16  1  0  0  0  0
 13 74  1  0  0  0  0
 13 75  1  0  0  0  0
 14 59  1  0  0  0  0
 14 60  1  0  0  0  0
 14 76  1  0  0  0  0
 15 50  2  0  0  0  0
 16 18  1  0  0  0  0
 16 77  1  0  0  0  0
 16 78  1  0  0  0  0
 17 50  1  0  0  0  0
 17 51  1  0  0  0  0
 18 20  1  0  0  0  0
 18 79  1  0  0  0  0
 18 80  1  0  0  0  0
 19 54  2  0  0  0  0
 20 22  1  0  0  0  0
 20 81  1  0  0  0  0
 20 82  1  0  0  0  0
 21 60  2  0  0  0  0
 22 23  1  0  0  0  0
 22 83  1  0  0  0  0
 22 84  1  0  0  0  0
 23 24  1  0  0  0  0
 23 85  1  0  0  0  0
 23 86  1  0  0  0  0
 24 25  1  0  0  0  0
 24 87  1  0  0  0  0
 24 88  1  0  0  0  0
 25 26  1  0  0  0  0
 25 89  1  0  0  0  0
 25 90  1  0  0  0  0
 26 27  1  0  0  0  0
 26 91  1  0  0  0  0
 26 92  1  0  0  0  0
 27 28  1  0  0  0  0
 27 93  1  0  0  0  0
 27 94  1  0  0  0  0
 28 29  1  0  0  0  0
 28 95  1  0  0  0  0
 28 96  1  0  0  0  0
 29 30  1  0  0  0  0
 29 97  1  0  0  0  0
 29 98  1  0  0  0  0
 30 31  1  0  0  0  0
 30 99  1  0  0  0  0
 30100  1  0  0  0  0
 31 32  2  0  0  0  0
 31101  1  0  0  0  0
 32 33  1  0  0  0  0
 32102  1  0  0  0  0
 34 35  1  0  0  0  0
 34103  1  0  0  0  0
 34104  1  0  0  0  0
 35 36  1  0  0  0  0
 35105  1  0  0  0  0
 35106  1  0  0  0  0
 36 37  1  0  0  0  0
 36107  1  0  0  0  0
 36108  1  0  0  0  0
 37 38  1  0  0  0  0
 37109  1  0  0  0  0
 37110  1  0  0  0  0
 38 50  1  0  0  0  0
 38111  1  1  0  0  0
 40 39  1  1  0  0  0
 40 41  1  0  0  0  0
 40 42  1  0  0  0  0
 41112  1  0  0  0  0
 41113  1  0  0  0  0
 41114  1  0  0  0  0
 42115  1  0  0  0  0
 42116  1  0  0  0  0
 43 44  1  0  0  0  0
 44 45  2  0  0  0  0
 44 49  1  0  0  0  0
 45 46  1  0  0  0  0
 45117  1  0  0  0  0
 46 47  2  0  0  0  0
 46118  1  0  0  0  0
 47 48  1  0  0  0  0
 47119  1  0  0  0  0
 48 49  2  0  0  0  0
 48120  1  0  0  0  0
 51 52  1  0  0  0  0
 51 53  1  0  0  0  0
 51121  1  6  0  0  0
 52122  1  0  0  0  0
 52123  1  0  0  0  0
 52124  1  0  0  0  0
 53 54  1  0  0  0  0
 53125  1  0  0  0  0
 53126  1  0  0  0  0
 55 56  1  0  0  0  0
 55 60  1  0  0  0  0
 55127  1  1  0  0  0
 56 57  1  0  0  0  0
 56128  1  0  0  0  0
 56129  1  0  0  0  0
 57 58  1  0  0  0  0
 57130  1  0  0  0  0
 57131  1  0  0  0  0
 58 59  1  0  0  0  0
 58132  1  0  0  0  0
 58133  1  0  0  0  0
 59134  1  0  0  0  0
 59135  1  0  0  0  0
M  END
$$$$