/media/chris/experiments/cd1a-new-docking/inputs/ligands/7ryo_ligand.pdb
 OpenBabel07032304133D

135137  0  0  1  0  0  0  0  0999 V2000
  -39.2043   59.3899   62.1545 N   0  0  0  0  0  0  0  0  0  0  0  0
  -51.6457   50.4490   56.3912 C   0  0  0  0  0  0  0  0  0  0  0  0
  -40.1500   57.4612   62.8468 O   0  0  0  0  0  0  0  0  0  0  0  0
  -51.1068   51.7136   57.0069 C   0  0  0  0  0  0  0  0  0  0  0  0
  -34.0017   55.5459   60.5756 N   0  0  0  0  0  0  0  0  0  0  0  0
  -34.4110   54.6195   62.5826 O   0  0  0  0  0  0  0  0  0  0  0  0
  -50.6772   51.5400   58.4523 C   0  0  0  0  0  0  0  0  0  0  0  0
  -34.5881   52.0970   61.5564 N   0  0  0  0  0  0  0  0  0  0  0  0
  -36.7654   51.8917   61.0086 O   0  0  0  0  0  0  0  0  0  0  0  0
  -50.1441   52.8045   59.1064 C   0  0  0  0  0  0  0  0  0  0  0  0
  -31.2861   60.7842   66.1006 N   0  0  0  0  0  0  0  0  0  0  0  0
  -37.3723   49.2909   60.7960 O   0  0  0  0  0  0  0  0  0  0  0  0
  -49.7042   52.6006   60.5497 C   0  0  0  0  0  0  0  0  0  0  0  0
  -29.5928   60.7019   69.2974 N   0  0  0  0  0  0  0  0  0  0  0  0
  -31.6963   55.5408   62.0894 O   0  0  0  0  0  0  0  0  0  0  0  0
  -49.1847   53.8629   61.2203 C   0  0  0  0  0  0  0  0  0  0  0  0
  -31.8409   57.7562   62.4790 O   0  0  0  0  0  0  0  0  0  0  0  0
  -50.2009   54.9887   61.3022 C   0  0  0  0  0  0  0  0  0  0  0  0
  -30.7660   58.6293   66.4849 O   0  0  0  0  0  0  0  0  0  0  0  0
  -50.7267   55.4512   59.9532 C   0  0  0  0  0  0  0  0  0  0  0  0
  -29.8139   59.2055   67.6413 O   0  0  0  0  0  0  0  0  0  0  0  0
  -49.6370   55.9562   59.0283 C   0  0  0  0  0  0  0  0  0  0  0  0
  -48.8707   57.1282   59.6109 C   0  0  0  0  0  0  0  0  0  0  0  0
  -48.1558   56.8233   60.9119 C   0  0  0  0  0  0  0  0  0  0  0  0
  -47.4137   58.0184   61.4773 C   0  0  0  0  0  0  0  0  0  0  0  0
  -46.6790   57.7190   62.7735 C   0  0  0  0  0  0  0  0  0  0  0  0
  -45.9509   58.9203   63.3466 C   0  0  0  0  0  0  0  0  0  0  0  0
  -45.1950   58.6394   64.6346 C   0  0  0  0  0  0  0  0  0  0  0  0
  -44.1105   57.5864   64.4857 C   0  0  0  0  0  0  0  0  0  0  0  0
  -43.0251   57.9584   63.4829 C   0  0  0  0  0  0  0  0  0  0  0  0
  -42.3110   59.2128   63.8791 C   0  0  0  0  0  0  0  0  0  0  0  0
  -41.0506   59.5426   63.6318 C   0  0  0  0  0  0  0  0  0  0  0  0
  -40.0967   58.7017   62.8746 C   0  0  0  0  0  0  0  0  0  0  0  0
  -38.2360   58.7337   61.2903 C   0  0  0  0  0  0  0  0  0  0  0  0
  -36.9560   58.4330   62.0390 C   0  0  0  0  0  0  0  0  0  0  0  0
  -35.8780   57.7610   61.2090 C   0  0  0  0  0  0  0  0  0  0  0  0
  -34.6110   57.4590   62.0020 C   0  0  0  0  0  0  0  0  0  0  0  0
  -33.5311   56.7980   61.1441 C   0  0  1  0  0  0  0  0  0  0  0  0
  -34.4083   54.5469   61.3628 C   0  0  0  0  0  0  0  0  0  0  0  0
  -34.8688   53.2476   60.6818 C   0  0  1  0  0  0  0  0  0  0  0  0
  -34.1014   53.0769   59.3742 C   0  0  0  0  0  0  0  0  0  0  0  0
  -36.3873   53.1805   60.4617 C   0  0  0  0  0  0  0  0  0  0  0  0
  -35.6672   51.4394   61.6680 C   0  0  0  0  0  0  0  0  0  0  0  0
  -35.8547   50.2125   62.4461 C   0  0  0  0  0  0  0  0  0  0  0  0
  -35.0867   49.9830   63.5884 C   0  0  0  0  0  0  0  0  0  0  0  0
  -35.0769   48.7360   64.1891 C   0  0  0  0  0  0  0  0  0  0  0  0
  -35.8261   47.7041   63.6670 C   0  0  0  0  0  0  0  0  0  0  0  0
  -36.5922   47.9041   62.5331 C   0  0  0  0  0  0  0  0  0  0  0  0
  -36.6134   49.1498   61.9138 C   0  0  0  0  0  0  0  0  0  0  0  0
  -32.2521   56.5942   61.9423 C   0  0  0  0  0  0  0  0  0  0  0  0
  -31.7348   57.8445   63.9387 C   0  0  2  0  0  0  0  0  0  0  0  0
  -33.0957   57.5642   64.5243 C   0  0  0  0  0  0  0  0  0  0  0  0
  -31.2618   59.2559   64.2282 C   0  0  0  0  0  0  0  0  0  0  0  0
  -31.0782   59.5249   65.7052 C   0  0  0  0  0  0  0  0  0  0  0  0
  -31.1560   61.1831   67.4911 C   0  0  1  0  0  0  0  0  0  0  0  0
  -32.5027   61.0386   68.2088 C   0  0  0  0  0  0  0  0  0  0  0  0
  -32.5929   61.8363   69.5052 C   0  0  0  0  0  0  0  0  0  0  0  0
  -31.5998   61.4449   70.5814 C   0  0  0  0  0  0  0  0  0  0  0  0
  -30.1528   61.6931   70.2098 C   0  0  0  0  0  0  0  0  0  0  0  0
  -30.1286   60.2770   68.1509 C   0  0  0  0  0  0  0  0  0  0  0  0
  -39.2028   60.3728   62.2112 H   0  0  0  0  0  0  0  0  0  0  0  0
  -51.9291   50.6388   55.3770 H   0  0  0  0  0  0  0  0  0  0  0  0
  -52.5001   50.1190   56.9444 H   0  0  0  0  0  0  0  0  0  0  0  0
  -50.8909   49.6910   56.4148 H   0  0  0  0  0  0  0  0  0  0  0  0
  -51.8693   52.4631   56.9666 H   0  0  0  0  0  0  0  0  0  0  0  0
  -50.2378   51.9933   56.4487 H   0  0  0  0  0  0  0  0  0  0  0  0
  -34.0208   55.4328   59.5978 H   0  0  0  0  0  0  0  0  0  0  0  0
  -49.9084   50.7965   58.4857 H   0  0  0  0  0  0  0  0  0  0  0  0
  -51.5532   51.2599   58.9992 H   0  0  0  0  0  0  0  0  0  0  0  0
  -50.9150   53.5462   59.0886 H   0  0  0  0  0  0  0  0  0  0  0  0
  -49.2794   53.1056   58.5527 H   0  0  0  0  0  0  0  0  0  0  0  0
  -31.5346   61.4610   65.4302 H   0  0  0  0  0  0  0  0  0  0  0  0
  -37.4081   50.1170   60.3553 H   0  0  0  0  0  0  0  0  0  0  0  0
  -48.9257   51.8667   60.5641 H   0  0  0  0  0  0  0  0  0  0  0  0
  -50.5701   52.2921   61.0974 H   0  0  0  0  0  0  0  0  0  0  0  0
  -28.7293   60.3049   69.5541 H   0  0  0  0  0  0  0  0  0  0  0  0
  -48.3394   54.2137   60.6658 H   0  0  0  0  0  0  0  0  0  0  0  0
  -48.9390   53.5969   62.2272 H   0  0  0  0  0  0  0  0  0  0  0  0
  -49.7389   55.8234   61.7867 H   0  0  0  0  0  0  0  0  0  0  0  0
  -51.0400   54.6071   61.8455 H   0  0  0  0  0  0  0  0  0  0  0  0
  -51.4289   56.2421   60.1151 H   0  0  0  0  0  0  0  0  0  0  0  0
  -51.1774   54.6037   59.4803 H   0  0  0  0  0  0  0  0  0  0  0  0
  -50.0857   56.2646   58.1072 H   0  0  0  0  0  0  0  0  0  0  0  0
  -48.9415   55.1565   58.8817 H   0  0  0  0  0  0  0  0  0  0  0  0
  -49.5621   57.9256   59.7877 H   0  0  0  0  0  0  0  0  0  0  0  0
  -48.1140   57.3831   58.8987 H   0  0  0  0  0  0  0  0  0  0  0  0
  -47.4517   56.0367   60.7373 H   0  0  0  0  0  0  0  0  0  0  0  0
  -48.9007   56.5429   61.6271 H   0  0  0  0  0  0  0  0  0  0  0  0
  -48.1210   58.7998   61.6617 H   0  0  0  0  0  0  0  0  0  0  0  0
  -46.6758   58.3004   60.7555 H   0  0  0  0  0  0  0  0  0  0  0  0
  -45.9628   56.9463   62.5864 H   0  0  0  0  0  0  0  0  0  0  0  0
  -47.4149   57.4242   63.4920 H   0  0  0  0  0  0  0  0  0  0  0  0
  -46.6715   59.6868   63.5418 H   0  0  0  0  0  0  0  0  0  0  0  0
  -45.2205   59.2101   62.6205 H   0  0  0  0  0  0  0  0  0  0  0  0
  -45.8945   58.3027   65.3710 H   0  0  0  0  0  0  0  0  0  0  0  0
  -44.7111   59.5502   64.9195 H   0  0  0  0  0  0  0  0  0  0  0  0
  -44.5680   56.6740   64.1646 H   0  0  0  0  0  0  0  0  0  0  0  0
  -43.6345   57.4925   65.4394 H   0  0  0  0  0  0  0  0  0  0  0  0
  -43.4751   58.1040   62.5231 H   0  0  0  0  0  0  0  0  0  0  0  0
  -42.3103   57.1626   63.4548 H   0  0  0  0  0  0  0  0  0  0  0  0
  -42.8660   59.9037   64.4080 H   0  0  0  0  0  0  0  0  0  0  0  0
  -40.7114   60.4481   63.9923 H   0  0  0  0  0  0  0  0  0  0  0  0
  -38.0148   59.3748   60.4627 H   0  0  0  0  0  0  0  0  0  0  0  0
  -38.6554   57.8106   60.9484 H   0  0  0  0  0  0  0  0  0  0  0  0
  -37.1937   57.7896   62.8603 H   0  0  0  0  0  0  0  0  0  0  0  0
  -36.5565   59.3772   62.3453 H   0  0  0  0  0  0  0  0  0  0  0  0
  -35.6238   58.4067   60.3945 H   0  0  0  0  0  0  0  0  0  0  0  0
  -36.2729   56.8255   60.8717 H   0  0  0  0  0  0  0  0  0  0  0  0
  -34.8590   56.8018   62.8091 H   0  0  0  0  0  0  0  0  0  0  0  0
  -34.2203   58.3886   62.3599 H   0  0  0  0  0  0  0  0  0  0  0  0
  -33.3097   57.4574   60.3310 H   0  0  0  0  0  0  0  0  0  0  0  0
  -33.0504   53.1293   59.5680 H   0  0  0  0  0  0  0  0  0  0  0  0
  -34.3779   53.8552   58.6941 H   0  0  0  0  0  0  0  0  0  0  0  0
  -34.3376   52.1263   58.9435 H   0  0  0  0  0  0  0  0  0  0  0  0
  -36.8822   53.9740   60.9815 H   0  0  0  0  0  0  0  0  0  0  0  0
  -36.6588   53.2862   59.4321 H   0  0  0  0  0  0  0  0  0  0  0  0
  -34.5219   50.7487   63.9882 H   0  0  0  0  0  0  0  0  0  0  0  0
  -34.5049   48.5781   65.0334 H   0  0  0  0  0  0  0  0  0  0  0  0
  -35.8154   46.7787   64.1237 H   0  0  0  0  0  0  0  0  0  0  0  0
  -37.1498   47.1271   62.1452 H   0  0  0  0  0  0  0  0  0  0  0  0
  -31.0527   57.1402   64.3670 H   0  0  0  0  0  0  0  0  0  0  0  0
  -33.8076   58.2519   64.1177 H   0  0  0  0  0  0  0  0  0  0  0  0
  -33.0569   57.6780   65.5875 H   0  0  0  0  0  0  0  0  0  0  0  0
  -33.3885   56.5636   64.2832 H   0  0  0  0  0  0  0  0  0  0  0  0
  -31.9854   59.9439   63.8434 H   0  0  0  0  0  0  0  0  0  0  0  0
  -30.3077   59.3768   63.7592 H   0  0  0  0  0  0  0  0  0  0  0  0
  -30.8461   62.2055   67.5496 H   0  0  0  0  0  0  0  0  0  0  0  0
  -32.6551   60.0044   68.4368 H   0  0  0  0  0  0  0  0  0  0  0  0
  -33.2521   61.4252   67.5501 H   0  0  0  0  0  0  0  0  0  0  0  0
  -33.5779   61.7087   69.9032 H   0  0  0  0  0  0  0  0  0  0  0  0
  -32.3612   62.8480   69.2449 H   0  0  0  0  0  0  0  0  0  0  0  0
  -31.7197   60.4014   70.7855 H   0  0  0  0  0  0  0  0  0  0  0  0
  -31.8090   62.0599   71.4317 H   0  0  0  0  0  0  0  0  0  0  0  0
  -30.0858   62.6541   69.7441 H   0  0  0  0  0  0  0  0  0  0  0  0
  -29.5871   61.6320   71.1160 H   0  0  0  0  0  0  0  0  0  0  0  0
  1 33  1  0  0  0  0
  1 34  1  0  0  0  0
  1 61  1  0  0  0  0
  2  4  1  0  0  0  0
  2 62  1  0  0  0  0
  2 63  1  0  0  0  0
  2 64  1  0  0  0  0
  3 33  2  0  0  0  0
  4  7  1  0  0  0  0
  4 65  1  0  0  0  0
  4 66  1  0  0  0  0
  5 38  1  0  0  0  0
  5 39  1  0  0  0  0
  5 67  1  0  0  0  0
  6 39  2  0  0  0  0
  7 10  1  0  0  0  0
  7 68  1  0  0  0  0
  7 69  1  0  0  0  0
  8 40  1  0  0  0  0
  8 43  2  0  0  0  0
  9 42  1  0  0  0  0
  9 43  1  0  0  0  0
 10 13  1  0  0  0  0
 10 70  1  0  0  0  0
 10 71  1  0  0  0  0
 11 54  1  0  0  0  0
 11 55  1  0  0  0  0
 11 72  1  0  0  0  0
 12 49  1  0  0  0  0
 12 73  1  0  0  0  0
 13 16  1  0  0  0  0
 13 74  1  0  0  0  0
 13 75  1  0  0  0  0
 14 59  1  0  0  0  0
 14 60  1  0  0  0  0
 14 76  1  0  0  0  0
 15 50  2  0  0  0  0
 16 18  1  0  0  0  0
 16 77  1  0  0  0  0
 16 78  1  0  0  0  0
 17 50  1  0  0  0  0
 17 51  1  0  0  0  0
 18 20  1  0  0  0  0
 18 79  1  0  0  0  0
 18 80  1  0  0  0  0
 19 54  2  0  0  0  0
 20 22  1  0  0  0  0
 20 81  1  0  0  0  0
 20 82  1  0  0  0  0
 21 60  2  0  0  0  0
 22 23  1  0  0  0  0
 22 83  1  0  0  0  0
 22 84  1  0  0  0  0
 23 24  1  0  0  0  0
 23 85  1  0  0  0  0
 23 86  1  0  0  0  0
 24 25  1  0  0  0  0
 24 87  1  0  0  0  0
 24 88  1  0  0  0  0
 25 26  1  0  0  0  0
 25 89  1  0  0  0  0
 25 90  1  0  0  0  0
 26 27  1  0  0  0  0
 26 91  1  0  0  0  0
 26 92  1  0  0  0  0
 27 28  1  0  0  0  0
 27 93  1  0  0  0  0
 27 94  1  0  0  0  0
 28 29  1  0  0  0  0
 28 95  1  0  0  0  0
 28 96  1  0  0  0  0
 29 30  1  0  0  0  0
 29 97  1  0  0  0  0
 29 98  1  0  0  0  0
 30 31  1  0  0  0  0
 30 99  1  0  0  0  0
 30100  1  0  0  0  0
 31 32  2  0  0  0  0
 31101  1  0  0  0  0
 32 33  1  0  0  0  0
 32102  1  0  0  0  0
 34 35  1  0  0  0  0
 34103  1  0  0  0  0
 34104  1  0  0  0  0
 35 36  1  0  0  0  0
 35105  1  0  0  0  0
 35106  1  0  0  0  0
 36 37  1  0  0  0  0
 36107  1  0  0  0  0
 36108  1  0  0  0  0
 37 38  1  0  0  0  0
 37109  1  0  0  0  0
 37110  1  0  0  0  0
 38 50  1  0  0  0  0
 38111  1  6  0  0  0
 40 39  1  1  0  0  0
 40 41  1  0  0  0  0
 40 42  1  0  0  0  0
 41112  1  0  0  0  0
 41113  1  0  0  0  0
 41114  1  0  0  0  0
 42115  1  0  0  0  0
 42116  1  0  0  0  0
 43 44  1  0  0  0  0
 44 45  2  0  0  0  0
 44 49  1  0  0  0  0
 45 46  1  0  0  0  0
 45117  1  0  0  0  0
 46 47  2  0  0  0  0
 46118  1  0  0  0  0
 47 48  1  0  0  0  0
 47119  1  0  0  0  0
 48 49  2  0  0  0  0
 48120  1  0  0  0  0
 51 52  1  0  0  0  0
 51 53  1  0  0  0  0
 51121  1  1  0  0  0
 52122  1  0  0  0  0
 52123  1  0  0  0  0
 52124  1  0  0  0  0
 53 54  1  0  0  0  0
 53125  1  0  0  0  0
 53126  1  0  0  0  0
 55 56  1  0  0  0  0
 55 60  1  0  0  0  0
 55127  1  1  0  0  0
 56 57  1  0  0  0  0
 56128  1  0  0  0  0
 56129  1  0  0  0  0
 57 58  1  0  0  0  0
 57130  1  0  0  0  0
 57131  1  0  0  0  0
 58 59  1  0  0  0  0
 58132  1  0  0  0  0
 58133  1  0  0  0  0
 59134  1  0  0  0  0
 59135  1  0  0  0  0
M  END
$$$$