/media/chris/experiments/cd1a-new-docking/inputs/ligands/7ryo_ligand.pdb
 OpenBabel07032304133D

135137  0  0  1  0  0  0  0  0999 V2000
  -37.9843   59.6092   60.1567 N   0  0  0  0  0  0  0  0  0  0  0  0
  -53.6272   53.9998   55.8341 C   0  0  0  0  0  0  0  0  0  0  0  0
  -39.6701   58.7680   58.9139 O   0  0  0  0  0  0  0  0  0  0  0  0
  -52.1345   53.9296   56.0225 C   0  0  0  0  0  0  0  0  0  0  0  0
  -33.1324   57.6580   60.0424 N   0  0  0  0  0  0  0  0  0  0  0  0
  -35.2034   57.7505   59.1729 O   0  0  0  0  0  0  0  0  0  0  0  0
  -51.5017   55.2811   56.2998 C   0  0  0  0  0  0  0  0  0  0  0  0
  -32.4979   58.2313   57.2076 N   0  0  0  0  0  0  0  0  0  0  0  0
  -33.9877   58.9649   55.6827 O   0  0  0  0  0  0  0  0  0  0  0  0
  -49.9924   55.2445   56.4779 C   0  0  0  0  0  0  0  0  0  0  0  0
  -38.3793   53.9233   58.8809 N   0  0  0  0  0  0  0  0  0  0  0  0
  -34.1322   57.6705   53.4911 O   0  0  0  0  0  0  0  0  0  0  0  0
  -49.3839   56.6088   56.7717 C   0  0  0  0  0  0  0  0  0  0  0  0
  -41.8470   52.9811   59.3065 N   0  0  0  0  0  0  0  0  0  0  0  0
  -33.4892   54.3903   60.9393 O   0  0  0  0  0  0  0  0  0  0  0  0
  -49.6398   57.6446   55.6878 C   0  0  0  0  0  0  0  0  0  0  0  0
  -35.0325   55.5742   59.8004 O   0  0  0  0  0  0  0  0  0  0  0  0
  -49.0214   59.0037   55.9659 C   0  0  0  0  0  0  0  0  0  0  0  0
  -37.9880   56.0689   59.4334 O   0  0  0  0  0  0  0  0  0  0  0  0
  -47.5074   58.9826   56.0985 C   0  0  0  0  0  0  0  0  0  0  0  0
  -40.6513   53.6667   57.5370 O   0  0  0  0  0  0  0  0  0  0  0  0
  -46.9142   60.3463   56.3926 C   0  0  0  0  0  0  0  0  0  0  0  0
  -45.4022   60.3155   56.5057 C   0  0  0  0  0  0  0  0  0  0  0  0
  -44.8749   59.3980   57.5906 C   0  0  0  0  0  0  0  0  0  0  0  0
  -43.3620   59.4020   57.6898 C   0  0  0  0  0  0  0  0  0  0  0  0
  -42.6685   58.9721   56.4077 C   0  0  0  0  0  0  0  0  0  0  0  0
  -42.9771   59.8692   55.2238 C   0  0  0  0  0  0  0  0  0  0  0  0
  -42.5542   61.3172   55.4074 C   0  0  0  0  0  0  0  0  0  0  0  0
  -41.0610   61.4917   55.6241 C   0  0  0  0  0  0  0  0  0  0  0  0
  -40.5261   60.7544   56.8457 C   0  0  0  0  0  0  0  0  0  0  0  0
  -39.0559   60.9717   57.0243 C   0  0  0  0  0  0  0  0  0  0  0  0
  -38.2699   60.4727   57.9687 C   0  0  0  0  0  0  0  0  0  0  0  0
  -38.7243   59.5625   59.0436 C   0  0  0  0  0  0  0  0  0  0  0  0
  -38.2360   58.7337   61.2903 C   0  0  0  0  0  0  0  0  0  0  0  0
  -36.9560   58.4330   62.0390 C   0  0  0  0  0  0  0  0  0  0  0  0
  -35.8780   57.7610   61.2090 C   0  0  0  0  0  0  0  0  0  0  0  0
  -34.6110   57.4590   62.0020 C   0  0  0  0  0  0  0  0  0  0  0  0
  -33.5311   56.7980   61.1441 C   0  0  1  0  0  0  0  0  0  0  0  0
  -34.0234   58.0662   59.1357 C   0  0  0  0  0  0  0  0  0  0  0  0
  -33.5145   58.9550   57.9889 C   0  0  1  0  0  0  0  0  0  0  0  0
  -32.8843   60.2121   58.5810 C   0  0  0  0  0  0  0  0  0  0  0  0
  -34.5984   59.2961   56.9557 C   0  0  0  0  0  0  0  0  0  0  0  0
  -32.8468   58.2943   55.9895 C   0  0  0  0  0  0  0  0  0  0  0  0
  -32.1281   57.7119   54.8538 C   0  0  0  0  0  0  0  0  0  0  0  0
  -30.7407   57.5701   54.9008 C   0  0  0  0  0  0  0  0  0  0  0  0
  -30.0279   57.2535   53.7571 C   0  0  0  0  0  0  0  0  0  0  0  0
  -30.6794   57.0738   52.5564 C   0  0  0  0  0  0  0  0  0  0  0  0
  -32.0534   57.2131   52.4818 C   0  0  0  0  0  0  0  0  0  0  0  0
  -32.7869   57.5330   53.6200 C   0  0  0  0  0  0  0  0  0  0  0  0
  -33.9929   55.4382   60.6419 C   0  0  0  0  0  0  0  0  0  0  0  0
  -35.1887   54.5859   58.7288 C   0  0  2  0  0  0  0  0  0  0  0  0
  -33.9451   54.6195   57.8766 C   0  0  0  0  0  0  0  0  0  0  0  0
  -36.4258   55.0095   57.9609 C   0  0  0  0  0  0  0  0  0  0  0  0
  -37.6683   55.0531   58.8223 C   0  0  0  0  0  0  0  0  0  0  0  0
  -39.5890   53.8186   59.6779 C   0  0  1  0  0  0  0  0  0  0  0  0
  -39.8714   55.1495   60.3840 C   0  0  0  0  0  0  0  0  0  0  0  0
  -40.8239   55.0230   61.5680 C   0  0  0  0  0  0  0  0  0  0  0  0
  -42.2154   54.5227   61.2343 C   0  0  0  0  0  0  0  0  0  0  0  0
  -42.2537   53.1055   60.7021 C   0  0  0  0  0  0  0  0  0  0  0  0
  -40.7433   53.4821   58.7471 C   0  0  0  0  0  0  0  0  0  0  0  0
  -37.2452   60.2572   60.2104 H   0  0  0  0  0  0  0  0  0  0  0  0
  -54.0091   53.0187   55.6431 H   0  0  0  0  0  0  0  0  0  0  0  0
  -53.8524   54.6379   55.0052 H   0  0  0  0  0  0  0  0  0  0  0  0
  -54.0804   54.3927   56.7201 H   0  0  0  0  0  0  0  0  0  0  0  0
  -51.6982   53.5261   55.1327 H   0  0  0  0  0  0  0  0  0  0  0  0
  -51.9509   53.3117   56.8765 H   0  0  0  0  0  0  0  0  0  0  0  0
  -32.1934   57.9432   59.9638 H   0  0  0  0  0  0  0  0  0  0  0  0
  -51.9346   55.6757   57.1952 H   0  0  0  0  0  0  0  0  0  0  0  0
  -51.6926   55.8892   55.4404 H   0  0  0  0  0  0  0  0  0  0  0  0
  -49.5541   54.8643   55.5788 H   0  0  0  0  0  0  0  0  0  0  0  0
  -49.7895   54.6201   57.3228 H   0  0  0  0  0  0  0  0  0  0  0  0
  -38.0745   53.1395   58.3691 H   0  0  0  0  0  0  0  0  0  0  0  0
  -34.6549   57.8856   54.2385 H   0  0  0  0  0  0  0  0  0  0  0  0
  -48.3261   56.4895   56.8805 H   0  0  0  0  0  0  0  0  0  0  0  0
  -49.8506   56.9713   57.6637 H   0  0  0  0  0  0  0  0  0  0  0  0
  -42.4497   52.4746   58.7153 H   0  0  0  0  0  0  0  0  0  0  0  0
  -50.6975   57.7715   55.5881 H   0  0  0  0  0  0  0  0  0  0  0  0
  -49.1802   57.2749   54.7950 H   0  0  0  0  0  0  0  0  0  0  0  0
  -49.4332   59.3794   56.8791 H   0  0  0  0  0  0  0  0  0  0  0  0
  -49.2481   59.6233   55.1236 H   0  0  0  0  0  0  0  0  0  0  0  0
  -47.0907   58.6211   55.1816 H   0  0  0  0  0  0  0  0  0  0  0  0
  -47.2697   58.3475   56.9262 H   0  0  0  0  0  0  0  0  0  0  0  0
  -47.3193   60.7038   57.3162 H   0  0  0  0  0  0  0  0  0  0  0  0
  -47.1638   60.9901   55.5752 H   0  0  0  0  0  0  0  0  0  0  0  0
  -45.0616   61.3086   56.7124 H   0  0  0  0  0  0  0  0  0  0  0  0
  -45.0338   59.9335   55.5766 H   0  0  0  0  0  0  0  0  0  0  0  0
  -45.1997   58.4004   57.3804 H   0  0  0  0  0  0  0  0  0  0  0  0
  -45.2568   59.7554   58.5241 H   0  0  0  0  0  0  0  0  0  0  0  0
  -43.0723   58.7323   58.4724 H   0  0  0  0  0  0  0  0  0  0  0  0
  -43.0625   60.4103   57.8864 H   0  0  0  0  0  0  0  0  0  0  0  0
  -42.9825   57.9772   56.1699 H   0  0  0  0  0  0  0  0  0  0  0  0
  -41.6149   59.0335   56.5835 H   0  0  0  0  0  0  0  0  0  0  0  0
  -44.0333   59.8479   55.0539 H   0  0  0  0  0  0  0  0  0  0  0  0
  -42.4142   59.4888   54.3972 H   0  0  0  0  0  0  0  0  0  0  0  0
  -43.0681   61.7145   56.2577 H   0  0  0  0  0  0  0  0  0  0  0  0
  -42.8027   61.8337   54.5039 H   0  0  0  0  0  0  0  0  0  0  0  0
  -40.8572   62.5352   55.7439 H   0  0  0  0  0  0  0  0  0  0  0  0
  -40.5713   61.0741   54.7692 H   0  0  0  0  0  0  0  0  0  0  0  0
  -40.7098   59.7071   56.7265 H   0  0  0  0  0  0  0  0  0  0  0  0
  -41.0270   61.1358   57.7109 H   0  0  0  0  0  0  0  0  0  0  0  0
  -38.5993   61.5829   56.3293 H   0  0  0  0  0  0  0  0  0  0  0  0
  -37.2726   60.7373   57.9529 H   0  0  0  0  0  0  0  0  0  0  0  0
  -38.6582   57.8163   60.9368 H   0  0  0  0  0  0  0  0  0  0  0  0
  -38.9129   59.2259   61.9570 H   0  0  0  0  0  0  0  0  0  0  0  0
  -37.1937   57.7896   62.8603 H   0  0  0  0  0  0  0  0  0  0  0  0
  -36.5565   59.3772   62.3453 H   0  0  0  0  0  0  0  0  0  0  0  0
  -35.6238   58.4067   60.3945 H   0  0  0  0  0  0  0  0  0  0  0  0
  -36.2729   56.8255   60.8717 H   0  0  0  0  0  0  0  0  0  0  0  0
  -34.8590   56.8018   62.8091 H   0  0  0  0  0  0  0  0  0  0  0  0
  -34.2203   58.3886   62.3599 H   0  0  0  0  0  0  0  0  0  0  0  0
  -32.6704   56.6456   61.7612 H   0  0  0  0  0  0  0  0  0  0  0  0
  -32.1365   59.9342   59.2941 H   0  0  0  0  0  0  0  0  0  0  0  0
  -33.6395   60.7955   59.0650 H   0  0  0  0  0  0  0  0  0  0  0  0
  -32.4351   60.7880   57.7991 H   0  0  0  0  0  0  0  0  0  0  0  0
  -35.4779   58.7091   57.1196 H   0  0  0  0  0  0  0  0  0  0  0  0
  -34.9103   60.3182   57.0088 H   0  0  0  0  0  0  0  0  0  0  0  0
  -30.2423   57.7022   55.7948 H   0  0  0  0  0  0  0  0  0  0  0  0
  -29.0021   57.1514   53.8041 H   0  0  0  0  0  0  0  0  0  0  0  0
  -30.1402   56.8344   51.7096 H   0  0  0  0  0  0  0  0  0  0  0  0
  -32.5359   57.0793   51.5794 H   0  0  0  0  0  0  0  0  0  0  0  0
  -35.3075   53.5819   59.0792 H   0  0  0  0  0  0  0  0  0  0  0  0
  -33.7930   55.6119   57.5067 H   0  0  0  0  0  0  0  0  0  0  0  0
  -34.0586   53.9454   57.0534 H   0  0  0  0  0  0  0  0  0  0  0  0
  -33.1015   54.3249   58.4652 H   0  0  0  0  0  0  0  0  0  0  0  0
  -36.5874   54.3141   57.1638 H   0  0  0  0  0  0  0  0  0  0  0  0
  -36.2533   56.0006   57.5966 H   0  0  0  0  0  0  0  0  0  0  0  0
  -39.4720   53.0567   60.4199 H   0  0  0  0  0  0  0  0  0  0  0  0
  -40.3022   55.8243   59.6741 H   0  0  0  0  0  0  0  0  0  0  0  0
  -38.9382   55.5044   60.7689 H   0  0  0  0  0  0  0  0  0  0  0  0
  -40.9199   55.9886   62.0188 H   0  0  0  0  0  0  0  0  0  0  0  0
  -40.3937   54.2867   62.2144 H   0  0  0  0  0  0  0  0  0  0  0  0
  -42.6365   55.1707   60.4943 H   0  0  0  0  0  0  0  0  0  0  0  0
  -42.7702   54.5230   62.1492 H   0  0  0  0  0  0  0  0  0  0  0  0
  -41.5981   52.5052   61.2977 H   0  0  0  0  0  0  0  0  0  0  0  0
  -43.2727   52.7836   60.7559 H   0  0  0  0  0  0  0  0  0  0  0  0
  1 33  1  0  0  0  0
  1 34  1  0  0  0  0
  1 61  1  0  0  0  0
  2  4  1  0  0  0  0
  2 62  1  0  0  0  0
  2 63  1  0  0  0  0
  2 64  1  0  0  0  0
  3 33  2  0  0  0  0
  4  7  1  0  0  0  0
  4 65  1  0  0  0  0
  4 66  1  0  0  0  0
  5 38  1  0  0  0  0
  5 39  1  0  0  0  0
  5 67  1  0  0  0  0
  6 39  2  0  0  0  0
  7 10  1  0  0  0  0
  7 68  1  0  0  0  0
  7 69  1  0  0  0  0
  8 40  1  0  0  0  0
  8 43  2  0  0  0  0
  9 42  1  0  0  0  0
  9 43  1  0  0  0  0
 10 13  1  0  0  0  0
 10 70  1  0  0  0  0
 10 71  1  0  0  0  0
 11 54  1  0  0  0  0
 11 55  1  0  0  0  0
 11 72  1  0  0  0  0
 12 49  1  0  0  0  0
 12 73  1  0  0  0  0
 13 16  1  0  0  0  0
 13 74  1  0  0  0  0
 13 75  1  0  0  0  0
 14 59  1  0  0  0  0
 14 60  1  0  0  0  0
 14 76  1  0  0  0  0
 15 50  2  0  0  0  0
 16 18  1  0  0  0  0
 16 77  1  0  0  0  0
 16 78  1  0  0  0  0
 17 50  1  0  0  0  0
 17 51  1  0  0  0  0
 18 20  1  0  0  0  0
 18 79  1  0  0  0  0
 18 80  1  0  0  0  0
 19 54  2  0  0  0  0
 20 22  1  0  0  0  0
 20 81  1  0  0  0  0
 20 82  1  0  0  0  0
 21 60  2  0  0  0  0
 22 23  1  0  0  0  0
 22 83  1  0  0  0  0
 22 84  1  0  0  0  0
 23 24  1  0  0  0  0
 23 85  1  0  0  0  0
 23 86  1  0  0  0  0
 24 25  1  0  0  0  0
 24 87  1  0  0  0  0
 24 88  1  0  0  0  0
 25 26  1  0  0  0  0
 25 89  1  0  0  0  0
 25 90  1  0  0  0  0
 26 27  1  0  0  0  0
 26 91  1  0  0  0  0
 26 92  1  0  0  0  0
 27 28  1  0  0  0  0
 27 93  1  0  0  0  0
 27 94  1  0  0  0  0
 28 29  1  0  0  0  0
 28 95  1  0  0  0  0
 28 96  1  0  0  0  0
 29 30  1  0  0  0  0
 29 97  1  0  0  0  0
 29 98  1  0  0  0  0
 30 31  1  0  0  0  0
 30 99  1  0  0  0  0
 30100  1  0  0  0  0
 31 32  2  0  0  0  0
 31101  1  0  0  0  0
 32 33  1  0  0  0  0
 32102  1  0  0  0  0
 34 35  1  0  0  0  0
 34103  1  0  0  0  0
 34104  1  0  0  0  0
 35 36  1  0  0  0  0
 35105  1  0  0  0  0
 35106  1  0  0  0  0
 36 37  1  0  0  0  0
 36107  1  0  0  0  0
 36108  1  0  0  0  0
 37 38  1  0  0  0  0
 37109  1  0  0  0  0
 37110  1  0  0  0  0
 38 50  1  0  0  0  0
 38111  1  1  0  0  0
 40 39  1  1  0  0  0
 40 41  1  0  0  0  0
 40 42  1  0  0  0  0
 41112  1  0  0  0  0
 41113  1  0  0  0  0
 41114  1  0  0  0  0
 42115  1  0  0  0  0
 42116  1  0  0  0  0
 43 44  1  0  0  0  0
 44 45  2  0  0  0  0
 44 49  1  0  0  0  0
 45 46  1  0  0  0  0
 45117  1  0  0  0  0
 46 47  2  0  0  0  0
 46118  1  0  0  0  0
 47 48  1  0  0  0  0
 47119  1  0  0  0  0
 48 49  2  0  0  0  0
 48120  1  0  0  0  0
 51 52  1  0  0  0  0
 51 53  1  0  0  0  0
 51121  1  1  0  0  0
 52122  1  0  0  0  0
 52123  1  0  0  0  0
 52124  1  0  0  0  0
 53 54  1  0  0  0  0
 53125  1  0  0  0  0
 53126  1  0  0  0  0
 55 56  1  0  0  0  0
 55 60  1  0  0  0  0
 55127  1  1  0  0  0
 56 57  1  0  0  0  0
 56128  1  0  0  0  0
 56129  1  0  0  0  0
 57 58  1  0  0  0  0
 57130  1  0  0  0  0
 57131  1  0  0  0  0
 58 59  1  0  0  0  0
 58132  1  0  0  0  0
 58133  1  0  0  0  0
 59134  1  0  0  0  0
 59135  1  0  0  0  0
M  END
$$$$