/media/chris/experiments/cd1a-new-docking/inputs/ligands/7ryo_ligand.pdb
 OpenBabel07032304133D

135137  0  0  1  0  0  0  0  0999 V2000
  -39.2043   59.3899   62.1545 N   0  0  0  0  0  0  0  0  0  0  0  0
  -39.9108   60.6918   51.5308 C   0  0  0  0  0  0  0  0  0  0  0  0
  -37.6388   60.3824   63.4421 O   0  0  0  0  0  0  0  0  0  0  0  0
  -39.0574   61.3038   52.6105 C   0  0  0  0  0  0  0  0  0  0  0  0
  -33.6307   59.6738   61.5549 N   0  0  0  0  0  0  0  0  0  0  0  0
  -33.3713   61.8233   60.9498 O   0  0  0  0  0  0  0  0  0  0  0  0
  -39.8673   61.9241   53.7344 C   0  0  0  0  0  0  0  0  0  0  0  0
  -34.2758   60.2700   64.0691 N   0  0  0  0  0  0  0  0  0  0  0  0
  -32.7619   61.4825   65.2184 O   0  0  0  0  0  0  0  0  0  0  0  0
  -39.0329   62.5652   54.8316 C   0  0  0  0  0  0  0  0  0  0  0  0
  -30.1259   62.7907   63.3869 N   0  0  0  0  0  0  0  0  0  0  0  0
  -35.7078   58.5747   65.7245 O   0  0  0  0  0  0  0  0  0  0  0  0
  -38.1525   63.7041   54.3357 C   0  0  0  0  0  0  0  0  0  0  0  0
  -27.7730   63.6515   60.7761 N   0  0  0  0  0  0  0  0  0  0  0  0
  -32.6005   57.3178   63.9976 O   0  0  0  0  0  0  0  0  0  0  0  0
  -38.9272   64.8612   53.7241 C   0  0  0  0  0  0  0  0  0  0  0  0
  -31.9347   59.4204   63.5328 O   0  0  0  0  0  0  0  0  0  0  0  0
  -39.8967   65.5361   54.6787 C   0  0  0  0  0  0  0  0  0  0  0  0
  -30.5172   61.5562   65.2266 O   0  0  0  0  0  0  0  0  0  0  0  0
  -39.2382   66.1472   55.9048 C   0  0  0  0  0  0  0  0  0  0  0  0
  -28.2132   64.5290   62.7927 O   0  0  0  0  0  0  0  0  0  0  0  0
  -38.4823   65.1359   56.7437 C   0  0  0  0  0  0  0  0  0  0  0  0
  -37.8443   65.7542   57.9728 C   0  0  0  0  0  0  0  0  0  0  0  0
  -38.8276   66.3895   58.9352 C   0  0  0  0  0  0  0  0  0  0  0  0
  -38.1583   67.0132   60.1442 C   0  0  0  0  0  0  0  0  0  0  0  0
  -37.3495   66.0245   60.9676 C   0  0  0  0  0  0  0  0  0  0  0  0
  -38.1733   64.8696   61.5052 C   0  0  0  0  0  0  0  0  0  0  0  0
  -37.3878   63.8771   62.3462 C   0  0  0  0  0  0  0  0  0  0  0  0
  -38.2255   62.7195   62.8611 C   0  0  0  0  0  0  0  0  0  0  0  0
  -39.4000   63.1492   63.7317 C   0  0  0  0  0  0  0  0  0  0  0  0
  -40.1824   61.9731   64.2267 C   0  0  0  0  0  0  0  0  0  0  0  0
  -39.9555   60.6883   63.9887 C   0  0  0  0  0  0  0  0  0  0  0  0
  -38.8330   60.1717   63.1742 C   0  0  0  0  0  0  0  0  0  0  0  0
  -38.2360   58.7337   61.2903 C   0  0  0  0  0  0  0  0  0  0  0  0
  -36.9560   58.4330   62.0390 C   0  0  0  0  0  0  0  0  0  0  0  0
  -35.8780   57.7610   61.2090 C   0  0  0  0  0  0  0  0  0  0  0  0
  -34.6110   57.4590   62.0020 C   0  0  0  0  0  0  0  0  0  0  0  0
  -33.9807   58.7203   62.5945 C   0  0  1  0  0  0  0  0  0  0  0  0
  -33.6460   60.9867   61.7972 C   0  0  0  0  0  0  0  0  0  0  0  0
  -34.0068   61.4427   63.2206 C   0  0  1  0  0  0  0  0  0  0  0  0
  -35.2610   62.3093   63.1583 C   0  0  0  0  0  0  0  0  0  0  0  0
  -32.8557   62.1610   63.9401 C   0  0  0  0  0  0  0  0  0  0  0  0
  -33.5589   60.3878   65.1091 C   0  0  0  0  0  0  0  0  0  0  0  0
  -33.5046   59.4487   66.2320 C   0  0  0  0  0  0  0  0  0  0  0  0
  -32.3274   59.3026   66.9669 C   0  0  0  0  0  0  0  0  0  0  0  0
  -32.1841   58.2571   67.8628 C   0  0  0  0  0  0  0  0  0  0  0  0
  -33.2026   57.3464   68.0411 C   0  0  0  0  0  0  0  0  0  0  0  0
  -34.3777   57.4661   67.3217 C   0  0  0  0  0  0  0  0  0  0  0  0
  -34.5398   58.5088   66.4150 C   0  0  0  0  0  0  0  0  0  0  0  0
  -32.7733   58.3728   63.4524 C   0  0  0  0  0  0  0  0  0  0  0  0
  -30.5069   59.1499   63.7276 C   0  0  2  0  0  0  0  0  0  0  0  0
  -30.2794   58.8699   65.1916 C   0  0  0  0  0  0  0  0  0  0  0  0
  -29.7878   60.4007   63.2609 C   0  0  0  0  0  0  0  0  0  0  0  0
  -30.1736   61.6319   64.0503 C   0  0  0  0  0  0  0  0  0  0  0  0
  -29.7314   62.8598   61.9908 C   0  0  1  0  0  0  0  0  0  0  0  0
  -30.8690   63.4510   61.1506 C   0  0  0  0  0  0  0  0  0  0  0  0
  -30.7458   63.1542   59.6600 C   0  0  0  0  0  0  0  0  0  0  0  0
  -29.5093   63.7131   58.9844 C   0  0  0  0  0  0  0  0  0  0  0  0
  -28.2080   63.1240   59.4873 C   0  0  0  0  0  0  0  0  0  0  0  0
  -28.5056   63.7534   61.8873 C   0  0  0  0  0  0  0  0  0  0  0  0
  -40.1642   59.2544   61.9833 H   0  0  0  0  0  0  0  0  0  0  0  0
  -39.2817   60.2743   50.7727 H   0  0  0  0  0  0  0  0  0  0  0  0
  -40.5360   61.4458   51.1001 H   0  0  0  0  0  0  0  0  0  0  0  0
  -40.5210   59.9207   51.9526 H   0  0  0  0  0  0  0  0  0  0  0  0
  -38.4473   62.0651   52.1709 H   0  0  0  0  0  0  0  0  0  0  0  0
  -38.4725   60.5162   53.0377 H   0  0  0  0  0  0  0  0  0  0  0  0
  -33.3791   59.3474   60.6608 H   0  0  0  0  0  0  0  0  0  0  0  0
  -40.4683   61.1570   54.1763 H   0  0  0  0  0  0  0  0  0  0  0  0
  -40.4477   62.7084   53.2951 H   0  0  0  0  0  0  0  0  0  0  0  0
  -38.4046   61.8139   55.2624 H   0  0  0  0  0  0  0  0  0  0  0  0
  -39.7144   62.9807   55.5442 H   0  0  0  0  0  0  0  0  0  0  0  0
  -30.3651   63.6215   63.8579 H   0  0  0  0  0  0  0  0  0  0  0  0
  -35.8483   59.2648   65.1064 H   0  0  0  0  0  0  0  0  0  0  0  0
  -37.4856   63.3161   53.5944 H   0  0  0  0  0  0  0  0  0  0  0  0
  -37.6373   64.0924   55.1894 H   0  0  0  0  0  0  0  0  0  0  0  0
  -26.8414   63.9651   60.8321 H   0  0  0  0  0  0  0  0  0  0  0  0
  -39.4832   64.4885   52.8893 H   0  0  0  0  0  0  0  0  0  0  0  0
  -38.2057   65.6006   53.4453 H   0  0  0  0  0  0  0  0  0  0  0  0
  -40.6069   64.8064   55.0075 H   0  0  0  0  0  0  0  0  0  0  0  0
  -40.3500   66.3412   54.1391 H   0  0  0  0  0  0  0  0  0  0  0  0
  -39.9981   66.5928   56.5122 H   0  0  0  0  0  0  0  0  0  0  0  0
  -38.5270   66.8674   55.5578 H   0  0  0  0  0  0  0  0  0  0  0  0
  -37.7130   64.6988   56.1420 H   0  0  0  0  0  0  0  0  0  0  0  0
  -39.1867   64.4036   57.0792 H   0  0  0  0  0  0  0  0  0  0  0  0
  -37.1572   66.5083   57.6499 H   0  0  0  0  0  0  0  0  0  0  0  0
  -37.3683   64.9567   58.5041 H   0  0  0  0  0  0  0  0  0  0  0  0
  -39.5079   65.6361   59.2736 H   0  0  0  0  0  0  0  0  0  0  0  0
  -39.3286   67.1741   58.4078 H   0  0  0  0  0  0  0  0  0  0  0  0
  -38.9161   67.4353   60.7706 H   0  0  0  0  0  0  0  0  0  0  0  0
  -37.4751   67.7515   59.7794 H   0  0  0  0  0  0  0  0  0  0  0  0
  -36.9173   66.5467   61.7956 H   0  0  0  0  0  0  0  0  0  0  0  0
  -36.6073   65.6074   60.3195 H   0  0  0  0  0  0  0  0  0  0  0  0
  -38.5953   64.3440   60.6742 H   0  0  0  0  0  0  0  0  0  0  0  0
  -38.9144   65.2960   62.1485 H   0  0  0  0  0  0  0  0  0  0  0  0
  -36.9761   64.3966   63.1861 H   0  0  0  0  0  0  0  0  0  0  0  0
  -36.6311   63.4604   61.7147 H   0  0  0  0  0  0  0  0  0  0  0  0
  -37.5944   62.0773   63.4391 H   0  0  0  0  0  0  0  0  0  0  0  0
  -38.6365   62.2272   62.0045 H   0  0  0  0  0  0  0  0  0  0  0  0
  -40.0465   63.7781   63.1559 H   0  0  0  0  0  0  0  0  0  0  0  0
  -39.0118   63.6725   64.5804 H   0  0  0  0  0  0  0  0  0  0  0  0
  -40.9956   62.1876   64.8247 H   0  0  0  0  0  0  0  0  0  0  0  0
  -40.6066   60.0013   64.4000 H   0  0  0  0  0  0  0  0  0  0  0  0
  -38.0148   59.3748   60.4627 H   0  0  0  0  0  0  0  0  0  0  0  0
  -38.6554   57.8106   60.9484 H   0  0  0  0  0  0  0  0  0  0  0  0
  -37.1937   57.7896   62.8603 H   0  0  0  0  0  0  0  0  0  0  0  0
  -36.5565   59.3772   62.3453 H   0  0  0  0  0  0  0  0  0  0  0  0
  -35.6238   58.4067   60.3945 H   0  0  0  0  0  0  0  0  0  0  0  0
  -36.2729   56.8255   60.8717 H   0  0  0  0  0  0  0  0  0  0  0  0
  -33.9009   56.9930   61.3512 H   0  0  0  0  0  0  0  0  0  0  0  0
  -34.8793   56.8156   62.8138 H   0  0  0  0  0  0  0  0  0  0  0  0
  -34.7094   59.1851   63.2253 H   0  0  0  0  0  0  0  0  0  0  0  0
  -36.0381   61.7762   62.6515 H   0  0  0  0  0  0  0  0  0  0  0  0
  -35.0441   63.2130   62.6282 H   0  0  0  0  0  0  0  0  0  0  0  0
  -35.5804   62.5464   64.1517 H   0  0  0  0  0  0  0  0  0  0  0  0
  -31.9433   62.0629   63.3898 H   0  0  0  0  0  0  0  0  0  0  0  0
  -33.0275   63.2120   64.0439 H   0  0  0  0  0  0  0  0  0  0  0  0
  -31.5581   59.9789   66.8416 H   0  0  0  0  0  0  0  0  0  0  0  0
  -31.3088   58.1592   68.4007 H   0  0  0  0  0  0  0  0  0  0  0  0
  -33.0882   56.5723   68.7139 H   0  0  0  0  0  0  0  0  0  0  0  0
  -35.1364   56.7799   67.4578 H   0  0  0  0  0  0  0  0  0  0  0  0
  -30.1480   58.3024   63.1818 H   0  0  0  0  0  0  0  0  0  0  0  0
  -30.6273   59.6990   65.7716 H   0  0  0  0  0  0  0  0  0  0  0  0
  -29.2342   58.7243   65.3687 H   0  0  0  0  0  0  0  0  0  0  0  0
  -30.8151   57.9876   65.4735 H   0  0  0  0  0  0  0  0  0  0  0  0
  -30.0260   60.5672   62.2311 H   0  0  0  0  0  0  0  0  0  0  0  0
  -28.7398   60.2415   63.4070 H   0  0  0  0  0  0  0  0  0  0  0  0
  -29.5115   61.8786   61.6251 H   0  0  0  0  0  0  0  0  0  0  0  0
  -30.8721   64.5126   61.2849 H   0  0  0  0  0  0  0  0  0  0  0  0
  -31.7768   62.9953   61.4870 H   0  0  0  0  0  0  0  0  0  0  0  0
  -31.6036   63.5650   59.1698 H   0  0  0  0  0  0  0  0  0  0  0  0
  -30.6707   62.0901   59.5771 H   0  0  0  0  0  0  0  0  0  0  0  0
  -29.4853   64.7700   59.1496 H   0  0  0  0  0  0  0  0  0  0  0  0
  -29.5827   63.4575   57.9480 H   0  0  0  0  0  0  0  0  0  0  0  0
  -28.3332   62.0656   59.5825 H   0  0  0  0  0  0  0  0  0  0  0  0
  -27.4543   63.3891   58.7755 H   0  0  0  0  0  0  0  0  0  0  0  0
  1 33  1  0  0  0  0
  1 34  1  0  0  0  0
  1 61  1  0  0  0  0
  2  4  1  0  0  0  0
  2 62  1  0  0  0  0
  2 63  1  0  0  0  0
  2 64  1  0  0  0  0
  3 33  2  0  0  0  0
  4  7  1  0  0  0  0
  4 65  1  0  0  0  0
  4 66  1  0  0  0  0
  5 38  1  0  0  0  0
  5 39  1  0  0  0  0
  5 67  1  0  0  0  0
  6 39  2  0  0  0  0
  7 10  1  0  0  0  0
  7 68  1  0  0  0  0
  7 69  1  0  0  0  0
  8 40  1  0  0  0  0
  8 43  2  0  0  0  0
  9 42  1  0  0  0  0
  9 43  1  0  0  0  0
 10 13  1  0  0  0  0
 10 70  1  0  0  0  0
 10 71  1  0  0  0  0
 11 54  1  0  0  0  0
 11 55  1  0  0  0  0
 11 72  1  0  0  0  0
 12 49  1  0  0  0  0
 12 73  1  0  0  0  0
 13 16  1  0  0  0  0
 13 74  1  0  0  0  0
 13 75  1  0  0  0  0
 14 59  1  0  0  0  0
 14 60  1  0  0  0  0
 14 76  1  0  0  0  0
 15 50  2  0  0  0  0
 16 18  1  0  0  0  0
 16 77  1  0  0  0  0
 16 78  1  0  0  0  0
 17 50  1  0  0  0  0
 17 51  1  0  0  0  0
 18 20  1  0  0  0  0
 18 79  1  0  0  0  0
 18 80  1  0  0  0  0
 19 54  2  0  0  0  0
 20 22  1  0  0  0  0
 20 81  1  0  0  0  0
 20 82  1  0  0  0  0
 21 60  2  0  0  0  0
 22 23  1  0  0  0  0
 22 83  1  0  0  0  0
 22 84  1  0  0  0  0
 23 24  1  0  0  0  0
 23 85  1  0  0  0  0
 23 86  1  0  0  0  0
 24 25  1  0  0  0  0
 24 87  1  0  0  0  0
 24 88  1  0  0  0  0
 25 26  1  0  0  0  0
 25 89  1  0  0  0  0
 25 90  1  0  0  0  0
 26 27  1  0  0  0  0
 26 91  1  0  0  0  0
 26 92  1  0  0  0  0
 27 28  1  0  0  0  0
 27 93  1  0  0  0  0
 27 94  1  0  0  0  0
 28 29  1  0  0  0  0
 28 95  1  0  0  0  0
 28 96  1  0  0  0  0
 29 30  1  0  0  0  0
 29 97  1  0  0  0  0
 29 98  1  0  0  0  0
 30 31  1  0  0  0  0
 30 99  1  0  0  0  0
 30100  1  0  0  0  0
 31 32  2  0  0  0  0
 31101  1  0  0  0  0
 32 33  1  0  0  0  0
 32102  1  0  0  0  0
 34 35  1  0  0  0  0
 34103  1  0  0  0  0
 34104  1  0  0  0  0
 35 36  1  0  0  0  0
 35105  1  0  0  0  0
 35106  1  0  0  0  0
 36 37  1  0  0  0  0
 36107  1  0  0  0  0
 36108  1  0  0  0  0
 37 38  1  0  0  0  0
 37109  1  0  0  0  0
 37110  1  0  0  0  0
 38 50  1  0  0  0  0
 38111  1  1  0  0  0
 40 39  1  6  0  0  0
 40 41  1  0  0  0  0
 40 42  1  0  0  0  0
 41112  1  0  0  0  0
 41113  1  0  0  0  0
 41114  1  0  0  0  0
 42115  1  0  0  0  0
 42116  1  0  0  0  0
 43 44  1  0  0  0  0
 44 45  2  0  0  0  0
 44 49  1  0  0  0  0
 45 46  1  0  0  0  0
 45117  1  0  0  0  0
 46 47  2  0  0  0  0
 46118  1  0  0  0  0
 47 48  1  0  0  0  0
 47119  1  0  0  0  0
 48 49  2  0  0  0  0
 48120  1  0  0  0  0
 51 52  1  0  0  0  0
 51 53  1  0  0  0  0
 51121  1  6  0  0  0
 52122  1  0  0  0  0
 52123  1  0  0  0  0
 52124  1  0  0  0  0
 53 54  1  0  0  0  0
 53125  1  0  0  0  0
 53126  1  0  0  0  0
 55 56  1  0  0  0  0
 55 60  1  0  0  0  0
 55127  1  6  0  0  0
 56 57  1  0  0  0  0
 56128  1  0  0  0  0
 56129  1  0  0  0  0
 57 58  1  0  0  0  0
 57130  1  0  0  0  0
 57131  1  0  0  0  0
 58 59  1  0  0  0  0
 58132  1  0  0  0  0
 58133  1  0  0  0  0
 59134  1  0  0  0  0
 59135  1  0  0  0  0
M  END
$$$$