/media/chris/experiments/cd1a-new-docking/inputs/ligands/5j1a_ligand.pdb


 25 25  0  0  0  0  0  0  0  0999 V2000
  -47.9942   58.4506   66.0808 C   0  0  0  0  0  0  0  0  0  0  0  0
  -49.3259   59.2099   65.9850 C   0  0  0  0  0  0  0  0  0  0  0  0
  -50.1582   58.6777   64.8265 C   0  0  0  0  0  0  0  0  0  0  0  0
  -50.8579   59.8432   64.1265 C   0  0  0  0  0  0  0  0  0  0  0  0
  -50.8557   59.6269   62.6134 C   0  0  0  0  0  0  0  0  0  0  0  0
  -49.5460   57.9770   60.9890 C   0  0  0  0  0  0  0  0  0  0  0  0
  -50.2375   58.2550   62.3380 C   0  0  0  0  0  0  0  0  0  0  0  0
  -49.5561   58.9976   59.8406 C   0  0  0  0  0  0  0  0  0  0  0  0
  -49.4307   58.2071   58.5300 C   0  0  0  0  0  0  0  0  0  0  0  0
  -48.1040   58.1430   57.7361 C   0  0  0  0  0  0  0  0  0  0  0  0
  -46.8235   58.8403   58.2358 C   0  0  0  0  0  0  0  0  0  0  0  0
  -45.7844   58.0510   60.4098 C   0  0  0  0  0  0  0  0  0  0  0  0
  -45.9538   57.7729   58.9143 C   0  0  0  0  0  0  0  0  0  0  0  0
  -47.1095   58.6008   64.8160 C   0  0  0  0  0  0  0  0  0  0  0  0
  -46.2087   59.8581   64.8495 C   0  0  0  0  0  0  0  0  0  0  0  0
  -47.2642   61.1911   61.5534 C   0  0  0  0  0  0  0  0  0  0  0  0
  -46.1020   61.8361   61.1101 C   0  0  0  0  0  0  0  0  0  0  0  0
  -47.2823   60.5381   62.7917 C   0  0  0  0  0  0  0  0  0  0  0  0
  -44.9713   61.8168   61.9263 C   0  0  0  0  0  0  0  0  0  0  0  0
  -44.9987   61.1716   63.1615 C   0  0  0  0  0  0  0  0  0  0  0  0
  -46.1610   60.5451   63.6289 C   0  0  0  0  0  0  0  0  0  0  0  0
  -43.8080   62.4144   61.5694 O   0  0  0  0  0  0  0  0  0  0  0  0
  -43.8709   61.1854   63.9296 O   0  0  0  0  0  0  0  0  0  0  0  0
  -43.7431   62.8602   60.7478 H   0  0  0  0  0  0  0  0  0  0  0  0
  -43.0947   61.6052   63.6147 H   0  0  0  0  0  0  0  0  0  0  0  0
 12 13  1  0  0  0
  9 10  2  0  0  0
  9  8  1  0  0  0
  6  7  2  0  0  0
  6  8  1  0  0  0
 10 11  1  0  0  0
  7  5  1  0  0  0
 16 17  2  0  0  0
 16 18  1  0  0  0
 17 19  1  0  0  0
 18 21  2  0  0  0
 13 11  1  0  0  0
  5  4  1  0  0  0
  4  3  1  0  0  0
  3  2  1  0  0  0
  2  1  1  0  0  0
  1 14  1  0  0  0
 14 15  1  0  0  0
 15 21  1  0  0  0
 19 20  2  0  0  0
 19 22  1  0  0  0
 20 21  1  0  0  0
 20 23  1  0  0  0
 22 24  1  0  0  0
 23 25  1  0  0  0
M  END
> <minimizedAffinity>
-7.43938

> <CNNscore>
0.4191856682

> <CNNaffinity>
6.2845921516

> <CNN_VS>
2.6344108582

> <CNNaffinity_variance>
0.2685815096

$$$$
/media/chris/experiments/cd1a-new-docking/inputs/ligands/5j1a_ligand.pdb


 25 25  0  0  0  0  0  0  0  0999 V2000
  -45.8027   57.3031   58.9949 C   0  0  0  0  0  0  0  0  0  0  0  0
  -46.2979   58.0617   57.7547 C   0  0  0  0  0  0  0  0  0  0  0  0
  -47.5493   58.8628   58.0871 C   0  0  0  0  0  0  0  0  0  0  0  0
  -48.7800   57.9681   57.9352 C   0  0  0  0  0  0  0  0  0  0  0  0
  -49.8118   58.3044   59.0117 C   0  0  0  0  0  0  0  0  0  0  0  0
  -49.6594   59.9527   61.0940 C   0  0  0  0  0  0  0  0  0  0  0  0
  -49.4524   59.6731   59.5925 C   0  0  0  0  0  0  0  0  0  0  0  0
  -50.3362   58.9376   62.0278 C   0  0  0  0  0  0  0  0  0  0  0  0
  -49.2411   57.9890   62.5369 C   0  0  0  0  0  0  0  0  0  0  0  0
  -48.2759   58.3900   63.6780 C   0  0  0  0  0  0  0  0  0  0  0  0
  -48.3831   59.7517   64.3921 C   0  0  0  0  0  0  0  0  0  0  0  0
  -50.5315   59.6635   65.7356 C   0  0  0  0  0  0  0  0  0  0  0  0
  -49.0101   59.4998   65.7702 C   0  0  0  0  0  0  0  0  0  0  0  0
  -46.2949   57.9207   60.3295 C   0  0  0  0  0  0  0  0  0  0  0  0
  -45.1392   58.3651   61.2571 C   0  0  0  0  0  0  0  0  0  0  0  0
  -46.2982   61.8844   61.4191 C   0  0  0  0  0  0  0  0  0  0  0  0
  -45.2391   62.5134   62.0867 C   0  0  0  0  0  0  0  0  0  0  0  0
  -46.2485   60.5116   61.1489 C   0  0  0  0  0  0  0  0  0  0  0  0
  -44.1422   61.7458   62.4775 C   0  0  0  0  0  0  0  0  0  0  0  0
  -44.1027   60.3779   62.2124 C   0  0  0  0  0  0  0  0  0  0  0  0
  -45.1656   59.7311   61.5690 C   0  0  0  0  0  0  0  0  0  0  0  0
  -43.0769   62.2786   63.1249 O   0  0  0  0  0  0  0  0  0  0  0  0
  -43.0126   59.6659   62.6204 O   0  0  0  0  0  0  0  0  0  0  0  0
  -43.0597   63.1939   63.3243 H   0  0  0  0  0  0  0  0  0  0  0  0
  -42.3029   60.1009   63.0505 H   0  0  0  0  0  0  0  0  0  0  0  0
 12 13  1  0  0  0
  9 10  2  0  0  0
  9  8  1  0  0  0
  6  7  2  0  0  0
  6  8  1  0  0  0
 10 11  1  0  0  0
  7  5  1  0  0  0
 16 17  2  0  0  0
 16 18  1  0  0  0
 17 19  1  0  0  0
 18 21  2  0  0  0
 13 11  1  0  0  0
  5  4  1  0  0  0
  4  3  1  0  0  0
  3  2  1  0  0  0
  2  1  1  0  0  0
  1 14  1  0  0  0
 14 15  1  0  0  0
 15 21  1  0  0  0
 19 20  2  0  0  0
 19 22  1  0  0  0
 20 21  1  0  0  0
 20 23  1  0  0  0
 22 24  1  0  0  0
 23 25  1  0  0  0
M  END
> <minimizedAffinity>
-7.58236

> <CNNscore>
0.3905001879

> <CNNaffinity>
6.2966871262

> <CNN_VS>
2.4588575363

> <CNNaffinity_variance>
0.1527343988

$$$$
/media/chris/experiments/cd1a-new-docking/inputs/ligands/5j1a_ligand.pdb


 25 25  0  0  0  0  0  0  0  0999 V2000
  -46.7595   58.2626   57.7370 C   0  0  0  0  0  0  0  0  0  0  0  0
  -47.9113   57.6189   56.9509 C   0  0  0  0  0  0  0  0  0  0  0  0
  -48.9906   57.1215   57.9027 C   0  0  0  0  0  0  0  0  0  0  0  0
  -48.3660   56.1752   58.9285 C   0  0  0  0  0  0  0  0  0  0  0  0
  -49.2441   56.0981   60.1773 C   0  0  0  0  0  0  0  0  0  0  0  0
  -50.4904   58.1991   61.2301 C   0  0  0  0  0  0  0  0  0  0  0  0
  -50.3022   57.1980   60.0735 C   0  0  0  0  0  0  0  0  0  0  0  0
  -49.7302   58.0646   62.5583 C   0  0  0  0  0  0  0  0  0  0  0  0
  -49.3041   59.4777   62.9824 C   0  0  0  0  0  0  0  0  0  0  0  0
  -48.2511   59.7176   64.0907 C   0  0  0  0  0  0  0  0  0  0  0  0
  -47.5444   58.5497   64.8066 C   0  0  0  0  0  0  0  0  0  0  0  0
  -48.8423   59.7877   66.5986 C   0  0  0  0  0  0  0  0  0  0  0  0
  -48.0553   58.5211   66.2536 C   0  0  0  0  0  0  0  0  0  0  0  0
  -47.0529   59.7219   58.1717 C   0  0  0  0  0  0  0  0  0  0  0  0
  -47.5655   59.8318   59.6272 C   0  0  0  0  0  0  0  0  0  0  0  0
  -45.1644   58.2024   61.9371 C   0  0  0  0  0  0  0  0  0  0  0  0
  -44.5897   59.3016   62.5887 C   0  0  0  0  0  0  0  0  0  0  0  0
  -46.1505   58.3944   60.9619 C   0  0  0  0  0  0  0  0  0  0  0  0
  -45.0160   60.5840   62.2439 C   0  0  0  0  0  0  0  0  0  0  0  0
  -45.9924   60.7683   61.2665 C   0  0  0  0  0  0  0  0  0  0  0  0
  -46.5571   59.6803   60.5886 C   0  0  0  0  0  0  0  0  0  0  0  0
  -44.5121   61.6983   62.8288 O   0  0  0  0  0  0  0  0  0  0  0  0
  -46.3726   62.0416   60.9565 O   0  0  0  0  0  0  0  0  0  0  0  0
  -43.8536   61.6228   63.4911 H   0  0  0  0  0  0  0  0  0  0  0  0
  -45.9935   62.7677   61.4114 H   0  0  0  0  0  0  0  0  0  0  0  0
 12 13  1  0  0  0
  9 10  2  0  0  0
  9  8  1  0  0  0
  6  7  2  0  0  0
  6  8  1  0  0  0
 10 11  1  0  0  0
  7  5  1  0  0  0
 16 17  2  0  0  0
 16 18  1  0  0  0
 17 19  1  0  0  0
 18 21  2  0  0  0
 13 11  1  0  0  0
  5  4  1  0  0  0
  4  3  1  0  0  0
  3  2  1  0  0  0
  2  1  1  0  0  0
  1 14  1  0  0  0
 14 15  1  0  0  0
 15 21  1  0  0  0
 19 20  2  0  0  0
 19 22  1  0  0  0
 20 21  1  0  0  0
 20 23  1  0  0  0
 22 24  1  0  0  0
 23 25  1  0  0  0
M  END
> <minimizedAffinity>
-7.37183

> <CNNscore>
0.3802496791

> <CNNaffinity>
6.5481538773

> <CNN_VS>
2.4899334908

> <CNNaffinity_variance>
0.0705804080

$$$$
/media/chris/experiments/cd1a-new-docking/inputs/ligands/5j1a_ligand.pdb


 25 25  0  0  0  0  0  0  0  0999 V2000
  -50.7170   59.8300   63.5430 C   0  0  0  0  0  0  0  0  0  0  0  0
  -50.0702   58.5811   64.1601 C   0  0  0  0  0  0  0  0  0  0  0  0
  -50.0759   58.6764   65.6797 C   0  0  0  0  0  0  0  0  0  0  0  0
  -48.7448   58.1585   66.2258 C   0  0  0  0  0  0  0  0  0  0  0  0
  -48.1358   57.1460   65.2561 C   0  0  0  0  0  0  0  0  0  0  0  0
  -45.5651   56.7802   65.8339 C   0  0  0  0  0  0  0  0  0  0  0  0
  -47.0436   56.3801   66.0047 C   0  0  0  0  0  0  0  0  0  0  0  0
  -45.1212   57.8575   64.8325 C   0  0  0  0  0  0  0  0  0  0  0  0
  -45.1043   59.1964   65.5843 C   0  0  0  0  0  0  0  0  0  0  0  0
  -45.8990   60.4265   65.0842 C   0  0  0  0  0  0  0  0  0  0  0  0
  -46.7812   60.3656   63.8218 C   0  0  0  0  0  0  0  0  0  0  0  0
  -44.9880   62.0094   63.1070 C   0  0  0  0  0  0  0  0  0  0  0  0
  -46.4581   61.6044   62.9752 C   0  0  0  0  0  0  0  0  0  0  0  0
  -50.2484   60.1105   62.0916 C   0  0  0  0  0  0  0  0  0  0  0  0
  -49.7744   58.8388   61.3488 C   0  0  0  0  0  0  0  0  0  0  0  0
  -47.4694   60.6863   59.1062 C   0  0  0  0  0  0  0  0  0  0  0  0
  -47.2002   59.7361   58.1123 C   0  0  0  0  0  0  0  0  0  0  0  0
  -48.3261   60.3751   60.1689 C   0  0  0  0  0  0  0  0  0  0  0  0
  -47.7978   58.4795   58.2061 C   0  0  0  0  0  0  0  0  0  0  0  0
  -48.6435   58.1736   59.2710 C   0  0  0  0  0  0  0  0  0  0  0  0
  -48.9012   59.1046   60.2854 C   0  0  0  0  0  0  0  0  0  0  0  0
  -47.5909   57.5066   57.2850 O   0  0  0  0  0  0  0  0  0  0  0  0
  -49.1995   56.9287   59.3254 O   0  0  0  0  0  0  0  0  0  0  0  0
  -47.0298   57.6672   56.5520 H   0  0  0  0  0  0  0  0  0  0  0  0
  -49.0256   56.3078   58.6456 H   0  0  0  0  0  0  0  0  0  0  0  0
 12 13  1  0  0  0
  9 10  2  0  0  0
  9  8  1  0  0  0
  6  7  2  0  0  0
  6  8  1  0  0  0
 10 11  1  0  0  0
  7  5  1  0  0  0
 16 17  2  0  0  0
 16 18  1  0  0  0
 17 19  1  0  0  0
 18 21  2  0  0  0
 13 11  1  0  0  0
  5  4  1  0  0  0
  4  3  1  0  0  0
  3  2  1  0  0  0
  2  1  1  0  0  0
  1 14  1  0  0  0
 14 15  1  0  0  0
 15 21  1  0  0  0
 19 20  2  0  0  0
 19 22  1  0  0  0
 20 21  1  0  0  0
 20 23  1  0  0  0
 22 24  1  0  0  0
 23 25  1  0  0  0
M  END
> <minimizedAffinity>
-7.27096

> <CNNscore>
0.3482238054

> <CNNaffinity>
6.4642705917

> <CNN_VS>
2.2510128021

> <CNNaffinity_variance>
0.1141602844

$$$$
/media/chris/experiments/cd1a-new-docking/inputs/ligands/5j1a_ligand.pdb


 25 25  0  0  0  0  0  0  0  0999 V2000
  -46.0131   57.9158   59.0800 C   0  0  0  0  0  0  0  0  0  0  0  0
  -46.9518   58.8462   58.2975 C   0  0  0  0  0  0  0  0  0  0  0  0
  -47.7211   58.0604   57.2445 C   0  0  0  0  0  0  0  0  0  0  0  0
  -48.8297   57.2543   57.9221 C   0  0  0  0  0  0  0  0  0  0  0  0
  -49.5436   58.1136   58.9654 C   0  0  0  0  0  0  0  0  0  0  0  0
  -50.2357   57.7663   61.5102 C   0  0  0  0  0  0  0  0  0  0  0  0
  -49.9953   57.1926   60.1001 C   0  0  0  0  0  0  0  0  0  0  0  0
  -49.9195   59.2281   61.8619 C   0  0  0  0  0  0  0  0  0  0  0  0
  -51.1540   59.8008   62.5735 C   0  0  0  0  0  0  0  0  0  0  0  0
  -51.1741   60.0571   64.0995 C   0  0  0  0  0  0  0  0  0  0  0  0
  -49.9426   59.7850   64.9854 C   0  0  0  0  0  0  0  0  0  0  0  0
  -48.7534   57.7739   65.9703 C   0  0  0  0  0  0  0  0  0  0  0  0
  -50.1036   58.3777   65.5765 C   0  0  0  0  0  0  0  0  0  0  0  0
  -46.0974   58.1095   60.6163 C   0  0  0  0  0  0  0  0  0  0  0  0
  -45.7482   59.5473   61.0683 C   0  0  0  0  0  0  0  0  0  0  0  0
  -46.3246   60.2941   64.6551 C   0  0  0  0  0  0  0  0  0  0  0  0
  -45.0784   59.9968   65.2224 C   0  0  0  0  0  0  0  0  0  0  0  0
  -46.5293   60.1435   63.2784 C   0  0  0  0  0  0  0  0  0  0  0  0
  -44.0533   59.5464   64.3909 C   0  0  0  0  0  0  0  0  0  0  0  0
  -44.2662   59.3911   63.0222 C   0  0  0  0  0  0  0  0  0  0  0  0
  -45.5141   59.6597   62.4455 C   0  0  0  0  0  0  0  0  0  0  0  0
  -42.8191   59.2401   64.8608 O   0  0  0  0  0  0  0  0  0  0  0  0
  -43.2362   58.9402   62.2491 O   0  0  0  0  0  0  0  0  0  0  0  0
  -42.6302   59.3291   65.7742 H   0  0  0  0  0  0  0  0  0  0  0  0
  -42.4024   58.7613   62.6373 H   0  0  0  0  0  0  0  0  0  0  0  0
 12 13  1  0  0  0
  9 10  2  0  0  0
  9  8  1  0  0  0
  6  7  2  0  0  0
  6  8  1  0  0  0
 10 11  1  0  0  0
  7  5  1  0  0  0
 16 17  2  0  0  0
 16 18  1  0  0  0
 17 19  1  0  0  0
 18 21  2  0  0  0
 13 11  1  0  0  0
  5  4  1  0  0  0
  4  3  1  0  0  0
  3  2  1  0  0  0
  2  1  1  0  0  0
  1 14  1  0  0  0
 14 15  1  0  0  0
 15 21  1  0  0  0
 19 20  2  0  0  0
 19 22  1  0  0  0
 20 21  1  0  0  0
 20 23  1  0  0  0
 22 24  1  0  0  0
 23 25  1  0  0  0
M  END
> <minimizedAffinity>
-7.77516

> <CNNscore>
0.3396928608

> <CNNaffinity>
6.3917994499

> <CNN_VS>
2.1712486744

> <CNNaffinity_variance>
0.1264659464

$$$$
/media/chris/experiments/cd1a-new-docking/inputs/ligands/5j1a_ligand.pdb


 25 25  0  0  0  0  0  0  0  0999 V2000
  -46.6364   60.6599   61.5717 C   0  0  0  0  0  0  0  0  0  0  0  0
  -47.4609   60.1240   62.7515 C   0  0  0  0  0  0  0  0  0  0  0  0
  -46.9482   60.7022   64.0634 C   0  0  0  0  0  0  0  0  0  0  0  0
  -48.1351   61.0666   64.9558 C   0  0  0  0  0  0  0  0  0  0  0  0
  -48.0731   60.2772   66.2633 C   0  0  0  0  0  0  0  0  0  0  0  0
  -49.5310   58.0882   65.8643 C   0  0  0  0  0  0  0  0  0  0  0  0
  -49.3939   59.5209   66.4159 C   0  0  0  0  0  0  0  0  0  0  0  0
  -48.4166   57.4184   65.0458 C   0  0  0  0  0  0  0  0  0  0  0  0
  -47.6567   56.4812   65.9958 C   0  0  0  0  0  0  0  0  0  0  0  0
  -46.1184   56.5451   66.1521 C   0  0  0  0  0  0  0  0  0  0  0  0
  -45.2664   57.5780   65.3887 C   0  0  0  0  0  0  0  0  0  0  0  0
  -43.8645   59.6558   65.7710 C   0  0  0  0  0  0  0  0  0  0  0  0
  -44.8442   58.6584   66.3938 C   0  0  0  0  0  0  0  0  0  0  0  0
  -47.5074   61.1372   60.3807 C   0  0  0  0  0  0  0  0  0  0  0  0
  -48.4907   60.0555   59.8742 C   0  0  0  0  0  0  0  0  0  0  0  0
  -46.4463   58.2560   57.3568 C   0  0  0  0  0  0  0  0  0  0  0  0
  -46.6401   56.9171   57.7217 C   0  0  0  0  0  0  0  0  0  0  0  0
  -47.0685   59.2827   58.0770 C   0  0  0  0  0  0  0  0  0  0  0  0
  -47.4586   56.6315   58.8143 C   0  0  0  0  0  0  0  0  0  0  0  0
  -48.0686   57.6590   59.5318 C   0  0  0  0  0  0  0  0  0  0  0  0
  -47.8631   59.0029   59.1944 C   0  0  0  0  0  0  0  0  0  0  0  0
  -47.6987   55.3636   59.2296 O   0  0  0  0  0  0  0  0  0  0  0  0
  -48.8546   57.3322   60.5982 O   0  0  0  0  0  0  0  0  0  0  0  0
  -47.3097   54.6409   58.7775 H   0  0  0  0  0  0  0  0  0  0  0  0
  -48.9905   56.4325   60.8219 H   0  0  0  0  0  0  0  0  0  0  0  0
 12 13  1  0  0  0
  9 10  2  0  0  0
  9  8  1  0  0  0
  6  7  2  0  0  0
  6  8  1  0  0  0
 10 11  1  0  0  0
  7  5  1  0  0  0
 16 17  2  0  0  0
 16 18  1  0  0  0
 17 19  1  0  0  0
 18 21  2  0  0  0
 13 11  1  0  0  0
  5  4  1  0  0  0
  4  3  1  0  0  0
  3  2  1  0  0  0
  2  1  1  0  0  0
  1 14  1  0  0  0
 14 15  1  0  0  0
 15 21  1  0  0  0
 19 20  2  0  0  0
 19 22  1  0  0  0
 20 21  1  0  0  0
 20 23  1  0  0  0
 22 24  1  0  0  0
 23 25  1  0  0  0
M  END
> <minimizedAffinity>
-7.40892

> <CNNscore>
0.3375943601

> <CNNaffinity>
6.3557639122

> <CNN_VS>
2.1456699371

> <CNNaffinity_variance>
0.1824256629

$$$$
/media/chris/experiments/cd1a-new-docking/inputs/ligands/5j1a_ligand.pdb


 25 25  0  0  0  0  0  0  0  0999 V2000
  -50.0094   56.1592   60.2304 C   0  0  0  0  0  0  0  0  0  0  0  0
  -49.1098   56.6425   59.0831 C   0  0  0  0  0  0  0  0  0  0  0  0
  -47.8857   55.7463   58.9549 C   0  0  0  0  0  0  0  0  0  0  0  0
  -47.3872   55.7714   57.5096 C   0  0  0  0  0  0  0  0  0  0  0  0
  -46.4679   56.9727   57.2902 C   0  0  0  0  0  0  0  0  0  0  0  0
  -46.3531   58.7622   59.2551 C   0  0  0  0  0  0  0  0  0  0  0  0
  -45.9314   57.4064   58.6555 C   0  0  0  0  0  0  0  0  0  0  0  0
  -47.2098   59.7697   58.4731 C   0  0  0  0  0  0  0  0  0  0  0  0
  -48.3943   60.1524   59.3724 C   0  0  0  0  0  0  0  0  0  0  0  0
  -48.2027   60.9538   60.6822 C   0  0  0  0  0  0  0  0  0  0  0  0
  -46.8147   61.4439   61.1393 C   0  0  0  0  0  0  0  0  0  0  0  0
  -45.6143   62.0380   63.2921 C   0  0  0  0  0  0  0  0  0  0  0  0
  -46.7097   61.1845   62.6484 C   0  0  0  0  0  0  0  0  0  0  0  0
  -50.4254   57.2927   61.2035 C   0  0  0  0  0  0  0  0  0  0  0  0
  -49.2725   57.7575   62.1245 C   0  0  0  0  0  0  0  0  0  0  0  0
  -51.1741   60.2549   64.0999 C   0  0  0  0  0  0  0  0  0  0  0  0
  -50.5584   60.1687   65.3555 C   0  0  0  0  0  0  0  0  0  0  0  0
  -50.7347   59.4527   63.0399 C   0  0  0  0  0  0  0  0  0  0  0  0
  -49.5068   59.2687   65.5266 C   0  0  0  0  0  0  0  0  0  0  0  0
  -49.0796   58.4674   64.4692 C   0  0  0  0  0  0  0  0  0  0  0  0
  -49.7026   58.5243   63.2159 C   0  0  0  0  0  0  0  0  0  0  0  0
  -48.8575   59.1270   66.7081 O   0  0  0  0  0  0  0  0  0  0  0  0
  -48.0521   57.5958   64.6853 O   0  0  0  0  0  0  0  0  0  0  0  0
  -49.1105   59.6450   67.4468 H   0  0  0  0  0  0  0  0  0  0  0  0
  -47.6370   57.5597   65.5245 H   0  0  0  0  0  0  0  0  0  0  0  0
 12 13  1  0  0  0
  9 10  2  0  0  0
  9  8  1  0  0  0
  6  7  2  0  0  0
  6  8  1  0  0  0
 10 11  1  0  0  0
  7  5  1  0  0  0
 16 17  2  0  0  0
 16 18  1  0  0  0
 17 19  1  0  0  0
 18 21  2  0  0  0
 13 11  1  0  0  0
  5  4  1  0  0  0
  4  3  1  0  0  0
  3  2  1  0  0  0
  2  1  1  0  0  0
  1 14  1  0  0  0
 14 15  1  0  0  0
 15 21  1  0  0  0
 19 20  2  0  0  0
 19 22  1  0  0  0
 20 21  1  0  0  0
 20 23  1  0  0  0
 22 24  1  0  0  0
 23 25  1  0  0  0
M  END
> <minimizedAffinity>
-8.23767

> <CNNscore>
0.3368917704

> <CNNaffinity>
6.3215003014

> <CNN_VS>
2.1296613216

> <CNNaffinity_variance>
0.1455768049

$$$$
/media/chris/experiments/cd1a-new-docking/inputs/ligands/5j1a_ligand.pdb


 25 25  0  0  0  0  0  0  0  0999 V2000
  -48.3618   58.8020   65.3363 C   0  0  0  0  0  0  0  0  0  0  0  0
  -49.5355   58.8807   64.3487 C   0  0  0  0  0  0  0  0  0  0  0  0
  -49.0549   59.3757   62.9915 C   0  0  0  0  0  0  0  0  0  0  0  0
  -47.9520   58.4510   62.4753 C   0  0  0  0  0  0  0  0  0  0  0  0
  -47.1513   59.1487   61.3760 C   0  0  0  0  0  0  0  0  0  0  0  0
  -45.9044   58.0269   59.3113 C   0  0  0  0  0  0  0  0  0  0  0  0
  -46.1331   58.1457   60.8308 C   0  0  0  0  0  0  0  0  0  0  0  0
  -46.7569   58.8011   58.2943 C   0  0  0  0  0  0  0  0  0  0  0  0
  -47.6470   57.7769   57.5752 C   0  0  0  0  0  0  0  0  0  0  0  0
  -49.1373   57.5845   57.9451 C   0  0  0  0  0  0  0  0  0  0  0  0
  -49.8210   58.4362   59.0327 C   0  0  0  0  0  0  0  0  0  0  0  0
  -49.6360   56.1887   60.1915 C   0  0  0  0  0  0  0  0  0  0  0  0
  -50.4598   57.4696   60.0393 C   0  0  0  0  0  0  0  0  0  0  0  0
  -47.7007   60.1768   65.6149 C   0  0  0  0  0  0  0  0  0  0  0  0
  -46.1559   60.1350   65.5412 C   0  0  0  0  0  0  0  0  0  0  0  0
  -45.9319   62.3559   62.5794 C   0  0  0  0  0  0  0  0  0  0  0  0
  -44.6709   62.0314   62.0619 C   0  0  0  0  0  0  0  0  0  0  0  0
  -46.4104   61.7170   63.7295 C   0  0  0  0  0  0  0  0  0  0  0  0
  -43.9056   61.0662   62.7160 C   0  0  0  0  0  0  0  0  0  0  0  0
  -44.3848   60.4396   63.8652 C   0  0  0  0  0  0  0  0  0  0  0  0
  -45.6322   60.7726   64.4084 C   0  0  0  0  0  0  0  0  0  0  0  0
  -42.6778   60.6941   62.2782 O   0  0  0  0  0  0  0  0  0  0  0  0
  -43.5978   59.5071   64.4758 O   0  0  0  0  0  0  0  0  0  0  0  0
  -42.3150   61.0885   61.5096 H   0  0  0  0  0  0  0  0  0  0  0  0
  -42.7638   59.2861   64.1105 H   0  0  0  0  0  0  0  0  0  0  0  0
 12 13  1  0  0  0
  9 10  2  0  0  0
  9  8  1  0  0  0
  6  7  2  0  0  0
  6  8  1  0  0  0
 10 11  1  0  0  0
  7  5  1  0  0  0
 16 17  2  0  0  0
 16 18  1  0  0  0
 17 19  1  0  0  0
 18 21  2  0  0  0
 13 11  1  0  0  0
  5  4  1  0  0  0
  4  3  1  0  0  0
  3  2  1  0  0  0
  2  1  1  0  0  0
  1 14  1  0  0  0
 14 15  1  0  0  0
 15 21  1  0  0  0
 19 20  2  0  0  0
 19 22  1  0  0  0
 20 21  1  0  0  0
 20 23  1  0  0  0
 22 24  1  0  0  0
 23 25  1  0  0  0
M  END
> <minimizedAffinity>
-7.21716

> <CNNscore>
0.3273382485

> <CNNaffinity>
6.0816183090

> <CNN_VS>
1.9907462597

> <CNNaffinity_variance>
0.1875259578

$$$$
/media/chris/experiments/cd1a-new-docking/inputs/ligands/5j1a_ligand.pdb


 25 25  0  0  0  0  0  0  0  0999 V2000
  -49.7639   58.3742   64.8885 C   0  0  0  0  0  0  0  0  0  0  0  0
  -50.4713   59.4556   64.0583 C   0  0  0  0  0  0  0  0  0  0  0  0
  -50.1219   59.3061   62.5840 C   0  0  0  0  0  0  0  0  0  0  0  0
  -49.0904   58.1897   62.4174 C   0  0  0  0  0  0  0  0  0  0  0  0
  -49.5388   57.2166   61.3272 C   0  0  0  0  0  0  0  0  0  0  0  0
  -50.0156   57.9493   58.8148 C   0  0  0  0  0  0  0  0  0  0  0  0
  -50.3724   58.0021   60.3133 C   0  0  0  0  0  0  0  0  0  0  0  0
  -48.7628   57.2250   58.2989 C   0  0  0  0  0  0  0  0  0  0  0  0
  -47.9337   58.2540   57.5166 C   0  0  0  0  0  0  0  0  0  0  0  0
  -46.8655   59.1380   58.2039 C   0  0  0  0  0  0  0  0  0  0  0  0
  -46.5491   59.0095   59.7069 C   0  0  0  0  0  0  0  0  0  0  0  0
  -48.0567   61.0352   59.9344 C   0  0  0  0  0  0  0  0  0  0  0  0
  -46.7228   60.3998   60.3336 C   0  0  0  0  0  0  0  0  0  0  0  0
  -49.3341   58.8638   66.2958 C   0  0  0  0  0  0  0  0  0  0  0  0
  -48.5078   60.1712   66.2590 C   0  0  0  0  0  0  0  0  0  0  0  0
  -44.9659   59.1239   66.5959 C   0  0  0  0  0  0  0  0  0  0  0  0
  -44.3996   59.6134   65.4114 C   0  0  0  0  0  0  0  0  0  0  0  0
  -46.3261   59.3197   66.8633 C   0  0  0  0  0  0  0  0  0  0  0  0
  -45.2166   60.2926   64.5080 C   0  0  0  0  0  0  0  0  0  0  0  0
  -46.5718   60.4771   64.7768 C   0  0  0  0  0  0  0  0  0  0  0  0
  -47.1569   59.9708   65.9445 C   0  0  0  0  0  0  0  0  0  0  0  0
  -44.7457   60.7987   63.3419 O   0  0  0  0  0  0  0  0  0  0  0  0
  -47.3339   61.1410   63.8601 O   0  0  0  0  0  0  0  0  0  0  0  0
  -43.8411   60.6985   63.1191 H   0  0  0  0  0  0  0  0  0  0  0  0
  -46.9402   61.4787   63.0799 H   0  0  0  0  0  0  0  0  0  0  0  0
 12 13  1  0  0  0
  9 10  2  0  0  0
  9  8  1  0  0  0
  6  7  2  0  0  0
  6  8  1  0  0  0
 10 11  1  0  0  0
  7  5  1  0  0  0
 16 17  2  0  0  0
 16 18  1  0  0  0
 17 19  1  0  0  0
 18 21  2  0  0  0
 13 11  1  0  0  0
  5  4  1  0  0  0
  4  3  1  0  0  0
  3  2  1  0  0  0
  2  1  1  0  0  0
  1 14  1  0  0  0
 14 15  1  0  0  0
 15 21  1  0  0  0
 19 20  2  0  0  0
 19 22  1  0  0  0
 20 21  1  0  0  0
 20 23  1  0  0  0
 22 24  1  0  0  0
 23 25  1  0  0  0
M  END
> <minimizedAffinity>
-7.64551

> <CNNscore>
0.3210797608

> <CNNaffinity>
6.1542143822

> <CNN_VS>
1.9759936333

> <CNNaffinity_variance>
0.1863207072

$$$$
