/media/chris/experiments/cd1a-new-docking/inputs/ligands/5j1a_ligand.pdb


 25 25  0  0  0  0  0  0  0  0999 V2000
  -49.2061   58.6653   65.9537 C   0  0  0  0  0  0  0  0  0  0  0  0
  -50.0515   58.3263   64.7170 C   0  0  0  0  0  0  0  0  0  0  0  0
  -50.6650   59.5904   64.1307 C   0  0  0  0  0  0  0  0  0  0  0  0
  -50.7621   59.4500   62.6112 C   0  0  0  0  0  0  0  0  0  0  0  0
  -50.2416   58.0808   62.1744 C   0  0  0  0  0  0  0  0  0  0  0  0
  -49.9346   56.9878   59.7686 C   0  0  0  0  0  0  0  0  0  0  0  0
  -50.7772   57.8038   60.7685 C   0  0  0  0  0  0  0  0  0  0  0  0
  -48.5017   56.5342   60.0877 C   0  0  0  0  0  0  0  0  0  0  0  0
  -47.9632   55.8205   58.8391 C   0  0  0  0  0  0  0  0  0  0  0  0
  -46.8241   56.4202   57.9804 C   0  0  0  0  0  0  0  0  0  0  0  0
  -46.1415   57.7513   58.3512 C   0  0  0  0  0  0  0  0  0  0  0  0
  -47.3089   59.9876   58.6065 C   0  0  0  0  0  0  0  0  0  0  0  0
  -46.9055   58.8743   57.6365 C   0  0  0  0  0  0  0  0  0  0  0  0
  -47.7237   58.2293   65.8222 C   0  0  0  0  0  0  0  0  0  0  0  0
  -46.7665   59.4086   65.5281 C   0  0  0  0  0  0  0  0  0  0  0  0
  -46.1441   58.6304   61.9557 C   0  0  0  0  0  0  0  0  0  0  0  0
  -44.7889   58.9573   61.8143 C   0  0  0  0  0  0  0  0  0  0  0  0
  -46.7831   58.7822   63.1920 C   0  0  0  0  0  0  0  0  0  0  0  0
  -44.0954   59.4379   62.9248 C   0  0  0  0  0  0  0  0  0  0  0  0
  -44.7398   59.5940   64.1509 C   0  0  0  0  0  0  0  0  0  0  0  0
  -46.1003   59.2959   64.3003 C   0  0  0  0  0  0  0  0  0  0  0  0
  -42.7831   59.7738   62.8717 O   0  0  0  0  0  0  0  0  0  0  0  0
  -44.0231   60.0749   65.2076 O   0  0  0  0  0  0  0  0  0  0  0  0
  -42.3090   59.6854   62.0682 H   0  0  0  0  0  0  0  0  0  0  0  0
  -43.1131   60.2735   65.1051 H   0  0  0  0  0  0  0  0  0  0  0  0
 12 13  1  0  0  0
  9 10  2  0  0  0
  9  8  1  0  0  0
  6  7  2  0  0  0
  6  8  1  0  0  0
 10 11  1  0  0  0
  7  5  1  0  0  0
 16 17  2  0  0  0
 16 18  1  0  0  0
 17 19  1  0  0  0
 18 21  2  0  0  0
 13 11  1  0  0  0
  5  4  1  0  0  0
  4  3  1  0  0  0
  3  2  1  0  0  0
  2  1  1  0  0  0
  1 14  1  0  0  0
 14 15  1  0  0  0
 15 21  1  0  0  0
 19 20  2  0  0  0
 19 22  1  0  0  0
 20 21  1  0  0  0
 20 23  1  0  0  0
 22 24  1  0  0  0
 23 25  1  0  0  0
M  END
> <minimizedAffinity>
-7.45271

> <CNNscore>
0.4157366753

> <CNNaffinity>
6.4895582199

> <CNN_VS>
2.6979472637

> <CNNaffinity_variance>
0.2118965387

$$$$
/media/chris/experiments/cd1a-new-docking/inputs/ligands/5j1a_ligand.pdb


 25 25  0  0  0  0  0  0  0  0999 V2000
  -45.6080   57.5395   58.9731 C   0  0  0  0  0  0  0  0  0  0  0  0
  -46.1969   58.0471   57.6485 C   0  0  0  0  0  0  0  0  0  0  0  0
  -47.0025   56.9477   56.9700 C   0  0  0  0  0  0  0  0  0  0  0  0
  -48.4664   57.3781   56.8715 C   0  0  0  0  0  0  0  0  0  0  0  0
  -49.1608   57.1969   58.2212 C   0  0  0  0  0  0  0  0  0  0  0  0
  -49.7502   58.8547   60.2163 C   0  0  0  0  0  0  0  0  0  0  0  0
  -49.6057   58.5775   58.7071 C   0  0  0  0  0  0  0  0  0  0  0  0
  -49.5799   57.7492   61.2695 C   0  0  0  0  0  0  0  0  0  0  0  0
  -50.3096   58.2147   62.5380 C   0  0  0  0  0  0  0  0  0  0  0  0
  -49.5507   58.8146   63.7459 C   0  0  0  0  0  0  0  0  0  0  0  0
  -48.0222   59.0115   63.7287 C   0  0  0  0  0  0  0  0  0  0  0  0
  -46.3237   60.3559   65.0463 C   0  0  0  0  0  0  0  0  0  0  0  0
  -47.7228   60.3458   64.4254 C   0  0  0  0  0  0  0  0  0  0  0  0
  -46.1431   58.2999   60.2142 C   0  0  0  0  0  0  0  0  0  0  0  0
  -45.1199   58.3704   61.3724 C   0  0  0  0  0  0  0  0  0  0  0  0
  -45.3271   62.0600   61.6865 C   0  0  0  0  0  0  0  0  0  0  0  0
  -44.1926   62.3550   62.4541 C   0  0  0  0  0  0  0  0  0  0  0  0
  -45.6183   60.7368   61.3340 C   0  0  0  0  0  0  0  0  0  0  0  0
  -43.3664   61.3072   62.8601 C   0  0  0  0  0  0  0  0  0  0  0  0
  -43.6665   59.9913   62.5123 C   0  0  0  0  0  0  0  0  0  0  0  0
  -44.8111   59.6791   61.7675 C   0  0  0  0  0  0  0  0  0  0  0  0
  -42.2497   61.5088   63.6018 O   0  0  0  0  0  0  0  0  0  0  0  0
  -42.8337   58.9980   62.9384 O   0  0  0  0  0  0  0  0  0  0  0  0
  -42.0086   62.3769   63.8591 H   0  0  0  0  0  0  0  0  0  0  0  0
  -42.0687   59.2095   63.4365 H   0  0  0  0  0  0  0  0  0  0  0  0
 12 13  1  0  0  0
  9 10  2  0  0  0
  9  8  1  0  0  0
  6  7  2  0  0  0
  6  8  1  0  0  0
 10 11  1  0  0  0
  7  5  1  0  0  0
 16 17  2  0  0  0
 16 18  1  0  0  0
 17 19  1  0  0  0
 18 21  2  0  0  0
 13 11  1  0  0  0
  5  4  1  0  0  0
  4  3  1  0  0  0
  3  2  1  0  0  0
  2  1  1  0  0  0
  1 14  1  0  0  0
 14 15  1  0  0  0
 15 21  1  0  0  0
 19 20  2  0  0  0
 19 22  1  0  0  0
 20 21  1  0  0  0
 20 23  1  0  0  0
 22 24  1  0  0  0
 23 25  1  0  0  0
M  END
> <minimizedAffinity>
-7.57664

> <CNNscore>
0.4152548313

> <CNNaffinity>
6.2508974075

> <CNN_VS>
2.5957152843

> <CNNaffinity_variance>
0.1096197516

$$$$
/media/chris/experiments/cd1a-new-docking/inputs/ligands/5j1a_ligand.pdb


 25 25  0  0  0  0  0  0  0  0999 V2000
  -49.2164   56.3707   59.6432 C   0  0  0  0  0  0  0  0  0  0  0  0
  -47.8282   56.0066   59.0961 C   0  0  0  0  0  0  0  0  0  0  0  0
  -47.9342   55.5305   57.6538 C   0  0  0  0  0  0  0  0  0  0  0  0
  -46.8832   56.2460   56.8045 C   0  0  0  0  0  0  0  0  0  0  0  0
  -46.2659   57.4010   57.5929 C   0  0  0  0  0  0  0  0  0  0  0  0
  -47.1017   59.8791   58.0795 C   0  0  0  0  0  0  0  0  0  0  0  0
  -46.9147   58.6982   57.1068 C   0  0  0  0  0  0  0  0  0  0  0  0
  -46.7682   59.7657   59.5750 C   0  0  0  0  0  0  0  0  0  0  0  0
  -47.5875   60.8399   60.3052 C   0  0  0  0  0  0  0  0  0  0  0  0
  -47.2805   61.2527   61.7647 C   0  0  0  0  0  0  0  0  0  0  0  0
  -46.1113   60.6337   62.5553 C   0  0  0  0  0  0  0  0  0  0  0  0
  -44.5650   62.5129   61.8440 C   0  0  0  0  0  0  0  0  0  0  0  0
  -45.2129   61.7860   63.0250 C   0  0  0  0  0  0  0  0  0  0  0  0
  -49.2001   57.5977   60.5913 C   0  0  0  0  0  0  0  0  0  0  0  0
  -49.2498   57.2106   62.0883 C   0  0  0  0  0  0  0  0  0  0  0  0
  -51.1714   60.1939   63.1665 C   0  0  0  0  0  0  0  0  0  0  0  0
  -50.7540   60.3495   64.4950 C   0  0  0  0  0  0  0  0  0  0  0  0
  -50.6617   59.1522   62.3822 C   0  0  0  0  0  0  0  0  0  0  0  0
  -49.8278   59.4468   65.0172 C   0  0  0  0  0  0  0  0  0  0  0  0
  -49.3303   58.4073   64.2332 C   0  0  0  0  0  0  0  0  0  0  0  0
  -49.7581   58.2242   62.9119 C   0  0  0  0  0  0  0  0  0  0  0  0
  -49.3718   59.5300   66.2911 O   0  0  0  0  0  0  0  0  0  0  0  0
  -48.4318   57.5438   64.7889 O   0  0  0  0  0  0  0  0  0  0  0  0
  -49.6786   60.2127   66.8548 H   0  0  0  0  0  0  0  0  0  0  0  0
  -48.1473   57.6685   65.6729 H   0  0  0  0  0  0  0  0  0  0  0  0
 12 13  1  0  0  0
  9 10  2  0  0  0
  9  8  1  0  0  0
  6  7  2  0  0  0
  6  8  1  0  0  0
 10 11  1  0  0  0
  7  5  1  0  0  0
 16 17  2  0  0  0
 16 18  1  0  0  0
 17 19  1  0  0  0
 18 21  2  0  0  0
 13 11  1  0  0  0
  5  4  1  0  0  0
  4  3  1  0  0  0
  3  2  1  0  0  0
  2  1  1  0  0  0
  1 14  1  0  0  0
 14 15  1  0  0  0
 15 21  1  0  0  0
 19 20  2  0  0  0
 19 22  1  0  0  0
 20 21  1  0  0  0
 20 23  1  0  0  0
 22 24  1  0  0  0
 23 25  1  0  0  0
M  END
> <minimizedAffinity>
-8.05874

> <CNNscore>
0.3572215736

> <CNNaffinity>
6.3534660339

> <CNN_VS>
2.2695951462

> <CNNaffinity_variance>
0.0921141356

$$$$
/media/chris/experiments/cd1a-new-docking/inputs/ligands/5j1a_ligand.pdb


 25 25  0  0  0  0  0  0  0  0999 V2000
  -46.0315   57.6769   58.4397 C   0  0  0  0  0  0  0  0  0  0  0  0
  -47.0635   58.6930   57.9282 C   0  0  0  0  0  0  0  0  0  0  0  0
  -48.1720   57.9838   57.1624 C   0  0  0  0  0  0  0  0  0  0  0  0
  -49.0581   57.2176   58.1451 C   0  0  0  0  0  0  0  0  0  0  0  0
  -49.7716   58.1926   59.0815 C   0  0  0  0  0  0  0  0  0  0  0  0
  -50.7861   58.0320   61.5354 C   0  0  0  0  0  0  0  0  0  0  0  0
  -50.4449   57.3736   60.1843 C   0  0  0  0  0  0  0  0  0  0  0  0
  -50.3628   59.4699   61.8730 C   0  0  0  0  0  0  0  0  0  0  0  0
  -51.1772   59.9066   63.0995 C   0  0  0  0  0  0  0  0  0  0  0  0
  -50.5041   60.2481   64.4503 C   0  0  0  0  0  0  0  0  0  0  0  0
  -48.9739   60.2036   64.6298 C   0  0  0  0  0  0  0  0  0  0  0  0
  -48.5779   57.7004   64.7046 C   0  0  0  0  0  0  0  0  0  0  0  0
  -48.6503   58.9948   65.5184 C   0  0  0  0  0  0  0  0  0  0  0  0
  -45.5907   57.9339   59.9041 C   0  0  0  0  0  0  0  0  0  0  0  0
  -46.7578   58.3634   60.8243 C   0  0  0  0  0  0  0  0  0  0  0  0
  -46.4874   61.9245   61.8244 C   0  0  0  0  0  0  0  0  0  0  0  0
  -45.8432   61.8344   63.0654 C   0  0  0  0  0  0  0  0  0  0  0  0
  -46.7801   60.7669   61.0935 C   0  0  0  0  0  0  0  0  0  0  0  0
  -45.5051   60.5732   63.5557 C   0  0  0  0  0  0  0  0  0  0  0  0
  -45.8064   59.4242   62.8264 C   0  0  0  0  0  0  0  0  0  0  0  0
  -46.4733   59.4976   61.5967 C   0  0  0  0  0  0  0  0  0  0  0  0
  -44.8787   60.4008   64.7454 O   0  0  0  0  0  0  0  0  0  0  0  0
  -45.4636   58.2114   63.3492 O   0  0  0  0  0  0  0  0  0  0  0  0
  -44.6565   61.1447   65.2700 H   0  0  0  0  0  0  0  0  0  0  0  0
  -45.0176   58.1650   64.1719 H   0  0  0  0  0  0  0  0  0  0  0  0
 12 13  1  0  0  0
  9 10  2  0  0  0
  9  8  1  0  0  0
  6  7  2  0  0  0
  6  8  1  0  0  0
 10 11  1  0  0  0
  7  5  1  0  0  0
 16 17  2  0  0  0
 16 18  1  0  0  0
 17 19  1  0  0  0
 18 21  2  0  0  0
 13 11  1  0  0  0
  5  4  1  0  0  0
  4  3  1  0  0  0
  3  2  1  0  0  0
  2  1  1  0  0  0
  1 14  1  0  0  0
 14 15  1  0  0  0
 15 21  1  0  0  0
 19 20  2  0  0  0
 19 22  1  0  0  0
 20 21  1  0  0  0
 20 23  1  0  0  0
 22 24  1  0  0  0
 23 25  1  0  0  0
M  END
> <minimizedAffinity>
-7.72486

> <CNNscore>
0.3504717052

> <CNNaffinity>
6.2672839165

> <CNN_VS>
2.1965057850

> <CNNaffinity_variance>
0.2530345619

$$$$
/media/chris/experiments/cd1a-new-docking/inputs/ligands/5j1a_ligand.pdb


 25 25  0  0  0  0  0  0  0  0999 V2000
  -46.0017   58.4143   59.9413 C   0  0  0  0  0  0  0  0  0  0  0  0
  -45.6325   57.5394   58.7341 C   0  0  0  0  0  0  0  0  0  0  0  0
  -46.3805   58.0052   57.4925 C   0  0  0  0  0  0  0  0  0  0  0  0
  -46.9656   56.7927   56.7675 C   0  0  0  0  0  0  0  0  0  0  0  0
  -48.4525   56.6514   57.0927 C   0  0  0  0  0  0  0  0  0  0  0  0
  -49.5153   56.9636   59.5113 C   0  0  0  0  0  0  0  0  0  0  0  0
  -48.5720   56.2107   58.5527 C   0  0  0  0  0  0  0  0  0  0  0  0
  -50.2644   58.2363   59.0874 C   0  0  0  0  0  0  0  0  0  0  0  0
  -49.2798   59.4074   59.2192 C   0  0  0  0  0  0  0  0  0  0  0  0
  -49.2037   60.2731   60.4996 C   0  0  0  0  0  0  0  0  0  0  0  0
  -50.0878   59.9853   61.7288 C   0  0  0  0  0  0  0  0  0  0  0  0
  -49.7087   58.2367   63.5253 C   0  0  0  0  0  0  0  0  0  0  0  0
  -49.1649   59.5011   62.8555 C   0  0  0  0  0  0  0  0  0  0  0  0
  -45.1737   58.0888   61.2114 C   0  0  0  0  0  0  0  0  0  0  0  0
  -45.5218   58.9975   62.4141 C   0  0  0  0  0  0  0  0  0  0  0  0
  -44.3607   62.4667   61.8048 C   0  0  0  0  0  0  0  0  0  0  0  0
  -43.1522   62.5022   62.5130 C   0  0  0  0  0  0  0  0  0  0  0  0
  -45.1316   61.2985   61.7789 C   0  0  0  0  0  0  0  0  0  0  0  0
  -42.7382   61.3558   63.1910 C   0  0  0  0  0  0  0  0  0  0  0  0
  -43.5145   60.1983   63.1675 C   0  0  0  0  0  0  0  0  0  0  0  0
  -44.7372   60.1566   62.4853 C   0  0  0  0  0  0  0  0  0  0  0  0
  -41.5817   61.3075   63.8964 O   0  0  0  0  0  0  0  0  0  0  0  0
  -43.0734   59.1034   63.8518 O   0  0  0  0  0  0  0  0  0  0  0  0
  -41.0277   62.0620   63.9402 H   0  0  0  0  0  0  0  0  0  0  0  0
  -42.2551   59.1339   64.3074 H   0  0  0  0  0  0  0  0  0  0  0  0
 12 13  1  0  0  0
  9 10  2  0  0  0
  9  8  1  0  0  0
  6  7  2  0  0  0
  6  8  1  0  0  0
 10 11  1  0  0  0
  7  5  1  0  0  0
 16 17  2  0  0  0
 16 18  1  0  0  0
 17 19  1  0  0  0
 18 21  2  0  0  0
 13 11  1  0  0  0
  5  4  1  0  0  0
  4  3  1  0  0  0
  3  2  1  0  0  0
  2  1  1  0  0  0
  1 14  1  0  0  0
 14 15  1  0  0  0
 15 21  1  0  0  0
 19 20  2  0  0  0
 19 22  1  0  0  0
 20 21  1  0  0  0
 20 23  1  0  0  0
 22 24  1  0  0  0
 23 25  1  0  0  0
M  END
> <minimizedAffinity>
-7.80060

> <CNNscore>
0.3357086778

> <CNNaffinity>
6.1589441299

> <CNN_VS>
2.0676109791

> <CNNaffinity_variance>
0.1162519306

$$$$
/media/chris/experiments/cd1a-new-docking/inputs/ligands/5j1a_ligand.pdb


 25 25  0  0  0  0  0  0  0  0999 V2000
  -45.6066   61.5508   62.6573 C   0  0  0  0  0  0  0  0  0  0  0  0
  -45.8494   61.0013   61.2437 C   0  0  0  0  0  0  0  0  0  0  0  0
  -47.3305   61.0654   60.8966 C   0  0  0  0  0  0  0  0  0  0  0  0
  -47.5290   60.6464   59.4395 C   0  0  0  0  0  0  0  0  0  0  0  0
  -46.7961   59.3335   59.1644 C   0  0  0  0  0  0  0  0  0  0  0  0
  -47.9025   57.9457   57.1828 C   0  0  0  0  0  0  0  0  0  0  0  0
  -46.9231   59.0315   57.6701 C   0  0  0  0  0  0  0  0  0  0  0  0
  -48.6837   57.0531   58.1594 C   0  0  0  0  0  0  0  0  0  0  0  0
  -49.9187   57.8464   58.6104 C   0  0  0  0  0  0  0  0  0  0  0  0
  -50.3093   57.9755   60.1022 C   0  0  0  0  0  0  0  0  0  0  0  0
  -49.4593   57.3442   61.2222 C   0  0  0  0  0  0  0  0  0  0  0  0
  -50.5253   59.4143   62.2256 C   0  0  0  0  0  0  0  0  0  0  0  0
  -49.4874   58.3058   62.4180 C   0  0  0  0  0  0  0  0  0  0  0  0
  -46.8251   61.3780   63.6008 C   0  0  0  0  0  0  0  0  0  0  0  0
  -46.4863   60.6039   64.8967 C   0  0  0  0  0  0  0  0  0  0  0  0
  -49.7708   59.2891   66.0093 C   0  0  0  0  0  0  0  0  0  0  0  0
  -49.5082   57.9200   66.1503 C   0  0  0  0  0  0  0  0  0  0  0  0
  -48.7594   60.1647   65.5968 C   0  0  0  0  0  0  0  0  0  0  0  0
  -48.2253   57.4506   65.8689 C   0  0  0  0  0  0  0  0  0  0  0  0
  -47.2250   58.3267   65.4511 C   0  0  0  0  0  0  0  0  0  0  0  0
  -47.4801   59.6935   65.2808 C   0  0  0  0  0  0  0  0  0  0  0  0
  -47.8898   56.1421   65.9831 O   0  0  0  0  0  0  0  0  0  0  0  0
  -45.9871   57.8212   65.1796 O   0  0  0  0  0  0  0  0  0  0  0  0
  -48.5300   55.5168   66.2607 H   0  0  0  0  0  0  0  0  0  0  0  0
  -45.8190   56.9065   65.2943 H   0  0  0  0  0  0  0  0  0  0  0  0
 12 13  1  0  0  0
  9 10  2  0  0  0
  9  8  1  0  0  0
  6  7  2  0  0  0
  6  8  1  0  0  0
 10 11  1  0  0  0
  7  5  1  0  0  0
 16 17  2  0  0  0
 16 18  1  0  0  0
 17 19  1  0  0  0
 18 21  2  0  0  0
 13 11  1  0  0  0
  5  4  1  0  0  0
  4  3  1  0  0  0
  3  2  1  0  0  0
  2  1  1  0  0  0
  1 14  1  0  0  0
 14 15  1  0  0  0
 15 21  1  0  0  0
 19 20  2  0  0  0
 19 22  1  0  0  0
 20 21  1  0  0  0
 20 23  1  0  0  0
 22 24  1  0  0  0
 23 25  1  0  0  0
M  END
> <minimizedAffinity>
-7.71439

> <CNNscore>
0.3312930465

> <CNNaffinity>
6.2535605431

> <CNN_VS>
2.0717611313

> <CNNaffinity_variance>
0.3520047367

$$$$
/media/chris/experiments/cd1a-new-docking/inputs/ligands/5j1a_ligand.pdb


 25 25  0  0  0  0  0  0  0  0999 V2000
  -48.0441   58.4264   63.3193 C   0  0  0  0  0  0  0  0  0  0  0  0
  -49.4215   58.0258   62.7703 C   0  0  0  0  0  0  0  0  0  0  0  0
  -49.2761   57.3509   61.4132 C   0  0  0  0  0  0  0  0  0  0  0  0
  -50.4044   57.8155   60.4917 C   0  0  0  0  0  0  0  0  0  0  0  0
  -49.8461   58.7100   59.3850 C   0  0  0  0  0  0  0  0  0  0  0  0
  -48.1959   60.7647   59.7473 C   0  0  0  0  0  0  0  0  0  0  0  0
  -49.5555   60.0824   59.9950 C   0  0  0  0  0  0  0  0  0  0  0  0
  -47.0530   60.0604   59.0001 C   0  0  0  0  0  0  0  0  0  0  0  0
  -46.2911   59.2140   60.0303 C   0  0  0  0  0  0  0  0  0  0  0  0
  -45.8272   57.7703   59.7218 C   0  0  0  0  0  0  0  0  0  0  0  0
  -46.0728   57.1138   58.3492 C   0  0  0  0  0  0  0  0  0  0  0  0
  -47.5681   55.4216   57.1962 C   0  0  0  0  0  0  0  0  0  0  0  0
  -47.2222   56.1108   58.5184 C   0  0  0  0  0  0  0  0  0  0  0  0
  -47.8068   59.9589   63.3228 C   0  0  0  0  0  0  0  0  0  0  0  0
  -46.6273   60.3898   64.2265 C   0  0  0  0  0  0  0  0  0  0  0  0
  -44.9958   62.5826   61.7196 C   0  0  0  0  0  0  0  0  0  0  0  0
  -43.6421   62.4653   62.0615 C   0  0  0  0  0  0  0  0  0  0  0  0
  -45.9712   61.8867   62.4436 C   0  0  0  0  0  0  0  0  0  0  0  0
  -43.2898   61.6477   63.1351 C   0  0  0  0  0  0  0  0  0  0  0  0
  -44.2667   60.9639   63.8567 C   0  0  0  0  0  0  0  0  0  0  0  0
  -45.6258   61.0921   63.5426 C   0  0  0  0  0  0  0  0  0  0  0  0
  -42.0032   61.4790   63.5275 O   0  0  0  0  0  0  0  0  0  0  0  0
  -43.8759   60.1817   64.9041 O   0  0  0  0  0  0  0  0  0  0  0  0
  -41.3129   61.9192   63.0718 H   0  0  0  0  0  0  0  0  0  0  0  0
  -42.9661   60.0976   65.1122 H   0  0  0  0  0  0  0  0  0  0  0  0
 12 13  1  0  0  0
  9 10  2  0  0  0
  9  8  1  0  0  0
  6  7  2  0  0  0
  6  8  1  0  0  0
 10 11  1  0  0  0
  7  5  1  0  0  0
 16 17  2  0  0  0
 16 18  1  0  0  0
 17 19  1  0  0  0
 18 21  2  0  0  0
 13 11  1  0  0  0
  5  4  1  0  0  0
  4  3  1  0  0  0
  3  2  1  0  0  0
  2  1  1  0  0  0
  1 14  1  0  0  0
 14 15  1  0  0  0
 15 21  1  0  0  0
 19 20  2  0  0  0
 19 22  1  0  0  0
 20 21  1  0  0  0
 20 23  1  0  0  0
 22 24  1  0  0  0
 23 25  1  0  0  0
M  END
> <minimizedAffinity>
-7.59647

> <CNNscore>
0.3268234134

> <CNNaffinity>
6.0622072220

> <CNN_VS>
1.9812712669

> <CNNaffinity_variance>
0.1329405755

$$$$
/media/chris/experiments/cd1a-new-docking/inputs/ligands/5j1a_ligand.pdb


 25 25  0  0  0  0  0  0  0  0999 V2000
  -49.5514   59.7172   62.9307 C   0  0  0  0  0  0  0  0  0  0  0  0
  -50.1331   60.2839   61.6270 C   0  0  0  0  0  0  0  0  0  0  0  0
  -49.0200   60.5625   60.6262 C   0  0  0  0  0  0  0  0  0  0  0  0
  -47.6886   60.0756   61.1991 C   0  0  0  0  0  0  0  0  0  0  0  0
  -46.6459   59.9637   60.0869 C   0  0  0  0  0  0  0  0  0  0  0  0
  -45.8537   57.7339   58.8717 C   0  0  0  0  0  0  0  0  0  0  0  0
  -46.0348   58.5632   60.1582 C   0  0  0  0  0  0  0  0  0  0  0  0
  -46.3805   58.2132   57.5104 C   0  0  0  0  0  0  0  0  0  0  0  0
  -47.2596   57.0892   56.9428 C   0  0  0  0  0  0  0  0  0  0  0  0
  -48.7542   56.9495   57.3186 C   0  0  0  0  0  0  0  0  0  0  0  0
  -49.4535   57.9530   58.2564 C   0  0  0  0  0  0  0  0  0  0  0  0
  -48.9743   55.9032   59.6696 C   0  0  0  0  0  0  0  0  0  0  0  0
  -49.7406   57.2250   59.5767 C   0  0  0  0  0  0  0  0  0  0  0  0
  -50.6354   59.3401   63.9736 C   0  0  0  0  0  0  0  0  0  0  0  0
  -50.1984   59.6151   65.4319 C   0  0  0  0  0  0  0  0  0  0  0  0
  -48.0575   56.6376   65.9849 C   0  0  0  0  0  0  0  0  0  0  0  0
  -47.0038   57.1680   66.7411 C   0  0  0  0  0  0  0  0  0  0  0  0
  -49.1088   57.4596   65.5622 C   0  0  0  0  0  0  0  0  0  0  0  0
  -47.0233   58.5260   67.0585 C   0  0  0  0  0  0  0  0  0  0  0  0
  -48.0692   59.3404   66.6278 C   0  0  0  0  0  0  0  0  0  0  0  0
  -49.1156   58.8293   65.8493 C   0  0  0  0  0  0  0  0  0  0  0  0
  -46.0441   59.1151   67.7877 O   0  0  0  0  0  0  0  0  0  0  0  0
  -48.0420   60.6647   66.9556 O   0  0  0  0  0  0  0  0  0  0  0  0
  -45.3210   58.6066   68.0985 H   0  0  0  0  0  0  0  0  0  0  0  0
  -47.3409   61.0041   67.4764 H   0  0  0  0  0  0  0  0  0  0  0  0
 12 13  1  0  0  0
  9 10  2  0  0  0
  9  8  1  0  0  0
  6  7  2  0  0  0
  6  8  1  0  0  0
 10 11  1  0  0  0
  7  5  1  0  0  0
 16 17  2  0  0  0
 16 18  1  0  0  0
 17 19  1  0  0  0
 18 21  2  0  0  0
 13 11  1  0  0  0
  5  4  1  0  0  0
  4  3  1  0  0  0
  3  2  1  0  0  0
  2  1  1  0  0  0
  1 14  1  0  0  0
 14 15  1  0  0  0
 15 21  1  0  0  0
 19 20  2  0  0  0
 19 22  1  0  0  0
 20 21  1  0  0  0
 20 23  1  0  0  0
 22 24  1  0  0  0
 23 25  1  0  0  0
M  END
> <minimizedAffinity>
-8.26137

> <CNNscore>
0.3109568357

> <CNNaffinity>
6.1449394226

> <CNN_VS>
1.9108109474

> <CNNaffinity_variance>
0.2534145415

$$$$
/media/chris/experiments/cd1a-new-docking/inputs/ligands/5j1a_ligand.pdb


 25 25  0  0  0  0  0  0  0  0999 V2000
  -48.3377   60.5624   61.2344 C   0  0  0  0  0  0  0  0  0  0  0  0
  -47.0372   61.3478   61.0090 C   0  0  0  0  0  0  0  0  0  0  0  0
  -45.8395   60.5410   61.4915 C   0  0  0  0  0  0  0  0  0  0  0  0
  -46.1612   59.9180   62.8503 C   0  0  0  0  0  0  0  0  0  0  0  0
  -45.9942   60.9570   63.9590 C   0  0  0  0  0  0  0  0  0  0  0  0
  -46.7379   59.8621   66.2665 C   0  0  0  0  0  0  0  0  0  0  0  0
  -45.6366   60.2131   65.2469 C   0  0  0  0  0  0  0  0  0  0  0  0
  -48.1880   60.3417   66.0996 C   0  0  0  0  0  0  0  0  0  0  0  0
  -49.1008   59.1584   66.4532 C   0  0  0  0  0  0  0  0  0  0  0  0
  -49.7014   58.2343   65.3669 C   0  0  0  0  0  0  0  0  0  0  0  0
  -49.3876   58.4287   63.8705 C   0  0  0  0  0  0  0  0  0  0  0  0
  -51.1740   60.1662   63.4030 C   0  0  0  0  0  0  0  0  0  0  0  0
  -50.7138   58.7271   63.1578 C   0  0  0  0  0  0  0  0  0  0  0  0
  -49.2206   60.4594   59.9637 C   0  0  0  0  0  0  0  0  0  0  0  0
  -49.5456   59.0002   59.5653 C   0  0  0  0  0  0  0  0  0  0  0  0
  -46.5171   58.3943   57.5120 C   0  0  0  0  0  0  0  0  0  0  0  0
  -46.3240   57.0156   57.6708 C   0  0  0  0  0  0  0  0  0  0  0  0
  -47.5899   59.0356   58.1427 C   0  0  0  0  0  0  0  0  0  0  0  0
  -47.2165   56.3008   58.4694 C   0  0  0  0  0  0  0  0  0  0  0  0
  -48.2779   56.9470   59.1008 C   0  0  0  0  0  0  0  0  0  0  0  0
  -48.4680   58.3288   58.9720 C   0  0  0  0  0  0  0  0  0  0  0  0
  -47.1007   54.9653   58.6713 O   0  0  0  0  0  0  0  0  0  0  0  0
  -49.1211   56.2084   59.8787 O   0  0  0  0  0  0  0  0  0  0  0  0
  -46.4023   54.4892   58.2668 H   0  0  0  0  0  0  0  0  0  0  0  0
  -48.9917   55.2842   59.9632 H   0  0  0  0  0  0  0  0  0  0  0  0
 12 13  1  0  0  0
  9 10  2  0  0  0
  9  8  1  0  0  0
  6  7  2  0  0  0
  6  8  1  0  0  0
 10 11  1  0  0  0
  7  5  1  0  0  0
 16 17  2  0  0  0
 16 18  1  0  0  0
 17 19  1  0  0  0
 18 21  2  0  0  0
 13 11  1  0  0  0
  5  4  1  0  0  0
  4  3  1  0  0  0
  3  2  1  0  0  0
  2  1  1  0  0  0
  1 14  1  0  0  0
 14 15  1  0  0  0
 15 21  1  0  0  0
 19 20  2  0  0  0
 19 22  1  0  0  0
 20 21  1  0  0  0
 20 23  1  0  0  0
 22 24  1  0  0  0
 23 25  1  0  0  0
M  END
> <minimizedAffinity>
-7.97725

> <CNNscore>
0.3094520569

> <CNNaffinity>
6.5309829712

> <CNN_VS>
2.0210261345

> <CNNaffinity_variance>
0.1090730056

$$$$
