/media/chris/experiments/cd1a-new-docking/inputs/ligands/5j1a_ligand.pdb


 25 25  0  0  0  0  0  0  0  0999 V2000
  -50.2619   58.6249   61.7202 C   0  0  0  0  0  0  0  0  0  0  0  0
  -51.1345   59.4431   62.6837 C   0  0  0  0  0  0  0  0  0  0  0  0
  -50.2787   60.0583   63.7824 C   0  0  0  0  0  0  0  0  0  0  0  0
  -51.0906   60.1341   65.0759 C   0  0  0  0  0  0  0  0  0  0  0  0
  -50.3165   59.4840   66.2225 C   0  0  0  0  0  0  0  0  0  0  0  0
  -48.5580   57.5498   65.7296 C   0  0  0  0  0  0  0  0  0  0  0  0
  -50.0169   58.0379   65.8237 C   0  0  0  0  0  0  0  0  0  0  0  0
  -47.3654   58.5025   65.9049 C   0  0  0  0  0  0  0  0  0  0  0  0
  -46.6130   58.0596   67.1683 C   0  0  0  0  0  0  0  0  0  0  0  0
  -45.3902   57.1133   67.1036 C   0  0  0  0  0  0  0  0  0  0  0  0
  -44.8370   56.5909   65.7632 C   0  0  0  0  0  0  0  0  0  0  0  0
  -42.8760   58.1605   66.1077 C   0  0  0  0  0  0  0  0  0  0  0  0
  -43.3087   56.7219   65.8143 C   0  0  0  0  0  0  0  0  0  0  0  0
  -49.6732   59.4678   60.5592 C   0  0  0  0  0  0  0  0  0  0  0  0
  -49.7977   58.7759   59.1811 C   0  0  0  0  0  0  0  0  0  0  0  0
  -46.4769   58.4093   57.5710 C   0  0  0  0  0  0  0  0  0  0  0  0
  -46.2146   57.0436   57.7430 C   0  0  0  0  0  0  0  0  0  0  0  0
  -47.6686   58.9665   58.0496 C   0  0  0  0  0  0  0  0  0  0  0  0
  -47.1599   56.2569   58.4010 C   0  0  0  0  0  0  0  0  0  0  0  0
  -48.3408   56.8197   58.8819 C   0  0  0  0  0  0  0  0  0  0  0  0
  -48.6044   58.1881   58.7401 C   0  0  0  0  0  0  0  0  0  0  0  0
  -46.9831   54.9283   58.6052 O   0  0  0  0  0  0  0  0  0  0  0  0
  -49.2327   56.0128   59.5262 O   0  0  0  0  0  0  0  0  0  0  0  0
  -46.2042   54.5069   58.2992 H   0  0  0  0  0  0  0  0  0  0  0  0
  -49.0541   55.0978   59.6197 H   0  0  0  0  0  0  0  0  0  0  0  0
 12 13  1  0  0  0
  9 10  2  0  0  0
  9  8  1  0  0  0
  6  7  2  0  0  0
  6  8  1  0  0  0
 10 11  1  0  0  0
  7  5  1  0  0  0
 16 17  2  0  0  0
 16 18  1  0  0  0
 17 19  1  0  0  0
 18 21  2  0  0  0
 13 11  1  0  0  0
  5  4  1  0  0  0
  4  3  1  0  0  0
  3  2  1  0  0  0
  2  1  1  0  0  0
  1 14  1  0  0  0
 14 15  1  0  0  0
 15 21  1  0  0  0
 19 20  2  0  0  0
 19 22  1  0  0  0
 20 21  1  0  0  0
 20 23  1  0  0  0
 22 24  1  0  0  0
 23 25  1  0  0  0
M  END
> <minimizedAffinity>
-8.31173

> <CNNscore>
0.7233988047

> <CNNaffinity>
6.9967718124

> <CNN_VS>
5.0614562035

> <CNNaffinity_variance>
0.2919496000

$$$$
/media/chris/experiments/cd1a-new-docking/inputs/ligands/5j1a_ligand.pdb


 25 25  0  0  0  0  0  0  0  0999 V2000
  -46.0935   62.3582   61.9860 C   0  0  0  0  0  0  0  0  0  0  0  0
  -46.6579   60.9690   61.6536 C   0  0  0  0  0  0  0  0  0  0  0  0
  -47.2010   60.9432   60.2314 C   0  0  0  0  0  0  0  0  0  0  0  0
  -46.7454   59.6591   59.5373 C   0  0  0  0  0  0  0  0  0  0  0  0
  -47.1170   59.7012   58.0553 C   0  0  0  0  0  0  0  0  0  0  0  0
  -47.4983   57.1627   57.3575 C   0  0  0  0  0  0  0  0  0  0  0  0
  -46.6014   58.4151   57.4072 C   0  0  0  0  0  0  0  0  0  0  0  0
  -48.8688   57.1119   58.0503 C   0  0  0  0  0  0  0  0  0  0  0  0
  -48.7173   56.2185   59.2903 C   0  0  0  0  0  0  0  0  0  0  0  0
  -49.6009   56.4052   60.5469 C   0  0  0  0  0  0  0  0  0  0  0  0
  -50.7077   57.4761   60.6103 C   0  0  0  0  0  0  0  0  0  0  0  0
  -50.8977   59.2778   62.3839 C   0  0  0  0  0  0  0  0  0  0  0  0
  -50.0836   58.7476   61.2011 C   0  0  0  0  0  0  0  0  0  0  0  0
  -44.6263   62.3209   62.4870 C   0  0  0  0  0  0  0  0  0  0  0  0
  -44.0373   60.8913   62.5390 C   0  0  0  0  0  0  0  0  0  0  0  0
  -44.1925   59.6515   66.0309 C   0  0  0  0  0  0  0  0  0  0  0  0
  -42.8633   59.7890   66.4523 C   0  0  0  0  0  0  0  0  0  0  0  0
  -44.5656   60.0239   64.7341 C   0  0  0  0  0  0  0  0  0  0  0  0
  -41.9246   60.2986   65.5553 C   0  0  0  0  0  0  0  0  0  0  0  0
  -42.3014   60.6601   64.2630 C   0  0  0  0  0  0  0  0  0  0  0  0
  -43.6210   60.5039   63.8199 C   0  0  0  0  0  0  0  0  0  0  0  0
  -40.6204   60.4650   65.8858 O   0  0  0  0  0  0  0  0  0  0  0  0
  -41.3474   61.1468   63.4176 O   0  0  0  0  0  0  0  0  0  0  0  0
  -40.3216   60.2355   66.7436 H   0  0  0  0  0  0  0  0  0  0  0  0
  -40.4654   61.2505   63.7164 H   0  0  0  0  0  0  0  0  0  0  0  0
 12 13  1  0  0  0
  9 10  2  0  0  0
  9  8  1  0  0  0
  6  7  2  0  0  0
  6  8  1  0  0  0
 10 11  1  0  0  0
  7  5  1  0  0  0
 16 17  2  0  0  0
 16 18  1  0  0  0
 17 19  1  0  0  0
 18 21  2  0  0  0
 13 11  1  0  0  0
  5  4  1  0  0  0
  4  3  1  0  0  0
  3  2  1  0  0  0
  2  1  1  0  0  0
  1 14  1  0  0  0
 14 15  1  0  0  0
 15 21  1  0  0  0
 19 20  2  0  0  0
 19 22  1  0  0  0
 20 21  1  0  0  0
 20 23  1  0  0  0
 22 24  1  0  0  0
 23 25  1  0  0  0
M  END
> <minimizedAffinity>
-7.84458

> <CNNscore>
0.7144834995

> <CNNaffinity>
6.3720650673

> <CNN_VS>
4.5527353287

> <CNNaffinity_variance>
0.0580674596

$$$$
/media/chris/experiments/cd1a-new-docking/inputs/ligands/5j1a_ligand.pdb


 25 25  0  0  0  0  0  0  0  0999 V2000
  -49.0875   59.4778   66.4470 C   0  0  0  0  0  0  0  0  0  0  0  0
  -50.4157   59.4335   65.6770 C   0  0  0  0  0  0  0  0  0  0  0  0
  -50.2139   58.8012   64.3067 C   0  0  0  0  0  0  0  0  0  0  0  0
  -50.9104   59.6547   63.2463 C   0  0  0  0  0  0  0  0  0  0  0  0
  -50.2914   59.3969   61.8727 C   0  0  0  0  0  0  0  0  0  0  0  0
  -50.2460   57.3771   60.1421 C   0  0  0  0  0  0  0  0  0  0  0  0
  -50.4012   57.8986   61.5841 C   0  0  0  0  0  0  0  0  0  0  0  0
  -50.1030   58.3256   58.9418 C   0  0  0  0  0  0  0  0  0  0  0  0
  -49.1164   57.6725   57.9627 C   0  0  0  0  0  0  0  0  0  0  0  0
  -47.6302   58.0979   57.8921 C   0  0  0  0  0  0  0  0  0  0  0  0
  -47.0485   59.1768   58.8265 C   0  0  0  0  0  0  0  0  0  0  0  0
  -46.7203   58.4626   61.2370 C   0  0  0  0  0  0  0  0  0  0  0  0
  -46.1247   58.4690   59.8270 C   0  0  0  0  0  0  0  0  0  0  0  0
  -48.0282   58.4851   65.9014 C   0  0  0  0  0  0  0  0  0  0  0  0
  -46.5935   58.7978   66.3885 C   0  0  0  0  0  0  0  0  0  0  0  0
  -44.0814   56.3737   65.1365 C   0  0  0  0  0  0  0  0  0  0  0  0
  -43.5128   57.0674   64.0600 C   0  0  0  0  0  0  0  0  0  0  0  0
  -45.0975   56.9614   65.8993 C   0  0  0  0  0  0  0  0  0  0  0  0
  -43.9812   58.3474   63.7645 C   0  0  0  0  0  0  0  0  0  0  0  0
  -44.9986   58.9236   64.5232 C   0  0  0  0  0  0  0  0  0  0  0  0
  -45.5941   58.2316   65.5857 C   0  0  0  0  0  0  0  0  0  0  0  0
  -43.4824   59.0849   62.7421 O   0  0  0  0  0  0  0  0  0  0  0  0
  -45.4303   60.1749   64.1922 O   0  0  0  0  0  0  0  0  0  0  0  0
  -42.7975   58.7382   62.2050 H   0  0  0  0  0  0  0  0  0  0  0  0
  -45.0303   60.6356   63.4811 H   0  0  0  0  0  0  0  0  0  0  0  0
 12 13  1  0  0  0
  9 10  2  0  0  0
  9  8  1  0  0  0
  6  7  2  0  0  0
  6  8  1  0  0  0
 10 11  1  0  0  0
  7  5  1  0  0  0
 16 17  2  0  0  0
 16 18  1  0  0  0
 17 19  1  0  0  0
 18 21  2  0  0  0
 13 11  1  0  0  0
  5  4  1  0  0  0
  4  3  1  0  0  0
  3  2  1  0  0  0
  2  1  1  0  0  0
  1 14  1  0  0  0
 14 15  1  0  0  0
 15 21  1  0  0  0
 19 20  2  0  0  0
 19 22  1  0  0  0
 20 21  1  0  0  0
 20 23  1  0  0  0
 22 24  1  0  0  0
 23 25  1  0  0  0
M  END
> <minimizedAffinity>
-7.50428

> <CNNscore>
0.5610240102

> <CNNaffinity>
6.5604782104

> <CNN_VS>
3.6805858612

> <CNNaffinity_variance>
0.3402718604

$$$$
/media/chris/experiments/cd1a-new-docking/inputs/ligands/5j1a_ligand.pdb


 25 25  0  0  0  0  0  0  0  0999 V2000
  -47.4767   60.6015   61.2956 C   0  0  0  0  0  0  0  0  0  0  0  0
  -46.1601   61.3922   61.2740 C   0  0  0  0  0  0  0  0  0  0  0  0
  -45.9812   62.1609   62.5760 C   0  0  0  0  0  0  0  0  0  0  0  0
  -46.6828   61.4110   63.7088 C   0  0  0  0  0  0  0  0  0  0  0  0
  -45.6595   60.6434   64.5454 C   0  0  0  0  0  0  0  0  0  0  0  0
  -47.1084   58.5134   65.2089 C   0  0  0  0  0  0  0  0  0  0  0  0
  -45.9618   59.1509   64.4000 C   0  0  0  0  0  0  0  0  0  0  0  0
  -47.8987   59.3011   66.2652 C   0  0  0  0  0  0  0  0  0  0  0  0
  -49.2808   58.6421   66.3823 C   0  0  0  0  0  0  0  0  0  0  0  0
  -50.4786   59.0912   65.5115 C   0  0  0  0  0  0  0  0  0  0  0  0
  -50.3414   60.2019   64.4517 C   0  0  0  0  0  0  0  0  0  0  0  0
  -50.1880   58.3378   62.7400 C   0  0  0  0  0  0  0  0  0  0  0  0
  -50.8840   59.6444   63.1287 C   0  0  0  0  0  0  0  0  0  0  0  0
  -48.3684   60.8599   60.0534 C   0  0  0  0  0  0  0  0  0  0  0  0
  -49.1251   59.5983   59.5746 C   0  0  0  0  0  0  0  0  0  0  0  0
  -46.4299   58.3404   57.3591 C   0  0  0  0  0  0  0  0  0  0  0  0
  -46.7167   56.9704   57.2939 C   0  0  0  0  0  0  0  0  0  0  0  0
  -47.2384   59.1972   58.1153 C   0  0  0  0  0  0  0  0  0  0  0  0
  -47.8168   56.4813   57.9980 C   0  0  0  0  0  0  0  0  0  0  0  0
  -48.6131   57.3387   58.7554 C   0  0  0  0  0  0  0  0  0  0  0  0
  -48.3230   58.7058   58.8505 C   0  0  0  0  0  0  0  0  0  0  0  0
  -48.1630   55.1706   57.9847 O   0  0  0  0  0  0  0  0  0  0  0  0
  -49.6743   56.8141   59.4338 O   0  0  0  0  0  0  0  0  0  0  0  0
  -47.6566   54.5574   57.4893 H   0  0  0  0  0  0  0  0  0  0  0  0
  -49.8662   55.8993   59.3685 H   0  0  0  0  0  0  0  0  0  0  0  0
 12 13  1  0  0  0
  9 10  2  0  0  0
  9  8  1  0  0  0
  6  7  2  0  0  0
  6  8  1  0  0  0
 10 11  1  0  0  0
  7  5  1  0  0  0
 16 17  2  0  0  0
 16 18  1  0  0  0
 17 19  1  0  0  0
 18 21  2  0  0  0
 13 11  1  0  0  0
  5  4  1  0  0  0
  4  3  1  0  0  0
  3  2  1  0  0  0
  2  1  1  0  0  0
  1 14  1  0  0  0
 14 15  1  0  0  0
 15 21  1  0  0  0
 19 20  2  0  0  0
 19 22  1  0  0  0
 20 21  1  0  0  0
 20 23  1  0  0  0
 22 24  1  0  0  0
 23 25  1  0  0  0
M  END
> <minimizedAffinity>
-7.89526

> <CNNscore>
0.5398814082

> <CNNaffinity>
6.7480154037

> <CNN_VS>
3.6431281567

> <CNNaffinity_variance>
0.2202727348

$$$$
/media/chris/experiments/cd1a-new-docking/inputs/ligands/5j1a_ligand.pdb


 25 25  0  0  0  0  0  0  0  0999 V2000
  -49.6157   58.7765   66.0533 C   0  0  0  0  0  0  0  0  0  0  0  0
  -49.9260   58.4528   64.5843 C   0  0  0  0  0  0  0  0  0  0  0  0
  -50.6288   59.6282   63.9189 C   0  0  0  0  0  0  0  0  0  0  0  0
  -50.8257   59.3268   62.4329 C   0  0  0  0  0  0  0  0  0  0  0  0
  -49.4796   59.3453   61.7088 C   0  0  0  0  0  0  0  0  0  0  0  0
  -48.3127   60.7558   59.7787 C   0  0  0  0  0  0  0  0  0  0  0  0
  -49.4580   60.5707   60.7934 C   0  0  0  0  0  0  0  0  0  0  0  0
  -47.1051   59.8072   59.7286 C   0  0  0  0  0  0  0  0  0  0  0  0
  -46.8804   59.4365   58.2553 C   0  0  0  0  0  0  0  0  0  0  0  0
  -46.4930   58.0024   57.8216 C   0  0  0  0  0  0  0  0  0  0  0  0
  -46.3462   56.8567   58.8421 C   0  0  0  0  0  0  0  0  0  0  0  0
  -48.6468   56.1293   59.6208 C   0  0  0  0  0  0  0  0  0  0  0  0
  -47.5159   55.8887   58.6178 C   0  0  0  0  0  0  0  0  0  0  0  0
  -48.8190   60.0944   66.2365 C   0  0  0  0  0  0  0  0  0  0  0  0
  -47.2977   59.8676   66.4024 C   0  0  0  0  0  0  0  0  0  0  0  0
  -46.4706   61.3980   63.1269 C   0  0  0  0  0  0  0  0  0  0  0  0
  -45.0858   61.1991   63.0495 C   0  0  0  0  0  0  0  0  0  0  0  0
  -47.1886   60.9485   64.2415 C   0  0  0  0  0  0  0  0  0  0  0  0
  -44.4414   60.5505   64.1028 C   0  0  0  0  0  0  0  0  0  0  0  0
  -45.1612   60.1125   65.2131 C   0  0  0  0  0  0  0  0  0  0  0  0
  -46.5415   60.3276   65.3158 C   0  0  0  0  0  0  0  0  0  0  0  0
  -43.1060   60.3172   64.1035 O   0  0  0  0  0  0  0  0  0  0  0  0
  -44.4873   59.4898   66.2230 O   0  0  0  0  0  0  0  0  0  0  0  0
  -42.5817   60.5940   63.3779 H   0  0  0  0  0  0  0  0  0  0  0  0
  -43.5640   59.3471   66.1519 H   0  0  0  0  0  0  0  0  0  0  0  0
 12 13  1  0  0  0
  9 10  2  0  0  0
  9  8  1  0  0  0
  6  7  2  0  0  0
  6  8  1  0  0  0
 10 11  1  0  0  0
  7  5  1  0  0  0
 16 17  2  0  0  0
 16 18  1  0  0  0
 17 19  1  0  0  0
 18 21  2  0  0  0
 13 11  1  0  0  0
  5  4  1  0  0  0
  4  3  1  0  0  0
  3  2  1  0  0  0
  2  1  1  0  0  0
  1 14  1  0  0  0
 14 15  1  0  0  0
 15 21  1  0  0  0
 19 20  2  0  0  0
 19 22  1  0  0  0
 20 21  1  0  0  0
 20 23  1  0  0  0
 22 24  1  0  0  0
 23 25  1  0  0  0
M  END
> <minimizedAffinity>
-7.82558

> <CNNscore>
0.5045456886

> <CNNaffinity>
6.3845300674

> <CNN_VS>
3.2212870121

> <CNNaffinity_variance>
0.1180774122

$$$$
/media/chris/experiments/cd1a-new-docking/inputs/ligands/5j1a_ligand.pdb


 25 25  0  0  0  0  0  0  0  0999 V2000
  -49.0384   57.5195   57.6993 C   0  0  0  0  0  0  0  0  0  0  0  0
  -50.0522   57.8529   58.8039 C   0  0  0  0  0  0  0  0  0  0  0  0
  -49.8483   56.9394   60.0048 C   0  0  0  0  0  0  0  0  0  0  0  0
  -50.4953   57.5703   61.2382 C   0  0  0  0  0  0  0  0  0  0  0  0
  -49.6776   58.7747   61.7041 C   0  0  0  0  0  0  0  0  0  0  0  0
  -50.8123   59.8325   63.8651 C   0  0  0  0  0  0  0  0  0  0  0  0
  -50.6433   59.7801   62.3341 C   0  0  0  0  0  0  0  0  0  0  0  0
  -50.1307   58.8187   64.7970 C   0  0  0  0  0  0  0  0  0  0  0  0
  -49.8678   59.5338   66.1304 C   0  0  0  0  0  0  0  0  0  0  0  0
  -48.5212   60.2341   66.4324 C   0  0  0  0  0  0  0  0  0  0  0  0
  -47.3810   60.2839   65.3966 C   0  0  0  0  0  0  0  0  0  0  0  0
  -44.9593   59.7200   65.8922 C   0  0  0  0  0  0  0  0  0  0  0  0
  -46.3833   59.1750   65.7577 C   0  0  0  0  0  0  0  0  0  0  0  0
  -47.6858   56.9935   58.2459 C   0  0  0  0  0  0  0  0  0  0  0  0
  -46.5501   58.0413   58.1697 C   0  0  0  0  0  0  0  0  0  0  0  0
  -47.4716   61.2056   59.8704 C   0  0  0  0  0  0  0  0  0  0  0  0
  -46.7706   61.1059   61.0795 C   0  0  0  0  0  0  0  0  0  0  0  0
  -47.3855   60.1847   58.9165 C   0  0  0  0  0  0  0  0  0  0  0  0
  -45.9926   59.9718   61.3121 C   0  0  0  0  0  0  0  0  0  0  0  0
  -45.9176   58.9554   60.3614 C   0  0  0  0  0  0  0  0  0  0  0  0
  -46.6334   59.0298   59.1596 C   0  0  0  0  0  0  0  0  0  0  0  0
  -45.2826   59.8004   62.4542 O   0  0  0  0  0  0  0  0  0  0  0  0
  -45.1502   57.8611   60.6357 O   0  0  0  0  0  0  0  0  0  0  0  0
  -45.3029   60.4576   63.1216 H   0  0  0  0  0  0  0  0  0  0  0  0
  -44.6723   57.8138   61.4402 H   0  0  0  0  0  0  0  0  0  0  0  0
 12 13  1  0  0  0
  9 10  2  0  0  0
  9  8  1  0  0  0
  6  7  2  0  0  0
  6  8  1  0  0  0
 10 11  1  0  0  0
  7  5  1  0  0  0
 16 17  2  0  0  0
 16 18  1  0  0  0
 17 19  1  0  0  0
 18 21  2  0  0  0
 13 11  1  0  0  0
  5  4  1  0  0  0
  4  3  1  0  0  0
  3  2  1  0  0  0
  2  1  1  0  0  0
  1 14  1  0  0  0
 14 15  1  0  0  0
 15 21  1  0  0  0
 19 20  2  0  0  0
 19 22  1  0  0  0
 20 21  1  0  0  0
 20 23  1  0  0  0
 22 24  1  0  0  0
 23 25  1  0  0  0
M  END
> <minimizedAffinity>
-7.90805

> <CNNscore>
0.5020240545

> <CNNaffinity>
6.5377378464

> <CNN_VS>
3.2821016312

> <CNNaffinity_variance>
0.1366453767

$$$$
/media/chris/experiments/cd1a-new-docking/inputs/ligands/5j1a_ligand.pdb


 25 25  0  0  0  0  0  0  0  0999 V2000
  -46.0627   57.8444   57.9056 C   0  0  0  0  0  0  0  0  0  0  0  0
  -47.3784   58.0234   57.1337 C   0  0  0  0  0  0  0  0  0  0  0  0
  -48.3924   56.9716   57.5622 C   0  0  0  0  0  0  0  0  0  0  0  0
  -49.5224   57.6441   58.3425 C   0  0  0  0  0  0  0  0  0  0  0  0
  -49.7277   56.9403   59.6838 C   0  0  0  0  0  0  0  0  0  0  0  0
  -50.4584   58.2540   61.8786 C   0  0  0  0  0  0  0  0  0  0  0  0
  -50.7813   57.7253   60.4673 C   0  0  0  0  0  0  0  0  0  0  0  0
  -49.1415   57.9173   62.5950 C   0  0  0  0  0  0  0  0  0  0  0  0
  -48.9896   58.9114   63.7557 C   0  0  0  0  0  0  0  0  0  0  0  0
  -47.6859   59.0108   64.5834 C   0  0  0  0  0  0  0  0  0  0  0  0
  -46.4533   58.1417   64.2655 C   0  0  0  0  0  0  0  0  0  0  0  0
  -47.4739   56.6258   66.0230 C   0  0  0  0  0  0  0  0  0  0  0  0
  -46.1853   57.2582   65.4915 C   0  0  0  0  0  0  0  0  0  0  0  0
  -46.2639   57.3006   59.3440 C   0  0  0  0  0  0  0  0  0  0  0  0
  -45.3617   57.9977   60.3897 C   0  0  0  0  0  0  0  0  0  0  0  0
  -47.5749   60.9598   60.6768 C   0  0  0  0  0  0  0  0  0  0  0  0
  -46.8401   61.7959   61.5279 C   0  0  0  0  0  0  0  0  0  0  0  0
  -47.0704   59.7075   60.3068 C   0  0  0  0  0  0  0  0  0  0  0  0
  -45.6038   61.3540   61.9988 C   0  0  0  0  0  0  0  0  0  0  0  0
  -45.1110   60.1027   61.6327 C   0  0  0  0  0  0  0  0  0  0  0  0
  -45.8463   59.2459   60.8036 C   0  0  0  0  0  0  0  0  0  0  0  0
  -44.8310   62.1032   62.8230 O   0  0  0  0  0  0  0  0  0  0  0  0
  -43.9004   59.7093   62.1240 O   0  0  0  0  0  0  0  0  0  0  0  0
  -45.1218   62.9512   63.0955 H   0  0  0  0  0  0  0  0  0  0  0  0
  -43.4105   60.2843   62.6784 H   0  0  0  0  0  0  0  0  0  0  0  0
 12 13  1  0  0  0
  9 10  2  0  0  0
  9  8  1  0  0  0
  6  7  2  0  0  0
  6  8  1  0  0  0
 10 11  1  0  0  0
  7  5  1  0  0  0
 16 17  2  0  0  0
 16 18  1  0  0  0
 17 19  1  0  0  0
 18 21  2  0  0  0
 13 11  1  0  0  0
  5  4  1  0  0  0
  4  3  1  0  0  0
  3  2  1  0  0  0
  2  1  1  0  0  0
  1 14  1  0  0  0
 14 15  1  0  0  0
 15 21  1  0  0  0
 19 20  2  0  0  0
 19 22  1  0  0  0
 20 21  1  0  0  0
 20 23  1  0  0  0
 22 24  1  0  0  0
 23 25  1  0  0  0
M  END
> <minimizedAffinity>
-7.42434

> <CNNscore>
0.4866007566

> <CNNaffinity>
6.6001548767

> <CNN_VS>
3.2116403580

> <CNNaffinity_variance>
0.1078838557

$$$$
/media/chris/experiments/cd1a-new-docking/inputs/ligands/5j1a_ligand.pdb


 25 25  0  0  0  0  0  0  0  0999 V2000
  -49.7127   57.4884   59.7965 C   0  0  0  0  0  0  0  0  0  0  0  0
  -49.2569   56.0444   60.0539 C   0  0  0  0  0  0  0  0  0  0  0  0
  -47.8641   55.8176   59.4822 C   0  0  0  0  0  0  0  0  0  0  0  0
  -47.8167   56.3302   58.0424 C   0  0  0  0  0  0  0  0  0  0  0  0
  -46.5715   57.1910   57.8306 C   0  0  0  0  0  0  0  0  0  0  0  0
  -47.0644   59.7889   58.1210 C   0  0  0  0  0  0  0  0  0  0  0  0
  -47.0220   58.5270   57.2371 C   0  0  0  0  0  0  0  0  0  0  0  0
  -46.7839   59.7380   59.6308 C   0  0  0  0  0  0  0  0  0  0  0  0
  -47.4608   60.9648   60.2595 C   0  0  0  0  0  0  0  0  0  0  0  0
  -46.8363   61.7210   61.4566 C   0  0  0  0  0  0  0  0  0  0  0  0
  -45.4810   61.3060   62.0621 C   0  0  0  0  0  0  0  0  0  0  0  0
  -43.2399   62.3378   62.6462 C   0  0  0  0  0  0  0  0  0  0  0  0
  -44.4758   62.4222   61.7472 C   0  0  0  0  0  0  0  0  0  0  0  0
  -50.6580   58.0389   60.8958 C   0  0  0  0  0  0  0  0  0  0  0  0
  -50.2132   59.4139   61.4480 C   0  0  0  0  0  0  0  0  0  0  0  0
  -51.1180   60.0979   64.9790 C   0  0  0  0  0  0  0  0  0  0  0  0
  -49.9823   59.6503   65.6668 C   0  0  0  0  0  0  0  0  0  0  0  0
  -51.1776   60.0159   63.5828 C   0  0  0  0  0  0  0  0  0  0  0  0
  -48.9199   59.1210   64.9343 C   0  0  0  0  0  0  0  0  0  0  0  0
  -48.9890   59.0351   63.5448 C   0  0  0  0  0  0  0  0  0  0  0  0
  -50.1284   59.4546   62.8463 C   0  0  0  0  0  0  0  0  0  0  0  0
  -47.7857   58.6691   65.5235 O   0  0  0  0  0  0  0  0  0  0  0  0
  -47.9288   58.5028   62.8708 O   0  0  0  0  0  0  0  0  0  0  0  0
  -47.6947   58.7070   66.4553 H   0  0  0  0  0  0  0  0  0  0  0  0
  -47.1678   58.2230   63.3403 H   0  0  0  0  0  0  0  0  0  0  0  0
 12 13  1  0  0  0
  9 10  2  0  0  0
  9  8  1  0  0  0
  6  7  2  0  0  0
  6  8  1  0  0  0
 10 11  1  0  0  0
  7  5  1  0  0  0
 16 17  2  0  0  0
 16 18  1  0  0  0
 17 19  1  0  0  0
 18 21  2  0  0  0
 13 11  1  0  0  0
  5  4  1  0  0  0
  4  3  1  0  0  0
  3  2  1  0  0  0
  2  1  1  0  0  0
  1 14  1  0  0  0
 14 15  1  0  0  0
 15 21  1  0  0  0
 19 20  2  0  0  0
 19 22  1  0  0  0
 20 21  1  0  0  0
 20 23  1  0  0  0
 22 24  1  0  0  0
 23 25  1  0  0  0
M  END
> <minimizedAffinity>
-8.11516

> <CNNscore>
0.4458712935

> <CNNaffinity>
6.4664216042

> <CNN_VS>
2.8831918240

> <CNNaffinity_variance>
0.0663359836

$$$$
/media/chris/experiments/cd1a-new-docking/inputs/ligands/5j1a_ligand.pdb


 25 25  0  0  0  0  0  0  0  0999 V2000
  -47.9730   59.2629   66.5701 C   0  0  0  0  0  0  0  0  0  0  0  0
  -49.0294   58.5424   65.7193 C   0  0  0  0  0  0  0  0  0  0  0  0
  -50.3797   59.2328   65.8531 C   0  0  0  0  0  0  0  0  0  0  0  0
  -50.6983   59.9803   64.5578 C   0  0  0  0  0  0  0  0  0  0  0  0
  -50.3903   59.0958   63.3498 C   0  0  0  0  0  0  0  0  0  0  0  0
  -49.2075   59.5850   61.0178 C   0  0  0  0  0  0  0  0  0  0  0  0
  -50.1693   60.0111   62.1442 C   0  0  0  0  0  0  0  0  0  0  0  0
  -48.3528   58.3117   61.1122 C   0  0  0  0  0  0  0  0  0  0  0  0
  -46.8929   58.7570   61.2819 C   0  0  0  0  0  0  0  0  0  0  0  0
  -45.7690   58.2534   60.3448 C   0  0  0  0  0  0  0  0  0  0  0  0
  -46.0587   57.3041   59.1656 C   0  0  0  0  0  0  0  0  0  0  0  0
  -47.6484   58.1139   57.3643 C   0  0  0  0  0  0  0  0  0  0  0  0
  -46.2186   58.1689   57.9079 C   0  0  0  0  0  0  0  0  0  0  0  0
  -47.2732   60.4279   65.8228 C   0  0  0  0  0  0  0  0  0  0  0  0
  -45.9163   60.0231   65.1997 C   0  0  0  0  0  0  0  0  0  0  0  0
  -46.1869   62.3723   62.3427 C   0  0  0  0  0  0  0  0  0  0  0  0
  -44.8826   62.3660   61.8308 C   0  0  0  0  0  0  0  0  0  0  0  0
  -46.5138   61.5889   63.4559 C   0  0  0  0  0  0  0  0  0  0  0  0
  -43.9216   61.5695   62.4534 C   0  0  0  0  0  0  0  0  0  0  0  0
  -44.2519   60.7980   63.5662 C   0  0  0  0  0  0  0  0  0  0  0  0
  -45.5451   60.8145   64.1044 C   0  0  0  0  0  0  0  0  0  0  0  0
  -42.6392   61.5056   62.0185 O   0  0  0  0  0  0  0  0  0  0  0  0
  -43.2772   60.0404   64.1472 O   0  0  0  0  0  0  0  0  0  0  0  0
  -42.3715   62.0072   61.2738 H   0  0  0  0  0  0  0  0  0  0  0  0
  -42.4130   60.0310   63.7853 H   0  0  0  0  0  0  0  0  0  0  0  0
 12 13  1  0  0  0
  9 10  2  0  0  0
  9  8  1  0  0  0
  6  7  2  0  0  0
  6  8  1  0  0  0
 10 11  1  0  0  0
  7  5  1  0  0  0
 16 17  2  0  0  0
 16 18  1  0  0  0
 17 19  1  0  0  0
 18 21  2  0  0  0
 13 11  1  0  0  0
  5  4  1  0  0  0
  4  3  1  0  0  0
  3  2  1  0  0  0
  2  1  1  0  0  0
  1 14  1  0  0  0
 14 15  1  0  0  0
 15 21  1  0  0  0
 19 20  2  0  0  0
 19 22  1  0  0  0
 20 21  1  0  0  0
 20 23  1  0  0  0
 22 24  1  0  0  0
 23 25  1  0  0  0
M  END
> <minimizedAffinity>
-7.50442

> <CNNscore>
0.4227319360

> <CNNaffinity>
6.1573457718

> <CNN_VS>
2.6029067039

> <CNNaffinity_variance>
0.3263000846

$$$$
