/media/chris/experiments/cd1a-new-docking/inputs/ligands/5j1a_ligand.pdb


 25 25  0  0  0  0  0  0  0  0999 V2000
  -46.5460   56.6018   56.5678 C   0  0  0  0  0  0  0  0  0  0  0  0
  -47.6394   55.6231   57.0211 C   0  0  0  0  0  0  0  0  0  0  0  0
  -48.5968   56.3072   57.9873 C   0  0  0  0  0  0  0  0  0  0  0  0
  -48.4635   55.6698   59.3707 C   0  0  0  0  0  0  0  0  0  0  0  0
  -49.5938   56.1477   60.2820 C   0  0  0  0  0  0  0  0  0  0  0  0
  -50.2457   58.6684   60.8269 C   0  0  0  0  0  0  0  0  0  0  0  0
  -50.0236   57.5362   59.8051 C   0  0  0  0  0  0  0  0  0  0  0  0
  -50.1698   58.4271   62.3424 C   0  0  0  0  0  0  0  0  0  0  0  0
  -50.6597   59.7094   63.0310 C   0  0  0  0  0  0  0  0  0  0  0  0
  -50.6524   59.8660   64.5706 C   0  0  0  0  0  0  0  0  0  0  0  0
  -50.1192   58.7562   65.4977 C   0  0  0  0  0  0  0  0  0  0  0  0
  -48.4310   60.6345   65.7221 C   0  0  0  0  0  0  0  0  0  0  0  0
  -49.0139   59.3738   66.3652 C   0  0  0  0  0  0  0  0  0  0  0  0
  -46.6738   58.0065   57.2125 C   0  0  0  0  0  0  0  0  0  0  0  0
  -45.9490   58.1191   58.5746 C   0  0  0  0  0  0  0  0  0  0  0  0
  -47.8214   61.1292   59.6647 C   0  0  0  0  0  0  0  0  0  0  0  0
  -47.5181   61.1865   61.0315 C   0  0  0  0  0  0  0  0  0  0  0  0
  -47.2915   60.1099   58.8647 C   0  0  0  0  0  0  0  0  0  0  0  0
  -46.6845   60.2092   61.5751 C   0  0  0  0  0  0  0  0  0  0  0  0
  -46.1667   59.1926   60.7744 C   0  0  0  0  0  0  0  0  0  0  0  0
  -46.4823   59.1080   59.4122 C   0  0  0  0  0  0  0  0  0  0  0  0
  -46.3412   60.1954   62.8865 O   0  0  0  0  0  0  0  0  0  0  0  0
  -45.3620   58.2539   61.3513 O   0  0  0  0  0  0  0  0  0  0  0  0
  -46.6657   60.8592   63.4627 H   0  0  0  0  0  0  0  0  0  0  0  0
  -45.1523   58.3127   62.2626 H   0  0  0  0  0  0  0  0  0  0  0  0
 12 13  1  0  0  0
  9 10  2  0  0  0
  9  8  1  0  0  0
  6  7  2  0  0  0
  6  8  1  0  0  0
 10 11  1  0  0  0
  7  5  1  0  0  0
 16 17  2  0  0  0
 16 18  1  0  0  0
 17 19  1  0  0  0
 18 21  2  0  0  0
 13 11  1  0  0  0
  5  4  1  0  0  0
  4  3  1  0  0  0
  3  2  1  0  0  0
  2  1  1  0  0  0
  1 14  1  0  0  0
 14 15  1  0  0  0
 15 21  1  0  0  0
 19 20  2  0  0  0
 19 22  1  0  0  0
 20 21  1  0  0  0
 20 23  1  0  0  0
 22 24  1  0  0  0
 23 25  1  0  0  0
M  END
> <minimizedAffinity>
-8.16110

> <CNNscore>
0.6481270790

> <CNNaffinity>
6.7283124924

> <CNN_VS>
4.3608016968

> <CNNaffinity_variance>
0.0768150389

$$$$
/media/chris/experiments/cd1a-new-docking/inputs/ligands/5j1a_ligand.pdb


 25 25  0  0  0  0  0  0  0  0999 V2000
  -48.5947   58.5830   65.3029 C   0  0  0  0  0  0  0  0  0  0  0  0
  -49.2283   58.3433   63.9245 C   0  0  0  0  0  0  0  0  0  0  0  0
  -50.2776   59.4066   63.6304 C   0  0  0  0  0  0  0  0  0  0  0  0
  -50.8937   59.1453   62.2556 C   0  0  0  0  0  0  0  0  0  0  0  0
  -50.4213   57.7960   61.7145 C   0  0  0  0  0  0  0  0  0  0  0  0
  -49.5520   58.3095   59.2536 C   0  0  0  0  0  0  0  0  0  0  0  0
  -50.6511   57.7924   60.2021 C   0  0  0  0  0  0  0  0  0  0  0  0
  -48.2583   58.9527   59.7765 C   0  0  0  0  0  0  0  0  0  0  0  0
  -47.2335   57.8242   59.9624 C   0  0  0  0  0  0  0  0  0  0  0  0
  -46.3424   57.3275   58.7988 C   0  0  0  0  0  0  0  0  0  0  0  0
  -46.4088   57.9627   57.3961 C   0  0  0  0  0  0  0  0  0  0  0  0
  -47.2023   55.5793   57.0520 C   0  0  0  0  0  0  0  0  0  0  0  0
  -47.2004   57.0050   56.4950 C   0  0  0  0  0  0  0  0  0  0  0  0
  -48.1603   60.0541   65.5314 C   0  0  0  0  0  0  0  0  0  0  0  0
  -46.6269   60.2513   65.4759 C   0  0  0  0  0  0  0  0  0  0  0  0
  -45.9697   61.6655   62.1109 C   0  0  0  0  0  0  0  0  0  0  0  0
  -45.2203   60.6487   61.5046 C   0  0  0  0  0  0  0  0  0  0  0  0
  -46.4307   61.5174   63.4245 C   0  0  0  0  0  0  0  0  0  0  0  0
  -44.9421   59.4937   62.2354 C   0  0  0  0  0  0  0  0  0  0  0  0
  -45.3975   59.3560   63.5455 C   0  0  0  0  0  0  0  0  0  0  0  0
  -46.1254   60.3751   64.1731 C   0  0  0  0  0  0  0  0  0  0  0  0
  -44.2264   58.4638   61.7208 O   0  0  0  0  0  0  0  0  0  0  0  0
  -45.0945   58.2119   64.2245 O   0  0  0  0  0  0  0  0  0  0  0  0
  -43.8999   58.5122   60.8439 H   0  0  0  0  0  0  0  0  0  0  0  0
  -44.6075   57.5317   63.8024 H   0  0  0  0  0  0  0  0  0  0  0  0
 12 13  1  0  0  0
  9 10  2  0  0  0
  9  8  1  0  0  0
  6  7  2  0  0  0
  6  8  1  0  0  0
 10 11  1  0  0  0
  7  5  1  0  0  0
 16 17  2  0  0  0
 16 18  1  0  0  0
 17 19  1  0  0  0
 18 21  2  0  0  0
 13 11  1  0  0  0
  5  4  1  0  0  0
  4  3  1  0  0  0
  3  2  1  0  0  0
  2  1  1  0  0  0
  1 14  1  0  0  0
 14 15  1  0  0  0
 15 21  1  0  0  0
 19 20  2  0  0  0
 19 22  1  0  0  0
 20 21  1  0  0  0
 20 23  1  0  0  0
 22 24  1  0  0  0
 23 25  1  0  0  0
M  END
> <minimizedAffinity>
-7.56372

> <CNNscore>
0.5271719694

> <CNNaffinity>
6.5109014511

> <CNN_VS>
3.4323647022

> <CNNaffinity_variance>
0.1449620575

$$$$
/media/chris/experiments/cd1a-new-docking/inputs/ligands/5j1a_ligand.pdb


 25 25  0  0  0  0  0  0  0  0999 V2000
  -48.9903   59.9159   61.6318 C   0  0  0  0  0  0  0  0  0  0  0  0
  -49.9662   59.0173   62.4059 C   0  0  0  0  0  0  0  0  0  0  0  0
  -51.1731   59.8209   62.8703 C   0  0  0  0  0  0  0  0  0  0  0  0
  -51.0375   60.1240   64.3628 C   0  0  0  0  0  0  0  0  0  0  0  0
  -50.1192   59.0985   65.0273 C   0  0  0  0  0  0  0  0  0  0  0  0
  -48.1947   60.4533   66.2668 C   0  0  0  0  0  0  0  0  0  0  0  0
  -49.5558   59.7312   66.3010 C   0  0  0  0  0  0  0  0  0  0  0  0
  -47.3059   60.4614   65.0135 C   0  0  0  0  0  0  0  0  0  0  0  0
  -45.8969   60.0380   65.4538 C   0  0  0  0  0  0  0  0  0  0  0  0
  -45.4800   58.5505   65.5453 C   0  0  0  0  0  0  0  0  0  0  0  0
  -46.4458   57.4112   65.1650 C   0  0  0  0  0  0  0  0  0  0  0  0
  -46.2093   57.2416   67.6836 C   0  0  0  0  0  0  0  0  0  0  0  0
  -47.0617   56.8774   66.4656 C   0  0  0  0  0  0  0  0  0  0  0  0
  -49.3810   60.1072   60.1432 C   0  0  0  0  0  0  0  0  0  0  0  0
  -49.6674   58.7736   59.4133 C   0  0  0  0  0  0  0  0  0  0  0  0
  -46.4875   58.3962   57.5423 C   0  0  0  0  0  0  0  0  0  0  0  0
  -46.2390   57.0220   57.6567 C   0  0  0  0  0  0  0  0  0  0  0  0
  -47.6281   58.9599   58.1263 C   0  0  0  0  0  0  0  0  0  0  0  0
  -47.1458   56.2331   58.3644 C   0  0  0  0  0  0  0  0  0  0  0  0
  -48.2754   56.8021   58.9500 C   0  0  0  0  0  0  0  0  0  0  0  0
  -48.5229   58.1783   58.8658 C   0  0  0  0  0  0  0  0  0  0  0  0
  -46.9793   54.8966   58.5185 O   0  0  0  0  0  0  0  0  0  0  0  0
  -49.1305   55.9926   59.6393 O   0  0  0  0  0  0  0  0  0  0  0  0
  -46.2344   54.4708   58.1421 H   0  0  0  0  0  0  0  0  0  0  0  0
  -48.9628   55.0724   59.6941 H   0  0  0  0  0  0  0  0  0  0  0  0
 12 13  1  0  0  0
  9 10  2  0  0  0
  9  8  1  0  0  0
  6  7  2  0  0  0
  6  8  1  0  0  0
 10 11  1  0  0  0
  7  5  1  0  0  0
 16 17  2  0  0  0
 16 18  1  0  0  0
 17 19  1  0  0  0
 18 21  2  0  0  0
 13 11  1  0  0  0
  5  4  1  0  0  0
  4  3  1  0  0  0
  3  2  1  0  0  0
  2  1  1  0  0  0
  1 14  1  0  0  0
 14 15  1  0  0  0
 15 21  1  0  0  0
 19 20  2  0  0  0
 19 22  1  0  0  0
 20 21  1  0  0  0
 20 23  1  0  0  0
 22 24  1  0  0  0
 23 25  1  0  0  0
M  END
> <minimizedAffinity>
-8.27184

> <CNNscore>
0.4578586817

> <CNNaffinity>
6.5120224953

> <CNN_VS>
2.9815859795

> <CNNaffinity_variance>
0.2876962423

$$$$
/media/chris/experiments/cd1a-new-docking/inputs/ligands/5j1a_ligand.pdb


 25 25  0  0  0  0  0  0  0  0999 V2000
  -47.6174   58.7376   65.9149 C   0  0  0  0  0  0  0  0  0  0  0  0
  -48.6574   59.8677   65.9030 C   0  0  0  0  0  0  0  0  0  0  0  0
  -50.0613   59.2956   65.7616 C   0  0  0  0  0  0  0  0  0  0  0  0
  -50.9053   60.2299   64.8941 C   0  0  0  0  0  0  0  0  0  0  0  0
  -50.7089   59.8963   63.4153 C   0  0  0  0  0  0  0  0  0  0  0  0
  -49.2495   57.9729   62.2988 C   0  0  0  0  0  0  0  0  0  0  0  0
  -50.3162   58.4211   63.3169 C   0  0  0  0  0  0  0  0  0  0  0  0
  -48.6386   58.9430   61.2758 C   0  0  0  0  0  0  0  0  0  0  0  0
  -47.1442   58.6062   61.1674 C   0  0  0  0  0  0  0  0  0  0  0  0
  -46.3028   59.0037   59.9310 C   0  0  0  0  0  0  0  0  0  0  0  0
  -46.9102   59.7919   58.7541 C   0  0  0  0  0  0  0  0  0  0  0  0
  -46.0393   57.6685   57.6767 C   0  0  0  0  0  0  0  0  0  0  0  0
  -47.0373   58.8241   57.5697 C   0  0  0  0  0  0  0  0  0  0  0  0
  -46.4993   58.9211   64.8559 C   0  0  0  0  0  0  0  0  0  0  0  0
  -45.6317   60.1787   65.0988 C   0  0  0  0  0  0  0  0  0  0  0  0
  -46.4451   62.2360   62.1221 C   0  0  0  0  0  0  0  0  0  0  0  0
  -45.1767   62.4910   61.5840 C   0  0  0  0  0  0  0  0  0  0  0  0
  -46.5791   61.4663   63.2837 C   0  0  0  0  0  0  0  0  0  0  0  0
  -44.0567   61.9673   62.2295 C   0  0  0  0  0  0  0  0  0  0  0  0
  -44.1967   61.2083   63.3901 C   0  0  0  0  0  0  0  0  0  0  0  0
  -45.4563   60.9673   63.9536 C   0  0  0  0  0  0  0  0  0  0  0  0
  -42.7961   62.1659   61.7719 O   0  0  0  0  0  0  0  0  0  0  0  0
  -43.0722   60.7230   63.9916 O   0  0  0  0  0  0  0  0  0  0  0  0
  -42.6537   62.6700   60.9950 H   0  0  0  0  0  0  0  0  0  0  0  0
  -42.2309   60.8856   63.6127 H   0  0  0  0  0  0  0  0  0  0  0  0
 12 13  1  0  0  0
  9 10  2  0  0  0
  9  8  1  0  0  0
  6  7  2  0  0  0
  6  8  1  0  0  0
 10 11  1  0  0  0
  7  5  1  0  0  0
 16 17  2  0  0  0
 16 18  1  0  0  0
 17 19  1  0  0  0
 18 21  2  0  0  0
 13 11  1  0  0  0
  5  4  1  0  0  0
  4  3  1  0  0  0
  3  2  1  0  0  0
  2  1  1  0  0  0
  1 14  1  0  0  0
 14 15  1  0  0  0
 15 21  1  0  0  0
 19 20  2  0  0  0
 19 22  1  0  0  0
 20 21  1  0  0  0
 20 23  1  0  0  0
 22 24  1  0  0  0
 23 25  1  0  0  0
M  END
> <minimizedAffinity>
-7.40643

> <CNNscore>
0.4032629728

> <CNNaffinity>
6.2143049240

> <CNN_VS>
2.5059990883

> <CNNaffinity_variance>
0.1724081486

$$$$
/media/chris/experiments/cd1a-new-docking/inputs/ligands/5j1a_ligand.pdb


 25 25  0  0  0  0  0  0  0  0999 V2000
  -47.3960   61.2164   60.8391 C   0  0  0  0  0  0  0  0  0  0  0  0
  -46.1802   60.3701   61.2446 C   0  0  0  0  0  0  0  0  0  0  0  0
  -46.5220   59.4870   62.4368 C   0  0  0  0  0  0  0  0  0  0  0  0
  -46.3762   60.2959   63.7262 C   0  0  0  0  0  0  0  0  0  0  0  0
  -46.4880   59.3752   64.9412 C   0  0  0  0  0  0  0  0  0  0  0  0
  -48.3880   59.8468   66.7421 C   0  0  0  0  0  0  0  0  0  0  0  0
  -47.0297   60.2037   66.1075 C   0  0  0  0  0  0  0  0  0  0  0  0
  -49.2954   58.7491   66.1656 C   0  0  0  0  0  0  0  0  0  0  0  0
  -50.6903   59.3642   65.9806 C   0  0  0  0  0  0  0  0  0  0  0  0
  -51.0744   60.1544   64.7067 C   0  0  0  0  0  0  0  0  0  0  0  0
  -50.0887   60.3378   63.5362 C   0  0  0  0  0  0  0  0  0  0  0  0
  -50.1268   58.0272   62.4929 C   0  0  0  0  0  0  0  0  0  0  0  0
  -50.5958   59.4790   62.3695 C   0  0  0  0  0  0  0  0  0  0  0  0
  -47.9321   60.8817   59.4229 C   0  0  0  0  0  0  0  0  0  0  0  0
  -48.6855   59.5319   59.3609 C   0  0  0  0  0  0  0  0  0  0  0  0
  -46.2236   57.9674   57.0704 C   0  0  0  0  0  0  0  0  0  0  0  0
  -46.6786   56.6437   57.0077 C   0  0  0  0  0  0  0  0  0  0  0  0
  -46.9007   58.9119   57.8509 C   0  0  0  0  0  0  0  0  0  0  0  0
  -47.8122   56.2887   57.7386 C   0  0  0  0  0  0  0  0  0  0  0  0
  -48.4770   57.2323   58.5199 C   0  0  0  0  0  0  0  0  0  0  0  0
  -48.0184   58.5526   58.6126 C   0  0  0  0  0  0  0  0  0  0  0  0
  -48.3174   55.0307   57.7294 O   0  0  0  0  0  0  0  0  0  0  0  0
  -49.5770   56.8376   59.2241 O   0  0  0  0  0  0  0  0  0  0  0  0
  -47.9033   54.3633   57.2185 H   0  0  0  0  0  0  0  0  0  0  0  0
  -49.8818   55.9538   59.1603 H   0  0  0  0  0  0  0  0  0  0  0  0
 12 13  1  0  0  0
  9 10  2  0  0  0
  9  8  1  0  0  0
  6  7  2  0  0  0
  6  8  1  0  0  0
 10 11  1  0  0  0
  7  5  1  0  0  0
 16 17  2  0  0  0
 16 18  1  0  0  0
 17 19  1  0  0  0
 18 21  2  0  0  0
 13 11  1  0  0  0
  5  4  1  0  0  0
  4  3  1  0  0  0
  3  2  1  0  0  0
  2  1  1  0  0  0
  1 14  1  0  0  0
 14 15  1  0  0  0
 15 21  1  0  0  0
 19 20  2  0  0  0
 19 22  1  0  0  0
 20 21  1  0  0  0
 20 23  1  0  0  0
 22 24  1  0  0  0
 23 25  1  0  0  0
M  END
> <minimizedAffinity>
-7.77079

> <CNNscore>
0.3914313316

> <CNNaffinity>
6.5631895065

> <CNN_VS>
2.5690379143

> <CNNaffinity_variance>
0.1383693665

$$$$
/media/chris/experiments/cd1a-new-docking/inputs/ligands/5j1a_ligand.pdb


 25 25  0  0  0  0  0  0  0  0999 V2000
  -48.5901   58.8374   64.2211 C   0  0  0  0  0  0  0  0  0  0  0  0
  -49.6576   58.1870   63.3286 C   0  0  0  0  0  0  0  0  0  0  0  0
  -49.0861   57.8879   61.9495 C   0  0  0  0  0  0  0  0  0  0  0  0
  -50.2127   57.9161   60.9160 C   0  0  0  0  0  0  0  0  0  0  0  0
  -49.8405   58.8394   59.7562 C   0  0  0  0  0  0  0  0  0  0  0  0
  -48.1911   60.9211   59.9034 C   0  0  0  0  0  0  0  0  0  0  0  0
  -49.4840   60.2066   60.3426 C   0  0  0  0  0  0  0  0  0  0  0  0
  -47.1643   60.2540   58.9753 C   0  0  0  0  0  0  0  0  0  0  0  0
  -46.3534   59.2687   59.8297 C   0  0  0  0  0  0  0  0  0  0  0  0
  -45.8709   57.9074   59.2737 C   0  0  0  0  0  0  0  0  0  0  0  0
  -46.1472   57.4799   57.8190 C   0  0  0  0  0  0  0  0  0  0  0  0
  -47.5645   55.6958   58.9310 C   0  0  0  0  0  0  0  0  0  0  0  0
  -47.4871   56.7314   57.8065 C   0  0  0  0  0  0  0  0  0  0  0  0
  -47.4884   59.5784   63.4196 C   0  0  0  0  0  0  0  0  0  0  0  0
  -46.6125   60.5012   64.2997 C   0  0  0  0  0  0  0  0  0  0  0  0
  -44.9403   62.5844   61.7269 C   0  0  0  0  0  0  0  0  0  0  0  0
  -43.5868   62.4257   62.0526 C   0  0  0  0  0  0  0  0  0  0  0  0
  -45.9292   61.9382   62.4781 C   0  0  0  0  0  0  0  0  0  0  0  0
  -43.2484   61.6174   63.1378 C   0  0  0  0  0  0  0  0  0  0  0  0
  -44.2385   60.9832   63.8863 C   0  0  0  0  0  0  0  0  0  0  0  0
  -45.5965   61.1536   63.5882 C   0  0  0  0  0  0  0  0  0  0  0  0
  -41.9631   61.4106   63.5160 O   0  0  0  0  0  0  0  0  0  0  0  0
  -43.8607   60.2084   64.9440 O   0  0  0  0  0  0  0  0  0  0  0  0
  -41.2642   61.8167   63.0421 H   0  0  0  0  0  0  0  0  0  0  0  0
  -42.9516   60.0959   65.1413 H   0  0  0  0  0  0  0  0  0  0  0  0
 12 13  1  0  0  0
  9 10  2  0  0  0
  9  8  1  0  0  0
  6  7  2  0  0  0
  6  8  1  0  0  0
 10 11  1  0  0  0
  7  5  1  0  0  0
 16 17  2  0  0  0
 16 18  1  0  0  0
 17 19  1  0  0  0
 18 21  2  0  0  0
 13 11  1  0  0  0
  5  4  1  0  0  0
  4  3  1  0  0  0
  3  2  1  0  0  0
  2  1  1  0  0  0
  1 14  1  0  0  0
 14 15  1  0  0  0
 15 21  1  0  0  0
 19 20  2  0  0  0
 19 22  1  0  0  0
 20 21  1  0  0  0
 20 23  1  0  0  0
 22 24  1  0  0  0
 23 25  1  0  0  0
M  END
> <minimizedAffinity>
-7.53070

> <CNNscore>
0.3909794986

> <CNNaffinity>
6.1811847687

> <CNN_VS>
2.4167165756

> <CNNaffinity_variance>
0.1327342540

$$$$
/media/chris/experiments/cd1a-new-docking/inputs/ligands/5j1a_ligand.pdb


 25 25  0  0  0  0  0  0  0  0999 V2000
  -49.8605   58.8786   62.9501 C   0  0  0  0  0  0  0  0  0  0  0  0
  -50.1188   60.0271   61.9636 C   0  0  0  0  0  0  0  0  0  0  0  0
  -48.8422   60.3785   61.2120 C   0  0  0  0  0  0  0  0  0  0  0  0
  -47.7872   59.3028   61.4726 C   0  0  0  0  0  0  0  0  0  0  0  0
  -46.5877   59.5063   60.5473 C   0  0  0  0  0  0  0  0  0  0  0  0
  -45.8050   57.5892   58.8777 C   0  0  0  0  0  0  0  0  0  0  0  0
  -45.9425   58.1396   60.3106 C   0  0  0  0  0  0  0  0  0  0  0  0
  -46.4074   58.3129   57.6636 C   0  0  0  0  0  0  0  0  0  0  0  0
  -47.3718   57.3308   56.9826 C   0  0  0  0  0  0  0  0  0  0  0  0
  -48.8655   57.2431   57.3776 C   0  0  0  0  0  0  0  0  0  0  0  0
  -49.4769   58.1625   58.4530 C   0  0  0  0  0  0  0  0  0  0  0  0
  -49.1358   56.1350   59.9367 C   0  0  0  0  0  0  0  0  0  0  0  0
  -50.0906   57.2613   59.5332 C   0  0  0  0  0  0  0  0  0  0  0  0
  -50.1607   59.2561   64.4240 C   0  0  0  0  0  0  0  0  0  0  0  0
  -49.2432   60.3788   64.9635 C   0  0  0  0  0  0  0  0  0  0  0  0
  -46.9549   58.5777   67.2602 C   0  0  0  0  0  0  0  0  0  0  0  0
  -45.6952   58.9806   66.7977 C   0  0  0  0  0  0  0  0  0  0  0  0
  -48.1194   59.0519   66.6447 C   0  0  0  0  0  0  0  0  0  0  0  0
  -45.6271   59.8567   65.7145 C   0  0  0  0  0  0  0  0  0  0  0  0
  -46.7904   60.3188   65.1013 C   0  0  0  0  0  0  0  0  0  0  0  0
  -48.0556   59.9040   65.5364 C   0  0  0  0  0  0  0  0  0  0  0  0
  -44.4483   60.2959   65.2090 O   0  0  0  0  0  0  0  0  0  0  0  0
  -46.6748   61.1684   64.0399 O   0  0  0  0  0  0  0  0  0  0  0  0
  -43.6406   60.0116   65.5892 H   0  0  0  0  0  0  0  0  0  0  0  0
  -45.8274   61.4444   63.7508 H   0  0  0  0  0  0  0  0  0  0  0  0
 12 13  1  0  0  0
  9 10  2  0  0  0
  9  8  1  0  0  0
  6  7  2  0  0  0
  6  8  1  0  0  0
 10 11  1  0  0  0
  7  5  1  0  0  0
 16 17  2  0  0  0
 16 18  1  0  0  0
 17 19  1  0  0  0
 18 21  2  0  0  0
 13 11  1  0  0  0
  5  4  1  0  0  0
  4  3  1  0  0  0
  3  2  1  0  0  0
  2  1  1  0  0  0
  1 14  1  0  0  0
 14 15  1  0  0  0
 15 21  1  0  0  0
 19 20  2  0  0  0
 19 22  1  0  0  0
 20 21  1  0  0  0
 20 23  1  0  0  0
 22 24  1  0  0  0
 23 25  1  0  0  0
M  END
> <minimizedAffinity>
-7.70962

> <CNNscore>
0.3885679841

> <CNNaffinity>
6.2225294113

> <CNN_VS>
2.4178757668

> <CNNaffinity_variance>
0.1752651334

$$$$
/media/chris/experiments/cd1a-new-docking/inputs/ligands/5j1a_ligand.pdb


 25 25  0  0  0  0  0  0  0  0999 V2000
  -50.0014   58.2874   61.8222 C   0  0  0  0  0  0  0  0  0  0  0  0
  -48.9372   59.3780   62.0146 C   0  0  0  0  0  0  0  0  0  0  0  0
  -47.5967   58.7536   62.3767 C   0  0  0  0  0  0  0  0  0  0  0  0
  -46.4660   59.6522   61.8747 C   0  0  0  0  0  0  0  0  0  0  0  0
  -46.3720   60.9114   62.7361 C   0  0  0  0  0  0  0  0  0  0  0  0
  -45.6181   60.3120   65.2157 C   0  0  0  0  0  0  0  0  0  0  0  0
  -45.2616   60.6921   63.7653 C   0  0  0  0  0  0  0  0  0  0  0  0
  -47.0711   60.2604   65.7127 C   0  0  0  0  0  0  0  0  0  0  0  0
  -47.2256   58.9691   66.5294 C   0  0  0  0  0  0  0  0  0  0  0  0
  -48.4584   58.0462   66.3767 C   0  0  0  0  0  0  0  0  0  0  0  0
  -49.5838   58.3537   65.3695 C   0  0  0  0  0  0  0  0  0  0  0  0
  -51.1768   60.2592   64.8601 C   0  0  0  0  0  0  0  0  0  0  0  0
  -50.4231   59.4982   65.9536 C   0  0  0  0  0  0  0  0  0  0  0  0
  -49.5394   57.1362   60.8915 C   0  0  0  0  0  0  0  0  0  0  0  0
  -49.8131   57.4167   59.3949 C   0  0  0  0  0  0  0  0  0  0  0  0
  -46.8300   58.7474   57.6385 C   0  0  0  0  0  0  0  0  0  0  0  0
  -46.3528   57.6140   56.9670 C   0  0  0  0  0  0  0  0  0  0  0  0
  -47.9782   58.6665   58.4353 C   0  0  0  0  0  0  0  0  0  0  0  0
  -47.0407   56.4093   57.1120 C   0  0  0  0  0  0  0  0  0  0  0  0
  -48.1788   56.3339   57.9131 C   0  0  0  0  0  0  0  0  0  0  0  0
  -48.6521   57.4526   58.6108 C   0  0  0  0  0  0  0  0  0  0  0  0
  -46.6458   55.2690   56.4943 O   0  0  0  0  0  0  0  0  0  0  0  0
  -48.8146   55.1325   58.0315 O   0  0  0  0  0  0  0  0  0  0  0  0
  -45.8862   55.2722   55.9458 H   0  0  0  0  0  0  0  0  0  0  0  0
  -48.4961   54.3858   57.5637 H   0  0  0  0  0  0  0  0  0  0  0  0
 12 13  1  0  0  0
  9 10  2  0  0  0
  9  8  1  0  0  0
  6  7  2  0  0  0
  6  8  1  0  0  0
 10 11  1  0  0  0
  7  5  1  0  0  0
 16 17  2  0  0  0
 16 18  1  0  0  0
 17 19  1  0  0  0
 18 21  2  0  0  0
 13 11  1  0  0  0
  5  4  1  0  0  0
  4  3  1  0  0  0
  3  2  1  0  0  0
  2  1  1  0  0  0
  1 14  1  0  0  0
 14 15  1  0  0  0
 15 21  1  0  0  0
 19 20  2  0  0  0
 19 22  1  0  0  0
 20 21  1  0  0  0
 20 23  1  0  0  0
 22 24  1  0  0  0
 23 25  1  0  0  0
M  END
> <minimizedAffinity>
-7.72303

> <CNNscore>
0.3709807694

> <CNNaffinity>
6.6679825783

> <CNN_VS>
2.4736933708

> <CNNaffinity_variance>
0.1188518256

$$$$
/media/chris/experiments/cd1a-new-docking/inputs/ligands/5j1a_ligand.pdb


 25 25  0  0  0  0  0  0  0  0999 V2000
  -50.8376   59.7273   63.1573 C   0  0  0  0  0  0  0  0  0  0  0  0
  -50.1190   60.1625   61.8715 C   0  0  0  0  0  0  0  0  0  0  0  0
  -48.6363   59.8263   61.9523 C   0  0  0  0  0  0  0  0  0  0  0  0
  -47.8735   60.6402   60.9065 C   0  0  0  0  0  0  0  0  0  0  0  0
  -47.0185   59.7154   60.0403 C   0  0  0  0  0  0  0  0  0  0  0  0
  -46.9070   59.0257   57.4737 C   0  0  0  0  0  0  0  0  0  0  0  0
  -47.3499   60.0078   58.5758 C   0  0  0  0  0  0  0  0  0  0  0  0
  -46.0260   57.8035   57.7749 C   0  0  0  0  0  0  0  0  0  0  0  0
  -46.6094   56.6192   56.9903 C   0  0  0  0  0  0  0  0  0  0  0  0
  -47.5721   55.5988   57.6438 C   0  0  0  0  0  0  0  0  0  0  0  0
  -48.0273   55.7349   59.1099 C   0  0  0  0  0  0  0  0  0  0  0  0
  -49.9033   56.7054   60.5125 C   0  0  0  0  0  0  0  0  0  0  0  0
  -49.2569   56.6534   59.1260 C   0  0  0  0  0  0  0  0  0  0  0  0
  -50.1814   58.5002   63.8419 C   0  0  0  0  0  0  0  0  0  0  0  0
  -49.9807   58.6880   65.3643 C   0  0  0  0  0  0  0  0  0  0  0  0
  -47.1094   56.3923   65.8552 C   0  0  0  0  0  0  0  0  0  0  0  0
  -46.3449   57.0759   66.8099 C   0  0  0  0  0  0  0  0  0  0  0  0
  -48.3118   56.9375   65.3895 C   0  0  0  0  0  0  0  0  0  0  0  0
  -46.8035   58.3061   67.2807 C   0  0  0  0  0  0  0  0  0  0  0  0
  -47.9976   58.8468   66.8070 C   0  0  0  0  0  0  0  0  0  0  0  0
  -48.7589   58.1870   65.8337 C   0  0  0  0  0  0  0  0  0  0  0  0
  -46.1246   59.0283   68.2056 O   0  0  0  0  0  0  0  0  0  0  0  0
  -48.4029   60.0567   67.2905 O   0  0  0  0  0  0  0  0  0  0  0  0
  -45.3169   58.7041   68.5525 H   0  0  0  0  0  0  0  0  0  0  0  0
  -47.8919   60.4959   67.9416 H   0  0  0  0  0  0  0  0  0  0  0  0
 12 13  1  0  0  0
  9 10  2  0  0  0
  9  8  1  0  0  0
  6  7  2  0  0  0
  6  8  1  0  0  0
 10 11  1  0  0  0
  7  5  1  0  0  0
 16 17  2  0  0  0
 16 18  1  0  0  0
 17 19  1  0  0  0
 18 21  2  0  0  0
 13 11  1  0  0  0
  5  4  1  0  0  0
  4  3  1  0  0  0
  3  2  1  0  0  0
  2  1  1  0  0  0
  1 14  1  0  0  0
 14 15  1  0  0  0
 15 21  1  0  0  0
 19 20  2  0  0  0
 19 22  1  0  0  0
 20 21  1  0  0  0
 20 23  1  0  0  0
 22 24  1  0  0  0
 23 25  1  0  0  0
M  END
> <minimizedAffinity>
-8.54432

> <CNNscore>
0.3668194711

> <CNNaffinity>
6.3197927475

> <CNN_VS>
2.3182229996

> <CNNaffinity_variance>
0.1998900920

$$$$
