/media/chris/experiments/cd1a-new-docking/inputs/ligands/5j1a_ligand.pdb


 25 25  0  0  0  0  0  0  0  0999 V2000
  -49.7946   59.4988   64.8485 C   0  0  0  0  0  0  0  0  0  0  0  0
  -51.0810   60.1008   64.2638 C   0  0  0  0  0  0  0  0  0  0  0  0
  -51.1771   59.8025   62.7739 C   0  0  0  0  0  0  0  0  0  0  0  0
  -50.4439   58.4956   62.4696 C   0  0  0  0  0  0  0  0  0  0  0  0
  -50.7097   58.0662   61.0268 C   0  0  0  0  0  0  0  0  0  0  0  0
  -49.0958   56.7196   59.3965 C   0  0  0  0  0  0  0  0  0  0  0  0
  -49.8455   56.8375   60.7379 C   0  0  0  0  0  0  0  0  0  0  0  0
  -49.2776   57.7447   58.2666 C   0  0  0  0  0  0  0  0  0  0  0  0
  -47.9445   57.8256   57.5086 C   0  0  0  0  0  0  0  0  0  0  0  0
  -46.7338   58.6140   58.0631 C   0  0  0  0  0  0  0  0  0  0  0  0
  -46.7872   59.3328   59.4253 C   0  0  0  0  0  0  0  0  0  0  0  0
  -48.5422   60.9429   60.2948 C   0  0  0  0  0  0  0  0  0  0  0  0
  -47.4970   60.6762   59.2088 C   0  0  0  0  0  0  0  0  0  0  0  0
  -48.7670   60.5683   65.3013 C   0  0  0  0  0  0  0  0  0  0  0  0
  -47.9103   60.1166   66.5078 C   0  0  0  0  0  0  0  0  0  0  0  0
  -46.6370   56.6346   66.4100 C   0  0  0  0  0  0  0  0  0  0  0  0
  -45.4011   56.7903   65.7682 C   0  0  0  0  0  0  0  0  0  0  0  0
  -47.4541   57.7456   66.6505 C   0  0  0  0  0  0  0  0  0  0  0  0
  -45.0069   58.0683   65.3729 C   0  0  0  0  0  0  0  0  0  0  0  0
  -45.8289   59.1691   65.6084 C   0  0  0  0  0  0  0  0  0  0  0  0
  -47.0781   59.0249   66.2256 C   0  0  0  0  0  0  0  0  0  0  0  0
  -43.8264   58.3036   64.7493 O   0  0  0  0  0  0  0  0  0  0  0  0
  -45.4052   60.3993   65.1972 O   0  0  0  0  0  0  0  0  0  0  0  0
  -43.2416   57.5936   64.5703 H   0  0  0  0  0  0  0  0  0  0  0  0
  -44.5692   60.4931   64.7846 H   0  0  0  0  0  0  0  0  0  0  0  0
 12 13  1  0  0  0
  9 10  2  0  0  0
  9  8  1  0  0  0
  6  7  2  0  0  0
  6  8  1  0  0  0
 10 11  1  0  0  0
  7  5  1  0  0  0
 16 17  2  0  0  0
 16 18  1  0  0  0
 17 19  1  0  0  0
 18 21  2  0  0  0
 13 11  1  0  0  0
  5  4  1  0  0  0
  4  3  1  0  0  0
  3  2  1  0  0  0
  2  1  1  0  0  0
  1 14  1  0  0  0
 14 15  1  0  0  0
 15 21  1  0  0  0
 19 20  2  0  0  0
 19 22  1  0  0  0
 20 21  1  0  0  0
 20 23  1  0  0  0
 22 24  1  0  0  0
 23 25  1  0  0  0
M  END
> <minimizedAffinity>
-8.04169

> <CNNscore>
0.6644994020

> <CNNaffinity>
6.6213598251

> <CNN_VS>
4.3998894691

> <CNNaffinity_variance>
0.2196650505

$$$$
/media/chris/experiments/cd1a-new-docking/inputs/ligands/5j1a_ligand.pdb


 25 25  0  0  0  0  0  0  0  0999 V2000
  -45.9003   58.7772   60.5260 C   0  0  0  0  0  0  0  0  0  0  0  0
  -46.5501   57.8025   59.5326 C   0  0  0  0  0  0  0  0  0  0  0  0
  -46.9659   58.5357   58.2647 C   0  0  0  0  0  0  0  0  0  0  0  0
  -48.4391   58.2490   57.9723 C   0  0  0  0  0  0  0  0  0  0  0  0
  -49.3192   58.8382   59.0745 C   0  0  0  0  0  0  0  0  0  0  0  0
  -50.7663   57.6436   60.9598 C   0  0  0  0  0  0  0  0  0  0  0  0
  -50.3318   57.7682   59.4864 C   0  0  0  0  0  0  0  0  0  0  0  0
  -50.1245   58.4841   62.0743 C   0  0  0  0  0  0  0  0  0  0  0  0
  -51.1778   59.4996   62.5405 C   0  0  0  0  0  0  0  0  0  0  0  0
  -51.0569   60.2427   63.8925 C   0  0  0  0  0  0  0  0  0  0  0  0
  -49.8528   60.0312   64.8311 C   0  0  0  0  0  0  0  0  0  0  0  0
  -49.6463   57.8373   66.0851 C   0  0  0  0  0  0  0  0  0  0  0  0
  -50.3412   59.1999   66.0252 C   0  0  0  0  0  0  0  0  0  0  0  0
  -45.0823   58.0676   61.6361 C   0  0  0  0  0  0  0  0  0  0  0  0
  -44.7928   58.9768   62.8539 C   0  0  0  0  0  0  0  0  0  0  0  0
  -43.8012   62.4509   62.0157 C   0  0  0  0  0  0  0  0  0  0  0  0
  -42.4161   62.3287   61.8424 C   0  0  0  0  0  0  0  0  0  0  0  0
  -44.5741   61.3317   62.3469 C   0  0  0  0  0  0  0  0  0  0  0  0
  -41.8271   61.0757   62.0099 C   0  0  0  0  0  0  0  0  0  0  0  0
  -42.6015   59.9670   62.3474 C   0  0  0  0  0  0  0  0  0  0  0  0
  -43.9831   60.0794   62.5492 C   0  0  0  0  0  0  0  0  0  0  0  0
  -40.4954   60.8733   61.8577 O   0  0  0  0  0  0  0  0  0  0  0  0
  -41.9808   58.7626   62.5086 O   0  0  0  0  0  0  0  0  0  0  0  0
  -39.9355   61.5897   61.6310 H   0  0  0  0  0  0  0  0  0  0  0  0
  -41.0564   58.6901   62.3730 H   0  0  0  0  0  0  0  0  0  0  0  0
 12 13  1  0  0  0
  9 10  2  0  0  0
  9  8  1  0  0  0
  6  7  2  0  0  0
  6  8  1  0  0  0
 10 11  1  0  0  0
  7  5  1  0  0  0
 16 17  2  0  0  0
 16 18  1  0  0  0
 17 19  1  0  0  0
 18 21  2  0  0  0
 13 11  1  0  0  0
  5  4  1  0  0  0
  4  3  1  0  0  0
  3  2  1  0  0  0
  2  1  1  0  0  0
  1 14  1  0  0  0
 14 15  1  0  0  0
 15 21  1  0  0  0
 19 20  2  0  0  0
 19 22  1  0  0  0
 20 21  1  0  0  0
 20 23  1  0  0  0
 22 24  1  0  0  0
 23 25  1  0  0  0
M  END
> <minimizedAffinity>
-8.01653

> <CNNscore>
0.5167606473

> <CNNaffinity>
6.3788003922

> <CNN_VS>
3.2963130474

> <CNNaffinity_variance>
0.3356782496

$$$$
/media/chris/experiments/cd1a-new-docking/inputs/ligands/5j1a_ligand.pdb


 25 25  0  0  0  0  0  0  0  0999 V2000
  -39.2748   59.4179   65.0640 C   0  0  0  0  0  0  0  0  0  0  0  0
  -40.0069   60.0345   63.8627 C   0  0  0  0  0  0  0  0  0  0  0  0
  -39.0471   60.2228   62.6959 C   0  0  0  0  0  0  0  0  0  0  0  0
  -39.8061   60.0450   61.3804 C   0  0  0  0  0  0  0  0  0  0  0  0
  -39.1308   58.9746   60.5233 C   0  0  0  0  0  0  0  0  0  0  0  0
  -38.2738   56.8195   61.8259 C   0  0  0  0  0  0  0  0  0  0  0  0
  -39.4157   57.6147   61.1632 C   0  0  0  0  0  0  0  0  0  0  0  0
  -36.8113   57.2863   61.7651 C   0  0  0  0  0  0  0  0  0  0  0  0
  -36.2349   57.1584   63.1826 C   0  0  0  0  0  0  0  0  0  0  0  0
  -34.8903   57.8120   63.5819 C   0  0  0  0  0  0  0  0  0  0  0  0
  -34.0715   58.6586   62.5878 C   0  0  0  0  0  0  0  0  0  0  0  0
  -31.6583   59.2229   62.0527 C   0  0  0  0  0  0  0  0  0  0  0  0
  -32.6075   58.2117   62.7002 C   0  0  0  0  0  0  0  0  0  0  0  0
  -37.7726   59.7974   65.1281 C   0  0  0  0  0  0  0  0  0  0  0  0
  -37.4600   60.8644   66.2039 C   0  0  0  0  0  0  0  0  0  0  0  0
  -34.3792   62.0274   64.4976 C   0  0  0  0  0  0  0  0  0  0  0  0
  -33.8754   62.9673   65.4066 C   0  0  0  0  0  0  0  0  0  0  0  0
  -35.5647   61.3374   64.7777 C   0  0  0  0  0  0  0  0  0  0  0  0
  -34.5787   63.2019   66.5879 C   0  0  0  0  0  0  0  0  0  0  0  0
  -35.7626   62.5171   66.8567 C   0  0  0  0  0  0  0  0  0  0  0  0
  -36.2916   61.5939   65.9457 C   0  0  0  0  0  0  0  0  0  0  0  0
  -34.1573   64.0923   67.5191 O   0  0  0  0  0  0  0  0  0  0  0  0
  -36.4208   62.7849   68.0217 O   0  0  0  0  0  0  0  0  0  0  0  0
  -33.3666   64.5757   67.3809 H   0  0  0  0  0  0  0  0  0  0  0  0
  -36.0648   63.4028   68.6295 H   0  0  0  0  0  0  0  0  0  0  0  0
 12 13  1  0  0  0
  9 10  2  0  0  0
  9  8  1  0  0  0
  6  7  2  0  0  0
  6  8  1  0  0  0
 10 11  1  0  0  0
  7  5  1  0  0  0
 16 17  2  0  0  0
 16 18  1  0  0  0
 17 19  1  0  0  0
 18 21  2  0  0  0
 13 11  1  0  0  0
  5  4  1  0  0  0
  4  3  1  0  0  0
  3  2  1  0  0  0
  2  1  1  0  0  0
  1 14  1  0  0  0
 14 15  1  0  0  0
 15 21  1  0  0  0
 19 20  2  0  0  0
 19 22  1  0  0  0
 20 21  1  0  0  0
 20 23  1  0  0  0
 22 24  1  0  0  0
 23 25  1  0  0  0
M  END
> <minimizedAffinity>
-7.45624

> <CNNscore>
0.3913865089

> <CNNaffinity>
6.0241570473

> <CNN_VS>
2.3577737808

> <CNNaffinity_variance>
0.2102666199

$$$$
/media/chris/experiments/cd1a-new-docking/inputs/ligands/5j1a_ligand.pdb


 25 25  0  0  0  0  0  0  0  0999 V2000
  -46.7913   61.6499   62.2780 C   0  0  0  0  0  0  0  0  0  0  0  0
  -46.8984   61.3204   60.7816 C   0  0  0  0  0  0  0  0  0  0  0  0
  -48.3169   60.8909   60.4330 C   0  0  0  0  0  0  0  0  0  0  0  0
  -48.2846   59.9815   59.2043 C   0  0  0  0  0  0  0  0  0  0  0  0
  -46.8397   59.7271   58.7751 C   0  0  0  0  0  0  0  0  0  0  0  0
  -46.9988   57.3185   57.6575 C   0  0  0  0  0  0  0  0  0  0  0  0
  -46.8715   58.8485   57.5233 C   0  0  0  0  0  0  0  0  0  0  0  0
  -46.9737   56.6136   59.0225 C   0  0  0  0  0  0  0  0  0  0  0  0
  -48.2162   55.7138   59.0913 C   0  0  0  0  0  0  0  0  0  0  0  0
  -49.3604   55.9734   60.1004 C   0  0  0  0  0  0  0  0  0  0  0  0
  -49.3331   57.1719   61.0691 C   0  0  0  0  0  0  0  0  0  0  0  0
  -50.8678   58.8637   62.1694 C   0  0  0  0  0  0  0  0  0  0  0  0
  -50.7542   57.7485   61.1271 C   0  0  0  0  0  0  0  0  0  0  0  0
  -46.5132   60.4065   63.1619 C   0  0  0  0  0  0  0  0  0  0  0  0
  -46.9241   60.6066   64.6400 C   0  0  0  0  0  0  0  0  0  0  0  0
  -50.1539   59.1527   65.7399 C   0  0  0  0  0  0  0  0  0  0  0  0
  -49.7859   57.8463   66.0886 C   0  0  0  0  0  0  0  0  0  0  0  0
  -49.1945   60.0550   65.2654 C   0  0  0  0  0  0  0  0  0  0  0  0
  -48.4513   57.4657   65.9497 C   0  0  0  0  0  0  0  0  0  0  0  0
  -47.5027   58.3669   65.4692 C   0  0  0  0  0  0  0  0  0  0  0  0
  -47.8609   59.6676   65.0924 C   0  0  0  0  0  0  0  0  0  0  0  0
  -48.0142   56.2225   66.2673 O   0  0  0  0  0  0  0  0  0  0  0  0
  -46.2103   57.9478   65.3427 O   0  0  0  0  0  0  0  0  0  0  0  0
  -48.6165   55.5834   66.5942 H   0  0  0  0  0  0  0  0  0  0  0  0
  -45.9733   57.0772   65.5955 H   0  0  0  0  0  0  0  0  0  0  0  0
 12 13  1  0  0  0
  9 10  2  0  0  0
  9  8  1  0  0  0
  6  7  2  0  0  0
  6  8  1  0  0  0
 10 11  1  0  0  0
  7  5  1  0  0  0
 16 17  2  0  0  0
 16 18  1  0  0  0
 17 19  1  0  0  0
 18 21  2  0  0  0
 13 11  1  0  0  0
  5  4  1  0  0  0
  4  3  1  0  0  0
  3  2  1  0  0  0
  2  1  1  0  0  0
  1 14  1  0  0  0
 14 15  1  0  0  0
 15 21  1  0  0  0
 19 20  2  0  0  0
 19 22  1  0  0  0
 20 21  1  0  0  0
 20 23  1  0  0  0
 22 24  1  0  0  0
 23 25  1  0  0  0
M  END
> <minimizedAffinity>
-7.72477

> <CNNscore>
0.3528599441

> <CNNaffinity>
6.3190946579

> <CNN_VS>
2.2297554016

> <CNNaffinity_variance>
0.3548798859

$$$$
/media/chris/experiments/cd1a-new-docking/inputs/ligands/5j1a_ligand.pdb


 25 25  0  0  0  0  0  0  0  0999 V2000
  -49.5756   58.3859   63.1818 C   0  0  0  0  0  0  0  0  0  0  0  0
  -50.3312   58.7617   61.8984 C   0  0  0  0  0  0  0  0  0  0  0  0
  -50.7970   57.5083   61.1705 C   0  0  0  0  0  0  0  0  0  0  0  0
  -49.5793   56.6980   60.7246 C   0  0  0  0  0  0  0  0  0  0  0  0
  -49.3629   56.8573   59.2198 C   0  0  0  0  0  0  0  0  0  0  0  0
  -46.8822   55.9582   58.8833 C   0  0  0  0  0  0  0  0  0  0  0  0
  -48.4053   55.7543   58.7658 C   0  0  0  0  0  0  0  0  0  0  0  0
  -46.2694   57.2934   59.3332 C   0  0  0  0  0  0  0  0  0  0  0  0
  -46.2043   58.2021   58.0970 C   0  0  0  0  0  0  0  0  0  0  0  0
  -47.0828   59.4692   57.9648 C   0  0  0  0  0  0  0  0  0  0  0  0
  -48.0470   59.9097   59.0836 C   0  0  0  0  0  0  0  0  0  0  0  0
  -46.4356   60.6485   60.8963 C   0  0  0  0  0  0  0  0  0  0  0  0
  -47.4034   61.1039   59.8014 C   0  0  0  0  0  0  0  0  0  0  0  0
  -50.1578   59.0535   64.4547 C   0  0  0  0  0  0  0  0  0  0  0  0
  -50.0424   58.1640   65.7152 C   0  0  0  0  0  0  0  0  0  0  0  0
  -46.8697   56.2742   66.0582 C   0  0  0  0  0  0  0  0  0  0  0  0
  -46.0868   57.1485   66.8237 C   0  0  0  0  0  0  0  0  0  0  0  0
  -48.1779   56.6234   65.7026 C   0  0  0  0  0  0  0  0  0  0  0  0
  -46.6347   58.3689   67.2181 C   0  0  0  0  0  0  0  0  0  0  0  0
  -47.9352   58.7137   66.8537 C   0  0  0  0  0  0  0  0  0  0  0  0
  -48.7202   57.8609   66.0671 C   0  0  0  0  0  0  0  0  0  0  0  0
  -45.9445   59.2684   67.9612 O   0  0  0  0  0  0  0  0  0  0  0  0
  -48.4266   59.9215   67.2557 O   0  0  0  0  0  0  0  0  0  0  0  0
  -45.0667   59.0793   68.2293 H   0  0  0  0  0  0  0  0  0  0  0  0
  -47.8995   60.4901   67.7819 H   0  0  0  0  0  0  0  0  0  0  0  0
 12 13  1  0  0  0
  9 10  2  0  0  0
  9  8  1  0  0  0
  6  7  2  0  0  0
  6  8  1  0  0  0
 10 11  1  0  0  0
  7  5  1  0  0  0
 16 17  2  0  0  0
 16 18  1  0  0  0
 17 19  1  0  0  0
 18 21  2  0  0  0
 13 11  1  0  0  0
  5  4  1  0  0  0
  4  3  1  0  0  0
  3  2  1  0  0  0
  2  1  1  0  0  0
  1 14  1  0  0  0
 14 15  1  0  0  0
 15 21  1  0  0  0
 19 20  2  0  0  0
 19 22  1  0  0  0
 20 21  1  0  0  0
 20 23  1  0  0  0
 22 24  1  0  0  0
 23 25  1  0  0  0
M  END
> <minimizedAffinity>
-8.44104

> <CNNscore>
0.3351109326

> <CNNaffinity>
6.2541575432

> <CNN_VS>
2.0958366394

> <CNNaffinity_variance>
0.2337180376

$$$$
/media/chris/experiments/cd1a-new-docking/inputs/ligands/5j1a_ligand.pdb


 25 25  0  0  0  0  0  0  0  0999 V2000
  -47.9295   60.5269   65.8501 C   0  0  0  0  0  0  0  0  0  0  0  0
  -49.0802   59.6581   66.3796 C   0  0  0  0  0  0  0  0  0  0  0  0
  -49.9027   59.1050   65.2240 C   0  0  0  0  0  0  0  0  0  0  0  0
  -50.7007   60.2393   64.5801 C   0  0  0  0  0  0  0  0  0  0  0  0
  -51.0491   59.8839   63.1349 C   0  0  0  0  0  0  0  0  0  0  0  0
  -49.7483   58.2243   61.5133 C   0  0  0  0  0  0  0  0  0  0  0  0
  -50.4773   58.4953   62.8439 C   0  0  0  0  0  0  0  0  0  0  0  0
  -49.6744   59.2744   60.3942 C   0  0  0  0  0  0  0  0  0  0  0  0
  -49.6519   58.5145   59.0599 C   0  0  0  0  0  0  0  0  0  0  0  0
  -48.4016   58.4977   58.1482 C   0  0  0  0  0  0  0  0  0  0  0  0
  -47.0961   59.2137   58.5461 C   0  0  0  0  0  0  0  0  0  0  0  0
  -45.7343   57.9355   60.2607 C   0  0  0  0  0  0  0  0  0  0  0  0
  -46.0297   58.1332   58.7719 C   0  0  0  0  0  0  0  0  0  0  0  0
  -46.6071   59.7411   65.6540 C   0  0  0  0  0  0  0  0  0  0  0  0
  -46.4528   59.1552   64.2306 C   0  0  0  0  0  0  0  0  0  0  0  0
  -46.7948   61.5998   61.4625 C   0  0  0  0  0  0  0  0  0  0  0  0
  -45.4649   61.9802   61.2388 C   0  0  0  0  0  0  0  0  0  0  0  0
  -47.1049   60.6613   62.4538 C   0  0  0  0  0  0  0  0  0  0  0  0
  -44.4630   61.4096   62.0235 C   0  0  0  0  0  0  0  0  0  0  0  0
  -44.7796   60.4817   63.0142 C   0  0  0  0  0  0  0  0  0  0  0  0
  -46.1069   60.1115   63.2662 C   0  0  0  0  0  0  0  0  0  0  0  0
  -43.1530   61.7222   61.8685 O   0  0  0  0  0  0  0  0  0  0  0  0
  -43.7671   59.9556   63.7626 O   0  0  0  0  0  0  0  0  0  0  0  0
  -42.8933   62.3412   61.2148 H   0  0  0  0  0  0  0  0  0  0  0  0
  -42.8801   60.2049   63.5920 H   0  0  0  0  0  0  0  0  0  0  0  0
 12 13  1  0  0  0
  9 10  2  0  0  0
  9  8  1  0  0  0
  6  7  2  0  0  0
  6  8  1  0  0  0
 10 11  1  0  0  0
  7  5  1  0  0  0
 16 17  2  0  0  0
 16 18  1  0  0  0
 17 19  1  0  0  0
 18 21  2  0  0  0
 13 11  1  0  0  0
  5  4  1  0  0  0
  4  3  1  0  0  0
  3  2  1  0  0  0
  2  1  1  0  0  0
  1 14  1  0  0  0
 14 15  1  0  0  0
 15 21  1  0  0  0
 19 20  2  0  0  0
 19 22  1  0  0  0
 20 21  1  0  0  0
 20 23  1  0  0  0
 22 24  1  0  0  0
 23 25  1  0  0  0
M  END
> <minimizedAffinity>
-7.34161

> <CNNscore>
0.3326600194

> <CNNaffinity>
6.1251525879

> <CNN_VS>
2.0375933647

> <CNNaffinity_variance>
0.2723538578

$$$$
/media/chris/experiments/cd1a-new-docking/inputs/ligands/5j1a_ligand.pdb


 25 25  0  0  0  0  0  0  0  0999 V2000
  -38.5209   58.7776   65.1857 C   0  0  0  0  0  0  0  0  0  0  0  0
  -37.8366   57.6059   64.4660 C   0  0  0  0  0  0  0  0  0  0  0  0
  -36.4420   58.0074   64.0056 C   0  0  0  0  0  0  0  0  0  0  0  0
  -36.1494   57.3624   62.6505 C   0  0  0  0  0  0  0  0  0  0  0  0
  -37.4570   57.0140   61.9396 C   0  0  0  0  0  0  0  0  0  0  0  0
  -39.0172   58.8209   60.7662 C   0  0  0  0  0  0  0  0  0  0  0  0
  -37.6828   58.0532   60.8401 C   0  0  0  0  0  0  0  0  0  0  0  0
  -40.1985   58.4960   61.6934 C   0  0  0  0  0  0  0  0  0  0  0  0
  -40.6597   57.0702   61.3580 C   0  0  0  0  0  0  0  0  0  0  0  0
  -41.3122   56.1502   62.4175 C   0  0  0  0  0  0  0  0  0  0  0  0
  -41.5685   56.6270   63.8606 C   0  0  0  0  0  0  0  0  0  0  0  0
  -43.3561   56.6151   65.6586 C   0  0  0  0  0  0  0  0  0  0  0  0
  -43.0382   56.3307   64.1885 C   0  0  0  0  0  0  0  0  0  0  0  0
  -37.8932   60.1552   64.8494 C   0  0  0  0  0  0  0  0  0  0  0  0
  -37.4222   60.9312   66.1022 C   0  0  0  0  0  0  0  0  0  0  0  0
  -34.3707   62.2575   64.4637 C   0  0  0  0  0  0  0  0  0  0  0  0
  -33.8949   63.1667   65.4179 C   0  0  0  0  0  0  0  0  0  0  0  0
  -35.5374   61.5230   64.7066 C   0  0  0  0  0  0  0  0  0  0  0  0
  -34.6070   63.3257   66.6064 C   0  0  0  0  0  0  0  0  0  0  0  0
  -35.7722   62.5969   66.8384 C   0  0  0  0  0  0  0  0  0  0  0  0
  -36.2737   61.7038   65.8828 C   0  0  0  0  0  0  0  0  0  0  0  0
  -34.2122   64.1822   67.5802 O   0  0  0  0  0  0  0  0  0  0  0  0
  -36.4401   62.7911   68.0124 O   0  0  0  0  0  0  0  0  0  0  0  0
  -33.4347   64.6930   67.4679 H   0  0  0  0  0  0  0  0  0  0  0  0
  -36.1025   63.3890   68.6501 H   0  0  0  0  0  0  0  0  0  0  0  0
 12 13  1  0  0  0
  9 10  2  0  0  0
  9  8  1  0  0  0
  6  7  2  0  0  0
  6  8  1  0  0  0
 10 11  1  0  0  0
  7  5  1  0  0  0
 16 17  2  0  0  0
 16 18  1  0  0  0
 17 19  1  0  0  0
 18 21  2  0  0  0
 13 11  1  0  0  0
  5  4  1  0  0  0
  4  3  1  0  0  0
  3  2  1  0  0  0
  2  1  1  0  0  0
  1 14  1  0  0  0
 14 15  1  0  0  0
 15 21  1  0  0  0
 19 20  2  0  0  0
 19 22  1  0  0  0
 20 21  1  0  0  0
 20 23  1  0  0  0
 22 24  1  0  0  0
 23 25  1  0  0  0
M  END
> <minimizedAffinity>
-7.58553

> <CNNscore>
0.3319392502

> <CNNaffinity>
5.9608645439

> <CNN_VS>
1.9786448479

> <CNNaffinity_variance>
0.1297756732

$$$$
/media/chris/experiments/cd1a-new-docking/inputs/ligands/5j1a_ligand.pdb


 25 25  0  0  0  0  0  0  0  0999 V2000
  -50.2152   58.9919   61.8864 C   0  0  0  0  0  0  0  0  0  0  0  0
  -51.1688   59.7974   62.7814 C   0  0  0  0  0  0  0  0  0  0  0  0
  -50.7142   59.7347   64.2331 C   0  0  0  0  0  0  0  0  0  0  0  0
  -49.7819   58.5375   64.4219 C   0  0  0  0  0  0  0  0  0  0  0  0
  -49.4989   58.3195   65.9081 C   0  0  0  0  0  0  0  0  0  0  0  0
  -47.0778   57.5233   66.6697 C   0  0  0  0  0  0  0  0  0  0  0  0
  -48.4445   57.2175   66.0266 C   0  0  0  0  0  0  0  0  0  0  0  0
  -46.6755   58.9434   67.0964 C   0  0  0  0  0  0  0  0  0  0  0  0
  -45.4179   59.3177   66.2985 C   0  0  0  0  0  0  0  0  0  0  0  0
  -45.4873   60.1903   65.0225 C   0  0  0  0  0  0  0  0  0  0  0  0
  -46.8199   60.7627   64.5010 C   0  0  0  0  0  0  0  0  0  0  0  0
  -46.5427   58.9704   62.7292 C   0  0  0  0  0  0  0  0  0  0  0  0
  -46.9087   60.4308   63.0051 C   0  0  0  0  0  0  0  0  0  0  0  0
  -49.6487   59.8122   60.6985 C   0  0  0  0  0  0  0  0  0  0  0  0
  -49.7662   59.0784   59.3416 C   0  0  0  0  0  0  0  0  0  0  0  0
  -46.4004   58.4462   57.9179 C   0  0  0  0  0  0  0  0  0  0  0  0
  -46.2518   57.0666   58.1131 C   0  0  0  0  0  0  0  0  0  0  0  0
  -47.5707   59.0965   58.3269 C   0  0  0  0  0  0  0  0  0  0  0  0
  -47.2879   56.3602   58.7235 C   0  0  0  0  0  0  0  0  0  0  0  0
  -48.4471   57.0153   59.1354 C   0  0  0  0  0  0  0  0  0  0  0  0
  -48.5986   58.3981   58.9703 C   0  0  0  0  0  0  0  0  0  0  0  0
  -47.2233   55.0245   58.9460 O   0  0  0  0  0  0  0  0  0  0  0  0
  -49.4311   56.2846   59.7353 O   0  0  0  0  0  0  0  0  0  0  0  0
  -46.4631   54.5424   58.6857 H   0  0  0  0  0  0  0  0  0  0  0  0
  -49.3274   55.3597   59.8445 H   0  0  0  0  0  0  0  0  0  0  0  0
 12 13  1  0  0  0
  9 10  2  0  0  0
  9  8  1  0  0  0
  6  7  2  0  0  0
  6  8  1  0  0  0
 10 11  1  0  0  0
  7  5  1  0  0  0
 16 17  2  0  0  0
 16 18  1  0  0  0
 17 19  1  0  0  0
 18 21  2  0  0  0
 13 11  1  0  0  0
  5  4  1  0  0  0
  4  3  1  0  0  0
  3  2  1  0  0  0
  2  1  1  0  0  0
  1 14  1  0  0  0
 14 15  1  0  0  0
 15 21  1  0  0  0
 19 20  2  0  0  0
 19 22  1  0  0  0
 20 21  1  0  0  0
 20 23  1  0  0  0
 22 24  1  0  0  0
 23 25  1  0  0  0
M  END
> <minimizedAffinity>
-8.00411

> <CNNscore>
0.3024345934

> <CNNaffinity>
6.4754381180

> <CNN_VS>
1.9583965540

> <CNNaffinity_variance>
0.2370668948

$$$$
/media/chris/experiments/cd1a-new-docking/inputs/ligands/5j1a_ligand.pdb


 25 25  0  0  0  0  0  0  0  0999 V2000
  -34.7014   58.4785   61.0457 C   0  0  0  0  0  0  0  0  0  0  0  0
  -35.2608   57.3450   61.9184 C   0  0  0  0  0  0  0  0  0  0  0  0
  -36.7701   57.2397   61.7483 C   0  0  0  0  0  0  0  0  0  0  0  0
  -37.2908   56.0526   62.5593 C   0  0  0  0  0  0  0  0  0  0  0  0
  -38.4268   56.5004   63.4787 C   0  0  0  0  0  0  0  0  0  0  0  0
  -37.1764   56.3013   65.8180 C   0  0  0  0  0  0  0  0  0  0  0  0
  -38.2428   55.7986   64.8253 C   0  0  0  0  0  0  0  0  0  0  0  0
  -36.1897   57.4226   65.4580 C   0  0  0  0  0  0  0  0  0  0  0  0
  -36.2421   57.6011   63.9337 C   0  0  0  0  0  0  0  0  0  0  0  0
  -34.9718   57.8911   63.0990 C   0  0  0  0  0  0  0  0  0  0  0  0
  -33.5765   57.9816   63.7475 C   0  0  0  0  0  0  0  0  0  0  0  0
  -32.3188   56.3189   62.3047 C   0  0  0  0  0  0  0  0  0  0  0  0
  -32.9448   56.5847   63.6759 C   0  0  0  0  0  0  0  0  0  0  0  0
  -35.5548   59.7723   61.0989 C   0  0  0  0  0  0  0  0  0  0  0  0
  -35.9383   60.1894   62.5384 C   0  0  0  0  0  0  0  0  0  0  0  0
  -38.3218   63.0258   62.7085 C   0  0  0  0  0  0  0  0  0  0  0  0
  -39.5513   62.3697   62.8546 C   0  0  0  0  0  0  0  0  0  0  0  0
  -37.1349   62.2902   62.6086 C   0  0  0  0  0  0  0  0  0  0  0  0
  -39.5671   60.9757   62.8944 C   0  0  0  0  0  0  0  0  0  0  0  0
  -38.3824   60.2493   62.7865 C   0  0  0  0  0  0  0  0  0  0  0  0
  -37.1492   60.8909   62.6140 C   0  0  0  0  0  0  0  0  0  0  0  0
  -40.7136   60.2664   63.0359 O   0  0  0  0  0  0  0  0  0  0  0  0
  -38.4472   58.8867   62.8227 O   0  0  0  0  0  0  0  0  0  0  0  0
  -41.5341   60.7126   63.1122 H   0  0  0  0  0  0  0  0  0  0  0  0
  -39.2734   58.4600   62.9382 H   0  0  0  0  0  0  0  0  0  0  0  0
 12 13  1  0  0  0
  9 10  2  0  0  0
  9  8  1  0  0  0
  6  7  2  0  0  0
  6  8  1  0  0  0
 10 11  1  0  0  0
  7  5  1  0  0  0
 16 17  2  0  0  0
 16 18  1  0  0  0
 17 19  1  0  0  0
 18 21  2  0  0  0
 13 11  1  0  0  0
  5  4  1  0  0  0
  4  3  1  0  0  0
  3  2  1  0  0  0
  2  1  1  0  0  0
  1 14  1  0  0  0
 14 15  1  0  0  0
 15 21  1  0  0  0
 19 20  2  0  0  0
 19 22  1  0  0  0
 20 21  1  0  0  0
 20 23  1  0  0  0
 22 24  1  0  0  0
 23 25  1  0  0  0
M  END
> <minimizedAffinity>
14.91365

> <CNNscore>
0.3011477292

> <CNNaffinity>
5.5695309639

> <CNN_VS>
1.6772515774

> <CNNaffinity_variance>
0.8631336093

$$$$
