/media/chris/experiments/cd1a-new-docking/inputs/ligands/5j1a_ligand.pdb


 25 25  0  0  0  0  0  0  0  0999 V2000
  -48.8758   57.2938   58.6092 C   0  0  0  0  0  0  0  0  0  0  0  0
  -50.2034   57.9748   58.9736 C   0  0  0  0  0  0  0  0  0  0  0  0
  -50.4999   57.8003   60.4567 C   0  0  0  0  0  0  0  0  0  0  0  0
  -49.2014   57.4859   61.2005 C   0  0  0  0  0  0  0  0  0  0  0  0
  -49.2387   58.0903   62.6039 C   0  0  0  0  0  0  0  0  0  0  0  0
  -50.6514   60.0099   63.7856 C   0  0  0  0  0  0  0  0  0  0  0  0
  -49.9986   59.4155   62.5222 C   0  0  0  0  0  0  0  0  0  0  0  0
  -50.6757   59.2557   65.1240 C   0  0  0  0  0  0  0  0  0  0  0  0
  -49.4423   59.7055   65.9205 C   0  0  0  0  0  0  0  0  0  0  0  0
  -48.3658   58.7019   66.3990 C   0  0  0  0  0  0  0  0  0  0  0  0
  -48.4538   57.1984   66.0714 C   0  0  0  0  0  0  0  0  0  0  0  0
  -46.2910   57.4231   67.3755 C   0  0  0  0  0  0  0  0  0  0  0  0
  -47.0799   56.5822   66.3689 C   0  0  0  0  0  0  0  0  0  0  0  0
  -48.1729   57.9346   57.3844 C   0  0  0  0  0  0  0  0  0  0  0  0
  -46.7985   58.5560   57.7278 C   0  0  0  0  0  0  0  0  0  0  0  0
  -47.4647   61.1791   60.2638 C   0  0  0  0  0  0  0  0  0  0  0  0
  -46.7225   60.7237   61.3615 C   0  0  0  0  0  0  0  0  0  0  0  0
  -47.4768   60.4522   59.0674 C   0  0  0  0  0  0  0  0  0  0  0  0
  -46.0032   59.5351   61.2381 C   0  0  0  0  0  0  0  0  0  0  0  0
  -46.0259   58.8122   60.0466 C   0  0  0  0  0  0  0  0  0  0  0  0
  -46.7841   59.2419   58.9499 C   0  0  0  0  0  0  0  0  0  0  0  0
  -45.2589   59.0285   62.2516 O   0  0  0  0  0  0  0  0  0  0  0  0
  -45.3130   57.6510   59.9745 O   0  0  0  0  0  0  0  0  0  0  0  0
  -45.2140   59.4804   63.0711 H   0  0  0  0  0  0  0  0  0  0  0  0
  -44.8067   57.3658   60.7096 H   0  0  0  0  0  0  0  0  0  0  0  0
 12 13  1  0  0  0
  9 10  2  0  0  0
  9  8  1  0  0  0
  6  7  2  0  0  0
  6  8  1  0  0  0
 10 11  1  0  0  0
  7  5  1  0  0  0
 16 17  2  0  0  0
 16 18  1  0  0  0
 17 19  1  0  0  0
 18 21  2  0  0  0
 13 11  1  0  0  0
  5  4  1  0  0  0
  4  3  1  0  0  0
  3  2  1  0  0  0
  2  1  1  0  0  0
  1 14  1  0  0  0
 14 15  1  0  0  0
 15 21  1  0  0  0
 19 20  2  0  0  0
 19 22  1  0  0  0
 20 21  1  0  0  0
 20 23  1  0  0  0
 22 24  1  0  0  0
 23 25  1  0  0  0
M  END
> <minimizedAffinity>
-7.82357

> <CNNscore>
0.5604295731

> <CNNaffinity>
6.7204680443

> <CNN_VS>
3.7663490772

> <CNNaffinity_variance>
0.1291190684

$$$$
/media/chris/experiments/cd1a-new-docking/inputs/ligands/5j1a_ligand.pdb


 25 25  0  0  0  0  0  0  0  0999 V2000
  -48.7965   58.3460   62.6440 C   0  0  0  0  0  0  0  0  0  0  0  0
  -50.1164   58.3178   63.4288 C   0  0  0  0  0  0  0  0  0  0  0  0
  -50.1693   59.4723   64.4200 C   0  0  0  0  0  0  0  0  0  0  0  0
  -49.6658   58.9950   65.7826 C   0  0  0  0  0  0  0  0  0  0  0  0
  -48.6713   60.0025   66.3592 C   0  0  0  0  0  0  0  0  0  0  0  0
  -46.7589   60.8021   64.6919 C   0  0  0  0  0  0  0  0  0  0  0  0
  -48.2047   60.9054   65.2159 C   0  0  0  0  0  0  0  0  0  0  0  0
  -45.7107   59.8992   65.3605 C   0  0  0  0  0  0  0  0  0  0  0  0
  -45.5058   58.6855   64.4423 C   0  0  0  0  0  0  0  0  0  0  0  0
  -45.2760   57.2624   65.0053 C   0  0  0  0  0  0  0  0  0  0  0  0
  -45.2757   56.9781   66.5201 C   0  0  0  0  0  0  0  0  0  0  0  0
  -47.5615   55.9832   66.0574 C   0  0  0  0  0  0  0  0  0  0  0  0
  -46.7401   56.8948   66.9723 C   0  0  0  0  0  0  0  0  0  0  0  0
  -48.7128   59.5123   61.6252 C   0  0  0  0  0  0  0  0  0  0  0  0
  -49.3990   59.1922   60.2762 C   0  0  0  0  0  0  0  0  0  0  0  0
  -46.7991   58.7150   57.6745 C   0  0  0  0  0  0  0  0  0  0  0  0
  -46.8854   57.3399   57.4198 C   0  0  0  0  0  0  0  0  0  0  0  0
  -47.6402   59.3134   58.6202 C   0  0  0  0  0  0  0  0  0  0  0  0
  -47.8197   56.5840   58.1276 C   0  0  0  0  0  0  0  0  0  0  0  0
  -48.6486   57.1848   59.0736 C   0  0  0  0  0  0  0  0  0  0  0  0
  -48.5555   58.5534   59.3571 C   0  0  0  0  0  0  0  0  0  0  0  0
  -47.9675   55.2498   57.9381 O   0  0  0  0  0  0  0  0  0  0  0  0
  -49.5422   56.4041   59.7473 O   0  0  0  0  0  0  0  0  0  0  0  0
  -47.4318   54.8034   57.3123 H   0  0  0  0  0  0  0  0  0  0  0  0
  -49.6024   55.4889   59.5557 H   0  0  0  0  0  0  0  0  0  0  0  0
 12 13  1  0  0  0
  9 10  2  0  0  0
  9  8  1  0  0  0
  6  7  2  0  0  0
  6  8  1  0  0  0
 10 11  1  0  0  0
  7  5  1  0  0  0
 16 17  2  0  0  0
 16 18  1  0  0  0
 17 19  1  0  0  0
 18 21  2  0  0  0
 13 11  1  0  0  0
  5  4  1  0  0  0
  4  3  1  0  0  0
  3  2  1  0  0  0
  2  1  1  0  0  0
  1 14  1  0  0  0
 14 15  1  0  0  0
 15 21  1  0  0  0
 19 20  2  0  0  0
 19 22  1  0  0  0
 20 21  1  0  0  0
 20 23  1  0  0  0
 22 24  1  0  0  0
 23 25  1  0  0  0
M  END
> <minimizedAffinity>
-7.51405

> <CNNscore>
0.5024506450

> <CNNaffinity>
6.7434973717

> <CNN_VS>
3.3882746696

> <CNNaffinity_variance>
0.2275865823

$$$$
/media/chris/experiments/cd1a-new-docking/inputs/ligands/5j1a_ligand.pdb


 25 25  0  0  0  0  0  0  0  0999 V2000
  -46.7913   56.6213   58.1316 C   0  0  0  0  0  0  0  0  0  0  0  0
  -47.3881   55.6659   59.1757 C   0  0  0  0  0  0  0  0  0  0  0  0
  -48.8430   56.0211   59.4499 C   0  0  0  0  0  0  0  0  0  0  0  0
  -49.2593   57.1859   58.5509 C   0  0  0  0  0  0  0  0  0  0  0  0
  -50.1985   58.1254   59.3071 C   0  0  0  0  0  0  0  0  0  0  0  0
  -50.8231   58.1100   61.8928 C   0  0  0  0  0  0  0  0  0  0  0  0
  -50.7124   57.3798   60.5401 C   0  0  0  0  0  0  0  0  0  0  0  0
  -50.3167   59.5473   62.0887 C   0  0  0  0  0  0  0  0  0  0  0  0
  -51.1737   60.1836   63.1927 C   0  0  0  0  0  0  0  0  0  0  0  0
  -50.7448   60.1578   64.6794 C   0  0  0  0  0  0  0  0  0  0  0  0
  -49.4149   59.5228   65.1306 C   0  0  0  0  0  0  0  0  0  0  0  0
  -48.4353   57.3240   65.9268 C   0  0  0  0  0  0  0  0  0  0  0  0
  -49.7109   58.0702   65.5284 C   0  0  0  0  0  0  0  0  0  0  0  0
  -45.8013   57.6505   58.7362 C   0  0  0  0  0  0  0  0  0  0  0  0
  -45.9470   57.8076   60.2682 C   0  0  0  0  0  0  0  0  0  0  0  0
  -47.3338   61.2376   60.5275 C   0  0  0  0  0  0  0  0  0  0  0  0
  -46.4329   61.8546   61.4056 C   0  0  0  0  0  0  0  0  0  0  0  0
  -47.1572   59.8988   60.1582 C   0  0  0  0  0  0  0  0  0  0  0  0
  -45.3646   61.1090   61.9037 C   0  0  0  0  0  0  0  0  0  0  0  0
  -45.1992   59.7741   61.5381 C   0  0  0  0  0  0  0  0  0  0  0  0
  -46.1065   59.1371   60.6819 C   0  0  0  0  0  0  0  0  0  0  0  0
  -44.4485   61.6323   62.7550 O   0  0  0  0  0  0  0  0  0  0  0  0
  -44.1438   59.0819   62.0565 O   0  0  0  0  0  0  0  0  0  0  0  0
  -44.5196   62.5257   63.0283 H   0  0  0  0  0  0  0  0  0  0  0  0
  -43.5383   59.5104   62.6290 H   0  0  0  0  0  0  0  0  0  0  0  0
 12 13  1  0  0  0
  9 10  2  0  0  0
  9  8  1  0  0  0
  6  7  2  0  0  0
  6  8  1  0  0  0
 10 11  1  0  0  0
  7  5  1  0  0  0
 16 17  2  0  0  0
 16 18  1  0  0  0
 17 19  1  0  0  0
 18 21  2  0  0  0
 13 11  1  0  0  0
  5  4  1  0  0  0
  4  3  1  0  0  0
  3  2  1  0  0  0
  2  1  1  0  0  0
  1 14  1  0  0  0
 14 15  1  0  0  0
 15 21  1  0  0  0
 19 20  2  0  0  0
 19 22  1  0  0  0
 20 21  1  0  0  0
 20 23  1  0  0  0
 22 24  1  0  0  0
 23 25  1  0  0  0
M  END
> <minimizedAffinity>
-8.16547

> <CNNscore>
0.4618160129

> <CNNaffinity>
6.5328636169

> <CNN_VS>
3.0169811249

> <CNNaffinity_variance>
0.1136271954

$$$$
/media/chris/experiments/cd1a-new-docking/inputs/ligands/5j1a_ligand.pdb


 25 25  0  0  0  0  0  0  0  0999 V2000
  -45.5616   57.5557   59.3915 C   0  0  0  0  0  0  0  0  0  0  0  0
  -46.3368   57.5255   58.0659 C   0  0  0  0  0  0  0  0  0  0  0  0
  -47.3722   58.6412   58.0311 C   0  0  0  0  0  0  0  0  0  0  0  0
  -48.7640   58.0365   57.8432 C   0  0  0  0  0  0  0  0  0  0  0  0
  -49.5965   58.2268   59.1110 C   0  0  0  0  0  0  0  0  0  0  0  0
  -49.7216   59.9763   61.1110 C   0  0  0  0  0  0  0  0  0  0  0  0
  -49.2609   59.6032   59.6883 C   0  0  0  0  0  0  0  0  0  0  0  0
  -50.6237   59.0540   61.9454 C   0  0  0  0  0  0  0  0  0  0  0  0
  -51.1484   59.8813   63.1279 C   0  0  0  0  0  0  0  0  0  0  0  0
  -50.6294   59.6689   64.5702 C   0  0  0  0  0  0  0  0  0  0  0  0
  -49.5300   58.6386   64.8947 C   0  0  0  0  0  0  0  0  0  0  0  0
  -48.0095   60.6660   64.9713 C   0  0  0  0  0  0  0  0  0  0  0  0
  -48.1905   59.2395   64.4470 C   0  0  0  0  0  0  0  0  0  0  0  0
  -45.9798   58.7247   60.3208 C   0  0  0  0  0  0  0  0  0  0  0  0
  -45.2352   58.7203   61.6768 C   0  0  0  0  0  0  0  0  0  0  0  0
  -44.6188   62.3746   61.8239 C   0  0  0  0  0  0  0  0  0  0  0  0
  -43.3846   62.4393   62.4841 C   0  0  0  0  0  0  0  0  0  0  0  0
  -45.2164   61.1361   61.5611 C   0  0  0  0  0  0  0  0  0  0  0  0
  -42.7698   61.2499   62.8749 C   0  0  0  0  0  0  0  0  0  0  0  0
  -43.3741   60.0206   62.6172 C   0  0  0  0  0  0  0  0  0  0  0  0
  -44.6197   59.9420   61.9813 C   0  0  0  0  0  0  0  0  0  0  0  0
  -41.5752   61.2266   63.5154 O   0  0  0  0  0  0  0  0  0  0  0  0
  -42.7393   58.8836   63.0248 O   0  0  0  0  0  0  0  0  0  0  0  0
  -41.1321   62.0290   63.7096 H   0  0  0  0  0  0  0  0  0  0  0  0
  -41.9062   58.9390   63.4499 H   0  0  0  0  0  0  0  0  0  0  0  0
 12 13  1  0  0  0
  9 10  2  0  0  0
  9  8  1  0  0  0
  6  7  2  0  0  0
  6  8  1  0  0  0
 10 11  1  0  0  0
  7  5  1  0  0  0
 16 17  2  0  0  0
 16 18  1  0  0  0
 17 19  1  0  0  0
 18 21  2  0  0  0
 13 11  1  0  0  0
  5  4  1  0  0  0
  4  3  1  0  0  0
  3  2  1  0  0  0
  2  1  1  0  0  0
  1 14  1  0  0  0
 14 15  1  0  0  0
 15 21  1  0  0  0
 19 20  2  0  0  0
 19 22  1  0  0  0
 20 21  1  0  0  0
 20 23  1  0  0  0
 22 24  1  0  0  0
 23 25  1  0  0  0
M  END
> <minimizedAffinity>
-7.95581

> <CNNscore>
0.4507901967

> <CNNaffinity>
6.2869701385

> <CNN_VS>
2.8341045380

> <CNNaffinity_variance>
0.1604505926

$$$$
/media/chris/experiments/cd1a-new-docking/inputs/ligands/5j1a_ligand.pdb


 25 25  0  0  0  0  0  0  0  0999 V2000
  -49.7058   59.5430   63.5604 C   0  0  0  0  0  0  0  0  0  0  0  0
  -50.0309   58.2014   62.8871 C   0  0  0  0  0  0  0  0  0  0  0  0
  -50.7639   58.4311   61.5725 C   0  0  0  0  0  0  0  0  0  0  0  0
  -50.5309   57.2372   60.6460 C   0  0  0  0  0  0  0  0  0  0  0  0
  -49.0651   56.8073   60.6992 C   0  0  0  0  0  0  0  0  0  0  0  0
  -47.4386   55.8421   58.8285 C   0  0  0  0  0  0  0  0  0  0  0  0
  -48.8131   55.8590   59.5255 C   0  0  0  0  0  0  0  0  0  0  0  0
  -46.3276   56.8401   59.1897 C   0  0  0  0  0  0  0  0  0  0  0  0
  -46.0314   57.6650   57.9287 C   0  0  0  0  0  0  0  0  0  0  0  0
  -46.8115   58.9591   57.5949 C   0  0  0  0  0  0  0  0  0  0  0  0
  -47.9058   59.5121   58.5288 C   0  0  0  0  0  0  0  0  0  0  0  0
  -48.2203   61.0110   60.5494 C   0  0  0  0  0  0  0  0  0  0  0  0
  -47.2202   60.4398   59.5413 C   0  0  0  0  0  0  0  0  0  0  0  0
  -50.2146   59.6355   65.0223 C   0  0  0  0  0  0  0  0  0  0  0  0
  -50.0844   58.3030   65.7974 C   0  0  0  0  0  0  0  0  0  0  0  0
  -46.9487   56.3347   66.0186 C   0  0  0  0  0  0  0  0  0  0  0  0
  -46.1251   57.1761   66.7783 C   0  0  0  0  0  0  0  0  0  0  0  0
  -48.2575   56.7206   65.7054 C   0  0  0  0  0  0  0  0  0  0  0  0
  -46.6335   58.4010   67.2100 C   0  0  0  0  0  0  0  0  0  0  0  0
  -47.9349   58.7825   66.8878 C   0  0  0  0  0  0  0  0  0  0  0  0
  -48.7605   57.9631   66.1074 C   0  0  0  0  0  0  0  0  0  0  0  0
  -45.9026   59.2701   67.9505 O   0  0  0  0  0  0  0  0  0  0  0  0
  -48.3869   59.9933   67.3253 O   0  0  0  0  0  0  0  0  0  0  0  0
  -45.0227   59.0559   68.1908 H   0  0  0  0  0  0  0  0  0  0  0  0
  -47.8326   60.5395   67.8472 H   0  0  0  0  0  0  0  0  0  0  0  0
 12 13  1  0  0  0
  9 10  2  0  0  0
  9  8  1  0  0  0
  6  7  2  0  0  0
  6  8  1  0  0  0
 10 11  1  0  0  0
  7  5  1  0  0  0
 16 17  2  0  0  0
 16 18  1  0  0  0
 17 19  1  0  0  0
 18 21  2  0  0  0
 13 11  1  0  0  0
  5  4  1  0  0  0
  4  3  1  0  0  0
  3  2  1  0  0  0
  2  1  1  0  0  0
  1 14  1  0  0  0
 14 15  1  0  0  0
 15 21  1  0  0  0
 19 20  2  0  0  0
 19 22  1  0  0  0
 20 21  1  0  0  0
 20 23  1  0  0  0
 22 24  1  0  0  0
 23 25  1  0  0  0
M  END
> <minimizedAffinity>
-8.53429

> <CNNscore>
0.4005191922

> <CNNaffinity>
6.4151535034

> <CNN_VS>
2.5693922043

> <CNNaffinity_variance>
0.1250234246

$$$$
/media/chris/experiments/cd1a-new-docking/inputs/ligands/5j1a_ligand.pdb


 25 25  0  0  0  0  0  0  0  0999 V2000
  -45.5616   57.6088   59.4380 C   0  0  0  0  0  0  0  0  0  0  0  0
  -46.2334   58.2711   58.2260 C   0  0  0  0  0  0  0  0  0  0  0  0
  -46.4903   57.2421   57.1336 C   0  0  0  0  0  0  0  0  0  0  0  0
  -46.9363   55.9257   57.7709 C   0  0  0  0  0  0  0  0  0  0  0  0
  -48.4503   55.9285   57.9810 C   0  0  0  0  0  0  0  0  0  0  0  0
  -49.6391   56.7562   60.2122 C   0  0  0  0  0  0  0  0  0  0  0  0
  -48.7147   55.7646   59.4788 C   0  0  0  0  0  0  0  0  0  0  0  0
  -50.2220   57.9962   59.5170 C   0  0  0  0  0  0  0  0  0  0  0  0
  -49.4327   59.2126   60.0226 C   0  0  0  0  0  0  0  0  0  0  0  0
  -49.7440   59.8833   61.3821 C   0  0  0  0  0  0  0  0  0  0  0  0
  -50.8410   59.3449   62.3214 C   0  0  0  0  0  0  0  0  0  0  0  0
  -48.8525   58.3074   63.5038 C   0  0  0  0  0  0  0  0  0  0  0  0
  -50.1815   59.0471   63.6750 C   0  0  0  0  0  0  0  0  0  0  0  0
  -46.1081   58.1180   60.7971 C   0  0  0  0  0  0  0  0  0  0  0  0
  -45.0008   58.3346   61.8554 C   0  0  0  0  0  0  0  0  0  0  0  0
  -45.1747   62.0333   61.6431 C   0  0  0  0  0  0  0  0  0  0  0  0
  -44.0414   62.4242   62.3684 C   0  0  0  0  0  0  0  0  0  0  0  0
  -45.4765   60.6761   61.4795 C   0  0  0  0  0  0  0  0  0  0  0  0
  -43.2272   61.4372   62.9238 C   0  0  0  0  0  0  0  0  0  0  0  0
  -43.5379   60.0879   62.7638 C   0  0  0  0  0  0  0  0  0  0  0  0
  -44.6815   59.6833   62.0634 C   0  0  0  0  0  0  0  0  0  0  0  0
  -42.1124   61.7321   63.6366 O   0  0  0  0  0  0  0  0  0  0  0  0
  -42.7166   59.1578   63.3314 O   0  0  0  0  0  0  0  0  0  0  0  0
  -41.8644   62.6257   63.7699 H   0  0  0  0  0  0  0  0  0  0  0  0
  -41.9523   59.4311   63.7993 H   0  0  0  0  0  0  0  0  0  0  0  0
 12 13  1  0  0  0
  9 10  2  0  0  0
  9  8  1  0  0  0
  6  7  2  0  0  0
  6  8  1  0  0  0
 10 11  1  0  0  0
  7  5  1  0  0  0
 16 17  2  0  0  0
 16 18  1  0  0  0
 17 19  1  0  0  0
 18 21  2  0  0  0
 13 11  1  0  0  0
  5  4  1  0  0  0
  4  3  1  0  0  0
  3  2  1  0  0  0
  2  1  1  0  0  0
  1 14  1  0  0  0
 14 15  1  0  0  0
 15 21  1  0  0  0
 19 20  2  0  0  0
 19 22  1  0  0  0
 20 21  1  0  0  0
 20 23  1  0  0  0
 22 24  1  0  0  0
 23 25  1  0  0  0
M  END
> <minimizedAffinity>
-7.91147

> <CNNscore>
0.3977335095

> <CNNaffinity>
6.2141408920

> <CNN_VS>
2.4715721607

> <CNNaffinity_variance>
0.1665498018

$$$$
/media/chris/experiments/cd1a-new-docking/inputs/ligands/5j1a_ligand.pdb


 25 25  0  0  0  0  0  0  0  0999 V2000
  -49.9856   59.9739   61.7430 C   0  0  0  0  0  0  0  0  0  0  0  0
  -50.0668   58.5099   62.2001 C   0  0  0  0  0  0  0  0  0  0  0  0
  -50.3776   58.4351   63.6887 C   0  0  0  0  0  0  0  0  0  0  0  0
  -50.3991   59.8474   64.2744 C   0  0  0  0  0  0  0  0  0  0  0  0
  -49.8401   59.8363   65.6970 C   0  0  0  0  0  0  0  0  0  0  0  0
  -48.1367   57.8591   66.2127 C   0  0  0  0  0  0  0  0  0  0  0  0
  -49.5819   58.3796   66.0865 C   0  0  0  0  0  0  0  0  0  0  0  0
  -46.9222   58.7232   65.8402 C   0  0  0  0  0  0  0  0  0  0  0  0
  -46.6661   58.5228   64.3394 C   0  0  0  0  0  0  0  0  0  0  0  0
  -46.6526   59.7088   63.3454 C   0  0  0  0  0  0  0  0  0  0  0  0
  -46.8600   61.1629   63.8126 C   0  0  0  0  0  0  0  0  0  0  0  0
  -46.1111   61.6863   61.4475 C   0  0  0  0  0  0  0  0  0  0  0  0
  -45.9846   62.0596   62.9264 C   0  0  0  0  0  0  0  0  0  0  0  0
  -49.2981   60.1493   60.3640 C   0  0  0  0  0  0  0  0  0  0  0  0
  -49.6408   59.0188   59.3652 C   0  0  0  0  0  0  0  0  0  0  0  0
  -46.4354   58.4498   57.5882 C   0  0  0  0  0  0  0  0  0  0  0  0
  -46.2581   57.0676   57.7347 C   0  0  0  0  0  0  0  0  0  0  0  0
  -47.5618   59.0799   58.1306 C   0  0  0  0  0  0  0  0  0  0  0  0
  -47.2209   56.3381   58.4319 C   0  0  0  0  0  0  0  0  0  0  0  0
  -48.3360   56.9730   58.9762 C   0  0  0  0  0  0  0  0  0  0  0  0
  -48.5130   58.3576   58.8599 C   0  0  0  0  0  0  0  0  0  0  0  0
  -47.1246   54.9983   58.6152 O   0  0  0  0  0  0  0  0  0  0  0  0
  -49.2478   56.2199   59.6568 O   0  0  0  0  0  0  0  0  0  0  0  0
  -46.3920   54.5293   58.2669 H   0  0  0  0  0  0  0  0  0  0  0  0
  -49.1270   55.2939   59.7332 H   0  0  0  0  0  0  0  0  0  0  0  0
 12 13  1  0  0  0
  9 10  2  0  0  0
  9  8  1  0  0  0
  6  7  2  0  0  0
  6  8  1  0  0  0
 10 11  1  0  0  0
  7  5  1  0  0  0
 16 17  2  0  0  0
 16 18  1  0  0  0
 17 19  1  0  0  0
 18 21  2  0  0  0
 13 11  1  0  0  0
  5  4  1  0  0  0
  4  3  1  0  0  0
  3  2  1  0  0  0
  2  1  1  0  0  0
  1 14  1  0  0  0
 14 15  1  0  0  0
 15 21  1  0  0  0
 19 20  2  0  0  0
 19 22  1  0  0  0
 20 21  1  0  0  0
 20 23  1  0  0  0
 22 24  1  0  0  0
 23 25  1  0  0  0
M  END
> <minimizedAffinity>
-7.67873

> <CNNscore>
0.3344316781

> <CNNaffinity>
6.5070557594

> <CNN_VS>
2.1761655807

> <CNNaffinity_variance>
0.1696203798

$$$$
/media/chris/experiments/cd1a-new-docking/inputs/ligands/5j1a_ligand.pdb


 25 25  0  0  0  0  0  0  0  0999 V2000
  -50.1419   58.5734   65.0564 C   0  0  0  0  0  0  0  0  0  0  0  0
  -50.9476   59.8594   64.8200 C   0  0  0  0  0  0  0  0  0  0  0  0
  -51.1779   60.0752   63.3305 C   0  0  0  0  0  0  0  0  0  0  0  0
  -49.8887   59.7683   62.5678 C   0  0  0  0  0  0  0  0  0  0  0  0
  -50.2161   59.2045   61.1852 C   0  0  0  0  0  0  0  0  0  0  0  0
  -50.1052   56.6685   60.3897 C   0  0  0  0  0  0  0  0  0  0  0  0
  -50.6300   57.7425   61.3626 C   0  0  0  0  0  0  0  0  0  0  0  0
  -49.2649   57.0266   59.1541 C   0  0  0  0  0  0  0  0  0  0  0  0
  -48.2518   55.8908   58.9499 C   0  0  0  0  0  0  0  0  0  0  0  0
  -46.7545   56.1687   58.6751 C   0  0  0  0  0  0  0  0  0  0  0  0
  -46.1896   57.6018   58.6266 C   0  0  0  0  0  0  0  0  0  0  0  0
  -46.4720   59.2092   60.5670 C   0  0  0  0  0  0  0  0  0  0  0  0
  -45.7422   57.9678   60.0484 C   0  0  0  0  0  0  0  0  0  0  0  0
  -49.1775   58.6669   66.2672 C   0  0  0  0  0  0  0  0  0  0  0  0
  -48.5449   60.0687   66.4344 C   0  0  0  0  0  0  0  0  0  0  0  0
  -45.9938   60.9314   63.8843 C   0  0  0  0  0  0  0  0  0  0  0  0
  -44.8227   60.4105   64.4504 C   0  0  0  0  0  0  0  0  0  0  0  0
  -47.2181   60.8071   64.5517 C   0  0  0  0  0  0  0  0  0  0  0  0
  -44.9023   59.7724   65.6881 C   0  0  0  0  0  0  0  0  0  0  0  0
  -46.1233   59.6592   66.3509 C   0  0  0  0  0  0  0  0  0  0  0  0
  -47.2973   60.1978   65.8091 C   0  0  0  0  0  0  0  0  0  0  0  0
  -43.8170   59.2399   66.3014 O   0  0  0  0  0  0  0  0  0  0  0  0
  -46.1517   59.0336   67.5632 O   0  0  0  0  0  0  0  0  0  0  0  0
  -42.9753   59.2925   65.8931 H   0  0  0  0  0  0  0  0  0  0  0  0
  -45.3649   58.6741   67.9234 H   0  0  0  0  0  0  0  0  0  0  0  0
 12 13  1  0  0  0
  9 10  2  0  0  0
  9  8  1  0  0  0
  6  7  2  0  0  0
  6  8  1  0  0  0
 10 11  1  0  0  0
  7  5  1  0  0  0
 16 17  2  0  0  0
 16 18  1  0  0  0
 17 19  1  0  0  0
 18 21  2  0  0  0
 13 11  1  0  0  0
  5  4  1  0  0  0
  4  3  1  0  0  0
  3  2  1  0  0  0
  2  1  1  0  0  0
  1 14  1  0  0  0
 14 15  1  0  0  0
 15 21  1  0  0  0
 19 20  2  0  0  0
 19 22  1  0  0  0
 20 21  1  0  0  0
 20 23  1  0  0  0
 22 24  1  0  0  0
 23 25  1  0  0  0
M  END
> <minimizedAffinity>
-7.94765

> <CNNscore>
0.3015725613

> <CNNaffinity>
6.1855330467

> <CNN_VS>
1.8653870821

> <CNNaffinity_variance>
0.1364719123

$$$$
/media/chris/experiments/cd1a-new-docking/inputs/ligands/5j1a_ligand.pdb


 25 25  0  0  0  0  0  0  0  0999 V2000
  -45.2381   59.2211   62.6983 C   0  0  0  0  0  0  0  0  0  0  0  0
  -46.3838   60.1948   63.0119 C   0  0  0  0  0  0  0  0  0  0  0  0
  -46.3329   60.6215   64.4725 C   0  0  0  0  0  0  0  0  0  0  0  0
  -45.1529   59.9350   65.1611 C   0  0  0  0  0  0  0  0  0  0  0  0
  -45.6190   59.2476   66.4443 C   0  0  0  0  0  0  0  0  0  0  0  0
  -46.3703   56.7196   66.0954 C   0  0  0  0  0  0  0  0  0  0  0  0
  -45.2625   57.7638   66.3359 C   0  0  0  0  0  0  0  0  0  0  0  0
  -47.8594   57.0979   66.0795 C   0  0  0  0  0  0  0  0  0  0  0  0
  -48.2378   57.3892   64.6200 C   0  0  0  0  0  0  0  0  0  0  0  0
  -49.3718   58.3747   64.2492 C   0  0  0  0  0  0  0  0  0  0  0  0
  -50.1615   59.1466   65.3245 C   0  0  0  0  0  0  0  0  0  0  0  0
  -51.1741   59.9110   63.1294 C   0  0  0  0  0  0  0  0  0  0  0  0
  -50.9618   60.2431   64.6083 C   0  0  0  0  0  0  0  0  0  0  0  0
  -45.4235   58.4669   61.3561 C   0  0  0  0  0  0  0  0  0  0  0  0
  -45.9777   59.3649   60.2250 C   0  0  0  0  0  0  0  0  0  0  0  0
  -46.7060   57.4070   57.1603 C   0  0  0  0  0  0  0  0  0  0  0  0
  -48.1021   57.2976   57.2048 C   0  0  0  0  0  0  0  0  0  0  0  0
  -46.0181   58.0973   58.1654 C   0  0  0  0  0  0  0  0  0  0  0  0
  -48.7874   57.8849   58.2683 C   0  0  0  0  0  0  0  0  0  0  0  0
  -48.0956   58.5638   59.2699 C   0  0  0  0  0  0  0  0  0  0  0  0
  -46.6982   58.6589   59.2520 C   0  0  0  0  0  0  0  0  0  0  0  0
  -50.1369   57.8264   58.3831 O   0  0  0  0  0  0  0  0  0  0  0  0
  -48.8073   59.1158   60.2949 O   0  0  0  0  0  0  0  0  0  0  0  0
  -50.6434   57.3803   57.7333 H   0  0  0  0  0  0  0  0  0  0  0  0
  -49.7420   59.0508   60.3045 H   0  0  0  0  0  0  0  0  0  0  0  0
 12 13  1  0  0  0
  9 10  2  0  0  0
  9  8  1  0  0  0
  6  7  2  0  0  0
  6  8  1  0  0  0
 10 11  1  0  0  0
  7  5  1  0  0  0
 16 17  2  0  0  0
 16 18  1  0  0  0
 17 19  1  0  0  0
 18 21  2  0  0  0
 13 11  1  0  0  0
  5  4  1  0  0  0
  4  3  1  0  0  0
  3  2  1  0  0  0
  2  1  1  0  0  0
  1 14  1  0  0  0
 14 15  1  0  0  0
 15 21  1  0  0  0
 19 20  2  0  0  0
 19 22  1  0  0  0
 20 21  1  0  0  0
 20 23  1  0  0  0
 22 24  1  0  0  0
 23 25  1  0  0  0
M  END
> <minimizedAffinity>
-7.69201

> <CNNscore>
0.2915370464

> <CNNaffinity>
6.4424209595

> <CNN_VS>
1.8782043457

> <CNNaffinity_variance>
0.1456157267

$$$$
