/media/chris/experiments/cd1a-new-docking/inputs/ligands/5j1a_ligand.pdb


 25 25  0  0  0  0  0  0  0  0999 V2000
  -50.4708   58.2069   62.0932 C   0  0  0  0  0  0  0  0  0  0  0  0
  -50.9712   59.6083   62.4737 C   0  0  0  0  0  0  0  0  0  0  0  0
  -50.1850   60.1484   63.6604 C   0  0  0  0  0  0  0  0  0  0  0  0
  -51.0263   60.0141   64.9302 C   0  0  0  0  0  0  0  0  0  0  0  0
  -50.2961   59.1483   65.9567 C   0  0  0  0  0  0  0  0  0  0  0  0
  -47.6475   59.3935   65.9250 C   0  0  0  0  0  0  0  0  0  0  0  0
  -49.0309   59.8952   66.3829 C   0  0  0  0  0  0  0  0  0  0  0  0
  -47.4719   58.0821   65.1440 C   0  0  0  0  0  0  0  0  0  0  0  0
  -47.0010   57.0172   66.1453 C   0  0  0  0  0  0  0  0  0  0  0  0
  -45.5023   56.7956   66.4606 C   0  0  0  0  0  0  0  0  0  0  0  0
  -44.3999   57.6566   65.8133 C   0  0  0  0  0  0  0  0  0  0  0  0
  -43.0288   55.8552   64.6716 C   0  0  0  0  0  0  0  0  0  0  0  0
  -44.0277   56.9986   64.4777 C   0  0  0  0  0  0  0  0  0  0  0  0
  -49.8610   58.1387   60.6689 C   0  0  0  0  0  0  0  0  0  0  0  0
  -48.4021   57.6241   60.6558 C   0  0  0  0  0  0  0  0  0  0  0  0
  -46.8111   58.8969   57.5567 C   0  0  0  0  0  0  0  0  0  0  0  0
  -46.7087   57.7356   56.7793 C   0  0  0  0  0  0  0  0  0  0  0  0
  -47.3771   58.8440   58.8361 C   0  0  0  0  0  0  0  0  0  0  0  0
  -47.1766   56.5321   57.3063 C   0  0  0  0  0  0  0  0  0  0  0  0
  -47.7318   56.4851   58.5840 C   0  0  0  0  0  0  0  0  0  0  0  0
  -47.8169   57.6330   59.3824 C   0  0  0  0  0  0  0  0  0  0  0  0
  -47.1163   55.3659   56.6179 O   0  0  0  0  0  0  0  0  0  0  0  0
  -48.1693   55.2840   59.0613 O   0  0  0  0  0  0  0  0  0  0  0  0
  -46.7511   55.3496   55.7552 H   0  0  0  0  0  0  0  0  0  0  0  0
  -48.1112   54.5176   58.5252 H   0  0  0  0  0  0  0  0  0  0  0  0
 12 13  1  0  0  0
  9 10  2  0  0  0
  9  8  1  0  0  0
  6  7  2  0  0  0
  6  8  1  0  0  0
 10 11  1  0  0  0
  7  5  1  0  0  0
 16 17  2  0  0  0
 16 18  1  0  0  0
 17 19  1  0  0  0
 18 21  2  0  0  0
 13 11  1  0  0  0
  5  4  1  0  0  0
  4  3  1  0  0  0
  3  2  1  0  0  0
  2  1  1  0  0  0
  1 14  1  0  0  0
 14 15  1  0  0  0
 15 21  1  0  0  0
 19 20  2  0  0  0
 19 22  1  0  0  0
 20 21  1  0  0  0
 20 23  1  0  0  0
 22 24  1  0  0  0
 23 25  1  0  0  0
M  END
> <minimizedAffinity>
-8.09516

> <CNNscore>
0.7880772352

> <CNNaffinity>
7.1757974625

> <CNN_VS>
5.6550827026

> <CNNaffinity_variance>
0.3411861062

$$$$
/media/chris/experiments/cd1a-new-docking/inputs/ligands/5j1a_ligand.pdb


 25 25  0  0  0  0  0  0  0  0999 V2000
  -44.7034   58.1895   61.5916 C   0  0  0  0  0  0  0  0  0  0  0  0
  -44.6150   58.2906   63.1217 C   0  0  0  0  0  0  0  0  0  0  0  0
  -43.7440   57.1726   63.6780 C   0  0  0  0  0  0  0  0  0  0  0  0
  -43.9010   57.1153   65.1979 C   0  0  0  0  0  0  0  0  0  0  0  0
  -45.3114   56.6541   65.5647 C   0  0  0  0  0  0  0  0  0  0  0  0
  -46.7001   58.0810   67.3287 C   0  0  0  0  0  0  0  0  0  0  0  0
  -45.5786   57.0726   67.0117 C   0  0  0  0  0  0  0  0  0  0  0  0
  -47.4977   58.7895   66.2230 C   0  0  0  0  0  0  0  0  0  0  0  0
  -48.8565   58.0814   66.1190 C   0  0  0  0  0  0  0  0  0  0  0  0
  -49.7211   58.1527   64.8376 C   0  0  0  0  0  0  0  0  0  0  0  0
  -49.2496   58.9097   63.5804 C   0  0  0  0  0  0  0  0  0  0  0  0
  -50.4952   57.8054   61.6680 C   0  0  0  0  0  0  0  0  0  0  0  0
  -50.4457   59.0004   62.6230 C   0  0  0  0  0  0  0  0  0  0  0  0
  -46.0255   58.7585   61.0142 C   0  0  0  0  0  0  0  0  0  0  0  0
  -47.0347   57.6588   60.6075 C   0  0  0  0  0  0  0  0  0  0  0  0
  -46.0876   57.7233   57.0222 C   0  0  0  0  0  0  0  0  0  0  0  0
  -46.7505   56.5949   56.5216 C   0  0  0  0  0  0  0  0  0  0  0  0
  -46.1944   58.0639   58.3759 C   0  0  0  0  0  0  0  0  0  0  0  0
  -47.5116   55.8206   57.3970 C   0  0  0  0  0  0  0  0  0  0  0  0
  -47.6073   56.1609   58.7454 C   0  0  0  0  0  0  0  0  0  0  0  0
  -46.9292   57.2711   59.2649 C   0  0  0  0  0  0  0  0  0  0  0  0
  -48.1848   54.7161   56.9916 O   0  0  0  0  0  0  0  0  0  0  0  0
  -48.3569   55.3697   59.5662 O   0  0  0  0  0  0  0  0  0  0  0  0
  -48.1495   54.4492   56.0941 H   0  0  0  0  0  0  0  0  0  0  0  0
  -48.8095   54.6276   59.2162 H   0  0  0  0  0  0  0  0  0  0  0  0
 12 13  1  0  0  0
  9 10  2  0  0  0
  9  8  1  0  0  0
  6  7  2  0  0  0
  6  8  1  0  0  0
 10 11  1  0  0  0
  7  5  1  0  0  0
 16 17  2  0  0  0
 16 18  1  0  0  0
 17 19  1  0  0  0
 18 21  2  0  0  0
 13 11  1  0  0  0
  5  4  1  0  0  0
  4  3  1  0  0  0
  3  2  1  0  0  0
  2  1  1  0  0  0
  1 14  1  0  0  0
 14 15  1  0  0  0
 15 21  1  0  0  0
 19 20  2  0  0  0
 19 22  1  0  0  0
 20 21  1  0  0  0
 20 23  1  0  0  0
 22 24  1  0  0  0
 23 25  1  0  0  0
M  END
> <minimizedAffinity>
-7.93218

> <CNNscore>
0.5985795259

> <CNNaffinity>
7.0820555687

> <CNN_VS>
4.2391734123

> <CNNaffinity_variance>
0.4251653254

$$$$
/media/chris/experiments/cd1a-new-docking/inputs/ligands/5j1a_ligand.pdb


 25 25  0  0  0  0  0  0  0  0999 V2000
  -48.8918   58.9042   62.0539 C   0  0  0  0  0  0  0  0  0  0  0  0
  -50.3001   58.6132   62.5933 C   0  0  0  0  0  0  0  0  0  0  0  0
  -51.0292   59.9136   62.9025 C   0  0  0  0  0  0  0  0  0  0  0  0
  -51.0878   60.1150   64.4171 C   0  0  0  0  0  0  0  0  0  0  0  0
  -50.2032   59.0855   65.1200 C   0  0  0  0  0  0  0  0  0  0  0  0
  -48.2881   60.5172   66.2859 C   0  0  0  0  0  0  0  0  0  0  0  0
  -49.6199   59.7463   66.3704 C   0  0  0  0  0  0  0  0  0  0  0  0
  -47.4437   60.5502   65.0027 C   0  0  0  0  0  0  0  0  0  0  0  0
  -46.0198   60.1209   65.3855 C   0  0  0  0  0  0  0  0  0  0  0  0
  -45.6076   58.6316   65.4673 C   0  0  0  0  0  0  0  0  0  0  0  0
  -46.5947   57.4958   65.1339 C   0  0  0  0  0  0  0  0  0  0  0  0
  -46.1876   57.2258   67.6218 C   0  0  0  0  0  0  0  0  0  0  0  0
  -47.1526   56.9671   66.4622 C   0  0  0  0  0  0  0  0  0  0  0  0
  -48.8725   59.9795   60.9366 C   0  0  0  0  0  0  0  0  0  0  0  0
  -49.3967   59.4555   59.5787 C   0  0  0  0  0  0  0  0  0  0  0  0
  -46.4868   58.4675   57.5021 C   0  0  0  0  0  0  0  0  0  0  0  0
  -46.6350   57.0761   57.4295 C   0  0  0  0  0  0  0  0  0  0  0  0
  -47.4111   59.2411   58.2144 C   0  0  0  0  0  0  0  0  0  0  0  0
  -47.7150   56.4816   58.0816 C   0  0  0  0  0  0  0  0  0  0  0  0
  -48.6272   57.2570   58.7957 C   0  0  0  0  0  0  0  0  0  0  0  0
  -48.4770   58.6459   58.8984 C   0  0  0  0  0  0  0  0  0  0  0  0
  -47.9304   55.1434   58.0577 O   0  0  0  0  0  0  0  0  0  0  0  0
  -49.6639   56.6310   59.4242 O   0  0  0  0  0  0  0  0  0  0  0  0
  -47.3431   54.5828   57.5901 H   0  0  0  0  0  0  0  0  0  0  0  0
  -49.7621   55.7018   59.3539 H   0  0  0  0  0  0  0  0  0  0  0  0
 12 13  1  0  0  0
  9 10  2  0  0  0
  9  8  1  0  0  0
  6  7  2  0  0  0
  6  8  1  0  0  0
 10 11  1  0  0  0
  7  5  1  0  0  0
 16 17  2  0  0  0
 16 18  1  0  0  0
 17 19  1  0  0  0
 18 21  2  0  0  0
 13 11  1  0  0  0
  5  4  1  0  0  0
  4  3  1  0  0  0
  3  2  1  0  0  0
  2  1  1  0  0  0
  1 14  1  0  0  0
 14 15  1  0  0  0
 15 21  1  0  0  0
 19 20  2  0  0  0
 19 22  1  0  0  0
 20 21  1  0  0  0
 20 23  1  0  0  0
 22 24  1  0  0  0
 23 25  1  0  0  0
M  END
> <minimizedAffinity>
-8.19942

> <CNNscore>
0.4965970218

> <CNNaffinity>
6.6341524124

> <CNN_VS>
3.2945003510

> <CNNaffinity_variance>
0.2610886991

$$$$
/media/chris/experiments/cd1a-new-docking/inputs/ligands/5j1a_ligand.pdb


 25 25  0  0  0  0  0  0  0  0999 V2000
  -47.4110   57.7312   65.1233 C   0  0  0  0  0  0  0  0  0  0  0  0
  -48.5950   58.6902   65.3167 C   0  0  0  0  0  0  0  0  0  0  0  0
  -49.7233   58.3410   64.3560 C   0  0  0  0  0  0  0  0  0  0  0  0
  -50.2435   59.6193   63.6977 C   0  0  0  0  0  0  0  0  0  0  0  0
  -50.1592   59.5001   62.1761 C   0  0  0  0  0  0  0  0  0  0  0  0
  -49.8679   57.5618   60.3777 C   0  0  0  0  0  0  0  0  0  0  0  0
  -50.1568   58.0116   61.8232 C   0  0  0  0  0  0  0  0  0  0  0  0
  -49.6977   58.5670   59.2283 C   0  0  0  0  0  0  0  0  0  0  0  0
  -49.3122   57.7645   57.9770 C   0  0  0  0  0  0  0  0  0  0  0  0
  -47.9060   57.8672   57.3394 C   0  0  0  0  0  0  0  0  0  0  0  0
  -46.8014   58.7545   57.9463 C   0  0  0  0  0  0  0  0  0  0  0  0
  -45.9487   58.3972   60.3072 C   0  0  0  0  0  0  0  0  0  0  0  0
  -45.9560   57.8681   58.8709 C   0  0  0  0  0  0  0  0  0  0  0  0
  -46.2832   58.3195   64.2361 C   0  0  0  0  0  0  0  0  0  0  0  0
  -45.8049   59.7139   64.7052 C   0  0  0  0  0  0  0  0  0  0  0  0
  -46.6272   61.8559   61.7912 C   0  0  0  0  0  0  0  0  0  0  0  0
  -45.3813   62.4128   61.4735 C   0  0  0  0  0  0  0  0  0  0  0  0
  -46.7501   60.9617   62.8614 C   0  0  0  0  0  0  0  0  0  0  0  0
  -44.2734   62.0620   62.2446 C   0  0  0  0  0  0  0  0  0  0  0  0
  -44.4044   61.1773   63.3138 C   0  0  0  0  0  0  0  0  0  0  0  0
  -45.6481   60.6330   63.6589 C   0  0  0  0  0  0  0  0  0  0  0  0
  -43.0341   62.5544   62.0012 O   0  0  0  0  0  0  0  0  0  0  0  0
  -43.2944   60.8691   64.0450 O   0  0  0  0  0  0  0  0  0  0  0  0
  -42.8985   63.1524   61.2927 H   0  0  0  0  0  0  0  0  0  0  0  0
  -42.4636   61.2345   63.8122 H   0  0  0  0  0  0  0  0  0  0  0  0
 12 13  1  0  0  0
  9 10  2  0  0  0
  9  8  1  0  0  0
  6  7  2  0  0  0
  6  8  1  0  0  0
 10 11  1  0  0  0
  7  5  1  0  0  0
 16 17  2  0  0  0
 16 18  1  0  0  0
 17 19  1  0  0  0
 18 21  2  0  0  0
 13 11  1  0  0  0
  5  4  1  0  0  0
  4  3  1  0  0  0
  3  2  1  0  0  0
  2  1  1  0  0  0
  1 14  1  0  0  0
 14 15  1  0  0  0
 15 21  1  0  0  0
 19 20  2  0  0  0
 19 22  1  0  0  0
 20 21  1  0  0  0
 20 23  1  0  0  0
 22 24  1  0  0  0
 23 25  1  0  0  0
M  END
> <minimizedAffinity>
-7.40289

> <CNNscore>
0.4473890364

> <CNNaffinity>
6.3448057175

> <CNN_VS>
2.8385965824

> <CNNaffinity_variance>
0.1320915073

$$$$
/media/chris/experiments/cd1a-new-docking/inputs/ligands/5j1a_ligand.pdb


 25 25  0  0  0  0  0  0  0  0999 V2000
  -50.4796   59.1862   64.9958 C   0  0  0  0  0  0  0  0  0  0  0  0
  -51.1108   60.0598   63.9014 C   0  0  0  0  0  0  0  0  0  0  0  0
  -50.9892   59.3805   62.5442 C   0  0  0  0  0  0  0  0  0  0  0  0
  -50.1835   58.0895   62.6930 C   0  0  0  0  0  0  0  0  0  0  0  0
  -49.2258   57.9272   61.5128 C   0  0  0  0  0  0  0  0  0  0  0  0
  -49.3890   58.9775   59.0742 C   0  0  0  0  0  0  0  0  0  0  0  0
  -50.0199   58.1751   60.2289 C   0  0  0  0  0  0  0  0  0  0  0  0
  -48.0164   59.6553   59.2053 C   0  0  0  0  0  0  0  0  0  0  0  0
  -47.2351   59.3502   57.9189 C   0  0  0  0  0  0  0  0  0  0  0  0
  -46.3415   58.0943   57.7818 C   0  0  0  0  0  0  0  0  0  0  0  0
  -46.2141   57.0599   58.9174 C   0  0  0  0  0  0  0  0  0  0  0  0
  -47.2606   55.4985   57.2159 C   0  0  0  0  0  0  0  0  0  0  0  0
  -47.2704   55.9741   58.6707 C   0  0  0  0  0  0  0  0  0  0  0  0
  -49.5684   59.9814   65.9665 C   0  0  0  0  0  0  0  0  0  0  0  0
  -48.4383   59.1223   66.5814 C   0  0  0  0  0  0  0  0  0  0  0  0
  -45.7861   60.7181   64.5381 C   0  0  0  0  0  0  0  0  0  0  0  0
  -44.6402   60.0233   64.9474 C   0  0  0  0  0  0  0  0  0  0  0  0
  -47.0361   60.4058   65.0859 C   0  0  0  0  0  0  0  0  0  0  0  0
  -44.7706   59.0221   65.9095 C   0  0  0  0  0  0  0  0  0  0  0  0
  -46.0170   58.7216   66.4566 C   0  0  0  0  0  0  0  0  0  0  0  0
  -47.1668   59.4254   66.0760 C   0  0  0  0  0  0  0  0  0  0  0  0
  -43.7124   58.3026   66.3567 O   0  0  0  0  0  0  0  0  0  0  0  0
  -46.0953   57.7396   67.4006 O   0  0  0  0  0  0  0  0  0  0  0  0
  -42.8552   58.4699   66.0172 H   0  0  0  0  0  0  0  0  0  0  0  0
  -45.3247   57.2702   67.6535 H   0  0  0  0  0  0  0  0  0  0  0  0
 12 13  1  0  0  0
  9 10  2  0  0  0
  9  8  1  0  0  0
  6  7  2  0  0  0
  6  8  1  0  0  0
 10 11  1  0  0  0
  7  5  1  0  0  0
 16 17  2  0  0  0
 16 18  1  0  0  0
 17 19  1  0  0  0
 18 21  2  0  0  0
 13 11  1  0  0  0
  5  4  1  0  0  0
  4  3  1  0  0  0
  3  2  1  0  0  0
  2  1  1  0  0  0
  1 14  1  0  0  0
 14 15  1  0  0  0
 15 21  1  0  0  0
 19 20  2  0  0  0
 19 22  1  0  0  0
 20 21  1  0  0  0
 20 23  1  0  0  0
 22 24  1  0  0  0
 23 25  1  0  0  0
M  END
> <minimizedAffinity>
-8.20150

> <CNNscore>
0.4432529211

> <CNNaffinity>
6.3836851120

> <CNN_VS>
2.8295869827

> <CNNaffinity_variance>
0.1358117163

$$$$
/media/chris/experiments/cd1a-new-docking/inputs/ligands/5j1a_ligand.pdb


 25 25  0  0  0  0  0  0  0  0999 V2000
  -46.7550   60.7561   61.1623 C   0  0  0  0  0  0  0  0  0  0  0  0
  -47.3853   60.2188   62.4557 C   0  0  0  0  0  0  0  0  0  0  0  0
  -46.6858   58.9401   62.8957 C   0  0  0  0  0  0  0  0  0  0  0  0
  -45.3427   59.2910   63.5369 C   0  0  0  0  0  0  0  0  0  0  0  0
  -45.5263   60.4039   64.5685 C   0  0  0  0  0  0  0  0  0  0  0  0
  -46.8430   59.5229   66.7054 C   0  0  0  0  0  0  0  0  0  0  0  0
  -45.5172   59.7608   65.9566 C   0  0  0  0  0  0  0  0  0  0  0  0
  -48.1898   60.0223   66.1601 C   0  0  0  0  0  0  0  0  0  0  0  0
  -49.0266   58.7823   65.8130 C   0  0  0  0  0  0  0  0  0  0  0  0
  -50.4008   58.8923   65.1100 C   0  0  0  0  0  0  0  0  0  0  0  0
  -50.9903   60.2521   64.6866 C   0  0  0  0  0  0  0  0  0  0  0  0
  -50.7999   58.8540   62.5801 C   0  0  0  0  0  0  0  0  0  0  0  0
  -51.1776   60.2176   63.1637 C   0  0  0  0  0  0  0  0  0  0  0  0
  -47.7992   61.1127   60.0726 C   0  0  0  0  0  0  0  0  0  0  0  0
  -48.6798   59.9105   59.6571 C   0  0  0  0  0  0  0  0  0  0  0  0
  -46.3972   58.2404   57.2578 C   0  0  0  0  0  0  0  0  0  0  0  0
  -46.5712   56.8875   57.5781 C   0  0  0  0  0  0  0  0  0  0  0  0
  -47.1049   59.2285   57.9528 C   0  0  0  0  0  0  0  0  0  0  0  0
  -47.4567   56.5487   58.6009 C   0  0  0  0  0  0  0  0  0  0  0  0
  -48.1522   57.5381   59.2942 C   0  0  0  0  0  0  0  0  0  0  0  0
  -47.9687   58.8958   59.0023 C   0  0  0  0  0  0  0  0  0  0  0  0
  -47.6829   55.2640   58.9695 O   0  0  0  0  0  0  0  0  0  0  0  0
  -49.0021   57.1601   60.2924 O   0  0  0  0  0  0  0  0  0  0  0  0
  -47.2376   54.5656   58.5314 H   0  0  0  0  0  0  0  0  0  0  0  0
  -49.1230   56.2512   60.4857 H   0  0  0  0  0  0  0  0  0  0  0  0
 12 13  1  0  0  0
  9 10  2  0  0  0
  9  8  1  0  0  0
  6  7  2  0  0  0
  6  8  1  0  0  0
 10 11  1  0  0  0
  7  5  1  0  0  0
 16 17  2  0  0  0
 16 18  1  0  0  0
 17 19  1  0  0  0
 18 21  2  0  0  0
 13 11  1  0  0  0
  5  4  1  0  0  0
  4  3  1  0  0  0
  3  2  1  0  0  0
  2  1  1  0  0  0
  1 14  1  0  0  0
 14 15  1  0  0  0
 15 21  1  0  0  0
 19 20  2  0  0  0
 19 22  1  0  0  0
 20 21  1  0  0  0
 20 23  1  0  0  0
 22 24  1  0  0  0
 23 25  1  0  0  0
M  END
> <minimizedAffinity>
-7.83501

> <CNNscore>
0.4360225499

> <CNNaffinity>
6.6389417648

> <CNN_VS>
2.8947284222

> <CNNaffinity_variance>
0.3261634707

$$$$
/media/chris/experiments/cd1a-new-docking/inputs/ligands/5j1a_ligand.pdb


 25 25  0  0  0  0  0  0  0  0999 V2000
  -42.6429   61.9391   62.0005 C   0  0  0  0  0  0  0  0  0  0  0  0
  -44.1495   61.7085   61.8111 C   0  0  0  0  0  0  0  0  0  0  0  0
  -44.4421   60.2239   61.6423 C   0  0  0  0  0  0  0  0  0  0  0  0
  -45.9300   59.9688   61.8854 C   0  0  0  0  0  0  0  0  0  0  0  0
  -46.5893   59.4425   60.6108 C   0  0  0  0  0  0  0  0  0  0  0  0
  -45.8392   57.6591   58.7851 C   0  0  0  0  0  0  0  0  0  0  0  0
  -45.9244   58.1112   60.2560 C   0  0  0  0  0  0  0  0  0  0  0  0
  -46.5123   58.4448   57.6490 C   0  0  0  0  0  0  0  0  0  0  0  0
  -47.4164   57.4616   56.8912 C   0  0  0  0  0  0  0  0  0  0  0  0
  -48.8811   57.2011   57.3171 C   0  0  0  0  0  0  0  0  0  0  0  0
  -49.5257   57.9417   58.5053 C   0  0  0  0  0  0  0  0  0  0  0  0
  -50.7571   57.3229   60.6334 C   0  0  0  0  0  0  0  0  0  0  0  0
  -49.6342   56.9427   59.6652 C   0  0  0  0  0  0  0  0  0  0  0  0
  -41.8319   60.6236   62.1291 C   0  0  0  0  0  0  0  0  0  0  0  0
  -40.5015   60.6494   61.3400 C   0  0  0  0  0  0  0  0  0  0  0  0
  -39.7565   57.0705   61.9664 C   0  0  0  0  0  0  0  0  0  0  0  0
  -38.4056   56.9827   61.6051 C   0  0  0  0  0  0  0  0  0  0  0  0
  -40.4350   58.2918   61.8762 C   0  0  0  0  0  0  0  0  0  0  0  0
  -37.7563   58.1311   61.1526 C   0  0  0  0  0  0  0  0  0  0  0  0
  -38.4399   59.3422   61.0577 C   0  0  0  0  0  0  0  0  0  0  0  0
  -39.7970   59.4389   61.3908 C   0  0  0  0  0  0  0  0  0  0  0  0
  -36.4510   58.1305   60.7865 O   0  0  0  0  0  0  0  0  0  0  0  0
  -37.7658   60.4376   60.6024 O   0  0  0  0  0  0  0  0  0  0  0  0
  -35.9517   57.3391   60.8337 H   0  0  0  0  0  0  0  0  0  0  0  0
  -36.8580   60.3703   60.3803 H   0  0  0  0  0  0  0  0  0  0  0  0
 12 13  1  0  0  0
  9 10  2  0  0  0
  9  8  1  0  0  0
  6  7  2  0  0  0
  6  8  1  0  0  0
 10 11  1  0  0  0
  7  5  1  0  0  0
 16 17  2  0  0  0
 16 18  1  0  0  0
 17 19  1  0  0  0
 18 21  2  0  0  0
 13 11  1  0  0  0
  5  4  1  0  0  0
  4  3  1  0  0  0
  3  2  1  0  0  0
  2  1  1  0  0  0
  1 14  1  0  0  0
 14 15  1  0  0  0
 15 21  1  0  0  0
 19 20  2  0  0  0
 19 22  1  0  0  0
 20 21  1  0  0  0
 20 23  1  0  0  0
 22 24  1  0  0  0
 23 25  1  0  0  0
M  END
> <minimizedAffinity>
-8.33026

> <CNNscore>
0.4237410128

> <CNNaffinity>
6.1217036247

> <CNN_VS>
2.5940167904

> <CNNaffinity_variance>
0.0339779891

$$$$
/media/chris/experiments/cd1a-new-docking/inputs/ligands/5j1a_ligand.pdb


 25 25  0  0  0  0  0  0  0  0999 V2000
  -45.6250   57.5831   59.2349 C   0  0  0  0  0  0  0  0  0  0  0  0
  -46.4145   56.5400   58.4301 C   0  0  0  0  0  0  0  0  0  0  0  0
  -46.5761   56.9949   56.9861 C   0  0  0  0  0  0  0  0  0  0  0  0
  -48.0617   57.1803   56.6754 C   0  0  0  0  0  0  0  0  0  0  0  0
  -48.8878   57.0490   57.9548 C   0  0  0  0  0  0  0  0  0  0  0  0
  -50.1053   58.6623   59.6843 C   0  0  0  0  0  0  0  0  0  0  0  0
  -49.3583   58.4490   58.3533 C   0  0  0  0  0  0  0  0  0  0  0  0
  -50.5119   57.4892   60.5896 C   0  0  0  0  0  0  0  0  0  0  0  0
  -49.6212   57.5506   61.8391 C   0  0  0  0  0  0  0  0  0  0  0  0
  -49.7987   58.6454   62.9182 C   0  0  0  0  0  0  0  0  0  0  0  0
  -50.9038   59.7151   62.8164 C   0  0  0  0  0  0  0  0  0  0  0  0
  -50.4800   59.3689   65.2920 C   0  0  0  0  0  0  0  0  0  0  0  0
  -51.1770   60.2302   64.2360 C   0  0  0  0  0  0  0  0  0  0  0  0
  -46.2189   57.8508   60.6422 C   0  0  0  0  0  0  0  0  0  0  0  0
  -45.1930   58.4534   61.6310 C   0  0  0  0  0  0  0  0  0  0  0  0
  -46.5476   61.9013   61.4505 C   0  0  0  0  0  0  0  0  0  0  0  0
  -45.4334   62.6748   61.8023 C   0  0  0  0  0  0  0  0  0  0  0  0
  -46.4508   60.5057   61.3950 C   0  0  0  0  0  0  0  0  0  0  0  0
  -44.2339   62.0276   62.0980 C   0  0  0  0  0  0  0  0  0  0  0  0
  -44.1467   60.6373   62.0486 C   0  0  0  0  0  0  0  0  0  0  0  0
  -45.2589   59.8502   61.7238 C   0  0  0  0  0  0  0  0  0  0  0  0
  -43.1107   62.7031   62.4442 O   0  0  0  0  0  0  0  0  0  0  0  0
  -42.9547   60.0474   62.3534 O   0  0  0  0  0  0  0  0  0  0  0  0
  -43.1224   63.6389   62.4905 H   0  0  0  0  0  0  0  0  0  0  0  0
  -42.2122   60.5761   62.5704 H   0  0  0  0  0  0  0  0  0  0  0  0
 12 13  1  0  0  0
  9 10  2  0  0  0
  9  8  1  0  0  0
  6  7  2  0  0  0
  6  8  1  0  0  0
 10 11  1  0  0  0
  7  5  1  0  0  0
 16 17  2  0  0  0
 16 18  1  0  0  0
 17 19  1  0  0  0
 18 21  2  0  0  0
 13 11  1  0  0  0
  5  4  1  0  0  0
  4  3  1  0  0  0
  3  2  1  0  0  0
  2  1  1  0  0  0
  1 14  1  0  0  0
 14 15  1  0  0  0
 15 21  1  0  0  0
 19 20  2  0  0  0
 19 22  1  0  0  0
 20 21  1  0  0  0
 20 23  1  0  0  0
 22 24  1  0  0  0
 23 25  1  0  0  0
M  END
> <minimizedAffinity>
-8.10603

> <CNNscore>
0.3976698220

> <CNNaffinity>
6.3507418633

> <CNN_VS>
2.5254983902

> <CNNaffinity_variance>
0.0641485900

$$$$
/media/chris/experiments/cd1a-new-docking/inputs/ligands/5j1a_ligand.pdb


 25 25  0  0  0  0  0  0  0  0999 V2000
  -46.7853   59.2215   62.1794 C   0  0  0  0  0  0  0  0  0  0  0  0
  -46.3022   59.4077   60.7334 C   0  0  0  0  0  0  0  0  0  0  0  0
  -47.0608   60.5447   60.0626 C   0  0  0  0  0  0  0  0  0  0  0  0
  -47.2755   60.2102   58.5861 C   0  0  0  0  0  0  0  0  0  0  0  0
  -46.7552   58.8052   58.2833 C   0  0  0  0  0  0  0  0  0  0  0  0
  -48.8462   57.1609   58.2709 C   0  0  0  0  0  0  0  0  0  0  0  0
  -47.8467   58.0579   57.5149 C   0  0  0  0  0  0  0  0  0  0  0  0
  -48.7178   56.8839   59.7767 C   0  0  0  0  0  0  0  0  0  0  0  0
  -50.1349   56.6391   60.3154 C   0  0  0  0  0  0  0  0  0  0  0  0
  -50.8930   57.7063   61.1406 C   0  0  0  0  0  0  0  0  0  0  0  0
  -50.2811   59.0895   61.4374 C   0  0  0  0  0  0  0  0  0  0  0  0
  -50.4402   59.1998   63.9654 C   0  0  0  0  0  0  0  0  0  0  0  0
  -51.0347   59.6773   62.6382 C   0  0  0  0  0  0  0  0  0  0  0  0
  -47.1706   60.5533   62.8742 C   0  0  0  0  0  0  0  0  0  0  0  0
  -46.1450   61.0012   63.9423 C   0  0  0  0  0  0  0  0  0  0  0  0
  -43.4278   62.4978   61.9094 C   0  0  0  0  0  0  0  0  0  0  0  0
  -42.3239   61.7136   62.2694 C   0  0  0  0  0  0  0  0  0  0  0  0
  -44.6863   62.2472   62.4694 C   0  0  0  0  0  0  0  0  0  0  0  0
  -42.5042   60.6862   63.1952 C   0  0  0  0  0  0  0  0  0  0  0  0
  -43.7583   60.4472   63.7548 C   0  0  0  0  0  0  0  0  0  0  0  0
  -44.8650   61.2395   63.4239 C   0  0  0  0  0  0  0  0  0  0  0  0
  -41.4886   59.8816   63.5937 O   0  0  0  0  0  0  0  0  0  0  0  0
  -43.8856   59.4362   64.6622 O   0  0  0  0  0  0  0  0  0  0  0  0
  -40.6281   60.0053   63.2441 H   0  0  0  0  0  0  0  0  0  0  0  0
  -43.1437   58.9076   64.8818 H   0  0  0  0  0  0  0  0  0  0  0  0
 12 13  1  0  0  0
  9 10  2  0  0  0
  9  8  1  0  0  0
  6  7  2  0  0  0
  6  8  1  0  0  0
 10 11  1  0  0  0
  7  5  1  0  0  0
 16 17  2  0  0  0
 16 18  1  0  0  0
 17 19  1  0  0  0
 18 21  2  0  0  0
 13 11  1  0  0  0
  5  4  1  0  0  0
  4  3  1  0  0  0
  3  2  1  0  0  0
  2  1  1  0  0  0
  1 14  1  0  0  0
 14 15  1  0  0  0
 15 21  1  0  0  0
 19 20  2  0  0  0
 19 22  1  0  0  0
 20 21  1  0  0  0
 20 23  1  0  0  0
 22 24  1  0  0  0
 23 25  1  0  0  0
M  END
> <minimizedAffinity>
-7.38051

> <CNNscore>
0.3777098358

> <CNNaffinity>
6.2672157288

> <CNN_VS>
2.3671889305

> <CNNaffinity_variance>
0.0289600585

$$$$
