/media/chris/experiments/cd1a-new-docking/inputs/ligands/5j1a_ligand.pdb


 25 25  0  0  0  0  0  0  0  0999 V2000
  -48.5044   58.6958   63.2936 C   0  0  0  0  0  0  0  0  0  0  0  0
  -50.0386   58.6634   63.2275 C   0  0  0  0  0  0  0  0  0  0  0  0
  -50.5128   58.8806   61.7971 C   0  0  0  0  0  0  0  0  0  0  0  0
  -50.8344   57.5292   61.1581 C   0  0  0  0  0  0  0  0  0  0  0  0
  -50.0407   57.3565   59.8632 C   0  0  0  0  0  0  0  0  0  0  0  0
  -48.2029   55.7028   58.8814 C   0  0  0  0  0  0  0  0  0  0  0  0
  -49.1619   56.1138   60.0158 C   0  0  0  0  0  0  0  0  0  0  0  0
  -48.1778   56.4319   57.5291 C   0  0  0  0  0  0  0  0  0  0  0  0
  -46.7511   56.9628   57.3264 C   0  0  0  0  0  0  0  0  0  0  0  0
  -46.3513   58.4060   57.7166 C   0  0  0  0  0  0  0  0  0  0  0  0
  -47.3548   59.3802   58.3642 C   0  0  0  0  0  0  0  0  0  0  0  0
  -45.9056   58.4746   60.2372 C   0  0  0  0  0  0  0  0  0  0  0  0
  -47.0827   59.3833   59.8747 C   0  0  0  0  0  0  0  0  0  0  0  0
  -47.9285   60.1221   63.4908 C   0  0  0  0  0  0  0  0  0  0  0  0
  -46.5423   60.1289   64.1776 C   0  0  0  0  0  0  0  0  0  0  0  0
  -45.0617   62.4729   61.7141 C   0  0  0  0  0  0  0  0  0  0  0  0
  -43.7042   62.4459   62.0599 C   0  0  0  0  0  0  0  0  0  0  0  0
  -45.9878   61.6978   62.4223 C   0  0  0  0  0  0  0  0  0  0  0  0
  -43.2985   61.6375   63.1216 C   0  0  0  0  0  0  0  0  0  0  0  0
  -44.2270   60.8743   63.8276 C   0  0  0  0  0  0  0  0  0  0  0  0
  -45.5906   60.9115   63.5097 C   0  0  0  0  0  0  0  0  0  0  0  0
  -42.0046   61.5536   63.5169 O   0  0  0  0  0  0  0  0  0  0  0  0
  -43.7852   60.1044   64.8639 O   0  0  0  0  0  0  0  0  0  0  0  0
  -41.3455   62.0488   63.0714 H   0  0  0  0  0  0  0  0  0  0  0  0
  -42.8725   60.0813   65.0745 H   0  0  0  0  0  0  0  0  0  0  0  0
 12 13  1  0  0  0
  9 10  2  0  0  0
  9  8  1  0  0  0
  6  7  2  0  0  0
  6  8  1  0  0  0
 10 11  1  0  0  0
  7  5  1  0  0  0
 16 17  2  0  0  0
 16 18  1  0  0  0
 17 19  1  0  0  0
 18 21  2  0  0  0
 13 11  1  0  0  0
  5  4  1  0  0  0
  4  3  1  0  0  0
  3  2  1  0  0  0
  2  1  1  0  0  0
  1 14  1  0  0  0
 14 15  1  0  0  0
 15 21  1  0  0  0
 19 20  2  0  0  0
 19 22  1  0  0  0
 20 21  1  0  0  0
 20 23  1  0  0  0
 22 24  1  0  0  0
 23 25  1  0  0  0
M  END
> <minimizedAffinity>
-7.76603

> <CNNscore>
0.5924490690

> <CNNaffinity>
6.3821191788

> <CNN_VS>
3.7810804844

> <CNNaffinity_variance>
0.1242813021

$$$$
/media/chris/experiments/cd1a-new-docking/inputs/ligands/5j1a_ligand.pdb


 25 25  0  0  0  0  0  0  0  0999 V2000
  -45.9032   58.5811   60.3557 C   0  0  0  0  0  0  0  0  0  0  0  0
  -45.9127   57.8452   59.0076 C   0  0  0  0  0  0  0  0  0  0  0  0
  -46.8139   58.5671   58.0152 C   0  0  0  0  0  0  0  0  0  0  0  0
  -47.7215   57.5509   57.3212 C   0  0  0  0  0  0  0  0  0  0  0  0
  -48.9231   57.2257   58.2083 C   0  0  0  0  0  0  0  0  0  0  0  0
  -50.0813   58.6974   60.0974 C   0  0  0  0  0  0  0  0  0  0  0  0
  -49.5416   58.5493   58.6613 C   0  0  0  0  0  0  0  0  0  0  0  0
  -50.1356   57.5137   61.0754 C   0  0  0  0  0  0  0  0  0  0  0  0
  -48.9914   57.7039   62.0820 C   0  0  0  0  0  0  0  0  0  0  0  0
  -49.1559   58.5685   63.3549 C   0  0  0  0  0  0  0  0  0  0  0  0
  -50.4898   59.2582   63.7018 C   0  0  0  0  0  0  0  0  0  0  0  0
  -50.0929   58.2806   66.0072 C   0  0  0  0  0  0  0  0  0  0  0  0
  -50.4885   59.5276   65.2128 C   0  0  0  0  0  0  0  0  0  0  0  0
  -46.5322   59.9969   60.2866 C   0  0  0  0  0  0  0  0  0  0  0  0
  -46.6365   60.6844   61.6685 C   0  0  0  0  0  0  0  0  0  0  0  0
  -43.4392   62.5210   62.0688 C   0  0  0  0  0  0  0  0  0  0  0  0
  -42.8487   61.8534   63.1498 C   0  0  0  0  0  0  0  0  0  0  0  0
  -44.6915   62.1199   61.5881 C   0  0  0  0  0  0  0  0  0  0  0  0
  -43.5335   60.7889   63.7358 C   0  0  0  0  0  0  0  0  0  0  0  0
  -44.7835   60.3998   63.2573 C   0  0  0  0  0  0  0  0  0  0  0  0
  -45.3973   61.0746   62.1943 C   0  0  0  0  0  0  0  0  0  0  0  0
  -43.0302   60.0903   64.7828 O   0  0  0  0  0  0  0  0  0  0  0  0
  -45.4198   59.3580   63.8669 O   0  0  0  0  0  0  0  0  0  0  0  0
  -42.1929   60.3163   65.1377 H   0  0  0  0  0  0  0  0  0  0  0  0
  -45.0070   58.9082   64.5778 H   0  0  0  0  0  0  0  0  0  0  0  0
 12 13  1  0  0  0
  9 10  2  0  0  0
  9  8  1  0  0  0
  6  7  2  0  0  0
  6  8  1  0  0  0
 10 11  1  0  0  0
  7  5  1  0  0  0
 16 17  2  0  0  0
 16 18  1  0  0  0
 17 19  1  0  0  0
 18 21  2  0  0  0
 13 11  1  0  0  0
  5  4  1  0  0  0
  4  3  1  0  0  0
  3  2  1  0  0  0
  2  1  1  0  0  0
  1 14  1  0  0  0
 14 15  1  0  0  0
 15 21  1  0  0  0
 19 20  2  0  0  0
 19 22  1  0  0  0
 20 21  1  0  0  0
 20 23  1  0  0  0
 22 24  1  0  0  0
 23 25  1  0  0  0
M  END
> <minimizedAffinity>
-7.62610

> <CNNscore>
0.4544438124

> <CNNaffinity>
6.4099097252

> <CNN_VS>
2.9129438400

> <CNNaffinity_variance>
0.0436520353

$$$$
/media/chris/experiments/cd1a-new-docking/inputs/ligands/5j1a_ligand.pdb


 25 25  0  0  0  0  0  0  0  0999 V2000
  -49.6071   59.7478   66.1859 C   0  0  0  0  0  0  0  0  0  0  0  0
  -49.9534   59.2980   64.7587 C   0  0  0  0  0  0  0  0  0  0  0  0
  -51.0742   60.1566   64.1889 C   0  0  0  0  0  0  0  0  0  0  0  0
  -51.1772   59.9220   62.6815 C   0  0  0  0  0  0  0  0  0  0  0  0
  -49.9753   59.1152   62.1906 C   0  0  0  0  0  0  0  0  0  0  0  0
  -50.3078   57.4813   60.1179 C   0  0  0  0  0  0  0  0  0  0  0  0
  -50.4997   57.7991   61.6139 C   0  0  0  0  0  0  0  0  0  0  0  0
  -49.7079   58.5005   59.1371 C   0  0  0  0  0  0  0  0  0  0  0  0
  -49.1752   57.7114   57.9321 C   0  0  0  0  0  0  0  0  0  0  0  0
  -47.7194   57.8662   57.4307 C   0  0  0  0  0  0  0  0  0  0  0  0
  -46.7118   58.7952   58.1356 C   0  0  0  0  0  0  0  0  0  0  0  0
  -46.1893   58.5047   60.5995 C   0  0  0  0  0  0  0  0  0  0  0  0
  -45.9716   57.9571   59.1870 C   0  0  0  0  0  0  0  0  0  0  0  0
  -48.1478   60.2512   66.3338 C   0  0  0  0  0  0  0  0  0  0  0  0
  -47.1391   59.4538   65.4736 C   0  0  0  0  0  0  0  0  0  0  0  0
  -46.0424   62.0924   63.1092 C   0  0  0  0  0  0  0  0  0  0  0  0
  -44.6581   61.8832   63.0548 C   0  0  0  0  0  0  0  0  0  0  0  0
  -46.8501   61.2778   63.9117 C   0  0  0  0  0  0  0  0  0  0  0  0
  -44.1049   60.8538   63.8163 C   0  0  0  0  0  0  0  0  0  0  0  0
  -44.9139   60.0515   64.6193 C   0  0  0  0  0  0  0  0  0  0  0  0
  -46.2955   60.2658   64.7034 C   0  0  0  0  0  0  0  0  0  0  0  0
  -42.7763   60.5849   63.8172 O   0  0  0  0  0  0  0  0  0  0  0  0
  -44.3276   59.0616   65.3529 O   0  0  0  0  0  0  0  0  0  0  0  0
  -42.1940   61.0984   63.2925 H   0  0  0  0  0  0  0  0  0  0  0  0
  -43.4031   58.9203   65.2948 H   0  0  0  0  0  0  0  0  0  0  0  0
 12 13  1  0  0  0
  9 10  2  0  0  0
  9  8  1  0  0  0
  6  7  2  0  0  0
  6  8  1  0  0  0
 10 11  1  0  0  0
  7  5  1  0  0  0
 16 17  2  0  0  0
 16 18  1  0  0  0
 17 19  1  0  0  0
 18 21  2  0  0  0
 13 11  1  0  0  0
  5  4  1  0  0  0
  4  3  1  0  0  0
  3  2  1  0  0  0
  2  1  1  0  0  0
  1 14  1  0  0  0
 14 15  1  0  0  0
 15 21  1  0  0  0
 19 20  2  0  0  0
 19 22  1  0  0  0
 20 21  1  0  0  0
 20 23  1  0  0  0
 22 24  1  0  0  0
 23 25  1  0  0  0
M  END
> <minimizedAffinity>
-8.09970

> <CNNscore>
0.4232355356

> <CNNaffinity>
6.2456340790

> <CNN_VS>
2.6433742046

> <CNNaffinity_variance>
0.1536346376

$$$$
/media/chris/experiments/cd1a-new-docking/inputs/ligands/5j1a_ligand.pdb


 25 25  0  0  0  0  0  0  0  0999 V2000
  -49.9935   60.0793   61.5243 C   0  0  0  0  0  0  0  0  0  0  0  0
  -50.1486   58.6411   62.0409 C   0  0  0  0  0  0  0  0  0  0  0  0
  -50.3458   58.6379   63.5506 C   0  0  0  0  0  0  0  0  0  0  0  0
  -51.0541   59.9255   63.9728 C   0  0  0  0  0  0  0  0  0  0  0  0
  -50.9770   60.0960   65.4899 C   0  0  0  0  0  0  0  0  0  0  0  0
  -48.6927   59.2200   66.5344 C   0  0  0  0  0  0  0  0  0  0  0  0
  -50.1298   58.9505   66.0467 C   0  0  0  0  0  0  0  0  0  0  0  0
  -48.0188   60.5911   66.3716 C   0  0  0  0  0  0  0  0  0  0  0  0
  -47.4317   60.6425   64.9535 C   0  0  0  0  0  0  0  0  0  0  0  0
  -46.0450   60.0425   64.6190 C   0  0  0  0  0  0  0  0  0  0  0  0
  -45.1908   59.3276   65.6842 C   0  0  0  0  0  0  0  0  0  0  0  0
  -44.9121   57.0226   66.7029 C   0  0  0  0  0  0  0  0  0  0  0  0
  -45.3666   57.8171   65.4762 C   0  0  0  0  0  0  0  0  0  0  0  0
  -49.2437   60.1674   60.1697 C   0  0  0  0  0  0  0  0  0  0  0  0
  -49.5887   59.0069   59.2067 C   0  0  0  0  0  0  0  0  0  0  0  0
  -46.3794   58.3287   57.4759 C   0  0  0  0  0  0  0  0  0  0  0  0
  -46.2134   56.9541   57.6898 C   0  0  0  0  0  0  0  0  0  0  0  0
  -47.5035   58.9928   57.9814 C   0  0  0  0  0  0  0  0  0  0  0  0
  -47.1852   56.2662   58.4165 C   0  0  0  0  0  0  0  0  0  0  0  0
  -48.2979   56.9351   58.9237 C   0  0  0  0  0  0  0  0  0  0  0  0
  -48.4637   58.3137   58.7398 C   0  0  0  0  0  0  0  0  0  0  0  0
  -47.1000   54.9363   58.6648 O   0  0  0  0  0  0  0  0  0  0  0  0
  -49.2187   56.2226   59.6353 O   0  0  0  0  0  0  0  0  0  0  0  0
  -46.3694   54.4455   58.3433 H   0  0  0  0  0  0  0  0  0  0  0  0
  -49.1055   55.3004   59.7569 H   0  0  0  0  0  0  0  0  0  0  0  0
 12 13  1  0  0  0
  9 10  2  0  0  0
  9  8  1  0  0  0
  6  7  2  0  0  0
  6  8  1  0  0  0
 10 11  1  0  0  0
  7  5  1  0  0  0
 16 17  2  0  0  0
 16 18  1  0  0  0
 17 19  1  0  0  0
 18 21  2  0  0  0
 13 11  1  0  0  0
  5  4  1  0  0  0
  4  3  1  0  0  0
  3  2  1  0  0  0
  2  1  1  0  0  0
  1 14  1  0  0  0
 14 15  1  0  0  0
 15 21  1  0  0  0
 19 20  2  0  0  0
 19 22  1  0  0  0
 20 21  1  0  0  0
 20 23  1  0  0  0
 22 24  1  0  0  0
 23 25  1  0  0  0
M  END
> <minimizedAffinity>
-8.22001

> <CNNscore>
0.3864258528

> <CNNaffinity>
6.4684548378

> <CNN_VS>
2.4995782375

> <CNNaffinity_variance>
0.1534146816

$$$$
/media/chris/experiments/cd1a-new-docking/inputs/ligands/5j1a_ligand.pdb


 25 25  0  0  0  0  0  0  0  0999 V2000
  -49.0914   60.8115   60.7256 C   0  0  0  0  0  0  0  0  0  0  0  0
  -47.6831   61.2511   60.2980 C   0  0  0  0  0  0  0  0  0  0  0  0
  -46.8961   61.7539   61.5005 C   0  0  0  0  0  0  0  0  0  0  0  0
  -45.4659   61.2174   61.4315 C   0  0  0  0  0  0  0  0  0  0  0  0
  -45.2681   60.1104   62.4669 C   0  0  0  0  0  0  0  0  0  0  0  0
  -44.7789   60.1662   65.0810 C   0  0  0  0  0  0  0  0  0  0  0  0
  -44.5298   60.7149   63.6624 C   0  0  0  0  0  0  0  0  0  0  0  0
  -45.8461   59.0987   65.3678 C   0  0  0  0  0  0  0  0  0  0  0  0
  -46.7954   59.6791   66.4263 C   0  0  0  0  0  0  0  0  0  0  0  0
  -48.1061   60.4059   66.0403 C   0  0  0  0  0  0  0  0  0  0  0  0
  -48.5496   60.5562   64.5720 C   0  0  0  0  0  0  0  0  0  0  0  0
  -49.8370   58.4169   64.1313 C   0  0  0  0  0  0  0  0  0  0  0  0
  -49.9367   59.9122   64.4427 C   0  0  0  0  0  0  0  0  0  0  0  0
  -49.3676   59.3065   60.4735 C   0  0  0  0  0  0  0  0  0  0  0  0
  -48.1526   58.4034   60.7917 C   0  0  0  0  0  0  0  0  0  0  0  0
  -45.9629   57.7831   57.8631 C   0  0  0  0  0  0  0  0  0  0  0  0
  -46.5185   56.6167   57.3210 C   0  0  0  0  0  0  0  0  0  0  0  0
  -46.5174   58.3640   59.0100 C   0  0  0  0  0  0  0  0  0  0  0  0
  -47.6273   56.0479   57.9475 C   0  0  0  0  0  0  0  0  0  0  0  0
  -48.1694   56.6271   59.0937 C   0  0  0  0  0  0  0  0  0  0  0  0
  -47.6086   57.7783   59.6614 C   0  0  0  0  0  0  0  0  0  0  0  0
  -48.2244   54.9224   57.4849 O   0  0  0  0  0  0  0  0  0  0  0  0
  -49.2495   56.0312   59.6770 O   0  0  0  0  0  0  0  0  0  0  0  0
  -47.8943   54.4985   56.7172 H   0  0  0  0  0  0  0  0  0  0  0  0
  -49.6228   55.2612   59.2952 H   0  0  0  0  0  0  0  0  0  0  0  0
 12 13  1  0  0  0
  9 10  2  0  0  0
  9  8  1  0  0  0
  6  7  2  0  0  0
  6  8  1  0  0  0
 10 11  1  0  0  0
  7  5  1  0  0  0
 16 17  2  0  0  0
 16 18  1  0  0  0
 17 19  1  0  0  0
 18 21  2  0  0  0
 13 11  1  0  0  0
  5  4  1  0  0  0
  4  3  1  0  0  0
  3  2  1  0  0  0
  2  1  1  0  0  0
  1 14  1  0  0  0
 14 15  1  0  0  0
 15 21  1  0  0  0
 19 20  2  0  0  0
 19 22  1  0  0  0
 20 21  1  0  0  0
 20 23  1  0  0  0
 22 24  1  0  0  0
 23 25  1  0  0  0
M  END
> <minimizedAffinity>
-7.10956

> <CNNscore>
0.3191058338

> <CNNaffinity>
6.6800842285

> <CNN_VS>
2.1316537857

> <CNNaffinity_variance>
0.1343590170

$$$$
/media/chris/experiments/cd1a-new-docking/inputs/ligands/5j1a_ligand.pdb


 25 25  0  0  0  0  0  0  0  0999 V2000
  -50.8129   59.7925   65.0799 C   0  0  0  0  0  0  0  0  0  0  0  0
  -50.4814   59.7584   63.5805 C   0  0  0  0  0  0  0  0  0  0  0  0
  -50.3689   58.3200   63.0944 C   0  0  0  0  0  0  0  0  0  0  0  0
  -49.1422   58.1835   62.1920 C   0  0  0  0  0  0  0  0  0  0  0  0
  -49.4248   57.1898   61.0654 C   0  0  0  0  0  0  0  0  0  0  0  0
  -49.8950   57.8417   58.5297 C   0  0  0  0  0  0  0  0  0  0  0  0
  -50.2852   57.9009   60.0196 C   0  0  0  0  0  0  0  0  0  0  0  0
  -48.5887   57.1881   58.0531 C   0  0  0  0  0  0  0  0  0  0  0  0
  -47.7801   58.2703   57.3228 C   0  0  0  0  0  0  0  0  0  0  0  0
  -46.8234   59.2256   58.0758 C   0  0  0  0  0  0  0  0  0  0  0  0
  -46.6017   59.1204   59.5974 C   0  0  0  0  0  0  0  0  0  0  0  0
  -48.2703   60.9983   59.9408 C   0  0  0  0  0  0  0  0  0  0  0  0
  -46.8405   60.5142   60.1940 C   0  0  0  0  0  0  0  0  0  0  0  0
  -49.6937   59.1922   65.9697 C   0  0  0  0  0  0  0  0  0  0  0  0
  -48.7190   60.2584   66.5233 C   0  0  0  0  0  0  0  0  0  0  0  0
  -46.0629   60.8441   64.0019 C   0  0  0  0  0  0  0  0  0  0  0  0
  -44.9711   60.1667   64.5605 C   0  0  0  0  0  0  0  0  0  0  0  0
  -47.2973   60.8622   64.6621 C   0  0  0  0  0  0  0  0  0  0  0  0
  -45.1388   59.5177   65.7837 C   0  0  0  0  0  0  0  0  0  0  0  0
  -46.3685   59.5464   66.4394 C   0  0  0  0  0  0  0  0  0  0  0  0
  -47.4611   60.2413   65.9054 C   0  0  0  0  0  0  0  0  0  0  0  0
  -44.1338   58.8387   66.3890 O   0  0  0  0  0  0  0  0  0  0  0  0
  -46.4837   58.9039   67.6377 O   0  0  0  0  0  0  0  0  0  0  0  0
  -43.2897   58.7925   65.9849 H   0  0  0  0  0  0  0  0  0  0  0  0
  -45.7513   58.4396   67.9927 H   0  0  0  0  0  0  0  0  0  0  0  0
 12 13  1  0  0  0
  9 10  2  0  0  0
  9  8  1  0  0  0
  6  7  2  0  0  0
  6  8  1  0  0  0
 10 11  1  0  0  0
  7  5  1  0  0  0
 16 17  2  0  0  0
 16 18  1  0  0  0
 17 19  1  0  0  0
 18 21  2  0  0  0
 13 11  1  0  0  0
  5  4  1  0  0  0
  4  3  1  0  0  0
  3  2  1  0  0  0
  2  1  1  0  0  0
  1 14  1  0  0  0
 14 15  1  0  0  0
 15 21  1  0  0  0
 19 20  2  0  0  0
 19 22  1  0  0  0
 20 21  1  0  0  0
 20 23  1  0  0  0
 22 24  1  0  0  0
 23 25  1  0  0  0
M  END
> <minimizedAffinity>
-7.94101

> <CNNscore>
0.3034226298

> <CNNaffinity>
6.0971860886

> <CNN_VS>
1.8500242233

> <CNNaffinity_variance>
0.2177899331

$$$$
/media/chris/experiments/cd1a-new-docking/inputs/ligands/5j1a_ligand.pdb


 25 25  0  0  0  0  0  0  0  0999 V2000
  -45.4810   61.5919   62.9061 C   0  0  0  0  0  0  0  0  0  0  0  0
  -45.9142   61.2904   61.4637 C   0  0  0  0  0  0  0  0  0  0  0  0
  -47.2765   60.6106   61.4497 C   0  0  0  0  0  0  0  0  0  0  0  0
  -48.1064   61.1607   60.2893 C   0  0  0  0  0  0  0  0  0  0  0  0
  -49.4790   60.4887   60.2583 C   0  0  0  0  0  0  0  0  0  0  0  0
  -50.2239   58.3891   61.7119 C   0  0  0  0  0  0  0  0  0  0  0  0
  -49.7132   59.8407   61.6240 C   0  0  0  0  0  0  0  0  0  0  0  0
  -50.6302   57.5895   60.4645 C   0  0  0  0  0  0  0  0  0  0  0  0
  -49.4891   56.6067   60.1639 C   0  0  0  0  0  0  0  0  0  0  0  0
  -48.5473   56.7919   58.9500 C   0  0  0  0  0  0  0  0  0  0  0  0
  -48.6800   57.9940   57.9946 C   0  0  0  0  0  0  0  0  0  0  0  0
  -46.2774   58.1884   58.7805 C   0  0  0  0  0  0  0  0  0  0  0  0
  -47.2607   58.4571   57.6388 C   0  0  0  0  0  0  0  0  0  0  0  0
  -45.3352   60.3203   63.7817 C   0  0  0  0  0  0  0  0  0  0  0  0
  -46.0357   60.4440   65.1555 C   0  0  0  0  0  0  0  0  0  0  0  0
  -49.5595   59.2965   65.3025 C   0  0  0  0  0  0  0  0  0  0  0  0
  -49.4168   57.9506   65.6646 C   0  0  0  0  0  0  0  0  0  0  0  0
  -48.4310   60.1093   65.1413 C   0  0  0  0  0  0  0  0  0  0  0  0
  -48.1330   57.4400   65.8561 C   0  0  0  0  0  0  0  0  0  0  0  0
  -47.0134   58.2529   65.6863 C   0  0  0  0  0  0  0  0  0  0  0  0
  -47.1400   59.5930   65.2992 C   0  0  0  0  0  0  0  0  0  0  0  0
  -47.9099   56.1505   66.2095 O   0  0  0  0  0  0  0  0  0  0  0  0
  -45.7770   57.7079   65.8768 O   0  0  0  0  0  0  0  0  0  0  0  0
  -48.6325   55.5673   66.3348 H   0  0  0  0  0  0  0  0  0  0  0  0
  -45.6951   56.8111   66.1357 H   0  0  0  0  0  0  0  0  0  0  0  0
 12 13  1  0  0  0
  9 10  2  0  0  0
  9  8  1  0  0  0
  6  7  2  0  0  0
  6  8  1  0  0  0
 10 11  1  0  0  0
  7  5  1  0  0  0
 16 17  2  0  0  0
 16 18  1  0  0  0
 17 19  1  0  0  0
 18 21  2  0  0  0
 13 11  1  0  0  0
  5  4  1  0  0  0
  4  3  1  0  0  0
  3  2  1  0  0  0
  2  1  1  0  0  0
  1 14  1  0  0  0
 14 15  1  0  0  0
 15 21  1  0  0  0
 19 20  2  0  0  0
 19 22  1  0  0  0
 20 21  1  0  0  0
 20 23  1  0  0  0
 22 24  1  0  0  0
 23 25  1  0  0  0
M  END
> <minimizedAffinity>
-7.51805

> <CNNscore>
0.3003759384

> <CNNaffinity>
6.3288168907

> <CNN_VS>
1.9010243416

> <CNNaffinity_variance>
0.1954910308

$$$$
/media/chris/experiments/cd1a-new-docking/inputs/ligands/5j1a_ligand.pdb


 25 25  0  0  0  0  0  0  0  0999 V2000
  -48.9204   59.9115   66.2190 C   0  0  0  0  0  0  0  0  0  0  0  0
  -50.3153   59.6375   65.6374 C   0  0  0  0  0  0  0  0  0  0  0  0
  -50.2023   58.8772   64.3231 C   0  0  0  0  0  0  0  0  0  0  0  0
  -50.9164   59.6602   63.2208 C   0  0  0  0  0  0  0  0  0  0  0  0
  -50.2165   59.4394   61.8799 C   0  0  0  0  0  0  0  0  0  0  0  0
  -50.0570   57.4409   60.1315 C   0  0  0  0  0  0  0  0  0  0  0  0
  -50.2486   57.9404   61.5770 C   0  0  0  0  0  0  0  0  0  0  0  0
  -49.9533   58.4066   58.9410 C   0  0  0  0  0  0  0  0  0  0  0  0
  -49.0175   57.7576   57.9106 C   0  0  0  0  0  0  0  0  0  0  0  0
  -47.6003   58.3113   57.6284 C   0  0  0  0  0  0  0  0  0  0  0  0
  -47.0351   59.5247   58.3924 C   0  0  0  0  0  0  0  0  0  0  0  0
  -45.7118   57.6966   59.5480 C   0  0  0  0  0  0  0  0  0  0  0  0
  -46.4786   59.0091   59.7266 C   0  0  0  0  0  0  0  0  0  0  0  0
  -48.0980   58.6220   66.4752 C   0  0  0  0  0  0  0  0  0  0  0  0
  -46.5908   58.8948   66.6924 C   0  0  0  0  0  0  0  0  0  0  0  0
  -45.1803   58.4641   63.2894 C   0  0  0  0  0  0  0  0  0  0  0  0
  -44.2403   57.4441   63.4865 C   0  0  0  0  0  0  0  0  0  0  0  0
  -45.9528   58.9308   64.3597 C   0  0  0  0  0  0  0  0  0  0  0  0
  -44.0890   56.9094   64.7658 C   0  0  0  0  0  0  0  0  0  0  0  0
  -44.8558   57.3841   65.8286 C   0  0  0  0  0  0  0  0  0  0  0  0
  -45.7806   58.4211   65.6516 C   0  0  0  0  0  0  0  0  0  0  0  0
  -43.2041   55.9195   65.0388 O   0  0  0  0  0  0  0  0  0  0  0  0
  -44.6678   56.8364   67.0641 O   0  0  0  0  0  0  0  0  0  0  0  0
  -42.6673   55.5692   64.3552 H   0  0  0  0  0  0  0  0  0  0  0  0
  -44.0485   56.1428   67.1799 H   0  0  0  0  0  0  0  0  0  0  0  0
 12 13  1  0  0  0
  9 10  2  0  0  0
  9  8  1  0  0  0
  6  7  2  0  0  0
  6  8  1  0  0  0
 10 11  1  0  0  0
  7  5  1  0  0  0
 16 17  2  0  0  0
 16 18  1  0  0  0
 17 19  1  0  0  0
 18 21  2  0  0  0
 13 11  1  0  0  0
  5  4  1  0  0  0
  4  3  1  0  0  0
  3  2  1  0  0  0
  2  1  1  0  0  0
  1 14  1  0  0  0
 14 15  1  0  0  0
 15 21  1  0  0  0
 19 20  2  0  0  0
 19 22  1  0  0  0
 20 21  1  0  0  0
 20 23  1  0  0  0
 22 24  1  0  0  0
 23 25  1  0  0  0
M  END
> <minimizedAffinity>
-7.94643

> <CNNscore>
0.2960606217

> <CNNaffinity>
6.3316888809

> <CNN_VS>
1.8745636940

> <CNNaffinity_variance>
0.3977879286

$$$$
/media/chris/experiments/cd1a-new-docking/inputs/ligands/5j1a_ligand.pdb


 25 25  0  0  0  0  0  0  0  0999 V2000
  -49.8026   60.1724   61.5930 C   0  0  0  0  0  0  0  0  0  0  0  0
  -50.4909   58.8373   61.9140 C   0  0  0  0  0  0  0  0  0  0  0  0
  -50.3691   58.5208   63.3983 C   0  0  0  0  0  0  0  0  0  0  0  0
  -50.6642   59.7813   64.2120 C   0  0  0  0  0  0  0  0  0  0  0  0
  -50.1358   59.6237   65.6377 C   0  0  0  0  0  0  0  0  0  0  0  0
  -48.5439   57.5462   66.1132 C   0  0  0  0  0  0  0  0  0  0  0  0
  -49.9559   58.1288   65.9070 C   0  0  0  0  0  0  0  0  0  0  0  0
  -47.2762   58.3964   65.9375 C   0  0  0  0  0  0  0  0  0  0  0  0
  -46.8211   58.2362   64.4796 C   0  0  0  0  0  0  0  0  0  0  0  0
  -46.7055   59.4451   63.5203 C   0  0  0  0  0  0  0  0  0  0  0  0
  -47.0068   60.8832   63.9856 C   0  0  0  0  0  0  0  0  0  0  0  0
  -46.3104   62.0993   61.8727 C   0  0  0  0  0  0  0  0  0  0  0  0
  -45.9660   61.8044   63.3345 C   0  0  0  0  0  0  0  0  0  0  0  0
  -49.2655   60.2523   60.1404 C   0  0  0  0  0  0  0  0  0  0  0  0
  -49.6206   59.0090   59.2912 C   0  0  0  0  0  0  0  0  0  0  0  0
  -46.4262   58.3513   57.5251 C   0  0  0  0  0  0  0  0  0  0  0  0
  -46.2552   56.9755   57.7269 C   0  0  0  0  0  0  0  0  0  0  0  0
  -47.5470   59.0089   58.0462 C   0  0  0  0  0  0  0  0  0  0  0  0
  -47.2184   56.2799   58.4575 C   0  0  0  0  0  0  0  0  0  0  0  0
  -48.3279   56.9424   58.9803 C   0  0  0  0  0  0  0  0  0  0  0  0
  -48.4984   58.3219   58.8085 C   0  0  0  0  0  0  0  0  0  0  0  0
  -47.1280   54.9483   58.6949 O   0  0  0  0  0  0  0  0  0  0  0  0
  -49.2403   56.2224   59.6951 O   0  0  0  0  0  0  0  0  0  0  0  0
  -46.3994   54.4617   58.3628 H   0  0  0  0  0  0  0  0  0  0  0  0
  -49.1239   55.2995   59.8086 H   0  0  0  0  0  0  0  0  0  0  0  0
 12 13  1  0  0  0
  9 10  2  0  0  0
  9  8  1  0  0  0
  6  7  2  0  0  0
  6  8  1  0  0  0
 10 11  1  0  0  0
  7  5  1  0  0  0
 16 17  2  0  0  0
 16 18  1  0  0  0
 17 19  1  0  0  0
 18 21  2  0  0  0
 13 11  1  0  0  0
  5  4  1  0  0  0
  4  3  1  0  0  0
  3  2  1  0  0  0
  2  1  1  0  0  0
  1 14  1  0  0  0
 14 15  1  0  0  0
 15 21  1  0  0  0
 19 20  2  0  0  0
 19 22  1  0  0  0
 20 21  1  0  0  0
 20 23  1  0  0  0
 22 24  1  0  0  0
 23 25  1  0  0  0
M  END
> <minimizedAffinity>
-8.04057

> <CNNscore>
0.2958461642

> <CNNaffinity>
6.4599242210

> <CNN_VS>
1.9111437798

> <CNNaffinity_variance>
0.1566751599

$$$$
