/media/chris/experiments/cd1a-new-docking/inputs/ligands/5j1a_ligand.pdb


 25 25  0  0  0  0  0  0  0  0999 V2000
  -46.3660   58.6060   66.1452 C   0  0  0  0  0  0  0  0  0  0  0  0
  -47.7067   58.9872   66.7903 C   0  0  0  0  0  0  0  0  0  0  0  0
  -48.8484   58.2258   66.1309 C   0  0  0  0  0  0  0  0  0  0  0  0
  -49.9595   59.2053   65.7514 C   0  0  0  0  0  0  0  0  0  0  0  0
  -49.6196   59.9031   64.4346 C   0  0  0  0  0  0  0  0  0  0  0  0
  -50.7337   59.5453   62.0457 C   0  0  0  0  0  0  0  0  0  0  0  0
  -50.8658   59.8617   63.5483 C   0  0  0  0  0  0  0  0  0  0  0  0
  -49.3671   59.3855   61.3619 C   0  0  0  0  0  0  0  0  0  0  0  0
  -49.1227   60.6552   60.5336 C   0  0  0  0  0  0  0  0  0  0  0  0
  -47.9172   60.7864   59.5722 C   0  0  0  0  0  0  0  0  0  0  0  0
  -46.9137   59.6349   59.3656 C   0  0  0  0  0  0  0  0  0  0  0  0
  -46.1781   57.9320   57.6373 C   0  0  0  0  0  0  0  0  0  0  0  0
  -47.1903   59.0265   57.9840 C   0  0  0  0  0  0  0  0  0  0  0  0
  -45.4203   59.8168   65.9337 C   0  0  0  0  0  0  0  0  0  0  0  0
  -44.5294   59.6805   64.6763 C   0  0  0  0  0  0  0  0  0  0  0  0
  -46.2514   62.0729   62.4253 C   0  0  0  0  0  0  0  0  0  0  0  0
  -45.1753   62.7091   61.7921 C   0  0  0  0  0  0  0  0  0  0  0  0
  -46.0210   61.0704   63.3750 C   0  0  0  0  0  0  0  0  0  0  0  0
  -43.8773   62.3264   62.1294 C   0  0  0  0  0  0  0  0  0  0  0  0
  -43.6549   61.3330   63.0815 C   0  0  0  0  0  0  0  0  0  0  0  0
  -44.7202   60.7069   63.7412 C   0  0  0  0  0  0  0  0  0  0  0  0
  -42.7834   62.8905   61.5610 O   0  0  0  0  0  0  0  0  0  0  0  0
  -42.3678   60.9970   63.3850 O   0  0  0  0  0  0  0  0  0  0  0  0
  -42.8845   63.5626   60.9159 H   0  0  0  0  0  0  0  0  0  0  0  0
  -41.6570   61.4172   62.9422 H   0  0  0  0  0  0  0  0  0  0  0  0
 12 13  1  0  0  0
  9 10  2  0  0  0
  9  8  1  0  0  0
  6  7  2  0  0  0
  6  8  1  0  0  0
 10 11  1  0  0  0
  7  5  1  0  0  0
 16 17  2  0  0  0
 16 18  1  0  0  0
 17 19  1  0  0  0
 18 21  2  0  0  0
 13 11  1  0  0  0
  5  4  1  0  0  0
  4  3  1  0  0  0
  3  2  1  0  0  0
  2  1  1  0  0  0
  1 14  1  0  0  0
 14 15  1  0  0  0
 15 21  1  0  0  0
 19 20  2  0  0  0
 19 22  1  0  0  0
 20 21  1  0  0  0
 20 23  1  0  0  0
 22 24  1  0  0  0
 23 25  1  0  0  0
M  END
> <minimizedAffinity>
-7.58129

> <CNNscore>
0.5830820203

> <CNNaffinity>
6.4289717674

> <CNN_VS>
3.7486178875

> <CNNaffinity_variance>
0.2722072601

$$$$
/media/chris/experiments/cd1a-new-docking/inputs/ligands/5j1a_ligand.pdb


 25 25  0  0  0  0  0  0  0  0999 V2000
  -47.6117   61.3424   60.7847 C   0  0  0  0  0  0  0  0  0  0  0  0
  -46.1609   61.0839   61.2176 C   0  0  0  0  0  0  0  0  0  0  0  0
  -45.5608   62.3379   61.8383 C   0  0  0  0  0  0  0  0  0  0  0  0
  -45.5442   62.1928   63.3604 C   0  0  0  0  0  0  0  0  0  0  0  0
  -46.5875   61.1672   63.8032 C   0  0  0  0  0  0  0  0  0  0  0  0
  -46.8856   59.9829   66.1665 C   0  0  0  0  0  0  0  0  0  0  0  0
  -45.9965   60.3728   64.9695 C   0  0  0  0  0  0  0  0  0  0  0  0
  -48.3368   60.4698   66.2986 C   0  0  0  0  0  0  0  0  0  0  0  0
  -49.2394   59.2291   66.2344 C   0  0  0  0  0  0  0  0  0  0  0  0
  -50.5321   59.2000   65.3841 C   0  0  0  0  0  0  0  0  0  0  0  0
  -50.9669   60.4036   64.5252 C   0  0  0  0  0  0  0  0  0  0  0  0
  -50.1733   58.7962   62.7323 C   0  0  0  0  0  0  0  0  0  0  0  0
  -51.1769   59.8942   63.0928 C   0  0  0  0  0  0  0  0  0  0  0  0
  -47.9199   60.8513   59.3463 C   0  0  0  0  0  0  0  0  0  0  0  0
  -48.6895   59.5097   59.3133 C   0  0  0  0  0  0  0  0  0  0  0  0
  -46.2156   57.8436   57.1090 C   0  0  0  0  0  0  0  0  0  0  0  0
  -46.6795   56.5215   57.0910 C   0  0  0  0  0  0  0  0  0  0  0  0
  -46.8938   58.8214   57.8465 C   0  0  0  0  0  0  0  0  0  0  0  0
  -47.8230   56.2021   57.8228 C   0  0  0  0  0  0  0  0  0  0  0  0
  -48.4890   57.1789   58.5612 C   0  0  0  0  0  0  0  0  0  0  0  0
  -48.0218   58.4985   58.6092 C   0  0  0  0  0  0  0  0  0  0  0  0
  -48.3372   54.9482   57.8554 O   0  0  0  0  0  0  0  0  0  0  0  0
  -49.5991   56.8183   59.2680 O   0  0  0  0  0  0  0  0  0  0  0  0
  -47.9228   54.2592   57.3741 H   0  0  0  0  0  0  0  0  0  0  0  0
  -49.9096   55.9349   59.2341 H   0  0  0  0  0  0  0  0  0  0  0  0
 12 13  1  0  0  0
  9 10  2  0  0  0
  9  8  1  0  0  0
  6  7  2  0  0  0
  6  8  1  0  0  0
 10 11  1  0  0  0
  7  5  1  0  0  0
 16 17  2  0  0  0
 16 18  1  0  0  0
 17 19  1  0  0  0
 18 21  2  0  0  0
 13 11  1  0  0  0
  5  4  1  0  0  0
  4  3  1  0  0  0
  3  2  1  0  0  0
  2  1  1  0  0  0
  1 14  1  0  0  0
 14 15  1  0  0  0
 15 21  1  0  0  0
 19 20  2  0  0  0
 19 22  1  0  0  0
 20 21  1  0  0  0
 20 23  1  0  0  0
 22 24  1  0  0  0
 23 25  1  0  0  0
M  END
> <minimizedAffinity>
-8.45205

> <CNNscore>
0.5809042454

> <CNNaffinity>
6.6679430008

> <CNN_VS>
3.8734364510

> <CNNaffinity_variance>
0.1707752645

$$$$
/media/chris/experiments/cd1a-new-docking/inputs/ligands/5j1a_ligand.pdb


 25 25  0  0  0  0  0  0  0  0999 V2000
  -48.2841   56.6941   58.2346 C   0  0  0  0  0  0  0  0  0  0  0  0
  -49.6351   57.4101   58.0895 C   0  0  0  0  0  0  0  0  0  0  0  0
  -50.1389   57.8733   59.4496 C   0  0  0  0  0  0  0  0  0  0  0  0
  -49.5108   57.0104   60.5445 C   0  0  0  0  0  0  0  0  0  0  0  0
  -49.5308   57.7557   61.8789 C   0  0  0  0  0  0  0  0  0  0  0  0
  -50.9755   59.6941   62.9887 C   0  0  0  0  0  0  0  0  0  0  0  0
  -50.8173   58.5816   61.9339 C   0  0  0  0  0  0  0  0  0  0  0  0
  -49.9268   59.9345   64.0855 C   0  0  0  0  0  0  0  0  0  0  0  0
  -50.3750   59.1434   65.3231 C   0  0  0  0  0  0  0  0  0  0  0  0
  -49.5561   57.9514   65.8737 C   0  0  0  0  0  0  0  0  0  0  0  0
  -48.2251   57.5142   65.2313 C   0  0  0  0  0  0  0  0  0  0  0  0
  -46.4515   56.8217   66.9056 C   0  0  0  0  0  0  0  0  0  0  0  0
  -47.6590   56.3685   66.0813 C   0  0  0  0  0  0  0  0  0  0  0  0
  -47.1656   57.3092   57.3538 C   0  0  0  0  0  0  0  0  0  0  0  0
  -46.0531   57.9998   58.1776 C   0  0  0  0  0  0  0  0  0  0  0  0
  -47.7104   61.0727   59.4290 C   0  0  0  0  0  0  0  0  0  0  0  0
  -47.4592   61.0036   60.8059 C   0  0  0  0  0  0  0  0  0  0  0  0
  -47.2354   60.0725   58.5723 C   0  0  0  0  0  0  0  0  0  0  0  0
  -46.7330   59.9210   61.3016 C   0  0  0  0  0  0  0  0  0  0  0  0
  -46.2698   58.9246   60.4439 C   0  0  0  0  0  0  0  0  0  0  0  0
  -46.5357   58.9673   59.0694 C   0  0  0  0  0  0  0  0  0  0  0  0
  -46.4457   59.7819   62.6191 O   0  0  0  0  0  0  0  0  0  0  0  0
  -45.5703   57.8804   60.9751 O   0  0  0  0  0  0  0  0  0  0  0  0
  -46.7368   60.4274   63.2329 H   0  0  0  0  0  0  0  0  0  0  0  0
  -45.3937   57.8543   61.8948 H   0  0  0  0  0  0  0  0  0  0  0  0
 12 13  1  0  0  0
  9 10  2  0  0  0
  9  8  1  0  0  0
  6  7  2  0  0  0
  6  8  1  0  0  0
 10 11  1  0  0  0
  7  5  1  0  0  0
 16 17  2  0  0  0
 16 18  1  0  0  0
 17 19  1  0  0  0
 18 21  2  0  0  0
 13 11  1  0  0  0
  5  4  1  0  0  0
  4  3  1  0  0  0
  3  2  1  0  0  0
  2  1  1  0  0  0
  1 14  1  0  0  0
 14 15  1  0  0  0
 15 21  1  0  0  0
 19 20  2  0  0  0
 19 22  1  0  0  0
 20 21  1  0  0  0
 20 23  1  0  0  0
 22 24  1  0  0  0
 23 25  1  0  0  0
M  END
> <minimizedAffinity>
-8.18525

> <CNNscore>
0.5701839924

> <CNNaffinity>
6.7395620346

> <CNN_VS>
3.8427903652

> <CNNaffinity_variance>
0.1657604426

$$$$
/media/chris/experiments/cd1a-new-docking/inputs/ligands/5j1a_ligand.pdb


 25 25  0  0  0  0  0  0  0  0999 V2000
  -48.4888   59.5680   63.9112 C   0  0  0  0  0  0  0  0  0  0  0  0
  -49.1495   58.1965   63.7078 C   0  0  0  0  0  0  0  0  0  0  0  0
  -49.8498   58.1400   62.3570 C   0  0  0  0  0  0  0  0  0  0  0  0
  -50.0973   59.5624   61.8535 C   0  0  0  0  0  0  0  0  0  0  0  0
  -49.6962   59.6779   60.3830 C   0  0  0  0  0  0  0  0  0  0  0  0
  -47.3033   60.5997   59.6756 C   0  0  0  0  0  0  0  0  0  0  0  0
  -48.7100   60.8405   60.2574 C   0  0  0  0  0  0  0  0  0  0  0  0
  -46.7961   59.1933   59.3212 C   0  0  0  0  0  0  0  0  0  0  0  0
  -46.8285   59.0715   57.7908 C   0  0  0  0  0  0  0  0  0  0  0  0
  -47.7513   58.0603   57.0692 C   0  0  0  0  0  0  0  0  0  0  0  0
  -48.7164   57.1433   57.8458 C   0  0  0  0  0  0  0  0  0  0  0  0
  -47.2468   55.2918   56.9290 C   0  0  0  0  0  0  0  0  0  0  0  0
  -47.9612   55.8457   58.1642 C   0  0  0  0  0  0  0  0  0  0  0  0
  -47.0311   59.6311   63.3858 C   0  0  0  0  0  0  0  0  0  0  0  0
  -46.0939   60.4660   64.2903 C   0  0  0  0  0  0  0  0  0  0  0  0
  -44.3395   62.5325   61.7591 C   0  0  0  0  0  0  0  0  0  0  0  0
  -42.9933   62.3129   62.0805 C   0  0  0  0  0  0  0  0  0  0  0  0
  -45.3536   61.9113   62.4979 C   0  0  0  0  0  0  0  0  0  0  0  0
  -42.6878   61.4698   63.1487 C   0  0  0  0  0  0  0  0  0  0  0  0
  -43.7026   60.8607   63.8849 C   0  0  0  0  0  0  0  0  0  0  0  0
  -45.0526   61.0916   63.5913 C   0  0  0  0  0  0  0  0  0  0  0  0
  -41.4119   61.2038   63.5215 O   0  0  0  0  0  0  0  0  0  0  0  0
  -43.3562   60.0499   64.9263 O   0  0  0  0  0  0  0  0  0  0  0  0
  -40.6971   61.5911   63.0555 H   0  0  0  0  0  0  0  0  0  0  0  0
  -42.4525   59.8970   65.1205 H   0  0  0  0  0  0  0  0  0  0  0  0
 12 13  1  0  0  0
  9 10  2  0  0  0
  9  8  1  0  0  0
  6  7  2  0  0  0
  6  8  1  0  0  0
 10 11  1  0  0  0
  7  5  1  0  0  0
 16 17  2  0  0  0
 16 18  1  0  0  0
 17 19  1  0  0  0
 18 21  2  0  0  0
 13 11  1  0  0  0
  5  4  1  0  0  0
  4  3  1  0  0  0
  3  2  1  0  0  0
  2  1  1  0  0  0
  1 14  1  0  0  0
 14 15  1  0  0  0
 15 21  1  0  0  0
 19 20  2  0  0  0
 19 22  1  0  0  0
 20 21  1  0  0  0
 20 23  1  0  0  0
 22 24  1  0  0  0
 23 25  1  0  0  0
M  END
> <minimizedAffinity>
-7.65112

> <CNNscore>
0.5348899961

> <CNNaffinity>
6.3144049644

> <CNN_VS>
3.3775119781

> <CNNaffinity_variance>
0.0600062609

$$$$
/media/chris/experiments/cd1a-new-docking/inputs/ligands/5j1a_ligand.pdb


 25 25  0  0  0  0  0  0  0  0999 V2000
  -37.5861   60.0117   61.3669 C   0  0  0  0  0  0  0  0  0  0  0  0
  -39.0266   59.9395   60.8387 C   0  0  0  0  0  0  0  0  0  0  0  0
  -39.4116   58.4964   60.5429 C   0  0  0  0  0  0  0  0  0  0  0  0
  -38.4147   57.5558   61.2208 C   0  0  0  0  0  0  0  0  0  0  0  0
  -39.1351   56.6661   62.2338 C   0  0  0  0  0  0  0  0  0  0  0  0
  -38.4381   57.7894   64.5422 C   0  0  0  0  0  0  0  0  0  0  0  0
  -39.4896   57.5297   63.4457 C   0  0  0  0  0  0  0  0  0  0  0  0
  -37.0614   57.1072   64.5313 C   0  0  0  0  0  0  0  0  0  0  0  0
  -36.0119   58.2067   64.3129 C   0  0  0  0  0  0  0  0  0  0  0  0
  -34.9559   58.1184   63.1851 C   0  0  0  0  0  0  0  0  0  0  0  0
  -34.9217   56.9380   62.1947 C   0  0  0  0  0  0  0  0  0  0  0  0
  -32.4685   57.5552   62.3654 C   0  0  0  0  0  0  0  0  0  0  0  0
  -33.5706   56.9865   61.4684 C   0  0  0  0  0  0  0  0  0  0  0  0
  -37.2848   61.3148   62.1519 C   0  0  0  0  0  0  0  0  0  0  0  0
  -37.7037   61.2397   63.6392 C   0  0  0  0  0  0  0  0  0  0  0  0
  -34.5035   62.6525   64.8714 C   0  0  0  0  0  0  0  0  0  0  0  0
  -34.7328   62.7435   66.2508 C   0  0  0  0  0  0  0  0  0  0  0  0
  -35.4955   62.1495   64.0211 C   0  0  0  0  0  0  0  0  0  0  0  0
  -35.9651   62.3279   66.7546 C   0  0  0  0  0  0  0  0  0  0  0  0
  -36.9512   61.8354   65.9014 C   0  0  0  0  0  0  0  0  0  0  0  0
  -36.7453   61.7631   64.5178 C   0  0  0  0  0  0  0  0  0  0  0  0
  -36.2644   62.3811   68.0758 O   0  0  0  0  0  0  0  0  0  0  0  0
  -38.1442   61.4479   66.4385 O   0  0  0  0  0  0  0  0  0  0  0  0
  -35.6321   62.7051   68.6868 H   0  0  0  0  0  0  0  0  0  0  0  0
  -38.2792   61.4972   67.3643 H   0  0  0  0  0  0  0  0  0  0  0  0
 12 13  1  0  0  0
  9 10  2  0  0  0
  9  8  1  0  0  0
  6  7  2  0  0  0
  6  8  1  0  0  0
 10 11  1  0  0  0
  7  5  1  0  0  0
 16 17  2  0  0  0
 16 18  1  0  0  0
 17 19  1  0  0  0
 18 21  2  0  0  0
 13 11  1  0  0  0
  5  4  1  0  0  0
  4  3  1  0  0  0
  3  2  1  0  0  0
  2  1  1  0  0  0
  1 14  1  0  0  0
 14 15  1  0  0  0
 15 21  1  0  0  0
 19 20  2  0  0  0
 19 22  1  0  0  0
 20 21  1  0  0  0
 20 23  1  0  0  0
 22 24  1  0  0  0
 23 25  1  0  0  0
M  END
> <minimizedAffinity>
-7.28323

> <CNNscore>
0.4240233600

> <CNNaffinity>
6.1731271744

> <CNN_VS>
2.6175501347

> <CNNaffinity_variance>
0.1531002969

$$$$
/media/chris/experiments/cd1a-new-docking/inputs/ligands/5j1a_ligand.pdb


 25 25  0  0  0  0  0  0  0  0999 V2000
  -50.7756   59.7978   64.7437 C   0  0  0  0  0  0  0  0  0  0  0  0
  -51.1764   59.9190   63.2660 C   0  0  0  0  0  0  0  0  0  0  0  0
  -50.4648   58.8605   62.4345 C   0  0  0  0  0  0  0  0  0  0  0  0
  -49.5698   59.5443   61.4004 C   0  0  0  0  0  0  0  0  0  0  0  0
  -49.7779   58.9129   60.0240 C   0  0  0  0  0  0  0  0  0  0  0  0
  -49.4921   56.2692   60.0984 C   0  0  0  0  0  0  0  0  0  0  0  0
  -50.3794   57.5220   60.2338 C   0  0  0  0  0  0  0  0  0  0  0  0
  -48.0295   56.3507   59.6349 C   0  0  0  0  0  0  0  0  0  0  0  0
  -47.9053   55.4877   58.3708 C   0  0  0  0  0  0  0  0  0  0  0  0
  -47.9401   56.1041   56.9518 C   0  0  0  0  0  0  0  0  0  0  0  0
  -48.0653   57.6240   56.7290 C   0  0  0  0  0  0  0  0  0  0  0  0
  -46.9602   59.5800   57.9042 C   0  0  0  0  0  0  0  0  0  0  0  0
  -46.7371   58.2624   57.1578 C   0  0  0  0  0  0  0  0  0  0  0  0
  -49.6859   58.7240   64.9981 C   0  0  0  0  0  0  0  0  0  0  0  0
  -48.8812   58.9695   66.2964 C   0  0  0  0  0  0  0  0  0  0  0  0
  -45.3723   59.9179   65.5594 C   0  0  0  0  0  0  0  0  0  0  0  0
  -44.7049   58.6911   65.6734 C   0  0  0  0  0  0  0  0  0  0  0  0
  -46.7550   59.9927   65.7653 C   0  0  0  0  0  0  0  0  0  0  0  0
  -45.4434   57.5534   65.9982 C   0  0  0  0  0  0  0  0  0  0  0  0
  -46.8187   57.6365   66.2096 C   0  0  0  0  0  0  0  0  0  0  0  0
  -47.4946   58.8604   66.1245 C   0  0  0  0  0  0  0  0  0  0  0  0
  -44.8737   56.3298   66.1247 O   0  0  0  0  0  0  0  0  0  0  0  0
  -47.4986   56.4985   66.5330 O   0  0  0  0  0  0  0  0  0  0  0  0
  -43.9520   56.2261   65.9917 H   0  0  0  0  0  0  0  0  0  0  0  0
  -47.0441   55.6812   66.5891 H   0  0  0  0  0  0  0  0  0  0  0  0
 12 13  1  0  0  0
  9 10  2  0  0  0
  9  8  1  0  0  0
  6  7  2  0  0  0
  6  8  1  0  0  0
 10 11  1  0  0  0
  7  5  1  0  0  0
 16 17  2  0  0  0
 16 18  1  0  0  0
 17 19  1  0  0  0
 18 21  2  0  0  0
 13 11  1  0  0  0
  5  4  1  0  0  0
  4  3  1  0  0  0
  3  2  1  0  0  0
  2  1  1  0  0  0
  1 14  1  0  0  0
 14 15  1  0  0  0
 15 21  1  0  0  0
 19 20  2  0  0  0
 19 22  1  0  0  0
 20 21  1  0  0  0
 20 23  1  0  0  0
 22 24  1  0  0  0
 23 25  1  0  0  0
M  END
> <minimizedAffinity>
-8.26445

> <CNNscore>
0.3946095407

> <CNNaffinity>
6.4233078957

> <CNN_VS>
2.5346984863

> <CNNaffinity_variance>
0.1316175312

$$$$
/media/chris/experiments/cd1a-new-docking/inputs/ligands/5j1a_ligand.pdb


 25 25  0  0  0  0  0  0  0  0999 V2000
  -45.5801   57.5223   59.1825 C   0  0  0  0  0  0  0  0  0  0  0  0
  -46.2264   58.2755   58.0102 C   0  0  0  0  0  0  0  0  0  0  0  0
  -46.7519   57.2925   56.9731 C   0  0  0  0  0  0  0  0  0  0  0  0
  -46.9934   55.9359   57.6359 C   0  0  0  0  0  0  0  0  0  0  0  0
  -48.4786   55.7609   57.9518 C   0  0  0  0  0  0  0  0  0  0  0  0
  -49.6097   56.7235   60.1587 C   0  0  0  0  0  0  0  0  0  0  0  0
  -48.6344   55.7464   59.4736 C   0  0  0  0  0  0  0  0  0  0  0  0
  -50.3572   57.8141   59.3761 C   0  0  0  0  0  0  0  0  0  0  0  0
  -49.4296   59.0355   59.3012 C   0  0  0  0  0  0  0  0  0  0  0  0
  -49.3118   60.0470   60.4664 C   0  0  0  0  0  0  0  0  0  0  0  0
  -50.0928   59.8648   61.7826 C   0  0  0  0  0  0  0  0  0  0  0  0
  -49.0742   58.2357   63.4369 C   0  0  0  0  0  0  0  0  0  0  0  0
  -49.0638   59.6708   62.9046 C   0  0  0  0  0  0  0  0  0  0  0  0
  -46.0994   57.9832   60.5692 C   0  0  0  0  0  0  0  0  0  0  0  0
  -44.9664   58.4107   61.5318 C   0  0  0  0  0  0  0  0  0  0  0  0
  -45.8704   62.0049   61.3912 C   0  0  0  0  0  0  0  0  0  0  0  0
  -44.7978   62.6055   62.0639 C   0  0  0  0  0  0  0  0  0  0  0  0
  -45.9097   60.6159   61.2205 C   0  0  0  0  0  0  0  0  0  0  0  0
  -43.7782   61.7935   62.5600 C   0  0  0  0  0  0  0  0  0  0  0  0
  -43.8275   60.4105   62.3933 C   0  0  0  0  0  0  0  0  0  0  0  0
  -44.9061   59.7944   61.7459 C   0  0  0  0  0  0  0  0  0  0  0  0
  -42.7058   62.2964   63.2194 O   0  0  0  0  0  0  0  0  0  0  0  0
  -42.8112   59.6557   62.9023 O   0  0  0  0  0  0  0  0  0  0  0  0
  -42.6302   63.2205   63.3550 H   0  0  0  0  0  0  0  0  0  0  0  0
  -42.0909   60.0703   63.3348 H   0  0  0  0  0  0  0  0  0  0  0  0
 12 13  1  0  0  0
  9 10  2  0  0  0
  9  8  1  0  0  0
  6  7  2  0  0  0
  6  8  1  0  0  0
 10 11  1  0  0  0
  7  5  1  0  0  0
 16 17  2  0  0  0
 16 18  1  0  0  0
 17 19  1  0  0  0
 18 21  2  0  0  0
 13 11  1  0  0  0
  5  4  1  0  0  0
  4  3  1  0  0  0
  3  2  1  0  0  0
  2  1  1  0  0  0
  1 14  1  0  0  0
 14 15  1  0  0  0
 15 21  1  0  0  0
 19 20  2  0  0  0
 19 22  1  0  0  0
 20 21  1  0  0  0
 20 23  1  0  0  0
 22 24  1  0  0  0
 23 25  1  0  0  0
M  END
> <minimizedAffinity>
-7.71087

> <CNNscore>
0.3636057973

> <CNNaffinity>
6.1232538223

> <CNN_VS>
2.2264506817

> <CNNaffinity_variance>
0.1943819523

$$$$
/media/chris/experiments/cd1a-new-docking/inputs/ligands/5j1a_ligand.pdb


 25 25  0  0  0  0  0  0  0  0999 V2000
  -49.4430   56.8192   59.5419 C   0  0  0  0  0  0  0  0  0  0  0  0
  -49.2767   57.8492   58.4147 C   0  0  0  0  0  0  0  0  0  0  0  0
  -48.7773   57.1715   57.1460 C   0  0  0  0  0  0  0  0  0  0  0  0
  -47.2484   57.1542   57.1478 C   0  0  0  0  0  0  0  0  0  0  0  0
  -46.7072   58.4815   57.6786 C   0  0  0  0  0  0  0  0  0  0  0  0
  -46.1852   59.0520   60.2239 C   0  0  0  0  0  0  0  0  0  0  0  0
  -45.9398   58.1906   58.9697 C   0  0  0  0  0  0  0  0  0  0  0  0
  -47.0954   60.2896   60.1992 C   0  0  0  0  0  0  0  0  0  0  0  0
  -46.3354   61.4260   60.8986 C   0  0  0  0  0  0  0  0  0  0  0  0
  -46.2912   61.5541   62.4402 C   0  0  0  0  0  0  0  0  0  0  0  0
  -46.9782   60.5267   63.3609 C   0  0  0  0  0  0  0  0  0  0  0  0
  -46.1236   59.7258   65.6096 C   0  0  0  0  0  0  0  0  0  0  0  0
  -46.6536   60.9179   64.8091 C   0  0  0  0  0  0  0  0  0  0  0  0
  -50.1594   57.3894   60.7936 C   0  0  0  0  0  0  0  0  0  0  0  0
  -49.1995   57.6481   61.9789 C   0  0  0  0  0  0  0  0  0  0  0  0
  -51.1778   60.3297   63.6069 C   0  0  0  0  0  0  0  0  0  0  0  0
  -50.8422   60.1655   64.9575 C   0  0  0  0  0  0  0  0  0  0  0  0
  -50.6230   59.4907   62.6331 C   0  0  0  0  0  0  0  0  0  0  0  0
  -49.9515   59.1514   65.3087 C   0  0  0  0  0  0  0  0  0  0  0  0
  -49.4089   58.3146   64.3348 C   0  0  0  0  0  0  0  0  0  0  0  0
  -49.7554   58.4506   62.9845 C   0  0  0  0  0  0  0  0  0  0  0  0
  -49.5742   58.9288   66.5915 O   0  0  0  0  0  0  0  0  0  0  0  0
  -48.5478   57.3312   64.7262 O   0  0  0  0  0  0  0  0  0  0  0  0
  -49.9135   59.4666   67.2798 H   0  0  0  0  0  0  0  0  0  0  0  0
  -48.3176   57.2425   65.6301 H   0  0  0  0  0  0  0  0  0  0  0  0
 12 13  1  0  0  0
  9 10  2  0  0  0
  9  8  1  0  0  0
  6  7  2  0  0  0
  6  8  1  0  0  0
 10 11  1  0  0  0
  7  5  1  0  0  0
 16 17  2  0  0  0
 16 18  1  0  0  0
 17 19  1  0  0  0
 18 21  2  0  0  0
 13 11  1  0  0  0
  5  4  1  0  0  0
  4  3  1  0  0  0
  3  2  1  0  0  0
  2  1  1  0  0  0
  1 14  1  0  0  0
 14 15  1  0  0  0
 15 21  1  0  0  0
 19 20  2  0  0  0
 19 22  1  0  0  0
 20 21  1  0  0  0
 20 23  1  0  0  0
 22 24  1  0  0  0
 23 25  1  0  0  0
M  END
> <minimizedAffinity>
-8.01006

> <CNNscore>
0.3602841794

> <CNNaffinity>
6.3576674461

> <CNN_VS>
2.2905669212

> <CNNaffinity_variance>
0.1478554457

$$$$
/media/chris/experiments/cd1a-new-docking/inputs/ligands/5j1a_ligand.pdb


 25 25  0  0  0  0  0  0  0  0999 V2000
  -50.5701   58.4766   62.7631 C   0  0  0  0  0  0  0  0  0  0  0  0
  -49.7413   57.6006   61.8120 C   0  0  0  0  0  0  0  0  0  0  0  0
  -50.4719   57.4151   60.4891 C   0  0  0  0  0  0  0  0  0  0  0  0
  -49.5012   56.8594   59.4466 C   0  0  0  0  0  0  0  0  0  0  0  0
  -49.3825   57.8266   58.2689 C   0  0  0  0  0  0  0  0  0  0  0  0
  -47.1176   57.3213   56.9684 C   0  0  0  0  0  0  0  0  0  0  0  0
  -48.6334   57.1065   57.1462 C   0  0  0  0  0  0  0  0  0  0  0  0
  -46.3329   58.3393   57.8101 C   0  0  0  0  0  0  0  0  0  0  0  0
  -45.8801   57.6185   59.0882 C   0  0  0  0  0  0  0  0  0  0  0  0
  -45.7190   58.3634   60.4350 C   0  0  0  0  0  0  0  0  0  0  0  0
  -46.0391   59.8643   60.5768 C   0  0  0  0  0  0  0  0  0  0  0  0
  -48.2167   61.0016   59.9499 C   0  0  0  0  0  0  0  0  0  0  0  0
  -47.5393   59.9882   60.8757 C   0  0  0  0  0  0  0  0  0  0  0  0
  -49.7190   59.1662   63.8609 C   0  0  0  0  0  0  0  0  0  0  0  0
  -49.8881   58.5210   65.2568 C   0  0  0  0  0  0  0  0  0  0  0  0
  -47.0325   56.2670   65.9783 C   0  0  0  0  0  0  0  0  0  0  0  0
  -46.3176   56.9947   66.9390 C   0  0  0  0  0  0  0  0  0  0  0  0
  -48.2140   56.7843   65.4338 C   0  0  0  0  0  0  0  0  0  0  0  0
  -46.8040   58.2401   67.3357 C   0  0  0  0  0  0  0  0  0  0  0  0
  -47.9768   58.7528   66.7838 C   0  0  0  0  0  0  0  0  0  0  0  0
  -48.6876   58.0480   65.8039 C   0  0  0  0  0  0  0  0  0  0  0  0
  -46.1733   59.0046   68.2607 O   0  0  0  0  0  0  0  0  0  0  0  0
  -48.4103   59.9789   67.1968 O   0  0  0  0  0  0  0  0  0  0  0  0
  -45.3813   58.7006   68.6587 H   0  0  0  0  0  0  0  0  0  0  0  0
  -47.9330   60.4481   67.8524 H   0  0  0  0  0  0  0  0  0  0  0  0
 12 13  1  0  0  0
  9 10  2  0  0  0
  9  8  1  0  0  0
  6  7  2  0  0  0
  6  8  1  0  0  0
 10 11  1  0  0  0
  7  5  1  0  0  0
 16 17  2  0  0  0
 16 18  1  0  0  0
 17 19  1  0  0  0
 18 21  2  0  0  0
 13 11  1  0  0  0
  5  4  1  0  0  0
  4  3  1  0  0  0
  3  2  1  0  0  0
  2  1  1  0  0  0
  1 14  1  0  0  0
 14 15  1  0  0  0
 15 21  1  0  0  0
 19 20  2  0  0  0
 19 22  1  0  0  0
 20 21  1  0  0  0
 20 23  1  0  0  0
 22 24  1  0  0  0
 23 25  1  0  0  0
M  END
> <minimizedAffinity>
-8.53375

> <CNNscore>
0.3561328948

> <CNNaffinity>
6.2378177643

> <CNN_VS>
2.2214920521

> <CNNaffinity_variance>
0.2485408038

$$$$
