/media/chris/experiments/cd1a-new-docking/inputs/ligands/5j1a_ligand.pdb


 25 25  0  0  0  0  0  0  0  0999 V2000
  -50.0388   58.8213   64.1785 C   0  0  0  0  0  0  0  0  0  0  0  0
  -49.5900   58.0426   62.9329 C   0  0  0  0  0  0  0  0  0  0  0  0
  -50.5809   58.2453   61.7948 C   0  0  0  0  0  0  0  0  0  0  0  0
  -50.0396   57.5844   60.5267 C   0  0  0  0  0  0  0  0  0  0  0  0
  -49.8656   58.6270   59.4224 C   0  0  0  0  0  0  0  0  0  0  0  0
  -48.1309   60.6353   59.6065 C   0  0  0  0  0  0  0  0  0  0  0  0
  -49.4193   59.9341   60.0798 C   0  0  0  0  0  0  0  0  0  0  0  0
  -47.1932   60.0045   58.5657 C   0  0  0  0  0  0  0  0  0  0  0  0
  -46.3910   58.9088   59.2827 C   0  0  0  0  0  0  0  0  0  0  0  0
  -45.8922   57.6434   58.5448 C   0  0  0  0  0  0  0  0  0  0  0  0
  -46.1424   57.4291   57.0392 C   0  0  0  0  0  0  0  0  0  0  0  0
  -47.5740   55.5994   58.0547 C   0  0  0  0  0  0  0  0  0  0  0  0
  -47.4219   56.5930   56.9003 C   0  0  0  0  0  0  0  0  0  0  0  0
  -49.7569   58.0709   65.5060 C   0  0  0  0  0  0  0  0  0  0  0  0
  -48.8158   58.8485   66.4564 C   0  0  0  0  0  0  0  0  0  0  0  0
  -45.7098   56.8401   66.7302 C   0  0  0  0  0  0  0  0  0  0  0  0
  -44.7476   57.7110   66.2018 C   0  0  0  0  0  0  0  0  0  0  0  0
  -47.0512   57.2326   66.8107 C   0  0  0  0  0  0  0  0  0  0  0  0
  -45.1538   58.9689   65.7569 C   0  0  0  0  0  0  0  0  0  0  0  0
  -46.4923   59.3504   65.8328 C   0  0  0  0  0  0  0  0  0  0  0  0
  -47.4689   58.4806   66.3345 C   0  0  0  0  0  0  0  0  0  0  0  0
  -44.2853   59.8699   65.2357 O   0  0  0  0  0  0  0  0  0  0  0  0
  -46.8447   60.5878   65.3783 O   0  0  0  0  0  0  0  0  0  0  0  0
  -43.3756   59.6570   65.1650 H   0  0  0  0  0  0  0  0  0  0  0  0
  -46.1894   61.1678   65.0432 H   0  0  0  0  0  0  0  0  0  0  0  0
 12 13  1  0  0  0
  9 10  2  0  0  0
  9  8  1  0  0  0
  6  7  2  0  0  0
  6  8  1  0  0  0
 10 11  1  0  0  0
  7  5  1  0  0  0
 16 17  2  0  0  0
 16 18  1  0  0  0
 17 19  1  0  0  0
 18 21  2  0  0  0
 13 11  1  0  0  0
  5  4  1  0  0  0
  4  3  1  0  0  0
  3  2  1  0  0  0
  2  1  1  0  0  0
  1 14  1  0  0  0
 14 15  1  0  0  0
 15 21  1  0  0  0
 19 20  2  0  0  0
 19 22  1  0  0  0
 20 21  1  0  0  0
 20 23  1  0  0  0
 22 24  1  0  0  0
 23 25  1  0  0  0
M  END
> <minimizedAffinity>
-8.02827

> <CNNscore>
0.6573515534

> <CNNaffinity>
6.6006727219

> <CNN_VS>
4.3389625549

> <CNNaffinity_variance>
0.1821676791

$$$$
/media/chris/experiments/cd1a-new-docking/inputs/ligands/5j1a_ligand.pdb


 25 25  0  0  0  0  0  0  0  0999 V2000
  -47.4841   60.7044   61.4206 C   0  0  0  0  0  0  0  0  0  0  0  0
  -46.3077   61.6311   61.7622 C   0  0  0  0  0  0  0  0  0  0  0  0
  -45.3498   60.9404   62.7232 C   0  0  0  0  0  0  0  0  0  0  0  0
  -46.0174   60.7992   64.0915 C   0  0  0  0  0  0  0  0  0  0  0  0
  -45.6538   59.4534   64.7187 C   0  0  0  0  0  0  0  0  0  0  0  0
  -46.7619   58.7587   67.0352 C   0  0  0  0  0  0  0  0  0  0  0  0
  -45.7497   59.6045   66.2379 C   0  0  0  0  0  0  0  0  0  0  0  0
  -47.7818   57.8403   66.3445 C   0  0  0  0  0  0  0  0  0  0  0  0
  -49.1202   58.5924   66.3115 C   0  0  0  0  0  0  0  0  0  0  0  0
  -49.8669   58.8774   64.9864 C   0  0  0  0  0  0  0  0  0  0  0  0
  -49.3259   58.3904   63.6279 C   0  0  0  0  0  0  0  0  0  0  0  0
  -51.1777   59.9039   62.7859 C   0  0  0  0  0  0  0  0  0  0  0  0
  -50.4462   58.5729   62.5949 C   0  0  0  0  0  0  0  0  0  0  0  0
  -48.0876   60.9706   60.0171 C   0  0  0  0  0  0  0  0  0  0  0  0
  -48.9450   59.7954   59.4907 C   0  0  0  0  0  0  0  0  0  0  0  0
  -46.3393   58.2320   57.3643 C   0  0  0  0  0  0  0  0  0  0  0  0
  -46.7012   56.8788   57.4009 C   0  0  0  0  0  0  0  0  0  0  0  0
  -47.0940   59.1852   58.0584 C   0  0  0  0  0  0  0  0  0  0  0  0
  -47.8212   56.5040   58.1427 C   0  0  0  0  0  0  0  0  0  0  0  0
  -48.5636   57.4571   58.8378 C   0  0  0  0  0  0  0  0  0  0  0  0
  -48.1985   58.8094   58.8313 C   0  0  0  0  0  0  0  0  0  0  0  0
  -48.2388   55.2169   58.2268 O   0  0  0  0  0  0  0  0  0  0  0  0
  -49.6471   57.0430   59.5565 O   0  0  0  0  0  0  0  0  0  0  0  0
  -47.7705   54.5421   57.7760 H   0  0  0  0  0  0  0  0  0  0  0  0
  -49.8893   56.1378   59.5591 H   0  0  0  0  0  0  0  0  0  0  0  0
 12 13  1  0  0  0
  9 10  2  0  0  0
  9  8  1  0  0  0
  6  7  2  0  0  0
  6  8  1  0  0  0
 10 11  1  0  0  0
  7  5  1  0  0  0
 16 17  2  0  0  0
 16 18  1  0  0  0
 17 19  1  0  0  0
 18 21  2  0  0  0
 13 11  1  0  0  0
  5  4  1  0  0  0
  4  3  1  0  0  0
  3  2  1  0  0  0
  2  1  1  0  0  0
  1 14  1  0  0  0
 14 15  1  0  0  0
 15 21  1  0  0  0
 19 20  2  0  0  0
 19 22  1  0  0  0
 20 21  1  0  0  0
 20 23  1  0  0  0
 22 24  1  0  0  0
 23 25  1  0  0  0
M  END
> <minimizedAffinity>
-7.92533

> <CNNscore>
0.5813937783

> <CNNaffinity>
6.8709211349

> <CNN_VS>
3.9947106838

> <CNNaffinity_variance>
0.3230776489

$$$$
/media/chris/experiments/cd1a-new-docking/inputs/ligands/5j1a_ligand.pdb


 25 25  0  0  0  0  0  0  0  0999 V2000
  -48.8671   57.3118   58.4875 C   0  0  0  0  0  0  0  0  0  0  0  0
  -50.1844   58.0101   58.8562 C   0  0  0  0  0  0  0  0  0  0  0  0
  -50.6098   57.6297   60.2677 C   0  0  0  0  0  0  0  0  0  0  0  0
  -49.8233   58.4658   61.2778 C   0  0  0  0  0  0  0  0  0  0  0  0
  -50.4949   58.4039   62.6495 C   0  0  0  0  0  0  0  0  0  0  0  0
  -50.9509   60.2973   64.4617 C   0  0  0  0  0  0  0  0  0  0  0  0
  -50.9761   59.8134   62.9985 C   0  0  0  0  0  0  0  0  0  0  0  0
  -50.5692   59.3665   65.6230 C   0  0  0  0  0  0  0  0  0  0  0  0
  -49.1943   59.8200   66.1349 C   0  0  0  0  0  0  0  0  0  0  0  0
  -47.9112   58.9945   65.8765 C   0  0  0  0  0  0  0  0  0  0  0  0
  -47.9364   57.6879   65.0593 C   0  0  0  0  0  0  0  0  0  0  0  0
  -46.5478   57.1168   67.1024 C   0  0  0  0  0  0  0  0  0  0  0  0
  -47.4179   56.5664   65.9698 C   0  0  0  0  0  0  0  0  0  0  0  0
  -48.1424   57.9652   57.2822 C   0  0  0  0  0  0  0  0  0  0  0  0
  -46.7879   58.6085   57.6625 C   0  0  0  0  0  0  0  0  0  0  0  0
  -47.5239   61.2403   60.1701 C   0  0  0  0  0  0  0  0  0  0  0  0
  -46.8398   60.7714   61.2995 C   0  0  0  0  0  0  0  0  0  0  0  0
  -47.4942   60.5148   58.9731 C   0  0  0  0  0  0  0  0  0  0  0  0
  -46.1358   59.5710   61.2068 C   0  0  0  0  0  0  0  0  0  0  0  0
  -46.1168   58.8497   60.0143 C   0  0  0  0  0  0  0  0  0  0  0  0
  -46.8172   59.2930   58.8852 C   0  0  0  0  0  0  0  0  0  0  0  0
  -45.4467   59.0510   62.2520 O   0  0  0  0  0  0  0  0  0  0  0  0
  -45.4211   57.6766   59.9725 O   0  0  0  0  0  0  0  0  0  0  0  0
  -45.4313   59.5013   63.0736 H   0  0  0  0  0  0  0  0  0  0  0  0
  -44.9533   57.3823   60.7292 H   0  0  0  0  0  0  0  0  0  0  0  0
 12 13  1  0  0  0
  9 10  2  0  0  0
  9  8  1  0  0  0
  6  7  2  0  0  0
  6  8  1  0  0  0
 10 11  1  0  0  0
  7  5  1  0  0  0
 16 17  2  0  0  0
 16 18  1  0  0  0
 17 19  1  0  0  0
 18 21  2  0  0  0
 13 11  1  0  0  0
  5  4  1  0  0  0
  4  3  1  0  0  0
  3  2  1  0  0  0
  2  1  1  0  0  0
  1 14  1  0  0  0
 14 15  1  0  0  0
 15 21  1  0  0  0
 19 20  2  0  0  0
 19 22  1  0  0  0
 20 21  1  0  0  0
 20 23  1  0  0  0
 22 24  1  0  0  0
 23 25  1  0  0  0
M  END
> <minimizedAffinity>
-8.22567

> <CNNscore>
0.4777546525

> <CNNaffinity>
6.5607976913

> <CNN_VS>
3.1344516277

> <CNNaffinity_variance>
0.2142881602

$$$$
/media/chris/experiments/cd1a-new-docking/inputs/ligands/5j1a_ligand.pdb


 25 25  0  0  0  0  0  0  0  0999 V2000
  -50.2824   59.4113   61.8401 C   0  0  0  0  0  0  0  0  0  0  0  0
  -49.9345   58.3609   62.9054 C   0  0  0  0  0  0  0  0  0  0  0  0
  -49.7397   59.0249   64.2616 C   0  0  0  0  0  0  0  0  0  0  0  0
  -49.6798   57.9511   65.3486 C   0  0  0  0  0  0  0  0  0  0  0  0
  -48.3589   58.0472   66.1117 C   0  0  0  0  0  0  0  0  0  0  0  0
  -46.1332   56.6256   65.7925 C   0  0  0  0  0  0  0  0  0  0  0  0
  -47.6582   56.6915   66.0059 C   0  0  0  0  0  0  0  0  0  0  0  0
  -45.2865   57.8858   65.5567 C   0  0  0  0  0  0  0  0  0  0  0  0
  -44.4378   57.6339   64.3019 C   0  0  0  0  0  0  0  0  0  0  0  0
  -44.9326   58.0201   62.8875 C   0  0  0  0  0  0  0  0  0  0  0  0
  -46.2911   58.7124   62.6628 C   0  0  0  0  0  0  0  0  0  0  0  0
  -46.8846   61.0184   61.7918 C   0  0  0  0  0  0  0  0  0  0  0  0
  -46.0674   60.2234   62.8130 C   0  0  0  0  0  0  0  0  0  0  0  0
  -49.7333   59.0629   60.4323 C   0  0  0  0  0  0  0  0  0  0  0  0
  -48.9260   57.7435   60.4035 C   0  0  0  0  0  0  0  0  0  0  0  0
  -46.6110   58.7093   57.6716 C   0  0  0  0  0  0  0  0  0  0  0  0
  -46.4175   57.4923   57.0045 C   0  0  0  0  0  0  0  0  0  0  0  0
  -47.4467   58.7766   58.7927 C   0  0  0  0  0  0  0  0  0  0  0  0
  -47.0692   56.3552   57.4814 C   0  0  0  0  0  0  0  0  0  0  0  0
  -47.8938   56.4276   58.6029 C   0  0  0  0  0  0  0  0  0  0  0  0
  -48.0758   57.6318   59.2949 C   0  0  0  0  0  0  0  0  0  0  0  0
  -46.9369   55.1417   56.8918 O   0  0  0  0  0  0  0  0  0  0  0  0
  -48.5047   55.2877   59.0381 O   0  0  0  0  0  0  0  0  0  0  0  0
  -46.3927   55.0453   56.1351 H   0  0  0  0  0  0  0  0  0  0  0  0
  -48.3813   54.4835   58.5733 H   0  0  0  0  0  0  0  0  0  0  0  0
 12 13  1  0  0  0
  9 10  2  0  0  0
  9  8  1  0  0  0
  6  7  2  0  0  0
  6  8  1  0  0  0
 10 11  1  0  0  0
  7  5  1  0  0  0
 16 17  2  0  0  0
 16 18  1  0  0  0
 17 19  1  0  0  0
 18 21  2  0  0  0
 13 11  1  0  0  0
  5  4  1  0  0  0
  4  3  1  0  0  0
  3  2  1  0  0  0
  2  1  1  0  0  0
  1 14  1  0  0  0
 14 15  1  0  0  0
 15 21  1  0  0  0
 19 20  2  0  0  0
 19 22  1  0  0  0
 20 21  1  0  0  0
 20 23  1  0  0  0
 22 24  1  0  0  0
 23 25  1  0  0  0
M  END
> <minimizedAffinity>
-7.35006

> <CNNscore>
0.4273024797

> <CNNaffinity>
6.9908981323

> <CNN_VS>
2.9872281551

> <CNNaffinity_variance>
0.2283580005

$$$$
/media/chris/experiments/cd1a-new-docking/inputs/ligands/5j1a_ligand.pdb


 25 25  0  0  0  0  0  0  0  0999 V2000
  -50.2307   57.5716   59.5345 C   0  0  0  0  0  0  0  0  0  0  0  0
  -49.0553   56.8202   58.8918 C   0  0  0  0  0  0  0  0  0  0  0  0
  -48.6856   57.4545   57.5579 C   0  0  0  0  0  0  0  0  0  0  0  0
  -47.2580   57.0542   57.1838 C   0  0  0  0  0  0  0  0  0  0  0  0
  -46.2964   58.2087   57.4651 C   0  0  0  0  0  0  0  0  0  0  0  0
  -46.9780   59.9056   59.3970 C   0  0  0  0  0  0  0  0  0  0  0  0
  -47.1251   59.4002   57.9483 C   0  0  0  0  0  0  0  0  0  0  0  0
  -46.1078   59.1761   60.4319 C   0  0  0  0  0  0  0  0  0  0  0  0
  -46.4585   59.7566   61.8096 C   0  0  0  0  0  0  0  0  0  0  0  0
  -45.8923   61.1125   62.2951 C   0  0  0  0  0  0  0  0  0  0  0  0
  -44.9725   61.9736   61.4076 C   0  0  0  0  0  0  0  0  0  0  0  0
  -42.5179   61.6811   61.9715 C   0  0  0  0  0  0  0  0  0  0  0  0
  -43.8046   62.4499   62.2820 C   0  0  0  0  0  0  0  0  0  0  0  0
  -50.4414   57.2179   61.0296 C   0  0  0  0  0  0  0  0  0  0  0  0
  -49.3121   57.7471   61.9450 C   0  0  0  0  0  0  0  0  0  0  0  0
  -51.1647   60.3168   63.8737 C   0  0  0  0  0  0  0  0  0  0  0  0
  -50.6940   60.1044   65.1764 C   0  0  0  0  0  0  0  0  0  0  0  0
  -50.6951   59.5306   62.8148 C   0  0  0  0  0  0  0  0  0  0  0  0
  -49.7556   59.0959   65.3942 C   0  0  0  0  0  0  0  0  0  0  0  0
  -49.2981   58.3116   64.3367 C   0  0  0  0  0  0  0  0  0  0  0  0
  -49.7790   58.4955   63.0340 C   0  0  0  0  0  0  0  0  0  0  0  0
  -49.2491   58.8289   66.6230 O   0  0  0  0  0  0  0  0  0  0  0  0
  -48.3856   57.3315   64.5986 O   0  0  0  0  0  0  0  0  0  0  0  0
  -49.5276   59.3305   67.3638 H   0  0  0  0  0  0  0  0  0  0  0  0
  -48.0654   57.2106   65.4709 H   0  0  0  0  0  0  0  0  0  0  0  0
 12 13  1  0  0  0
  9 10  2  0  0  0
  9  8  1  0  0  0
  6  7  2  0  0  0
  6  8  1  0  0  0
 10 11  1  0  0  0
  7  5  1  0  0  0
 16 17  2  0  0  0
 16 18  1  0  0  0
 17 19  1  0  0  0
 18 21  2  0  0  0
 13 11  1  0  0  0
  5  4  1  0  0  0
  4  3  1  0  0  0
  3  2  1  0  0  0
  2  1  1  0  0  0
  1 14  1  0  0  0
 14 15  1  0  0  0
 15 21  1  0  0  0
 19 20  2  0  0  0
 19 22  1  0  0  0
 20 21  1  0  0  0
 20 23  1  0  0  0
 22 24  1  0  0  0
 23 25  1  0  0  0
M  END
> <minimizedAffinity>
-8.22533

> <CNNscore>
0.4263923466

> <CNNaffinity>
6.4716935158

> <CNN_VS>
2.7594804764

> <CNNaffinity_variance>
0.0626877695

$$$$
/media/chris/experiments/cd1a-new-docking/inputs/ligands/5j1a_ligand.pdb


 25 25  0  0  0  0  0  0  0  0999 V2000
  -50.0098   57.3668   59.7378 C   0  0  0  0  0  0  0  0  0  0  0  0
  -49.1306   56.1089   59.6775 C   0  0  0  0  0  0  0  0  0  0  0  0
  -48.5030   55.9656   58.2977 C   0  0  0  0  0  0  0  0  0  0  0  0
  -47.0165   55.6403   58.4474 C   0  0  0  0  0  0  0  0  0  0  0  0
  -46.1817   56.9127   58.3034 C   0  0  0  0  0  0  0  0  0  0  0  0
  -47.1798   59.3755   58.1822 C   0  0  0  0  0  0  0  0  0  0  0  0
  -47.0422   57.9584   57.5920 C   0  0  0  0  0  0  0  0  0  0  0  0
  -46.5764   59.7553   59.5432 C   0  0  0  0  0  0  0  0  0  0  0  0
  -47.6538   60.5285   60.3174 C   0  0  0  0  0  0  0  0  0  0  0  0
  -47.2936   61.6306   61.3422 C   0  0  0  0  0  0  0  0  0  0  0  0
  -45.8330   62.0386   61.6169 C   0  0  0  0  0  0  0  0  0  0  0  0
  -46.5554   61.0201   63.8236 C   0  0  0  0  0  0  0  0  0  0  0  0
  -45.6319   62.0304   63.1385 C   0  0  0  0  0  0  0  0  0  0  0  0
  -50.5536   57.6682   61.1585 C   0  0  0  0  0  0  0  0  0  0  0  0
  -49.4424   57.7409   62.2324 C   0  0  0  0  0  0  0  0  0  0  0  0
  -51.1772   60.2624   64.3271 C   0  0  0  0  0  0  0  0  0  0  0  0
  -50.4960   60.1522   65.5466 C   0  0  0  0  0  0  0  0  0  0  0  0
  -50.8144   59.4598   63.2389 C   0  0  0  0  0  0  0  0  0  0  0  0
  -49.4569   59.2280   65.6532 C   0  0  0  0  0  0  0  0  0  0  0  0
  -49.1059   58.4265   64.5682 C   0  0  0  0  0  0  0  0  0  0  0  0
  -49.7949   58.5076   63.3514 C   0  0  0  0  0  0  0  0  0  0  0  0
  -48.7473   59.0622   66.7963 O   0  0  0  0  0  0  0  0  0  0  0  0
  -48.0878   57.5309   64.7212 O   0  0  0  0  0  0  0  0  0  0  0  0
  -48.9480   59.5792   67.5515 H   0  0  0  0  0  0  0  0  0  0  0  0
  -47.6284   57.4787   65.5362 H   0  0  0  0  0  0  0  0  0  0  0  0
 12 13  1  0  0  0
  9 10  2  0  0  0
  9  8  1  0  0  0
  6  7  2  0  0  0
  6  8  1  0  0  0
 10 11  1  0  0  0
  7  5  1  0  0  0
 16 17  2  0  0  0
 16 18  1  0  0  0
 17 19  1  0  0  0
 18 21  2  0  0  0
 13 11  1  0  0  0
  5  4  1  0  0  0
  4  3  1  0  0  0
  3  2  1  0  0  0
  2  1  1  0  0  0
  1 14  1  0  0  0
 14 15  1  0  0  0
 15 21  1  0  0  0
 19 20  2  0  0  0
 19 22  1  0  0  0
 20 21  1  0  0  0
 20 23  1  0  0  0
 22 24  1  0  0  0
 23 25  1  0  0  0
M  END
> <minimizedAffinity>
-8.07460

> <CNNscore>
0.4009734094

> <CNNaffinity>
6.3959593773

> <CNN_VS>
2.5646095276

> <CNNaffinity_variance>
0.1261744946

$$$$
/media/chris/experiments/cd1a-new-docking/inputs/ligands/5j1a_ligand.pdb


 25 25  0  0  0  0  0  0  0  0999 V2000
  -48.0400   59.0907   66.0929 C   0  0  0  0  0  0  0  0  0  0  0  0
  -49.4032   59.7715   65.8996 C   0  0  0  0  0  0  0  0  0  0  0  0
  -50.2064   59.0549   64.8228 C   0  0  0  0  0  0  0  0  0  0  0  0
  -51.0672   60.0708   64.0711 C   0  0  0  0  0  0  0  0  0  0  0  0
  -50.9916   59.8141   62.5661 C   0  0  0  0  0  0  0  0  0  0  0  0
  -49.7934   57.9601   61.0817 C   0  0  0  0  0  0  0  0  0  0  0  0
  -50.5533   58.3630   62.3607 C   0  0  0  0  0  0  0  0  0  0  0  0
  -49.5579   58.9461   59.9271 C   0  0  0  0  0  0  0  0  0  0  0  0
  -49.5911   58.1347   58.6238 C   0  0  0  0  0  0  0  0  0  0  0  0
  -48.3858   58.0931   57.6541 C   0  0  0  0  0  0  0  0  0  0  0  0
  -47.0705   58.8358   57.9605 C   0  0  0  0  0  0  0  0  0  0  0  0
  -45.7093   57.8606   59.8644 C   0  0  0  0  0  0  0  0  0  0  0  0
  -46.0325   57.7821   58.3703 C   0  0  0  0  0  0  0  0  0  0  0  0
  -47.6662   58.1264   64.9373 C   0  0  0  0  0  0  0  0  0  0  0  0
  -46.2560   58.3890   64.3579 C   0  0  0  0  0  0  0  0  0  0  0  0
  -47.0992   60.9706   61.8320 C   0  0  0  0  0  0  0  0  0  0  0  0
  -46.0235   61.8608   61.9494 C   0  0  0  0  0  0  0  0  0  0  0  0
  -47.1598   59.8245   62.6337 C   0  0  0  0  0  0  0  0  0  0  0  0
  -45.0221   61.5837   62.8798 C   0  0  0  0  0  0  0  0  0  0  0  0
  -45.0926   60.4449   63.6805 C   0  0  0  0  0  0  0  0  0  0  0  0
  -46.1748   59.5600   63.5921 C   0  0  0  0  0  0  0  0  0  0  0  0
  -43.9479   62.3925   63.0528 O   0  0  0  0  0  0  0  0  0  0  0  0
  -44.0939   60.2187   64.5823 O   0  0  0  0  0  0  0  0  0  0  0  0
  -43.8585   63.1694   62.5366 H   0  0  0  0  0  0  0  0  0  0  0  0
  -43.3710   60.8122   64.6393 H   0  0  0  0  0  0  0  0  0  0  0  0
 12 13  1  0  0  0
  9 10  2  0  0  0
  9  8  1  0  0  0
  6  7  2  0  0  0
  6  8  1  0  0  0
 10 11  1  0  0  0
  7  5  1  0  0  0
 16 17  2  0  0  0
 16 18  1  0  0  0
 17 19  1  0  0  0
 18 21  2  0  0  0
 13 11  1  0  0  0
  5  4  1  0  0  0
  4  3  1  0  0  0
  3  2  1  0  0  0
  2  1  1  0  0  0
  1 14  1  0  0  0
 14 15  1  0  0  0
 15 21  1  0  0  0
 19 20  2  0  0  0
 19 22  1  0  0  0
 20 21  1  0  0  0
 20 23  1  0  0  0
 22 24  1  0  0  0
 23 25  1  0  0  0
M  END
> <minimizedAffinity>
-7.53933

> <CNNscore>
0.3850582242

> <CNNaffinity>
6.3444871902

> <CNN_VS>
2.4429969788

> <CNNaffinity_variance>
0.1748523563

$$$$
/media/chris/experiments/cd1a-new-docking/inputs/ligands/5j1a_ligand.pdb


 25 25  0  0  0  0  0  0  0  0999 V2000
  -49.3922   60.3246   60.8684 C   0  0  0  0  0  0  0  0  0  0  0  0
  -49.0142   59.5480   62.1385 C   0  0  0  0  0  0  0  0  0  0  0  0
  -50.2581   58.9616   62.7920 C   0  0  0  0  0  0  0  0  0  0  0  0
  -51.1738   60.0970   63.2507 C   0  0  0  0  0  0  0  0  0  0  0  0
  -50.9664   60.3719   64.7400 C   0  0  0  0  0  0  0  0  0  0  0  0
  -49.2010   59.0979   66.2687 C   0  0  0  0  0  0  0  0  0  0  0  0
  -50.4663   59.0800   65.3887 C   0  0  0  0  0  0  0  0  0  0  0  0
  -48.3352   60.3571   66.4282 C   0  0  0  0  0  0  0  0  0  0  0  0
  -46.8705   59.9238   66.2698 C   0  0  0  0  0  0  0  0  0  0  0  0
  -46.0046   60.3861   65.0735 C   0  0  0  0  0  0  0  0  0  0  0  0
  -46.5540   61.3372   63.9923 C   0  0  0  0  0  0  0  0  0  0  0  0
  -45.7922   62.7057   61.9985 C   0  0  0  0  0  0  0  0  0  0  0  0
  -45.3515   61.9081   63.2284 C   0  0  0  0  0  0  0  0  0  0  0  0
  -48.1630   60.8201   60.0633 C   0  0  0  0  0  0  0  0  0  0  0  0
  -46.9816   59.8214   60.0804 C   0  0  0  0  0  0  0  0  0  0  0  0
  -47.0023   58.1573   56.7658 C   0  0  0  0  0  0  0  0  0  0  0  0
  -47.3716   56.8466   57.0959 C   0  0  0  0  0  0  0  0  0  0  0  0
  -46.8808   59.1309   57.7645 C   0  0  0  0  0  0  0  0  0  0  0  0
  -47.6106   56.5339   58.4340 C   0  0  0  0  0  0  0  0  0  0  0  0
  -47.4802   57.5062   59.4242 C   0  0  0  0  0  0  0  0  0  0  0  0
  -47.0866   58.8137   59.1120 C   0  0  0  0  0  0  0  0  0  0  0  0
  -47.9741   55.2911   58.8353 O   0  0  0  0  0  0  0  0  0  0  0  0
  -47.7165   57.1525   60.7207 O   0  0  0  0  0  0  0  0  0  0  0  0
  -48.0739   54.6056   58.2045 H   0  0  0  0  0  0  0  0  0  0  0  0
  -47.9798   56.2772   60.9269 H   0  0  0  0  0  0  0  0  0  0  0  0
 12 13  1  0  0  0
  9 10  2  0  0  0
  9  8  1  0  0  0
  6  7  2  0  0  0
  6  8  1  0  0  0
 10 11  1  0  0  0
  7  5  1  0  0  0
 16 17  2  0  0  0
 16 18  1  0  0  0
 17 19  1  0  0  0
 18 21  2  0  0  0
 13 11  1  0  0  0
  5  4  1  0  0  0
  4  3  1  0  0  0
  3  2  1  0  0  0
  2  1  1  0  0  0
  1 14  1  0  0  0
 14 15  1  0  0  0
 15 21  1  0  0  0
 19 20  2  0  0  0
 19 22  1  0  0  0
 20 21  1  0  0  0
 20 23  1  0  0  0
 22 24  1  0  0  0
 23 25  1  0  0  0
M  END
> <minimizedAffinity>
-8.14983

> <CNNscore>
0.3715377450

> <CNNaffinity>
6.4483633041

> <CNN_VS>
2.3958103657

> <CNNaffinity_variance>
0.1293075532

$$$$
/media/chris/experiments/cd1a-new-docking/inputs/ligands/5j1a_ligand.pdb


 25 25  0  0  0  0  0  0  0  0999 V2000
  -47.1198   59.8327   61.4150 C   0  0  0  0  0  0  0  0  0  0  0  0
  -45.9157   59.0932   60.8130 C   0  0  0  0  0  0  0  0  0  0  0  0
  -46.3793   57.8694   60.0349 C   0  0  0  0  0  0  0  0  0  0  0  0
  -46.1197   58.0876   58.5439 C   0  0  0  0  0  0  0  0  0  0  0  0
  -47.3265   58.7626   57.8923 C   0  0  0  0  0  0  0  0  0  0  0  0
  -49.7028   57.6344   58.2888 C   0  0  0  0  0  0  0  0  0  0  0  0
  -48.3469   57.6733   57.5569 C   0  0  0  0  0  0  0  0  0  0  0  0
  -50.0328   58.5878   59.4476 C   0  0  0  0  0  0  0  0  0  0  0  0
  -50.1487   57.7339   60.7186 C   0  0  0  0  0  0  0  0  0  0  0  0
  -50.4462   58.3606   62.1019 C   0  0  0  0  0  0  0  0  0  0  0  0
  -50.6784   59.8744   62.2751 C   0  0  0  0  0  0  0  0  0  0  0  0
  -50.3350   59.3280   64.7270 C   0  0  0  0  0  0  0  0  0  0  0  0
  -51.1761   60.1019   63.7089 C   0  0  0  0  0  0  0  0  0  0  0  0
  -46.9430   61.3731   61.4426 C   0  0  0  0  0  0  0  0  0  0  0  0
  -46.3449   61.8932   62.7712 C   0  0  0  0  0  0  0  0  0  0  0  0
  -42.7682   62.3536   61.9045 C   0  0  0  0  0  0  0  0  0  0  0  0
  -42.1282   61.5450   62.8532 C   0  0  0  0  0  0  0  0  0  0  0  0
  -44.1644   62.4555   61.8883 C   0  0  0  0  0  0  0  0  0  0  0  0
  -42.9079   60.8509   63.7782 C   0  0  0  0  0  0  0  0  0  0  0  0
  -44.2971   60.9631   63.7615 C   0  0  0  0  0  0  0  0  0  0  0  0
  -44.9489   61.7877   62.8356 C   0  0  0  0  0  0  0  0  0  0  0  0
  -42.3663   60.0466   64.7256 O   0  0  0  0  0  0  0  0  0  0  0  0
  -45.0185   60.2716   64.6907 O   0  0  0  0  0  0  0  0  0  0  0  0
  -41.4367   59.9409   64.7748 H   0  0  0  0  0  0  0  0  0  0  0  0
  -44.5801   59.7206   65.3089 H   0  0  0  0  0  0  0  0  0  0  0  0
 12 13  1  0  0  0
  9 10  2  0  0  0
  9  8  1  0  0  0
  6  7  2  0  0  0
  6  8  1  0  0  0
 10 11  1  0  0  0
  7  5  1  0  0  0
 16 17  2  0  0  0
 16 18  1  0  0  0
 17 19  1  0  0  0
 18 21  2  0  0  0
 13 11  1  0  0  0
  5  4  1  0  0  0
  4  3  1  0  0  0
  3  2  1  0  0  0
  2  1  1  0  0  0
  1 14  1  0  0  0
 14 15  1  0  0  0
 15 21  1  0  0  0
 19 20  2  0  0  0
 19 22  1  0  0  0
 20 21  1  0  0  0
 20 23  1  0  0  0
 22 24  1  0  0  0
 23 25  1  0  0  0
M  END
> <minimizedAffinity>
-7.96877

> <CNNscore>
0.3649784923

> <CNNaffinity>
6.0292940140

> <CNN_VS>
2.2005627155

> <CNNaffinity_variance>
0.1991589069

$$$$
