/media/chris/experiments/cd1a-new-docking/inputs/ligands/5j1a_ligand.pdb


 25 25  0  0  0  0  0  0  0  0999 V2000
  -45.6171   57.5183   65.2629 C   0  0  0  0  0  0  0  0  0  0  0  0
  -46.9634   58.1390   65.6646 C   0  0  0  0  0  0  0  0  0  0  0  0
  -48.1007   57.4863   64.8909 C   0  0  0  0  0  0  0  0  0  0  0  0
  -48.8402   58.5514   64.0805 C   0  0  0  0  0  0  0  0  0  0  0  0
  -48.9235   58.1330   62.6126 C   0  0  0  0  0  0  0  0  0  0  0  0
  -50.8477   57.6396   60.8435 C   0  0  0  0  0  0  0  0  0  0  0  0
  -50.3805   58.2735   62.1684 C   0  0  0  0  0  0  0  0  0  0  0  0
  -49.8685   56.9627   59.8721 C   0  0  0  0  0  0  0  0  0  0  0  0
  -49.5949   57.9592   58.7360 C   0  0  0  0  0  0  0  0  0  0  0  0
  -48.1589   58.3896   58.3524 C   0  0  0  0  0  0  0  0  0  0  0  0
  -46.9201   57.8141   59.0664 C   0  0  0  0  0  0  0  0  0  0  0  0
  -45.4004   58.3468   61.0246 C   0  0  0  0  0  0  0  0  0  0  0  0
  -46.3623   58.9153   59.9785 C   0  0  0  0  0  0  0  0  0  0  0  0
  -44.6609   58.5226   64.5687 C   0  0  0  0  0  0  0  0  0  0  0  0
  -44.9183   59.9916   64.9803 C   0  0  0  0  0  0  0  0  0  0  0  0
  -46.4379   61.9616   62.2298 C   0  0  0  0  0  0  0  0  0  0  0  0
  -45.3153   62.5519   61.6343 C   0  0  0  0  0  0  0  0  0  0  0  0
  -46.2895   61.1141   63.3341 C   0  0  0  0  0  0  0  0  0  0  0  0
  -44.0543   62.2813   62.1652 C   0  0  0  0  0  0  0  0  0  0  0  0
  -43.9144   61.4427   63.2698 C   0  0  0  0  0  0  0  0  0  0  0  0
  -45.0298   60.8665   63.8911 C   0  0  0  0  0  0  0  0  0  0  0  0
  -42.9192   62.8103   61.6460 O   0  0  0  0  0  0  0  0  0  0  0  0
  -42.6618   61.2129   63.7597 O   0  0  0  0  0  0  0  0  0  0  0  0
  -42.9649   63.3796   60.9032 H   0  0  0  0  0  0  0  0  0  0  0  0
  -41.9173   61.5994   63.3423 H   0  0  0  0  0  0  0  0  0  0  0  0
 12 13  1  0  0  0
  9 10  2  0  0  0
  9  8  1  0  0  0
  6  7  2  0  0  0
  6  8  1  0  0  0
 10 11  1  0  0  0
  7  5  1  0  0  0
 16 17  2  0  0  0
 16 18  1  0  0  0
 17 19  1  0  0  0
 18 21  2  0  0  0
 13 11  1  0  0  0
  5  4  1  0  0  0
  4  3  1  0  0  0
  3  2  1  0  0  0
  2  1  1  0  0  0
  1 14  1  0  0  0
 14 15  1  0  0  0
 15 21  1  0  0  0
 19 20  2  0  0  0
 19 22  1  0  0  0
 20 21  1  0  0  0
 20 23  1  0  0  0
 22 24  1  0  0  0
 23 25  1  0  0  0
M  END
> <minimizedAffinity>
-7.17434

> <CNNscore>
0.3872645199

> <CNNaffinity>
6.2059864998

> <CNN_VS>
2.4033584595

> <CNNaffinity_variance>
0.2915423512

$$$$
/media/chris/experiments/cd1a-new-docking/inputs/ligands/5j1a_ligand.pdb


 25 25  0  0  0  0  0  0  0  0999 V2000
  -38.4320   58.7610   65.1994 C   0  0  0  0  0  0  0  0  0  0  0  0
  -37.5996   57.6328   64.5722 C   0  0  0  0  0  0  0  0  0  0  0  0
  -36.3939   58.2065   63.8407 C   0  0  0  0  0  0  0  0  0  0  0  0
  -35.8676   57.1748   62.8424 C   0  0  0  0  0  0  0  0  0  0  0  0
  -36.9174   56.9004   61.7657 C   0  0  0  0  0  0  0  0  0  0  0  0
  -38.5256   58.6328   60.5457 C   0  0  0  0  0  0  0  0  0  0  0  0
  -37.1099   58.1874   60.9616 C   0  0  0  0  0  0  0  0  0  0  0  0
  -39.7646   57.7620   60.8046 C   0  0  0  0  0  0  0  0  0  0  0  0
  -40.3985   58.2528   62.1144 C   0  0  0  0  0  0  0  0  0  0  0  0
  -41.0803   57.2823   63.1083 C   0  0  0  0  0  0  0  0  0  0  0  0
  -41.1294   55.7626   62.8556 C   0  0  0  0  0  0  0  0  0  0  0  0
  -42.9191   56.1872   64.6006 C   0  0  0  0  0  0  0  0  0  0  0  0
  -42.0084   55.1428   63.9506 C   0  0  0  0  0  0  0  0  0  0  0  0
  -37.8754   60.1762   64.8955 C   0  0  0  0  0  0  0  0  0  0  0  0
  -37.4209   60.9364   66.1639 C   0  0  0  0  0  0  0  0  0  0  0  0
  -34.3769   62.3222   64.5610 C   0  0  0  0  0  0  0  0  0  0  0  0
  -33.8989   63.1991   65.5438 C   0  0  0  0  0  0  0  0  0  0  0  0
  -35.5417   61.5781   64.7828 C   0  0  0  0  0  0  0  0  0  0  0  0
  -34.6071   63.3166   66.7396 C   0  0  0  0  0  0  0  0  0  0  0  0
  -35.7705   62.5786   66.9508 C   0  0  0  0  0  0  0  0  0  0  0  0
  -36.2742   61.7179   65.9671 C   0  0  0  0  0  0  0  0  0  0  0  0
  -34.2101   64.1401   67.7406 O   0  0  0  0  0  0  0  0  0  0  0  0
  -36.4345   62.7318   68.1330 O   0  0  0  0  0  0  0  0  0  0  0  0
  -33.4337   64.6555   67.6430 H   0  0  0  0  0  0  0  0  0  0  0  0
  -36.0956   63.3081   68.7893 H   0  0  0  0  0  0  0  0  0  0  0  0
 12 13  1  0  0  0
  9 10  2  0  0  0
  9  8  1  0  0  0
  6  7  2  0  0  0
  6  8  1  0  0  0
 10 11  1  0  0  0
  7  5  1  0  0  0
 16 17  2  0  0  0
 16 18  1  0  0  0
 17 19  1  0  0  0
 18 21  2  0  0  0
 13 11  1  0  0  0
  5  4  1  0  0  0
  4  3  1  0  0  0
  3  2  1  0  0  0
  2  1  1  0  0  0
  1 14  1  0  0  0
 14 15  1  0  0  0
 15 21  1  0  0  0
 19 20  2  0  0  0
 19 22  1  0  0  0
 20 21  1  0  0  0
 20 23  1  0  0  0
 22 24  1  0  0  0
 23 25  1  0  0  0
M  END
> <minimizedAffinity>
-7.59243

> <CNNscore>
0.3756507337

> <CNNaffinity>
6.0430741310

> <CNN_VS>
2.2700853348

> <CNNaffinity_variance>
0.1146122962

$$$$
/media/chris/experiments/cd1a-new-docking/inputs/ligands/5j1a_ligand.pdb


 25 25  0  0  0  0  0  0  0  0999 V2000
  -46.1573   57.6541   60.0776 C   0  0  0  0  0  0  0  0  0  0  0  0
  -46.0621   57.8748   58.5606 C   0  0  0  0  0  0  0  0  0  0  0  0
  -47.2360   58.7117   58.0713 C   0  0  0  0  0  0  0  0  0  0  0  0
  -47.3959   59.9373   58.9714 C   0  0  0  0  0  0  0  0  0  0  0  0
  -48.7757   59.9315   59.6292 C   0  0  0  0  0  0  0  0  0  0  0  0
  -50.2201   57.7164   59.9170 C   0  0  0  0  0  0  0  0  0  0  0  0
  -49.5833   58.7887   59.0114 C   0  0  0  0  0  0  0  0  0  0  0  0
  -49.9739   57.6768   61.4330 C   0  0  0  0  0  0  0  0  0  0  0  0
  -50.9219   58.7011   62.0735 C   0  0  0  0  0  0  0  0  0  0  0  0
  -50.5876   59.4010   63.4125 C   0  0  0  0  0  0  0  0  0  0  0  0
  -49.2665   59.1353   64.1605 C   0  0  0  0  0  0  0  0  0  0  0  0
  -48.9047   59.7472   66.5941 C   0  0  0  0  0  0  0  0  0  0  0  0
  -49.6208   58.8104   65.6181 C   0  0  0  0  0  0  0  0  0  0  0  0
  -44.8403   57.9791   60.8290 C   0  0  0  0  0  0  0  0  0  0  0  0
  -45.0743   58.6168   62.2190 C   0  0  0  0  0  0  0  0  0  0  0  0
  -44.4962   62.2502   61.7501 C   0  0  0  0  0  0  0  0  0  0  0  0
  -43.3407   62.4660   62.5127 C   0  0  0  0  0  0  0  0  0  0  0  0
  -45.0556   60.9701   61.6603 C   0  0  0  0  0  0  0  0  0  0  0  0
  -42.7654   61.3845   63.1795 C   0  0  0  0  0  0  0  0  0  0  0  0
  -43.3321   60.1140   63.0921 C   0  0  0  0  0  0  0  0  0  0  0  0
  -44.5016   59.8887   62.3547 C   0  0  0  0  0  0  0  0  0  0  0  0
  -41.6467   61.5091   63.9349 O   0  0  0  0  0  0  0  0  0  0  0  0
  -42.7391   59.0875   63.7678 O   0  0  0  0  0  0  0  0  0  0  0  0
  -41.2312   62.3444   64.0225 H   0  0  0  0  0  0  0  0  0  0  0  0
  -41.9569   59.2408   64.2602 H   0  0  0  0  0  0  0  0  0  0  0  0
 12 13  1  0  0  0
  9 10  2  0  0  0
  9  8  1  0  0  0
  6  7  2  0  0  0
  6  8  1  0  0  0
 10 11  1  0  0  0
  7  5  1  0  0  0
 16 17  2  0  0  0
 16 18  1  0  0  0
 17 19  1  0  0  0
 18 21  2  0  0  0
 13 11  1  0  0  0
  5  4  1  0  0  0
  4  3  1  0  0  0
  3  2  1  0  0  0
  2  1  1  0  0  0
  1 14  1  0  0  0
 14 15  1  0  0  0
 15 21  1  0  0  0
 19 20  2  0  0  0
 19 22  1  0  0  0
 20 21  1  0  0  0
 20 23  1  0  0  0
 22 24  1  0  0  0
 23 25  1  0  0  0
M  END
> <minimizedAffinity>
-7.76799

> <CNNscore>
0.3644095659

> <CNNaffinity>
6.2402620316

> <CNN_VS>
2.2740111351

> <CNNaffinity_variance>
0.1496802866

$$$$
/media/chris/experiments/cd1a-new-docking/inputs/ligands/5j1a_ligand.pdb


 25 25  0  0  0  0  0  0  0  0999 V2000
  -48.4758   60.8865   65.3389 C   0  0  0  0  0  0  0  0  0  0  0  0
  -49.6393   59.8928   65.2041 C   0  0  0  0  0  0  0  0  0  0  0  0
  -50.8003   60.5334   64.4558 C   0  0  0  0  0  0  0  0  0  0  0  0
  -51.1768   59.6596   63.2589 C   0  0  0  0  0  0  0  0  0  0  0  0
  -49.9743   59.4917   62.3302 C   0  0  0  0  0  0  0  0  0  0  0  0
  -49.7357   57.3499   60.7709 C   0  0  0  0  0  0  0  0  0  0  0  0
  -49.7119   57.9930   62.1713 C   0  0  0  0  0  0  0  0  0  0  0  0
  -50.1377   58.1401   59.5161 C   0  0  0  0  0  0  0  0  0  0  0  0
  -49.3648   57.5378   58.3337 C   0  0  0  0  0  0  0  0  0  0  0  0
  -47.8773   57.8738   58.0712 C   0  0  0  0  0  0  0  0  0  0  0  0
  -47.0779   58.8048   59.0039 C   0  0  0  0  0  0  0  0  0  0  0  0
  -47.9143   61.1084   59.6530 C   0  0  0  0  0  0  0  0  0  0  0  0
  -47.3231   60.2457   58.5355 C   0  0  0  0  0  0  0  0  0  0  0  0
  -47.0817   60.2087   65.2957 C   0  0  0  0  0  0  0  0  0  0  0  0
  -46.6865   59.7195   63.8822 C   0  0  0  0  0  0  0  0  0  0  0  0
  -45.1887   62.4766   61.9048 C   0  0  0  0  0  0  0  0  0  0  0  0
  -43.8288   62.1390   61.9105 C   0  0  0  0  0  0  0  0  0  0  0  0
  -46.1221   61.6639   62.5589 C   0  0  0  0  0  0  0  0  0  0  0  0
  -43.4272   60.9840   62.5815 C   0  0  0  0  0  0  0  0  0  0  0  0
  -44.3610   60.1835   63.2373 C   0  0  0  0  0  0  0  0  0  0  0  0
  -45.7198   60.5227   63.2620 C   0  0  0  0  0  0  0  0  0  0  0  0
  -42.1321   60.5868   62.6317 O   0  0  0  0  0  0  0  0  0  0  0  0
  -43.9210   59.0673   63.8872 O   0  0  0  0  0  0  0  0  0  0  0  0
  -41.4697   61.0939   62.2051 H   0  0  0  0  0  0  0  0  0  0  0  0
  -43.0116   58.8426   63.8692 H   0  0  0  0  0  0  0  0  0  0  0  0
 12 13  1  0  0  0
  9 10  2  0  0  0
  9  8  1  0  0  0
  6  7  2  0  0  0
  6  8  1  0  0  0
 10 11  1  0  0  0
  7  5  1  0  0  0
 16 17  2  0  0  0
 16 18  1  0  0  0
 17 19  1  0  0  0
 18 21  2  0  0  0
 13 11  1  0  0  0
  5  4  1  0  0  0
  4  3  1  0  0  0
  3  2  1  0  0  0
  2  1  1  0  0  0
  1 14  1  0  0  0
 14 15  1  0  0  0
 15 21  1  0  0  0
 19 20  2  0  0  0
 19 22  1  0  0  0
 20 21  1  0  0  0
 20 23  1  0  0  0
 22 24  1  0  0  0
 23 25  1  0  0  0
M  END
> <minimizedAffinity>
-7.18624

> <CNNscore>
0.3552481532

> <CNNaffinity>
6.1824941635

> <CNN_VS>
2.1963195801

> <CNNaffinity_variance>
0.1522232294

$$$$
/media/chris/experiments/cd1a-new-docking/inputs/ligands/5j1a_ligand.pdb


 25 25  0  0  0  0  0  0  0  0999 V2000
  -37.7154   60.0696   61.3762 C   0  0  0  0  0  0  0  0  0  0  0  0
  -39.1528   60.0581   60.8349 C   0  0  0  0  0  0  0  0  0  0  0  0
  -39.7388   58.6552   60.9148 C   0  0  0  0  0  0  0  0  0  0  0  0
  -38.6099   57.6444   61.1196 C   0  0  0  0  0  0  0  0  0  0  0  0
  -38.9733   56.6683   62.2384 C   0  0  0  0  0  0  0  0  0  0  0  0
  -38.2614   57.7497   64.5622 C   0  0  0  0  0  0  0  0  0  0  0  0
  -39.3270   57.4900   63.4793 C   0  0  0  0  0  0  0  0  0  0  0  0
  -36.8674   57.1061   64.5070 C   0  0  0  0  0  0  0  0  0  0  0  0
  -35.8553   58.2359   64.2674 C   0  0  0  0  0  0  0  0  0  0  0  0
  -34.9724   58.2888   62.9977 C   0  0  0  0  0  0  0  0  0  0  0  0
  -35.0854   57.2286   61.8848 C   0  0  0  0  0  0  0  0  0  0  0  0
  -32.6121   57.5181   62.3608 C   0  0  0  0  0  0  0  0  0  0  0  0
  -33.6659   56.7336   61.5754 C   0  0  0  0  0  0  0  0  0  0  0  0
  -37.3544   61.3750   62.1315 C   0  0  0  0  0  0  0  0  0  0  0  0
  -37.5533   61.2673   63.6620 C   0  0  0  0  0  0  0  0  0  0  0  0
  -34.1205   62.4037   64.4860 C   0  0  0  0  0  0  0  0  0  0  0  0
  -34.2154   62.6571   65.8608 C   0  0  0  0  0  0  0  0  0  0  0  0
  -35.2330   61.9410   63.7735 C   0  0  0  0  0  0  0  0  0  0  0  0
  -35.4368   62.4430   66.4995 C   0  0  0  0  0  0  0  0  0  0  0  0
  -36.5426   61.9896   65.7824 C   0  0  0  0  0  0  0  0  0  0  0  0
  -36.4692   61.7571   64.4030 C   0  0  0  0  0  0  0  0  0  0  0  0
  -35.6105   62.6616   67.8260 O   0  0  0  0  0  0  0  0  0  0  0  0
  -37.7191   61.8019   66.4477 O   0  0  0  0  0  0  0  0  0  0  0  0
  -34.8947   62.9667   68.3482 H   0  0  0  0  0  0  0  0  0  0  0  0
  -37.7656   61.9581   67.3703 H   0  0  0  0  0  0  0  0  0  0  0  0
 12 13  1  0  0  0
  9 10  2  0  0  0
  9  8  1  0  0  0
  6  7  2  0  0  0
  6  8  1  0  0  0
 10 11  1  0  0  0
  7  5  1  0  0  0
 16 17  2  0  0  0
 16 18  1  0  0  0
 17 19  1  0  0  0
 18 21  2  0  0  0
 13 11  1  0  0  0
  5  4  1  0  0  0
  4  3  1  0  0  0
  3  2  1  0  0  0
  2  1  1  0  0  0
  1 14  1  0  0  0
 14 15  1  0  0  0
 15 21  1  0  0  0
 19 20  2  0  0  0
 19 22  1  0  0  0
 20 21  1  0  0  0
 20 23  1  0  0  0
 22 24  1  0  0  0
 23 25  1  0  0  0
M  END
> <minimizedAffinity>
-7.21722

> <CNNscore>
0.3448544145

> <CNNaffinity>
6.1292634010

> <CNN_VS>
2.1137034893

> <CNNaffinity_variance>
0.0975397453

$$$$
/media/chris/experiments/cd1a-new-docking/inputs/ligands/5j1a_ligand.pdb


 25 25  0  0  0  0  0  0  0  0999 V2000
  -46.0772   59.9217   60.6930 C   0  0  0  0  0  0  0  0  0  0  0  0
  -45.1094   60.2558   61.8379 C   0  0  0  0  0  0  0  0  0  0  0  0
  -45.2810   61.7051   62.2720 C   0  0  0  0  0  0  0  0  0  0  0  0
  -45.9070   61.7467   63.6663 C   0  0  0  0  0  0  0  0  0  0  0  0
  -46.2286   60.3300   64.1419 C   0  0  0  0  0  0  0  0  0  0  0  0
  -45.2049   58.7668   66.0351 C   0  0  0  0  0  0  0  0  0  0  0  0
  -45.6376   60.1617   65.5428 C   0  0  0  0  0  0  0  0  0  0  0  0
  -45.4570   57.4953   65.2104 C   0  0  0  0  0  0  0  0  0  0  0  0
  -46.3658   56.5839   66.0481 C   0  0  0  0  0  0  0  0  0  0  0  0
  -47.9087   56.6564   65.9543 C   0  0  0  0  0  0  0  0  0  0  0  0
  -48.6193   57.6237   64.9875 C   0  0  0  0  0  0  0  0  0  0  0  0
  -49.2184   59.6611   66.3723 C   0  0  0  0  0  0  0  0  0  0  0  0
  -49.7197   58.3412   65.7812 C   0  0  0  0  0  0  0  0  0  0  0  0
  -47.0288   61.0918   60.3324 C   0  0  0  0  0  0  0  0  0  0  0  0
  -48.2834   60.6368   59.5499 C   0  0  0  0  0  0  0  0  0  0  0  0
  -50.5227   59.5166   62.2859 C   0  0  0  0  0  0  0  0  0  0  0  0
  -50.8203   58.2017   61.9042 C   0  0  0  0  0  0  0  0  0  0  0  0
  -49.6789   60.3082   61.4980 C   0  0  0  0  0  0  0  0  0  0  0  0
  -50.2636   57.7028   60.7266 C   0  0  0  0  0  0  0  0  0  0  0  0
  -49.4305   58.4992   59.9427 C   0  0  0  0  0  0  0  0  0  0  0  0
  -49.1453   59.8237   60.2984 C   0  0  0  0  0  0  0  0  0  0  0  0
  -50.4997   56.4416   60.2894 O   0  0  0  0  0  0  0  0  0  0  0  0
  -48.9149   57.9714   58.7949 O   0  0  0  0  0  0  0  0  0  0  0  0
  -51.0536   55.8703   60.7841 H   0  0  0  0  0  0  0  0  0  0  0  0
  -49.1072   57.0852   58.5591 H   0  0  0  0  0  0  0  0  0  0  0  0
 12 13  1  0  0  0
  9 10  2  0  0  0
  9  8  1  0  0  0
  6  7  2  0  0  0
  6  8  1  0  0  0
 10 11  1  0  0  0
  7  5  1  0  0  0
 16 17  2  0  0  0
 16 18  1  0  0  0
 17 19  1  0  0  0
 18 21  2  0  0  0
 13 11  1  0  0  0
  5  4  1  0  0  0
  4  3  1  0  0  0
  3  2  1  0  0  0
  2  1  1  0  0  0
  1 14  1  0  0  0
 14 15  1  0  0  0
 15 21  1  0  0  0
 19 20  2  0  0  0
 19 22  1  0  0  0
 20 21  1  0  0  0
 20 23  1  0  0  0
 22 24  1  0  0  0
 23 25  1  0  0  0
M  END
> <minimizedAffinity>
-7.17677

> <CNNscore>
0.3315463960

> <CNNaffinity>
6.3538427353

> <CNN_VS>
2.1065936089

> <CNNaffinity_variance>
0.2878258824

$$$$
/media/chris/experiments/cd1a-new-docking/inputs/ligands/5j1a_ligand.pdb


 25 25  0  0  0  0  0  0  0  0999 V2000
  -44.7401   59.9876   63.2596 C   0  0  0  0  0  0  0  0  0  0  0  0
  -45.8582   60.8532   62.6598 C   0  0  0  0  0  0  0  0  0  0  0  0
  -46.5905   60.0900   61.5646 C   0  0  0  0  0  0  0  0  0  0  0  0
  -47.8174   60.8884   61.1228 C   0  0  0  0  0  0  0  0  0  0  0  0
  -47.8405   61.0192   59.6000 C   0  0  0  0  0  0  0  0  0  0  0  0
  -48.2092   58.5695   58.6311 C   0  0  0  0  0  0  0  0  0  0  0  0
  -47.2675   59.7288   59.0112 C   0  0  0  0  0  0  0  0  0  0  0  0
  -49.7147   58.6072   58.9350 C   0  0  0  0  0  0  0  0  0  0  0  0
  -50.0225   57.4146   59.8521 C   0  0  0  0  0  0  0  0  0  0  0  0
  -50.5313   57.6056   61.3010 C   0  0  0  0  0  0  0  0  0  0  0  0
  -50.7920   59.0047   61.8927 C   0  0  0  0  0  0  0  0  0  0  0  0
  -51.0134   60.0849   64.1757 C   0  0  0  0  0  0  0  0  0  0  0  0
  -50.3481   58.9725   63.3616 C   0  0  0  0  0  0  0  0  0  0  0  0
  -44.5215   60.2313   64.7754 C   0  0  0  0  0  0  0  0  0  0  0  0
  -44.5312   58.9280   65.6088 C   0  0  0  0  0  0  0  0  0  0  0  0
  -48.1761   58.7194   66.2621 C   0  0  0  0  0  0  0  0  0  0  0  0
  -48.4044   57.3375   66.2227 C   0  0  0  0  0  0  0  0  0  0  0  0
  -46.8882   59.2296   66.0604 C   0  0  0  0  0  0  0  0  0  0  0  0
  -47.3273   56.4865   65.9759 C   0  0  0  0  0  0  0  0  0  0  0  0
  -46.0490   57.0017   65.7681 C   0  0  0  0  0  0  0  0  0  0  0  0
  -45.8108   58.3820   65.7788 C   0  0  0  0  0  0  0  0  0  0  0  0
  -47.4639   55.1387   65.9244 O   0  0  0  0  0  0  0  0  0  0  0  0
  -45.0271   56.1315   65.5223 O   0  0  0  0  0  0  0  0  0  0  0  0
  -48.3048   54.7476   66.0581 H   0  0  0  0  0  0  0  0  0  0  0  0
  -45.1890   55.2087   65.5157 H   0  0  0  0  0  0  0  0  0  0  0  0
 12 13  1  0  0  0
  9 10  2  0  0  0
  9  8  1  0  0  0
  6  7  2  0  0  0
  6  8  1  0  0  0
 10 11  1  0  0  0
  7  5  1  0  0  0
 16 17  2  0  0  0
 16 18  1  0  0  0
 17 19  1  0  0  0
 18 21  2  0  0  0
 13 11  1  0  0  0
  5  4  1  0  0  0
  4  3  1  0  0  0
  3  2  1  0  0  0
  2  1  1  0  0  0
  1 14  1  0  0  0
 14 15  1  0  0  0
 15 21  1  0  0  0
 19 20  2  0  0  0
 19 22  1  0  0  0
 20 21  1  0  0  0
 20 23  1  0  0  0
 22 24  1  0  0  0
 23 25  1  0  0  0
M  END
> <minimizedAffinity>
-7.40412

> <CNNscore>
0.3165206313

> <CNNaffinity>
6.4617109299

> <CNN_VS>
2.0452647209

> <CNNaffinity_variance>
0.2797919810

$$$$
/media/chris/experiments/cd1a-new-docking/inputs/ligands/5j1a_ligand.pdb


 25 25  0  0  0  0  0  0  0  0999 V2000
  -48.3097   58.6259   66.1958 C   0  0  0  0  0  0  0  0  0  0  0  0
  -49.6535   58.3771   65.4946 C   0  0  0  0  0  0  0  0  0  0  0  0
  -50.5990   59.5473   65.7288 C   0  0  0  0  0  0  0  0  0  0  0  0
  -50.9334   60.2056   64.3898 C   0  0  0  0  0  0  0  0  0  0  0  0
  -50.5670   59.2709   63.2372 C   0  0  0  0  0  0  0  0  0  0  0  0
  -48.8193   59.5965   61.2584 C   0  0  0  0  0  0  0  0  0  0  0  0
  -49.9923   60.1260   62.1064 C   0  0  0  0  0  0  0  0  0  0  0  0
  -48.1095   58.2730   61.5825 C   0  0  0  0  0  0  0  0  0  0  0  0
  -46.6014   58.5618   61.6098 C   0  0  0  0  0  0  0  0  0  0  0  0
  -45.6448   58.0237   60.5190 C   0  0  0  0  0  0  0  0  0  0  0  0
  -46.1583   57.1972   59.3238 C   0  0  0  0  0  0  0  0  0  0  0  0
  -47.1468   59.1680   58.0721 C   0  0  0  0  0  0  0  0  0  0  0  0
  -46.0643   58.0859   58.0760 C   0  0  0  0  0  0  0  0  0  0  0  0
  -47.1058   58.6652   65.2191 C   0  0  0  0  0  0  0  0  0  0  0  0
  -46.0610   59.7461   65.5845 C   0  0  0  0  0  0  0  0  0  0  0  0
  -46.3603   62.1254   62.7553 C   0  0  0  0  0  0  0  0  0  0  0  0
  -45.0506   62.1598   62.2587 C   0  0  0  0  0  0  0  0  0  0  0  0
  -46.6793   61.3191   63.8542 C   0  0  0  0  0  0  0  0  0  0  0  0
  -44.0762   61.3803   62.8820 C   0  0  0  0  0  0  0  0  0  0  0  0
  -44.3990   60.5857   63.9807 C   0  0  0  0  0  0  0  0  0  0  0  0
  -45.6982   60.5615   64.5039 C   0  0  0  0  0  0  0  0  0  0  0  0
  -42.7878   61.3556   62.4614 O   0  0  0  0  0  0  0  0  0  0  0  0
  -43.4114   59.8460   64.5631 O   0  0  0  0  0  0  0  0  0  0  0  0
  -42.5249   61.8738   61.7264 H   0  0  0  0  0  0  0  0  0  0  0  0
  -42.5433   59.8639   64.2113 H   0  0  0  0  0  0  0  0  0  0  0  0
 12 13  1  0  0  0
  9 10  2  0  0  0
  9  8  1  0  0  0
  6  7  2  0  0  0
  6  8  1  0  0  0
 10 11  1  0  0  0
  7  5  1  0  0  0
 16 17  2  0  0  0
 16 18  1  0  0  0
 17 19  1  0  0  0
 18 21  2  0  0  0
 13 11  1  0  0  0
  5  4  1  0  0  0
  4  3  1  0  0  0
  3  2  1  0  0  0
  2  1  1  0  0  0
  1 14  1  0  0  0
 14 15  1  0  0  0
 15 21  1  0  0  0
 19 20  2  0  0  0
 19 22  1  0  0  0
 20 21  1  0  0  0
 20 23  1  0  0  0
 22 24  1  0  0  0
 23 25  1  0  0  0
M  END
> <minimizedAffinity>
-7.28864

> <CNNscore>
0.3085181415

> <CNNaffinity>
6.0752377510

> <CNN_VS>
1.8743211031

> <CNNaffinity_variance>
0.2808240056

$$$$
/media/chris/experiments/cd1a-new-docking/inputs/ligands/5j1a_ligand.pdb


 25 25  0  0  0  0  0  0  0  0999 V2000
  -46.7740   61.2022   62.5511 C   0  0  0  0  0  0  0  0  0  0  0  0
  -47.5718   60.3289   61.5713 C   0  0  0  0  0  0  0  0  0  0  0  0
  -47.8238   61.0827   60.2727 C   0  0  0  0  0  0  0  0  0  0  0  0
  -47.4567   60.1891   59.0875 C   0  0  0  0  0  0  0  0  0  0  0  0
  -46.3930   59.1732   59.5033 C   0  0  0  0  0  0  0  0  0  0  0  0
  -47.5649   56.8507   58.9476 C   0  0  0  0  0  0  0  0  0  0  0  0
  -46.5390   57.9472   58.6001 C   0  0  0  0  0  0  0  0  0  0  0  0
  -48.3783   56.8769   60.2507 C   0  0  0  0  0  0  0  0  0  0  0  0
  -49.8459   57.1123   59.8647 C   0  0  0  0  0  0  0  0  0  0  0  0
  -50.8668   57.7176   60.8577 C   0  0  0  0  0  0  0  0  0  0  0  0
  -50.4586   58.1517   62.2791 C   0  0  0  0  0  0  0  0  0  0  0  0
  -50.8961   59.9706   63.9902 C   0  0  0  0  0  0  0  0  0  0  0  0
  -51.0851   59.5289   62.5370 C   0  0  0  0  0  0  0  0  0  0  0  0
  -45.7380   60.4023   63.3827 C   0  0  0  0  0  0  0  0  0  0  0  0
  -45.8203   58.8749   63.1506 C   0  0  0  0  0  0  0  0  0  0  0  0
  -48.1432   57.3135   65.5839 C   0  0  0  0  0  0  0  0  0  0  0  0
  -47.2633   56.8130   66.5527 C   0  0  0  0  0  0  0  0  0  0  0  0
  -47.6502   57.9965   64.4658 C   0  0  0  0  0  0  0  0  0  0  0  0
  -45.8930   57.0057   66.3777 C   0  0  0  0  0  0  0  0  0  0  0  0
  -45.4085   57.6798   65.2580 C   0  0  0  0  0  0  0  0  0  0  0  0
  -46.2747   58.1626   64.2688 C   0  0  0  0  0  0  0  0  0  0  0  0
  -44.9768   56.5551   67.2695 O   0  0  0  0  0  0  0  0  0  0  0  0
  -44.0597   57.8378   65.1250 O   0  0  0  0  0  0  0  0  0  0  0  0
  -45.2565   56.0964   68.0372 H   0  0  0  0  0  0  0  0  0  0  0  0
  -43.4824   57.5140   65.7880 H   0  0  0  0  0  0  0  0  0  0  0  0
 12 13  1  0  0  0
  9 10  2  0  0  0
  9  8  1  0  0  0
  6  7  2  0  0  0
  6  8  1  0  0  0
 10 11  1  0  0  0
  7  5  1  0  0  0
 16 17  2  0  0  0
 16 18  1  0  0  0
 17 19  1  0  0  0
 18 21  2  0  0  0
 13 11  1  0  0  0
  5  4  1  0  0  0
  4  3  1  0  0  0
  3  2  1  0  0  0
  2  1  1  0  0  0
  1 14  1  0  0  0
 14 15  1  0  0  0
 15 21  1  0  0  0
 19 20  2  0  0  0
 19 22  1  0  0  0
 20 21  1  0  0  0
 20 23  1  0  0  0
 22 24  1  0  0  0
 23 25  1  0  0  0
M  END
> <minimizedAffinity>
-7.31373

> <CNNscore>
0.2845061123

> <CNNaffinity>
6.3821725845

> <CNN_VS>
1.8157671690

> <CNNaffinity_variance>
0.1476231366

$$$$
