/media/chris/experiments/cd1a-new-docking/inputs/ligands/5j1a_ligand.pdb


 25 25  0  0  0  0  0  0  0  0999 V2000
  -48.9976   59.4115   66.3622 C   0  0  0  0  0  0  0  0  0  0  0  0
  -50.4123   59.4586   65.7661 C   0  0  0  0  0  0  0  0  0  0  0  0
  -50.3534   59.8147   64.2870 C   0  0  0  0  0  0  0  0  0  0  0  0
  -50.1001   58.5476   63.4695 C   0  0  0  0  0  0  0  0  0  0  0  0
  -50.4984   58.7732   62.0111 C   0  0  0  0  0  0  0  0  0  0  0  0
  -49.2540   60.3576   60.2739 C   0  0  0  0  0  0  0  0  0  0  0  0
  -50.0103   60.1643   61.6029 C   0  0  0  0  0  0  0  0  0  0  0  0
  -48.8558   59.1721   59.3813 C   0  0  0  0  0  0  0  0  0  0  0  0
  -47.4468   59.4624   58.8437 C   0  0  0  0  0  0  0  0  0  0  0  0
  -46.8861   58.7504   57.5894 C   0  0  0  0  0  0  0  0  0  0  0  0
  -47.7249   57.7355   56.7882 C   0  0  0  0  0  0  0  0  0  0  0  0
  -47.2334   55.6234   58.1019 C   0  0  0  0  0  0  0  0  0  0  0  0
  -46.9713   56.3987   56.8084 C   0  0  0  0  0  0  0  0  0  0  0  0
  -48.0925   60.5782   65.8881 C   0  0  0  0  0  0  0  0  0  0  0  0
  -46.6126   60.1654   65.7070 C   0  0  0  0  0  0  0  0  0  0  0  0
  -46.4035   61.5238   62.2623 C   0  0  0  0  0  0  0  0  0  0  0  0
  -45.0793   61.2315   61.9097 C   0  0  0  0  0  0  0  0  0  0  0  0
  -46.8968   61.1614   63.5214 C   0  0  0  0  0  0  0  0  0  0  0  0
  -44.2670   60.5786   62.8365 C   0  0  0  0  0  0  0  0  0  0  0  0
  -44.7621   60.2277   64.0913 C   0  0  0  0  0  0  0  0  0  0  0  0
  -46.0757   60.5367   64.4668 C   0  0  0  0  0  0  0  0  0  0  0  0
  -42.9766   60.2581   62.5720 O   0  0  0  0  0  0  0  0  0  0  0  0
  -43.9285   59.5972   64.9684 O   0  0  0  0  0  0  0  0  0  0  0  0
  -42.6008   60.4745   61.7414 H   0  0  0  0  0  0  0  0  0  0  0  0
  -43.0503   59.3916   64.7146 H   0  0  0  0  0  0  0  0  0  0  0  0
 12 13  1  0  0  0
  9 10  2  0  0  0
  9  8  1  0  0  0
  6  7  2  0  0  0
  6  8  1  0  0  0
 10 11  1  0  0  0
  7  5  1  0  0  0
 16 17  2  0  0  0
 16 18  1  0  0  0
 17 19  1  0  0  0
 18 21  2  0  0  0
 13 11  1  0  0  0
  5  4  1  0  0  0
  4  3  1  0  0  0
  3  2  1  0  0  0
  2  1  1  0  0  0
  1 14  1  0  0  0
 14 15  1  0  0  0
 15 21  1  0  0  0
 19 20  2  0  0  0
 19 22  1  0  0  0
 20 21  1  0  0  0
 20 23  1  0  0  0
 22 24  1  0  0  0
 23 25  1  0  0  0
M  END
> <minimizedAffinity>
-7.78217

> <CNNscore>
0.5770088434

> <CNNaffinity>
6.4465980530

> <CNN_VS>
3.7197442055

> <CNNaffinity_variance>
0.0627991930

$$$$
/media/chris/experiments/cd1a-new-docking/inputs/ligands/5j1a_ligand.pdb


 25 25  0  0  0  0  0  0  0  0999 V2000
  -48.5828   59.8854   65.0319 C   0  0  0  0  0  0  0  0  0  0  0  0
  -49.6902   59.5659   64.0167 C   0  0  0  0  0  0  0  0  0  0  0  0
  -49.3534   58.2970   63.2456 C   0  0  0  0  0  0  0  0  0  0  0  0
  -50.4330   58.0405   62.1937 C   0  0  0  0  0  0  0  0  0  0  0  0
  -49.8349   57.3081   60.9927 C   0  0  0  0  0  0  0  0  0  0  0  0
  -49.8262   57.6913   58.3604 C   0  0  0  0  0  0  0  0  0  0  0  0
  -50.5126   57.8467   59.7316 C   0  0  0  0  0  0  0  0  0  0  0  0
  -48.4090   57.1154   58.2174 C   0  0  0  0  0  0  0  0  0  0  0  0
  -47.6364   58.0423   57.2674 C   0  0  0  0  0  0  0  0  0  0  0  0
  -46.8677   59.2837   57.7800 C   0  0  0  0  0  0  0  0  0  0  0  0
  -46.8050   59.6389   59.2784 C   0  0  0  0  0  0  0  0  0  0  0  0
  -48.5987   60.8536   60.5958 C   0  0  0  0  0  0  0  0  0  0  0  0
  -47.5665   60.9576   59.4704 C   0  0  0  0  0  0  0  0  0  0  0  0
  -47.4899   60.8318   64.4706 C   0  0  0  0  0  0  0  0  0  0  0  0
  -46.1116   60.1461   64.3172 C   0  0  0  0  0  0  0  0  0  0  0  0
  -44.7164   62.5069   61.8202 C   0  0  0  0  0  0  0  0  0  0  0  0
  -43.3409   62.4272   62.0751 C   0  0  0  0  0  0  0  0  0  0  0  0
  -45.6200   61.7431   62.5686 C   0  0  0  0  0  0  0  0  0  0  0  0
  -42.8945   61.5781   63.0874 C   0  0  0  0  0  0  0  0  0  0  0  0
  -43.8002   60.8264   63.8341 C   0  0  0  0  0  0  0  0  0  0  0  0
  -45.1796   60.9155   63.6076 C   0  0  0  0  0  0  0  0  0  0  0  0
  -41.5811   61.4424   63.3944 O   0  0  0  0  0  0  0  0  0  0  0  0
  -43.3181   60.0152   64.8196 O   0  0  0  0  0  0  0  0  0  0  0  0
  -40.9361   61.9281   62.9190 H   0  0  0  0  0  0  0  0  0  0  0  0
  -42.3949   59.9573   64.9690 H   0  0  0  0  0  0  0  0  0  0  0  0
 12 13  1  0  0  0
  9 10  2  0  0  0
  9  8  1  0  0  0
  6  7  2  0  0  0
  6  8  1  0  0  0
 10 11  1  0  0  0
  7  5  1  0  0  0
 16 17  2  0  0  0
 16 18  1  0  0  0
 17 19  1  0  0  0
 18 21  2  0  0  0
 13 11  1  0  0  0
  5  4  1  0  0  0
  4  3  1  0  0  0
  3  2  1  0  0  0
  2  1  1  0  0  0
  1 14  1  0  0  0
 14 15  1  0  0  0
 15 21  1  0  0  0
 19 20  2  0  0  0
 19 22  1  0  0  0
 20 21  1  0  0  0
 20 23  1  0  0  0
 22 24  1  0  0  0
 23 25  1  0  0  0
M  END
> <minimizedAffinity>
-7.67263

> <CNNscore>
0.5547603965

> <CNNaffinity>
6.3139328957

> <CNN_VS>
3.5027198792

> <CNNaffinity_variance>
0.0978310481

$$$$
/media/chris/experiments/cd1a-new-docking/inputs/ligands/5j1a_ligand.pdb


 25 25  0  0  0  0  0  0  0  0999 V2000
  -47.9013   60.6566   61.2552 C   0  0  0  0  0  0  0  0  0  0  0  0
  -46.3697   60.7488   61.3240 C   0  0  0  0  0  0  0  0  0  0  0  0
  -45.9416   62.1361   61.7823 C   0  0  0  0  0  0  0  0  0  0  0  0
  -45.5171   62.0774   63.2501 C   0  0  0  0  0  0  0  0  0  0  0  0
  -46.6218   61.4403   64.0928 C   0  0  0  0  0  0  0  0  0  0  0  0
  -46.8016   59.7931   66.1739 C   0  0  0  0  0  0  0  0  0  0  0  0
  -45.9610   60.4701   65.0736 C   0  0  0  0  0  0  0  0  0  0  0  0
  -48.2777   60.1489   66.4087 C   0  0  0  0  0  0  0  0  0  0  0  0
  -49.0930   58.8647   66.1973 C   0  0  0  0  0  0  0  0  0  0  0  0
  -50.4327   58.8635   65.4228 C   0  0  0  0  0  0  0  0  0  0  0  0
  -51.0059   60.1461   64.7890 C   0  0  0  0  0  0  0  0  0  0  0  0
  -50.4951   58.5872   62.8559 C   0  0  0  0  0  0  0  0  0  0  0  0
  -50.8438   60.0194   63.2681 C   0  0  0  0  0  0  0  0  0  0  0  0
  -48.4607   60.7993   59.8158 C   0  0  0  0  0  0  0  0  0  0  0  0
  -49.1941   59.5308   59.3195 C   0  0  0  0  0  0  0  0  0  0  0  0
  -46.4268   58.2002   57.2394 C   0  0  0  0  0  0  0  0  0  0  0  0
  -46.6672   56.8203   57.2763 C   0  0  0  0  0  0  0  0  0  0  0  0
  -47.2743   59.0843   57.9180 C   0  0  0  0  0  0  0  0  0  0  0  0
  -47.7606   56.3491   58.0026 C   0  0  0  0  0  0  0  0  0  0  0  0
  -48.5957   57.2341   58.6825 C   0  0  0  0  0  0  0  0  0  0  0  0
  -48.3525   58.6136   58.6757 C   0  0  0  0  0  0  0  0  0  0  0  0
  -48.0627   55.0302   58.0859 O   0  0  0  0  0  0  0  0  0  0  0  0
  -49.6487   56.7269   59.3864 O   0  0  0  0  0  0  0  0  0  0  0  0
  -47.5293   54.3985   57.6450 H   0  0  0  0  0  0  0  0  0  0  0  0
  -49.8092   55.8038   59.3891 H   0  0  0  0  0  0  0  0  0  0  0  0
 12 13  1  0  0  0
  9 10  2  0  0  0
  9  8  1  0  0  0
  6  7  2  0  0  0
  6  8  1  0  0  0
 10 11  1  0  0  0
  7  5  1  0  0  0
 16 17  2  0  0  0
 16 18  1  0  0  0
 17 19  1  0  0  0
 18 21  2  0  0  0
 13 11  1  0  0  0
  5  4  1  0  0  0
  4  3  1  0  0  0
  3  2  1  0  0  0
  2  1  1  0  0  0
  1 14  1  0  0  0
 14 15  1  0  0  0
 15 21  1  0  0  0
 19 20  2  0  0  0
 19 22  1  0  0  0
 20 21  1  0  0  0
 20 23  1  0  0  0
 22 24  1  0  0  0
 23 25  1  0  0  0
M  END
> <minimizedAffinity>
-8.27169

> <CNNscore>
0.5194091201

> <CNNaffinity>
6.6964316368

> <CNN_VS>
3.4781875610

> <CNNaffinity_variance>
0.1701797396

$$$$
/media/chris/experiments/cd1a-new-docking/inputs/ligands/5j1a_ligand.pdb


 25 25  0  0  0  0  0  0  0  0999 V2000
  -49.0544   58.2453   61.7729 C   0  0  0  0  0  0  0  0  0  0  0  0
  -49.6823   59.6166   61.4828 C   0  0  0  0  0  0  0  0  0  0  0  0
  -50.9090   59.8344   62.3579 C   0  0  0  0  0  0  0  0  0  0  0  0
  -50.7036   59.1366   63.7028 C   0  0  0  0  0  0  0  0  0  0  0  0
  -50.8556   60.1403   64.8456 C   0  0  0  0  0  0  0  0  0  0  0  0
  -48.8685   59.8434   66.5891 C   0  0  0  0  0  0  0  0  0  0  0  0
  -50.2923   59.4948   66.1129 C   0  0  0  0  0  0  0  0  0  0  0  0
  -47.9276   60.7359   65.7652 C   0  0  0  0  0  0  0  0  0  0  0  0
  -47.1638   59.8191   64.7985 C   0  0  0  0  0  0  0  0  0  0  0  0
  -46.4166   60.3737   63.5620 C   0  0  0  0  0  0  0  0  0  0  0  0
  -46.3677   61.8825   63.2515 C   0  0  0  0  0  0  0  0  0  0  0  0
  -46.5927   61.2677   60.8021 C   0  0  0  0  0  0  0  0  0  0  0  0
  -45.7808   62.0431   61.8425 C   0  0  0  0  0  0  0  0  0  0  0  0
  -49.5474   57.1295   60.8153 C   0  0  0  0  0  0  0  0  0  0  0  0
  -49.7706   57.6253   59.3670 C   0  0  0  0  0  0  0  0  0  0  0  0
  -46.7592   58.7232   57.5012 C   0  0  0  0  0  0  0  0  0  0  0  0
  -46.3346   57.5316   56.8988 C   0  0  0  0  0  0  0  0  0  0  0  0
  -47.9002   58.7384   58.3124 C   0  0  0  0  0  0  0  0  0  0  0  0
  -47.0669   56.3668   57.1267 C   0  0  0  0  0  0  0  0  0  0  0  0
  -48.1975   56.3872   57.9419 C   0  0  0  0  0  0  0  0  0  0  0  0
  -48.6186   57.5657   58.5712 C   0  0  0  0  0  0  0  0  0  0  0  0
  -46.7240   55.1749   56.5793 O   0  0  0  0  0  0  0  0  0  0  0  0
  -48.8780   55.2218   58.1425 O   0  0  0  0  0  0  0  0  0  0  0  0
  -45.9714   55.1133   56.0246 H   0  0  0  0  0  0  0  0  0  0  0  0
  -48.5942   54.4350   57.7203 H   0  0  0  0  0  0  0  0  0  0  0  0
 12 13  1  0  0  0
  9 10  2  0  0  0
  9  8  1  0  0  0
  6  7  2  0  0  0
  6  8  1  0  0  0
 10 11  1  0  0  0
  7  5  1  0  0  0
 16 17  2  0  0  0
 16 18  1  0  0  0
 17 19  1  0  0  0
 18 21  2  0  0  0
 13 11  1  0  0  0
  5  4  1  0  0  0
  4  3  1  0  0  0
  3  2  1  0  0  0
  2  1  1  0  0  0
  1 14  1  0  0  0
 14 15  1  0  0  0
 15 21  1  0  0  0
 19 20  2  0  0  0
 19 22  1  0  0  0
 20 21  1  0  0  0
 20 23  1  0  0  0
 22 24  1  0  0  0
 23 25  1  0  0  0
M  END
> <minimizedAffinity>
-8.18023

> <CNNscore>
0.4236883223

> <CNNaffinity>
6.6741003990

> <CNN_VS>
2.8277382851

> <CNNaffinity_variance>
0.0529395863

$$$$
/media/chris/experiments/cd1a-new-docking/inputs/ligands/5j1a_ligand.pdb


 25 25  0  0  0  0  0  0  0  0999 V2000
  -42.7424   60.7333   62.3561 C   0  0  0  0  0  0  0  0  0  0  0  0
  -43.5072   59.4017   62.3860 C   0  0  0  0  0  0  0  0  0  0  0  0
  -44.8882   59.5689   61.7670 C   0  0  0  0  0  0  0  0  0  0  0  0
  -45.2765   58.2825   61.0373 C   0  0  0  0  0  0  0  0  0  0  0  0
  -46.3401   58.5773   59.9798 C   0  0  0  0  0  0  0  0  0  0  0  0
  -46.9136   57.3296   57.7015 C   0  0  0  0  0  0  0  0  0  0  0  0
  -45.8800   57.9452   58.6650 C   0  0  0  0  0  0  0  0  0  0  0  0
  -48.4016   57.2132   58.0661 C   0  0  0  0  0  0  0  0  0  0  0  0
  -48.5452   56.0082   59.0073 C   0  0  0  0  0  0  0  0  0  0  0  0
  -49.5230   56.0179   60.2067 C   0  0  0  0  0  0  0  0  0  0  0  0
  -50.4340   57.2253   60.5024 C   0  0  0  0  0  0  0  0  0  0  0  0
  -50.7826   59.0784   62.1974 C   0  0  0  0  0  0  0  0  0  0  0  0
  -49.9994   57.8091   61.8536 C   0  0  0  0  0  0  0  0  0  0  0  0
  -41.2226   60.5744   62.6207 C   0  0  0  0  0  0  0  0  0  0  0  0
  -40.4045   60.3171   61.3331 C   0  0  0  0  0  0  0  0  0  0  0  0
  -39.3747   56.8139   61.9834 C   0  0  0  0  0  0  0  0  0  0  0  0
  -38.0155   56.8381   61.6443 C   0  0  0  0  0  0  0  0  0  0  0  0
  -40.1509   57.9744   61.8782 C   0  0  0  0  0  0  0  0  0  0  0  0
  -37.4566   58.0357   61.1987 C   0  0  0  0  0  0  0  0  0  0  0  0
  -38.2369   59.1855   61.0887 C   0  0  0  0  0  0  0  0  0  0  0  0
  -39.6026   59.1696   61.3995 C   0  0  0  0  0  0  0  0  0  0  0  0
  -36.1500   58.1430   60.8537 O   0  0  0  0  0  0  0  0  0  0  0  0
  -37.6488   60.3324   60.6408 O   0  0  0  0  0  0  0  0  0  0  0  0
  -35.5873   57.3960   60.9116 H   0  0  0  0  0  0  0  0  0  0  0  0
  -36.7351   60.3403   60.4338 H   0  0  0  0  0  0  0  0  0  0  0  0
 12 13  1  0  0  0
  9 10  2  0  0  0
  9  8  1  0  0  0
  6  7  2  0  0  0
  6  8  1  0  0  0
 10 11  1  0  0  0
  7  5  1  0  0  0
 16 17  2  0  0  0
 16 18  1  0  0  0
 17 19  1  0  0  0
 18 21  2  0  0  0
 13 11  1  0  0  0
  5  4  1  0  0  0
  4  3  1  0  0  0
  3  2  1  0  0  0
  2  1  1  0  0  0
  1 14  1  0  0  0
 14 15  1  0  0  0
 15 21  1  0  0  0
 19 20  2  0  0  0
 19 22  1  0  0  0
 20 21  1  0  0  0
 20 23  1  0  0  0
 22 24  1  0  0  0
 23 25  1  0  0  0
M  END
> <minimizedAffinity>
-8.12512

> <CNNscore>
0.4149875343

> <CNNaffinity>
6.0698719025

> <CNN_VS>
2.5189211369

> <CNNaffinity_variance>
0.1426349878

$$$$
/media/chris/experiments/cd1a-new-docking/inputs/ligands/5j1a_ligand.pdb


 25 25  0  0  0  0  0  0  0  0999 V2000
  -42.7229   61.7433   61.8216 C   0  0  0  0  0  0  0  0  0  0  0  0
  -44.1068   61.5408   62.4563 C   0  0  0  0  0  0  0  0  0  0  0  0
  -44.9926   60.7050   61.5425 C   0  0  0  0  0  0  0  0  0  0  0  0
  -46.2897   61.4637   61.2601 C   0  0  0  0  0  0  0  0  0  0  0  0
  -47.0824   60.7602   60.1587 C   0  0  0  0  0  0  0  0  0  0  0  0
  -49.5257   59.7323   60.3813 C   0  0  0  0  0  0  0  0  0  0  0  0
  -48.5701   60.9385   60.4665 C   0  0  0  0  0  0  0  0  0  0  0  0
  -49.0626   58.3579   59.8742 C   0  0  0  0  0  0  0  0  0  0  0  0
  -49.3619   58.3053   58.3689 C   0  0  0  0  0  0  0  0  0  0  0  0
  -48.4632   57.5221   57.3821 C   0  0  0  0  0  0  0  0  0  0  0  0
  -47.2368   56.7209   57.8609 C   0  0  0  0  0  0  0  0  0  0  0  0
  -45.4780   57.5940   59.4649 C   0  0  0  0  0  0  0  0  0  0  0  0
  -46.0882   57.7178   58.0666 C   0  0  0  0  0  0  0  0  0  0  0  0
  -41.7019   60.6429   62.2112 C   0  0  0  0  0  0  0  0  0  0  0  0
  -40.4697   60.5980   61.2770 C   0  0  0  0  0  0  0  0  0  0  0  0
  -39.6928   57.0363   61.9599 C   0  0  0  0  0  0  0  0  0  0  0  0
  -38.3346   56.9609   61.6239 C   0  0  0  0  0  0  0  0  0  0  0  0
  -40.3843   58.2481   61.8428 C   0  0  0  0  0  0  0  0  0  0  0  0
  -37.6912   58.1118   61.1694 C   0  0  0  0  0  0  0  0  0  0  0  0
  -38.3875   59.3131   61.0476 C   0  0  0  0  0  0  0  0  0  0  0  0
  -39.7515   59.3970   61.3551 C   0  0  0  0  0  0  0  0  0  0  0  0
  -36.3796   58.1228   60.8267 O   0  0  0  0  0  0  0  0  0  0  0  0
  -37.7187   60.4113   60.5913 O   0  0  0  0  0  0  0  0  0  0  0  0
  -35.8715   57.3383   60.8924 H   0  0  0  0  0  0  0  0  0  0  0  0
  -36.8062   60.3524   60.3864 H   0  0  0  0  0  0  0  0  0  0  0  0
 12 13  1  0  0  0
  9 10  2  0  0  0
  9  8  1  0  0  0
  6  7  2  0  0  0
  6  8  1  0  0  0
 10 11  1  0  0  0
  7  5  1  0  0  0
 16 17  2  0  0  0
 16 18  1  0  0  0
 17 19  1  0  0  0
 18 21  2  0  0  0
 13 11  1  0  0  0
  5  4  1  0  0  0
  4  3  1  0  0  0
  3  2  1  0  0  0
  2  1  1  0  0  0
  1 14  1  0  0  0
 14 15  1  0  0  0
 15 21  1  0  0  0
 19 20  2  0  0  0
 19 22  1  0  0  0
 20 21  1  0  0  0
 20 23  1  0  0  0
 22 24  1  0  0  0
 23 25  1  0  0  0
M  END
> <minimizedAffinity>
-7.95089

> <CNNscore>
0.4006006420

> <CNNaffinity>
6.0726919174

> <CNN_VS>
2.4327242374

> <CNNaffinity_variance>
0.0077687427

$$$$
/media/chris/experiments/cd1a-new-docking/inputs/ligands/5j1a_ligand.pdb


 25 25  0  0  0  0  0  0  0  0999 V2000
  -50.5023   58.0617   62.1192 C   0  0  0  0  0  0  0  0  0  0  0  0
  -51.0853   59.3803   62.6487 C   0  0  0  0  0  0  0  0  0  0  0  0
  -50.5000   59.7085   64.0154 C   0  0  0  0  0  0  0  0  0  0  0  0
  -50.0678   58.4148   64.7065 C   0  0  0  0  0  0  0  0  0  0  0  0
  -49.2770   58.7340   65.9750 C   0  0  0  0  0  0  0  0  0  0  0  0
  -46.8624   57.9090   66.7268 C   0  0  0  0  0  0  0  0  0  0  0  0
  -48.2775   57.5983   66.2011 C   0  0  0  0  0  0  0  0  0  0  0  0
  -46.3620   59.3484   66.9231 C   0  0  0  0  0  0  0  0  0  0  0  0
  -45.2246   59.5745   65.9162 C   0  0  0  0  0  0  0  0  0  0  0  0
  -45.4648   60.2603   64.5499 C   0  0  0  0  0  0  0  0  0  0  0  0
  -46.8534   60.7871   64.1383 C   0  0  0  0  0  0  0  0  0  0  0  0
  -46.9112   58.7225   62.6678 C   0  0  0  0  0  0  0  0  0  0  0  0
  -47.1604   60.2309   62.7411 C   0  0  0  0  0  0  0  0  0  0  0  0
  -50.6359   57.9049   60.5821 C   0  0  0  0  0  0  0  0  0  0  0  0
  -49.6773   56.8429   59.9933 C   0  0  0  0  0  0  0  0  0  0  0  0
  -47.4295   59.3426   58.4268 C   0  0  0  0  0  0  0  0  0  0  0  0
  -46.7111   58.5612   57.5121 C   0  0  0  0  0  0  0  0  0  0  0  0
  -48.4102   58.7597   59.2383 C   0  0  0  0  0  0  0  0  0  0  0  0
  -46.9900   57.1972   57.4309 C   0  0  0  0  0  0  0  0  0  0  0  0
  -47.9622   56.6217   58.2474 C   0  0  0  0  0  0  0  0  0  0  0  0
  -48.6698   57.3856   59.1842 C   0  0  0  0  0  0  0  0  0  0  0  0
  -46.3418   56.3736   56.5710 O   0  0  0  0  0  0  0  0  0  0  0  0
  -48.1956   55.2818   58.1385 O   0  0  0  0  0  0  0  0  0  0  0  0
  -45.6804   56.7164   56.0027 H   0  0  0  0  0  0  0  0  0  0  0  0
  -47.7209   54.7731   57.5109 H   0  0  0  0  0  0  0  0  0  0  0  0
 12 13  1  0  0  0
  9 10  2  0  0  0
  9  8  1  0  0  0
  6  7  2  0  0  0
  6  8  1  0  0  0
 10 11  1  0  0  0
  7  5  1  0  0  0
 16 17  2  0  0  0
 16 18  1  0  0  0
 17 19  1  0  0  0
 18 21  2  0  0  0
 13 11  1  0  0  0
  5  4  1  0  0  0
  4  3  1  0  0  0
  3  2  1  0  0  0
  2  1  1  0  0  0
  1 14  1  0  0  0
 14 15  1  0  0  0
 15 21  1  0  0  0
 19 20  2  0  0  0
 19 22  1  0  0  0
 20 21  1  0  0  0
 20 23  1  0  0  0
 22 24  1  0  0  0
 23 25  1  0  0  0
M  END
> <minimizedAffinity>
-7.79150

> <CNNscore>
0.3894811571

> <CNNaffinity>
6.7252807617

> <CNN_VS>
2.6193702221

> <CNNaffinity_variance>
0.1401980817

$$$$
/media/chris/experiments/cd1a-new-docking/inputs/ligands/5j1a_ligand.pdb


 25 25  0  0  0  0  0  0  0  0999 V2000
  -50.4286   58.2246   62.5611 C   0  0  0  0  0  0  0  0  0  0  0  0
  -50.2457   58.0642   61.0445 C   0  0  0  0  0  0  0  0  0  0  0  0
  -48.9515   57.3218   60.7416 C   0  0  0  0  0  0  0  0  0  0  0  0
  -49.1564   56.4205   59.5235 C   0  0  0  0  0  0  0  0  0  0  0  0
  -47.8635   55.6730   59.1979 C   0  0  0  0  0  0  0  0  0  0  0  0
  -46.7720   56.7680   57.0332 C   0  0  0  0  0  0  0  0  0  0  0  0
  -47.6768   55.7009   57.6799 C   0  0  0  0  0  0  0  0  0  0  0  0
  -46.1327   57.9008   57.8508 C   0  0  0  0  0  0  0  0  0  0  0  0
  -46.9900   59.1564   57.6340 C   0  0  0  0  0  0  0  0  0  0  0  0
  -47.2962   60.1473   58.7825 C   0  0  0  0  0  0  0  0  0  0  0  0
  -46.7276   59.9477   60.2010 C   0  0  0  0  0  0  0  0  0  0  0  0
  -46.2125   61.9963   61.6031 C   0  0  0  0  0  0  0  0  0  0  0  0
  -47.3066   61.0577   61.0887 C   0  0  0  0  0  0  0  0  0  0  0  0
  -50.8043   59.6683   62.9848 C   0  0  0  0  0  0  0  0  0  0  0  0
  -50.6964   59.9022   64.5102 C   0  0  0  0  0  0  0  0  0  0  0  0
  -47.0917   60.5751   65.0655 C   0  0  0  0  0  0  0  0  0  0  0  0
  -46.7177   59.5116   65.8975 C   0  0  0  0  0  0  0  0  0  0  0  0
  -48.4115   60.6884   64.6121 C   0  0  0  0  0  0  0  0  0  0  0  0
  -47.6842   58.5757   66.2652 C   0  0  0  0  0  0  0  0  0  0  0  0
  -48.9983   58.6989   65.8167 C   0  0  0  0  0  0  0  0  0  0  0  0
  -49.3921   59.7709   65.0058 C   0  0  0  0  0  0  0  0  0  0  0  0
  -47.4030   57.5175   67.0644 O   0  0  0  0  0  0  0  0  0  0  0  0
  -49.9114   57.7638   66.2085 O   0  0  0  0  0  0  0  0  0  0  0  0
  -46.5330   57.3943   67.3898 H   0  0  0  0  0  0  0  0  0  0  0  0
  -49.6453   57.0477   66.7509 H   0  0  0  0  0  0  0  0  0  0  0  0
 12 13  1  0  0  0
  9 10  2  0  0  0
  9  8  1  0  0  0
  6  7  2  0  0  0
  6  8  1  0  0  0
 10 11  1  0  0  0
  7  5  1  0  0  0
 16 17  2  0  0  0
 16 18  1  0  0  0
 17 19  1  0  0  0
 18 21  2  0  0  0
 13 11  1  0  0  0
  5  4  1  0  0  0
  4  3  1  0  0  0
  3  2  1  0  0  0
  2  1  1  0  0  0
  1 14  1  0  0  0
 14 15  1  0  0  0
 15 21  1  0  0  0
 19 20  2  0  0  0
 19 22  1  0  0  0
 20 21  1  0  0  0
 20 23  1  0  0  0
 22 24  1  0  0  0
 23 25  1  0  0  0
M  END
> <minimizedAffinity>
-8.18654

> <CNNscore>
0.3279998899

> <CNNaffinity>
6.2079401016

> <CNN_VS>
2.0362036228

> <CNNaffinity_variance>
0.2602768838

$$$$
/media/chris/experiments/cd1a-new-docking/inputs/ligands/5j1a_ligand.pdb


 25 25  0  0  0  0  0  0  0  0999 V2000
  -50.9356   57.5522   60.9048 C   0  0  0  0  0  0  0  0  0  0  0  0
  -49.8486   56.5359   60.5246 C   0  0  0  0  0  0  0  0  0  0  0  0
  -49.4435   56.7121   59.0676 C   0  0  0  0  0  0  0  0  0  0  0  0
  -48.4927   55.5843   58.6650 C   0  0  0  0  0  0  0  0  0  0  0  0
  -48.0180   55.7841   57.2259 C   0  0  0  0  0  0  0  0  0  0  0  0
  -47.0714   58.2660   57.0829 C   0  0  0  0  0  0  0  0  0  0  0  0
  -48.2173   57.2579   56.8680 C   0  0  0  0  0  0  0  0  0  0  0  0
  -45.7534   57.8704   57.7662 C   0  0  0  0  0  0  0  0  0  0  0  0
  -46.0454   57.7281   59.2672 C   0  0  0  0  0  0  0  0  0  0  0  0
  -46.5805   58.9085   60.1128 C   0  0  0  0  0  0  0  0  0  0  0  0
  -46.8844   60.2840   59.4873 C   0  0  0  0  0  0  0  0  0  0  0  0
  -49.2613   60.7777   60.2184 C   0  0  0  0  0  0  0  0  0  0  0  0
  -47.7769   61.0501   60.4732 C   0  0  0  0  0  0  0  0  0  0  0  0
  -50.6798   58.2431   62.2694 C   0  0  0  0  0  0  0  0  0  0  0  0
  -49.2285   58.0698   62.7765 C   0  0  0  0  0  0  0  0  0  0  0  0
  -49.8836   59.6148   66.0839 C   0  0  0  0  0  0  0  0  0  0  0  0
  -48.5964   59.9817   66.4983 C   0  0  0  0  0  0  0  0  0  0  0  0
  -50.0765   58.9859   64.8480 C   0  0  0  0  0  0  0  0  0  0  0  0
  -47.5173   59.7050   65.6592 C   0  0  0  0  0  0  0  0  0  0  0  0
  -47.7155   59.0715   64.4335 C   0  0  0  0  0  0  0  0  0  0  0  0
  -48.9933   58.6759   64.0180 C   0  0  0  0  0  0  0  0  0  0  0  0
  -46.2422   60.0298   65.9855 O   0  0  0  0  0  0  0  0  0  0  0  0
  -46.6291   58.8140   63.6493 O   0  0  0  0  0  0  0  0  0  0  0  0
  -46.0612   60.4569   66.7996 H   0  0  0  0  0  0  0  0  0  0  0  0
  -45.7754   59.0799   63.9296 H   0  0  0  0  0  0  0  0  0  0  0  0
 12 13  1  0  0  0
  9 10  2  0  0  0
  9  8  1  0  0  0
  6  7  2  0  0  0
  6  8  1  0  0  0
 10 11  1  0  0  0
  7  5  1  0  0  0
 16 17  2  0  0  0
 16 18  1  0  0  0
 17 19  1  0  0  0
 18 21  2  0  0  0
 13 11  1  0  0  0
  5  4  1  0  0  0
  4  3  1  0  0  0
  3  2  1  0  0  0
  2  1  1  0  0  0
  1 14  1  0  0  0
 14 15  1  0  0  0
 15 21  1  0  0  0
 19 20  2  0  0  0
 19 22  1  0  0  0
 20 21  1  0  0  0
 20 23  1  0  0  0
 22 24  1  0  0  0
 23 25  1  0  0  0
M  END
> <minimizedAffinity>
-7.92864

> <CNNscore>
0.3210473657

> <CNNaffinity>
6.2776870728

> <CNN_VS>
2.0154349804

> <CNNaffinity_variance>
0.1573914289

$$$$
