/media/chris/experiments/cd1a-new-docking/inputs/ligands/5j1a_ligand.pdb


 25 25  0  0  0  0  0  0  0  0999 V2000
  -48.7940   59.6124   61.7711 C   0  0  0  0  0  0  0  0  0  0  0  0
  -49.8743   58.8392   62.5420 C   0  0  0  0  0  0  0  0  0  0  0  0
  -51.0212   59.7657   62.9216 C   0  0  0  0  0  0  0  0  0  0  0  0
  -50.9947   60.0147   64.4301 C   0  0  0  0  0  0  0  0  0  0  0  0
  -50.0540   59.0211   65.1115 C   0  0  0  0  0  0  0  0  0  0  0  0
  -48.1872   60.5463   66.2362 C   0  0  0  0  0  0  0  0  0  0  0  0
  -49.4721   59.7029   66.3511 C   0  0  0  0  0  0  0  0  0  0  0  0
  -47.3830   60.6352   64.9300 C   0  0  0  0  0  0  0  0  0  0  0  0
  -45.9404   60.2219   65.2564 C   0  0  0  0  0  0  0  0  0  0  0  0
  -45.5244   58.7374   65.3910 C   0  0  0  0  0  0  0  0  0  0  0  0
  -46.5281   57.5891   65.1692 C   0  0  0  0  0  0  0  0  0  0  0  0
  -46.4101   57.4491   67.6980 C   0  0  0  0  0  0  0  0  0  0  0  0
  -46.4393   56.6593   66.3872 C   0  0  0  0  0  0  0  0  0  0  0  0
  -49.3168   60.2554   60.4604 C   0  0  0  0  0  0  0  0  0  0  0  0
  -49.6678   59.2152   59.3702 C   0  0  0  0  0  0  0  0  0  0  0  0
  -46.4506   58.4958   57.6709 C   0  0  0  0  0  0  0  0  0  0  0  0
  -46.3320   57.1098   57.8380 C   0  0  0  0  0  0  0  0  0  0  0  0
  -47.5621   59.1774   58.1808 C   0  0  0  0  0  0  0  0  0  0  0  0
  -47.3379   56.4283   58.5228 C   0  0  0  0  0  0  0  0  0  0  0  0
  -48.4381   57.1142   59.0348 C   0  0  0  0  0  0  0  0  0  0  0  0
  -48.5569   58.5031   58.8978 C   0  0  0  0  0  0  0  0  0  0  0  0
  -47.2994   55.0883   58.7245 O   0  0  0  0  0  0  0  0  0  0  0  0
  -49.3937   56.4070   59.7046 O   0  0  0  0  0  0  0  0  0  0  0  0
  -46.5790   54.5860   58.3981 H   0  0  0  0  0  0  0  0  0  0  0  0
  -49.3118   55.4780   59.7948 H   0  0  0  0  0  0  0  0  0  0  0  0
 12 13  1  0  0  0
  9 10  2  0  0  0
  9  8  1  0  0  0
  6  7  2  0  0  0
  6  8  1  0  0  0
 10 11  1  0  0  0
  7  5  1  0  0  0
 16 17  2  0  0  0
 16 18  1  0  0  0
 17 19  1  0  0  0
 18 21  2  0  0  0
 13 11  1  0  0  0
  5  4  1  0  0  0
  4  3  1  0  0  0
  3  2  1  0  0  0
  2  1  1  0  0  0
  1 14  1  0  0  0
 14 15  1  0  0  0
 15 21  1  0  0  0
 19 20  2  0  0  0
 19 22  1  0  0  0
 20 21  1  0  0  0
 20 23  1  0  0  0
 22 24  1  0  0  0
 23 25  1  0  0  0
M  END
> <minimizedAffinity>
-8.20192

> <CNNscore>
0.4394681752

> <CNNaffinity>
6.4756941795

> <CNN_VS>
2.8458614349

> <CNNaffinity_variance>
0.2838928401

$$$$
/media/chris/experiments/cd1a-new-docking/inputs/ligands/5j1a_ligand.pdb


 25 25  0  0  0  0  0  0  0  0999 V2000
  -49.0399   60.2418   61.8761 C   0  0  0  0  0  0  0  0  0  0  0  0
  -49.0863   58.7630   62.2887 C   0  0  0  0  0  0  0  0  0  0  0  0
  -50.2090   58.5263   63.2895 C   0  0  0  0  0  0  0  0  0  0  0  0
  -51.1766   59.7097   63.2563 C   0  0  0  0  0  0  0  0  0  0  0  0
  -51.1356   60.4612   64.5868 C   0  0  0  0  0  0  0  0  0  0  0  0
  -49.0717   59.7836   66.1221 C   0  0  0  0  0  0  0  0  0  0  0  0
  -50.5103   59.5325   65.6292 C   0  0  0  0  0  0  0  0  0  0  0  0
  -48.1784   60.8750   65.5124 C   0  0  0  0  0  0  0  0  0  0  0  0
  -46.8701   60.1994   65.0766 C   0  0  0  0  0  0  0  0  0  0  0  0
  -45.9407   60.8261   64.0096 C   0  0  0  0  0  0  0  0  0  0  0  0
  -46.2591   62.1824   63.3505 C   0  0  0  0  0  0  0  0  0  0  0  0
  -45.2955   60.7504   61.4933 C   0  0  0  0  0  0  0  0  0  0  0  0
  -45.6293   62.1723   61.9508 C   0  0  0  0  0  0  0  0  0  0  0  0
  -48.7259   60.4499   60.3718 C   0  0  0  0  0  0  0  0  0  0  0  0
  -49.3713   59.3782   59.4616 C   0  0  0  0  0  0  0  0  0  0  0  0
  -46.4726   58.4243   57.3537 C   0  0  0  0  0  0  0  0  0  0  0  0
  -46.5697   57.0268   57.3332 C   0  0  0  0  0  0  0  0  0  0  0  0
  -47.4095   59.1884   58.0598 C   0  0  0  0  0  0  0  0  0  0  0  0
  -47.6120   56.4166   58.0308 C   0  0  0  0  0  0  0  0  0  0  0  0
  -48.5368   57.1829   58.7382 C   0  0  0  0  0  0  0  0  0  0  0  0
  -48.4369   58.5791   58.7889 C   0  0  0  0  0  0  0  0  0  0  0  0
  -47.7773   55.0713   58.0587 O   0  0  0  0  0  0  0  0  0  0  0  0
  -49.5352   56.5420   59.4124 O   0  0  0  0  0  0  0  0  0  0  0  0
  -47.1797   54.5163   57.5976 H   0  0  0  0  0  0  0  0  0  0  0  0
  -49.5998   55.6079   59.3770 H   0  0  0  0  0  0  0  0  0  0  0  0
 12 13  1  0  0  0
  9 10  2  0  0  0
  9  8  1  0  0  0
  6  7  2  0  0  0
  6  8  1  0  0  0
 10 11  1  0  0  0
  7  5  1  0  0  0
 16 17  2  0  0  0
 16 18  1  0  0  0
 17 19  1  0  0  0
 18 21  2  0  0  0
 13 11  1  0  0  0
  5  4  1  0  0  0
  4  3  1  0  0  0
  3  2  1  0  0  0
  2  1  1  0  0  0
  1 14  1  0  0  0
 14 15  1  0  0  0
 15 21  1  0  0  0
 19 20  2  0  0  0
 19 22  1  0  0  0
 20 21  1  0  0  0
 20 23  1  0  0  0
 22 24  1  0  0  0
 23 25  1  0  0  0
M  END
> <minimizedAffinity>
-8.22861

> <CNNscore>
0.4239325821

> <CNNaffinity>
6.5263938904

> <CNN_VS>
2.7667510509

> <CNNaffinity_variance>
0.1208857149

$$$$
/media/chris/experiments/cd1a-new-docking/inputs/ligands/5j1a_ligand.pdb


 25 25  0  0  0  0  0  0  0  0999 V2000
  -49.7427   59.5566   65.1231 C   0  0  0  0  0  0  0  0  0  0  0  0
  -51.0555   60.1528   64.5938 C   0  0  0  0  0  0  0  0  0  0  0  0
  -51.1775   59.9200   63.0941 C   0  0  0  0  0  0  0  0  0  0  0  0
  -50.4124   58.6521   62.7133 C   0  0  0  0  0  0  0  0  0  0  0  0
  -50.7093   58.2734   61.2624 C   0  0  0  0  0  0  0  0  0  0  0  0
  -49.2917   56.8256   59.5389 C   0  0  0  0  0  0  0  0  0  0  0  0
  -49.9136   57.0080   60.9373 C   0  0  0  0  0  0  0  0  0  0  0  0
  -49.5423   57.8231   58.3974 C   0  0  0  0  0  0  0  0  0  0  0  0
  -48.2929   57.8139   57.5045 C   0  0  0  0  0  0  0  0  0  0  0  0
  -47.0975   58.7632   57.7589 C   0  0  0  0  0  0  0  0  0  0  0  0
  -47.0792   59.7466   58.9455 C   0  0  0  0  0  0  0  0  0  0  0  0
  -45.6708   57.7595   59.6495 C   0  0  0  0  0  0  0  0  0  0  0  0
  -46.3447   59.0567   60.1031 C   0  0  0  0  0  0  0  0  0  0  0  0
  -48.6270   60.6139   65.3284 C   0  0  0  0  0  0  0  0  0  0  0  0
  -47.2073   60.0004   65.3687 C   0  0  0  0  0  0  0  0  0  0  0  0
  -45.9397   62.0046   62.5171 C   0  0  0  0  0  0  0  0  0  0  0  0
  -44.5572   61.7921   62.5984 C   0  0  0  0  0  0  0  0  0  0  0  0
  -46.8036   61.4019   63.4393 C   0  0  0  0  0  0  0  0  0  0  0  0
  -44.0629   60.9745   63.6145 C   0  0  0  0  0  0  0  0  0  0  0  0
  -44.9280   60.3838   64.5341 C   0  0  0  0  0  0  0  0  0  0  0  0
  -46.3095   60.6083   64.4807 C   0  0  0  0  0  0  0  0  0  0  0  0
  -42.7399   60.7169   63.7602 O   0  0  0  0  0  0  0  0  0  0  0  0
  -44.3985   59.5979   65.5160 O   0  0  0  0  0  0  0  0  0  0  0  0
  -42.1213   61.0924   63.1652 H   0  0  0  0  0  0  0  0  0  0  0  0
  -43.4740   59.4494   65.5496 H   0  0  0  0  0  0  0  0  0  0  0  0
 12 13  1  0  0  0
  9 10  2  0  0  0
  9  8  1  0  0  0
  6  7  2  0  0  0
  6  8  1  0  0  0
 10 11  1  0  0  0
  7  5  1  0  0  0
 16 17  2  0  0  0
 16 18  1  0  0  0
 17 19  1  0  0  0
 18 21  2  0  0  0
 13 11  1  0  0  0
  5  4  1  0  0  0
  4  3  1  0  0  0
  3  2  1  0  0  0
  2  1  1  0  0  0
  1 14  1  0  0  0
 14 15  1  0  0  0
 15 21  1  0  0  0
 19 20  2  0  0  0
 19 22  1  0  0  0
 20 21  1  0  0  0
 20 23  1  0  0  0
 22 24  1  0  0  0
 23 25  1  0  0  0
M  END
> <minimizedAffinity>
-7.98878

> <CNNscore>
0.4236093163

> <CNNaffinity>
6.2317094803

> <CNN_VS>
2.6398100853

> <CNNaffinity_variance>
0.1796985567

$$$$
/media/chris/experiments/cd1a-new-docking/inputs/ligands/5j1a_ligand.pdb


 25 25  0  0  0  0  0  0  0  0999 V2000
  -50.8180   59.2955   63.3362 C   0  0  0  0  0  0  0  0  0  0  0  0
  -49.9061   59.5152   62.1200 C   0  0  0  0  0  0  0  0  0  0  0  0
  -48.5061   59.9093   62.5706 C   0  0  0  0  0  0  0  0  0  0  0  0
  -47.6115   58.6694   62.5910 C   0  0  0  0  0  0  0  0  0  0  0  0
  -46.8721   58.5314   61.2603 C   0  0  0  0  0  0  0  0  0  0  0  0
  -47.1482   60.2491   59.2481 C   0  0  0  0  0  0  0  0  0  0  0  0
  -46.6820   59.9352   60.6832 C   0  0  0  0  0  0  0  0  0  0  0  0
  -47.6965   59.1616   58.3114 C   0  0  0  0  0  0  0  0  0  0  0  0
  -46.5044   58.5966   57.5254 C   0  0  0  0  0  0  0  0  0  0  0  0
  -46.4741   57.1330   57.0235 C   0  0  0  0  0  0  0  0  0  0  0  0
  -47.6556   56.1705   57.2538 C   0  0  0  0  0  0  0  0  0  0  0  0
  -48.6947   55.8743   59.5475 C   0  0  0  0  0  0  0  0  0  0  0  0
  -47.4900   55.5664   58.6551 C   0  0  0  0  0  0  0  0  0  0  0  0
  -50.4904   60.2339   64.5266 C   0  0  0  0  0  0  0  0  0  0  0  0
  -50.3979   59.4901   65.8800 C   0  0  0  0  0  0  0  0  0  0  0  0
  -47.9778   56.6801   65.9261 C   0  0  0  0  0  0  0  0  0  0  0  0
  -46.8320   57.2860   66.4581 C   0  0  0  0  0  0  0  0  0  0  0  0
  -49.1509   57.4221   65.7441 C   0  0  0  0  0  0  0  0  0  0  0  0
  -46.8842   58.6379   66.7970 C   0  0  0  0  0  0  0  0  0  0  0  0
  -48.0530   59.3728   66.6060 C   0  0  0  0  0  0  0  0  0  0  0  0
  -49.1978   58.7867   66.0511 C   0  0  0  0  0  0  0  0  0  0  0  0
  -45.8207   59.2971   67.3191 O   0  0  0  0  0  0  0  0  0  0  0  0
  -48.0551   60.6946   66.9449 O   0  0  0  0  0  0  0  0  0  0  0  0
  -45.0140   58.8434   67.4650 H   0  0  0  0  0  0  0  0  0  0  0  0
  -47.2880   61.0843   67.3158 H   0  0  0  0  0  0  0  0  0  0  0  0
 12 13  1  0  0  0
  9 10  2  0  0  0
  9  8  1  0  0  0
  6  7  2  0  0  0
  6  8  1  0  0  0
 10 11  1  0  0  0
  7  5  1  0  0  0
 16 17  2  0  0  0
 16 18  1  0  0  0
 17 19  1  0  0  0
 18 21  2  0  0  0
 13 11  1  0  0  0
  5  4  1  0  0  0
  4  3  1  0  0  0
  3  2  1  0  0  0
  2  1  1  0  0  0
  1 14  1  0  0  0
 14 15  1  0  0  0
 15 21  1  0  0  0
 19 20  2  0  0  0
 19 22  1  0  0  0
 20 21  1  0  0  0
 20 23  1  0  0  0
 22 24  1  0  0  0
 23 25  1  0  0  0
M  END
> <minimizedAffinity>
-8.03557

> <CNNscore>
0.4156481624

> <CNNaffinity>
6.3635473251

> <CNN_VS>
2.6449966431

> <CNNaffinity_variance>
0.1693879217

$$$$
/media/chris/experiments/cd1a-new-docking/inputs/ligands/5j1a_ligand.pdb


 25 25  0  0  0  0  0  0  0  0999 V2000
  -50.5522   59.4506   63.8094 C   0  0  0  0  0  0  0  0  0  0  0  0
  -49.7896   58.3744   63.0226 C   0  0  0  0  0  0  0  0  0  0  0  0
  -50.5813   57.9564   61.7911 C   0  0  0  0  0  0  0  0  0  0  0  0
  -49.9669   58.6028   60.5490 C   0  0  0  0  0  0  0  0  0  0  0  0
  -50.0409   57.6411   59.3633 C   0  0  0  0  0  0  0  0  0  0  0  0
  -48.3898   55.6627   58.7029 C   0  0  0  0  0  0  0  0  0  0  0  0
  -49.2795   56.3701   59.7439 C   0  0  0  0  0  0  0  0  0  0  0  0
  -48.3276   56.1189   57.2371 C   0  0  0  0  0  0  0  0  0  0  0  0
  -46.8452   56.3066   56.8828 C   0  0  0  0  0  0  0  0  0  0  0  0
  -46.1154   57.6537   57.1009 C   0  0  0  0  0  0  0  0  0  0  0  0
  -46.8272   58.8726   57.7199 C   0  0  0  0  0  0  0  0  0  0  0  0
  -45.5564   57.7428   59.6005 C   0  0  0  0  0  0  0  0  0  0  0  0
  -46.5294   58.8632   59.2255 C   0  0  0  0  0  0  0  0  0  0  0  0
  -50.4411   59.2815   65.3469 C   0  0  0  0  0  0  0  0  0  0  0  0
  -49.6946   57.9925   65.7648 C   0  0  0  0  0  0  0  0  0  0  0  0
  -46.5763   59.7924   66.6550 C   0  0  0  0  0  0  0  0  0  0  0  0
  -45.6728   58.7393   66.8492 C   0  0  0  0  0  0  0  0  0  0  0  0
  -47.9028   59.5289   66.2930 C   0  0  0  0  0  0  0  0  0  0  0  0
  -46.1222   57.4300   66.6787 C   0  0  0  0  0  0  0  0  0  0  0  0
  -47.4463   57.1744   66.3259 C   0  0  0  0  0  0  0  0  0  0  0  0
  -48.3669   58.2160   66.1540 C   0  0  0  0  0  0  0  0  0  0  0  0
  -45.3112   56.3565   66.8452 O   0  0  0  0  0  0  0  0  0  0  0  0
  -47.8430   55.8772   66.1778 O   0  0  0  0  0  0  0  0  0  0  0  0
  -44.4132   56.4802   67.0824 H   0  0  0  0  0  0  0  0  0  0  0  0
  -47.2253   55.1823   66.2934 H   0  0  0  0  0  0  0  0  0  0  0  0
 12 13  1  0  0  0
  9 10  2  0  0  0
  9  8  1  0  0  0
  6  7  2  0  0  0
  6  8  1  0  0  0
 10 11  1  0  0  0
  7  5  1  0  0  0
 16 17  2  0  0  0
 16 18  1  0  0  0
 17 19  1  0  0  0
 18 21  2  0  0  0
 13 11  1  0  0  0
  5  4  1  0  0  0
  4  3  1  0  0  0
  3  2  1  0  0  0
  2  1  1  0  0  0
  1 14  1  0  0  0
 14 15  1  0  0  0
 15 21  1  0  0  0
 19 20  2  0  0  0
 19 22  1  0  0  0
 20 21  1  0  0  0
 20 23  1  0  0  0
 22 24  1  0  0  0
 23 25  1  0  0  0
M  END
> <minimizedAffinity>
-8.51574

> <CNNscore>
0.4054962099

> <CNNaffinity>
6.2280797958

> <CNN_VS>
2.5254628658

> <CNNaffinity_variance>
0.4744500518

$$$$
/media/chris/experiments/cd1a-new-docking/inputs/ligands/5j1a_ligand.pdb


 25 25  0  0  0  0  0  0  0  0999 V2000
  -50.3727   58.5955   64.5486 C   0  0  0  0  0  0  0  0  0  0  0  0
  -50.5904   59.7221   63.5277 C   0  0  0  0  0  0  0  0  0  0  0  0
  -49.7599   59.4722   62.2764 C   0  0  0  0  0  0  0  0  0  0  0  0
  -49.0528   58.1219   62.3977 C   0  0  0  0  0  0  0  0  0  0  0  0
  -49.5066   57.1871   61.2767 C   0  0  0  0  0  0  0  0  0  0  0  0
  -50.1250   58.0288   58.8302 C   0  0  0  0  0  0  0  0  0  0  0  0
  -50.4182   57.9850   60.3427 C   0  0  0  0  0  0  0  0  0  0  0  0
  -48.8645   57.3927   58.2241 C   0  0  0  0  0  0  0  0  0  0  0  0
  -47.9140   58.5387   57.8483 C   0  0  0  0  0  0  0  0  0  0  0  0
  -46.4609   58.6040   58.3765 C   0  0  0  0  0  0  0  0  0  0  0  0
  -45.8750   57.5024   59.2813 C   0  0  0  0  0  0  0  0  0  0  0  0
  -46.0372   59.5961   60.7020 C   0  0  0  0  0  0  0  0  0  0  0  0
  -45.7014   58.1030   60.6831 C   0  0  0  0  0  0  0  0  0  0  0  0
  -50.1125   59.1125   65.9873 C   0  0  0  0  0  0  0  0  0  0  0  0
  -48.7123   59.7469   66.1618 C   0  0  0  0  0  0  0  0  0  0  0  0
  -46.5527   56.7319   66.2031 C   0  0  0  0  0  0  0  0  0  0  0  0
  -45.5145   57.1007   65.3376 C   0  0  0  0  0  0  0  0  0  0  0  0
  -47.6019   57.6202   66.4683 C   0  0  0  0  0  0  0  0  0  0  0  0
  -45.5507   58.3633   64.7463 C   0  0  0  0  0  0  0  0  0  0  0  0
  -46.6023   59.2399   65.0086 C   0  0  0  0  0  0  0  0  0  0  0  0
  -47.6601   58.8748   65.8512 C   0  0  0  0  0  0  0  0  0  0  0  0
  -44.5844   58.7968   63.9001 O   0  0  0  0  0  0  0  0  0  0  0  0
  -46.5997   60.4619   64.4014 O   0  0  0  0  0  0  0  0  0  0  0  0
  -43.8582   58.2415   63.6946 H   0  0  0  0  0  0  0  0  0  0  0  0
  -45.8910   60.7036   63.8381 H   0  0  0  0  0  0  0  0  0  0  0  0
 12 13  1  0  0  0
  9 10  2  0  0  0
  9  8  1  0  0  0
  6  7  2  0  0  0
  6  8  1  0  0  0
 10 11  1  0  0  0
  7  5  1  0  0  0
 16 17  2  0  0  0
 16 18  1  0  0  0
 17 19  1  0  0  0
 18 21  2  0  0  0
 13 11  1  0  0  0
  5  4  1  0  0  0
  4  3  1  0  0  0
  3  2  1  0  0  0
  2  1  1  0  0  0
  1 14  1  0  0  0
 14 15  1  0  0  0
 15 21  1  0  0  0
 19 20  2  0  0  0
 19 22  1  0  0  0
 20 21  1  0  0  0
 20 23  1  0  0  0
 22 24  1  0  0  0
 23 25  1  0  0  0
M  END
> <minimizedAffinity>
-7.51334

> <CNNscore>
0.3890235126

> <CNNaffinity>
6.3745436668

> <CNN_VS>
2.4798474312

> <CNNaffinity_variance>
0.2631088495

$$$$
/media/chris/experiments/cd1a-new-docking/inputs/ligands/5j1a_ligand.pdb


 25 25  0  0  0  0  0  0  0  0999 V2000
  -47.6698   55.6770   58.9402 C   0  0  0  0  0  0  0  0  0  0  0  0
  -48.9685   56.0278   59.6814 C   0  0  0  0  0  0  0  0  0  0  0  0
  -49.6382   57.2338   59.0371 C   0  0  0  0  0  0  0  0  0  0  0  0
  -50.0530   58.2254   60.1246 C   0  0  0  0  0  0  0  0  0  0  0  0
  -49.6181   57.7136   61.4977 C   0  0  0  0  0  0  0  0  0  0  0  0
  -49.8012   58.6473   63.9819 C   0  0  0  0  0  0  0  0  0  0  0  0
  -50.3745   58.5171   62.5572 C   0  0  0  0  0  0  0  0  0  0  0  0
  -48.5398   57.8911   64.4267 C   0  0  0  0  0  0  0  0  0  0  0  0
  -47.6495   58.8942   65.1745 C   0  0  0  0  0  0  0  0  0  0  0  0
  -46.2084   58.5411   65.6141 C   0  0  0  0  0  0  0  0  0  0  0  0
  -45.5732   57.1738   65.2938 C   0  0  0  0  0  0  0  0  0  0  0  0
  -43.3216   56.1022   64.8357 C   0  0  0  0  0  0  0  0  0  0  0  0
  -44.0903   57.4176   64.9818 C   0  0  0  0  0  0  0  0  0  0  0  0
  -47.2388   56.7557   57.9128 C   0  0  0  0  0  0  0  0  0  0  0  0
  -45.9597   57.5184   58.3319 C   0  0  0  0  0  0  0  0  0  0  0  0
  -45.9974   58.7538   61.8287 C   0  0  0  0  0  0  0  0  0  0  0  0
  -46.5939   60.0140   61.6901 C   0  0  0  0  0  0  0  0  0  0  0  0
  -45.7976   57.9385   60.7083 C   0  0  0  0  0  0  0  0  0  0  0  0
  -46.9786   60.4377   60.4183 C   0  0  0  0  0  0  0  0  0  0  0  0
  -46.7696   59.6242   59.3058 C   0  0  0  0  0  0  0  0  0  0  0  0
  -46.1510   58.3733   59.4259 C   0  0  0  0  0  0  0  0  0  0  0  0
  -47.5638   61.6409   60.2000 O   0  0  0  0  0  0  0  0  0  0  0  0
  -47.1551   60.0838   58.0802 O   0  0  0  0  0  0  0  0  0  0  0  0
  -47.7241   62.2210   60.9181 H   0  0  0  0  0  0  0  0  0  0  0  0
  -47.5686   60.9209   58.0025 H   0  0  0  0  0  0  0  0  0  0  0  0
 12 13  1  0  0  0
  9 10  2  0  0  0
  9  8  1  0  0  0
  6  7  2  0  0  0
  6  8  1  0  0  0
 10 11  1  0  0  0
  7  5  1  0  0  0
 16 17  2  0  0  0
 16 18  1  0  0  0
 17 19  1  0  0  0
 18 21  2  0  0  0
 13 11  1  0  0  0
  5  4  1  0  0  0
  4  3  1  0  0  0
  3  2  1  0  0  0
  2  1  1  0  0  0
  1 14  1  0  0  0
 14 15  1  0  0  0
 15 21  1  0  0  0
 19 20  2  0  0  0
 19 22  1  0  0  0
 20 21  1  0  0  0
 20 23  1  0  0  0
 22 24  1  0  0  0
 23 25  1  0  0  0
M  END
> <minimizedAffinity>
-7.43533

> <CNNscore>
0.3486267030

> <CNNaffinity>
6.6317787170

> <CNN_VS>
2.3120150566

> <CNNaffinity_variance>
0.2080505341

$$$$
/media/chris/experiments/cd1a-new-docking/inputs/ligands/5j1a_ligand.pdb


 25 25  0  0  0  0  0  0  0  0999 V2000
  -49.5216   57.9658   58.4102 C   0  0  0  0  0  0  0  0  0  0  0  0
  -49.4918   57.2775   59.7829 C   0  0  0  0  0  0  0  0  0  0  0  0
  -50.8129   57.4868   60.5103 C   0  0  0  0  0  0  0  0  0  0  0  0
  -50.5368   57.9532   61.9401 C   0  0  0  0  0  0  0  0  0  0  0  0
  -50.3954   59.4748   61.9798 C   0  0  0  0  0  0  0  0  0  0  0  0
  -50.5095   60.0273   64.5794 C   0  0  0  0  0  0  0  0  0  0  0  0
  -51.1776   59.9855   63.1911 C   0  0  0  0  0  0  0  0  0  0  0  0
  -49.1054   59.4549   64.8274 C   0  0  0  0  0  0  0  0  0  0  0  0
  -48.1418   60.6460   64.9315 C   0  0  0  0  0  0  0  0  0  0  0  0
  -46.6199   60.4528   65.1349 C   0  0  0  0  0  0  0  0  0  0  0  0
  -45.9814   59.0520   65.2085 C   0  0  0  0  0  0  0  0  0  0  0  0
  -46.4921   58.4386   67.6150 C   0  0  0  0  0  0  0  0  0  0  0  0
  -45.4127   58.8798   66.6237 C   0  0  0  0  0  0  0  0  0  0  0  0
  -48.2278   57.7446   57.5843 C   0  0  0  0  0  0  0  0  0  0  0  0
  -47.2706   58.9597   57.6159 C   0  0  0  0  0  0  0  0  0  0  0  0
  -47.2719   61.1467   60.6113 C   0  0  0  0  0  0  0  0  0  0  0  0
  -46.4114   60.4604   61.4781 C   0  0  0  0  0  0  0  0  0  0  0  0
  -47.5435   60.6388   59.3352 C   0  0  0  0  0  0  0  0  0  0  0  0
  -45.8373   59.2651   61.0460 C   0  0  0  0  0  0  0  0  0  0  0  0
  -46.1181   58.7609   59.7772 C   0  0  0  0  0  0  0  0  0  0  0  0
  -46.9967   59.4228   58.9100 C   0  0  0  0  0  0  0  0  0  0  0  0
  -44.9929   58.5427   61.8226 O   0  0  0  0  0  0  0  0  0  0  0  0
  -45.5397   57.5839   59.4003 O   0  0  0  0  0  0  0  0  0  0  0  0
  -44.7753   58.8430   62.6830 H   0  0  0  0  0  0  0  0  0  0  0  0
  -44.9524   57.1431   59.9823 H   0  0  0  0  0  0  0  0  0  0  0  0
 12 13  1  0  0  0
  9 10  2  0  0  0
  9  8  1  0  0  0
  6  7  2  0  0  0
  6  8  1  0  0  0
 10 11  1  0  0  0
  7  5  1  0  0  0
 16 17  2  0  0  0
 16 18  1  0  0  0
 17 19  1  0  0  0
 18 21  2  0  0  0
 13 11  1  0  0  0
  5  4  1  0  0  0
  4  3  1  0  0  0
  3  2  1  0  0  0
  2  1  1  0  0  0
  1 14  1  0  0  0
 14 15  1  0  0  0
 15 21  1  0  0  0
 19 20  2  0  0  0
 19 22  1  0  0  0
 20 21  1  0  0  0
 20 23  1  0  0  0
 22 24  1  0  0  0
 23 25  1  0  0  0
M  END
> <minimizedAffinity>
-8.00589

> <CNNscore>
0.2973632216

> <CNNaffinity>
6.2630934715

> <CNN_VS>
1.8624136448

> <CNNaffinity_variance>
0.2184014022

$$$$
/media/chris/experiments/cd1a-new-docking/inputs/ligands/5j1a_ligand.pdb


 25 25  0  0  0  0  0  0  0  0999 V2000
  -47.8977   56.7322   57.0330 C   0  0  0  0  0  0  0  0  0  0  0  0
  -47.9250   55.6033   58.0741 C   0  0  0  0  0  0  0  0  0  0  0  0
  -48.7011   56.0392   59.3093 C   0  0  0  0  0  0  0  0  0  0  0  0
  -49.6746   57.1554   58.9296 C   0  0  0  0  0  0  0  0  0  0  0  0
  -50.3668   57.6986   60.1795 C   0  0  0  0  0  0  0  0  0  0  0  0
  -50.0529   59.7947   61.7870 C   0  0  0  0  0  0  0  0  0  0  0  0
  -49.8591   59.1225   60.4136 C   0  0  0  0  0  0  0  0  0  0  0  0
  -50.8556   59.1295   62.9156 C   0  0  0  0  0  0  0  0  0  0  0  0
  -51.0793   60.1928   64.0008 C   0  0  0  0  0  0  0  0  0  0  0  0
  -50.7880   59.9123   65.4946 C   0  0  0  0  0  0  0  0  0  0  0  0
  -50.2226   58.5604   65.9722 C   0  0  0  0  0  0  0  0  0  0  0  0
  -48.1242   57.6630   64.8678 C   0  0  0  0  0  0  0  0  0  0  0  0
  -48.6924   58.6481   65.8923 C   0  0  0  0  0  0  0  0  0  0  0  0
  -46.6419   57.6357   57.1400 C   0  0  0  0  0  0  0  0  0  0  0  0
  -46.9709   59.0871   57.5628 C   0  0  0  0  0  0  0  0  0  0  0  0
  -45.6312   58.6448   60.9928 C   0  0  0  0  0  0  0  0  0  0  0  0
  -45.9269   59.8790   61.5866 C   0  0  0  0  0  0  0  0  0  0  0  0
  -45.9863   58.3971   59.6615 C   0  0  0  0  0  0  0  0  0  0  0  0
  -46.5756   60.8511   60.8255 C   0  0  0  0  0  0  0  0  0  0  0  0
  -46.9193   60.6007   59.4981 C   0  0  0  0  0  0  0  0  0  0  0  0
  -46.6068   59.3813   58.8838 C   0  0  0  0  0  0  0  0  0  0  0  0
  -46.8990   62.0688   61.3261 O   0  0  0  0  0  0  0  0  0  0  0  0
  -47.5460   61.5845   58.7899 O   0  0  0  0  0  0  0  0  0  0  0  0
  -46.6875   62.2816   62.2137 H   0  0  0  0  0  0  0  0  0  0  0  0
  -47.7539   62.3993   59.2031 H   0  0  0  0  0  0  0  0  0  0  0  0
 12 13  1  0  0  0
  9 10  2  0  0  0
  9  8  1  0  0  0
  6  7  2  0  0  0
  6  8  1  0  0  0
 10 11  1  0  0  0
  7  5  1  0  0  0
 16 17  2  0  0  0
 16 18  1  0  0  0
 17 19  1  0  0  0
 18 21  2  0  0  0
 13 11  1  0  0  0
  5  4  1  0  0  0
  4  3  1  0  0  0
  3  2  1  0  0  0
  2  1  1  0  0  0
  1 14  1  0  0  0
 14 15  1  0  0  0
 15 21  1  0  0  0
 19 20  2  0  0  0
 19 22  1  0  0  0
 20 21  1  0  0  0
 20 23  1  0  0  0
 22 24  1  0  0  0
 23 25  1  0  0  0
M  END
> <minimizedAffinity>
-8.43929

> <CNNscore>
0.2876135707

> <CNNaffinity>
6.2880249023

> <CNN_VS>
1.8085212708

> <CNNaffinity_variance>
0.1574923098

$$$$
