/media/chris/experiments/cd1a-new-docking/inputs/ligands/5j1a_ligand.pdb


 25 25  0  0  0  0  0  0  0  0999 V2000
  -45.8055   58.1454   59.3573 C   0  0  0  0  0  0  0  0  0  0  0  0
  -45.9699   57.3001   58.0855 C   0  0  0  0  0  0  0  0  0  0  0  0
  -47.4331   56.9351   57.8762 C   0  0  0  0  0  0  0  0  0  0  0  0
  -47.7694   55.6927   58.7018 C   0  0  0  0  0  0  0  0  0  0  0  0
  -48.8130   56.0336   59.7653 C   0  0  0  0  0  0  0  0  0  0  0  0
  -50.5831   57.9903   60.1027 C   0  0  0  0  0  0  0  0  0  0  0  0
  -49.7616   57.0768   59.1722 C   0  0  0  0  0  0  0  0  0  0  0  0
  -50.5813   57.8148   61.6291 C   0  0  0  0  0  0  0  0  0  0  0  0
  -50.8215   59.2007   62.2453 C   0  0  0  0  0  0  0  0  0  0  0  0
  -50.5056   59.5027   63.7299 C   0  0  0  0  0  0  0  0  0  0  0  0
  -49.8980   58.4380   64.6641 C   0  0  0  0  0  0  0  0  0  0  0  0
  -48.6656   59.9576   66.2767 C   0  0  0  0  0  0  0  0  0  0  0  0
  -49.8681   59.0314   66.0792 C   0  0  0  0  0  0  0  0  0  0  0  0
  -46.7207   59.3971   59.3849 C   0  0  0  0  0  0  0  0  0  0  0  0
  -47.4822   59.5646   60.7212 C   0  0  0  0  0  0  0  0  0  0  0  0
  -45.9128   62.6357   62.0852 C   0  0  0  0  0  0  0  0  0  0  0  0
  -45.4945   62.2146   63.3544 C   0  0  0  0  0  0  0  0  0  0  0  0
  -46.5662   61.7458   61.2243 C   0  0  0  0  0  0  0  0  0  0  0  0
  -45.7453   60.8981   63.7408 C   0  0  0  0  0  0  0  0  0  0  0  0
  -46.4033   60.0196   62.8817 C   0  0  0  0  0  0  0  0  0  0  0  0
  -46.8500   60.4340   61.6204 C   0  0  0  0  0  0  0  0  0  0  0  0
  -45.3708   60.4125   64.9497 O   0  0  0  0  0  0  0  0  0  0  0  0
  -46.6338   58.7432   63.3055 O   0  0  0  0  0  0  0  0  0  0  0  0
  -44.9256   60.9670   65.5599 H   0  0  0  0  0  0  0  0  0  0  0  0
  -46.3339   58.4685   64.1496 H   0  0  0  0  0  0  0  0  0  0  0  0
 12 13  1  0  0  0
  9 10  2  0  0  0
  9  8  1  0  0  0
  6  7  2  0  0  0
  6  8  1  0  0  0
 10 11  1  0  0  0
  7  5  1  0  0  0
 16 17  2  0  0  0
 16 18  1  0  0  0
 17 19  1  0  0  0
 18 21  2  0  0  0
 13 11  1  0  0  0
  5  4  1  0  0  0
  4  3  1  0  0  0
  3  2  1  0  0  0
  2  1  1  0  0  0
  1 14  1  0  0  0
 14 15  1  0  0  0
 15 21  1  0  0  0
 19 20  2  0  0  0
 19 22  1  0  0  0
 20 21  1  0  0  0
 20 23  1  0  0  0
 22 24  1  0  0  0
 23 25  1  0  0  0
M  END
> <minimizedAffinity>
-7.73949

> <CNNscore>
0.5034361482

> <CNNaffinity>
6.5272283554

> <CNN_VS>
3.2860426903

> <CNNaffinity_variance>
0.1196581870

$$$$
/media/chris/experiments/cd1a-new-docking/inputs/ligands/5j1a_ligand.pdb


 25 25  0  0  0  0  0  0  0  0999 V2000
  -45.3809   58.1807   61.7215 C   0  0  0  0  0  0  0  0  0  0  0  0
  -45.8135   58.6309   60.3182 C   0  0  0  0  0  0  0  0  0  0  0  0
  -45.7471   57.4640   59.3425 C   0  0  0  0  0  0  0  0  0  0  0  0
  -46.0464   57.9660   57.9296 C   0  0  0  0  0  0  0  0  0  0  0  0
  -47.3411   58.7786   57.9225 C   0  0  0  0  0  0  0  0  0  0  0  0
  -49.7384   57.8944   58.6620 C   0  0  0  0  0  0  0  0  0  0  0  0
  -48.5049   57.8023   57.7426 C   0  0  0  0  0  0  0  0  0  0  0  0
  -49.7995   58.8647   59.8516 C   0  0  0  0  0  0  0  0  0  0  0  0
  -49.6078   58.0313   61.1271 C   0  0  0  0  0  0  0  0  0  0  0  0
  -50.2233   58.4549   62.4823 C   0  0  0  0  0  0  0  0  0  0  0  0
  -51.0938   59.7193   62.6194 C   0  0  0  0  0  0  0  0  0  0  0  0
  -50.2170   59.1916   64.9392 C   0  0  0  0  0  0  0  0  0  0  0  0
  -51.1445   60.0830   64.1097 C   0  0  0  0  0  0  0  0  0  0  0  0
  -44.0584   58.8369   62.1962 C   0  0  0  0  0  0  0  0  0  0  0  0
  -43.2301   57.9269   63.1339 C   0  0  0  0  0  0  0  0  0  0  0  0
  -42.4613   59.6287   66.3383 C   0  0  0  0  0  0  0  0  0  0  0  0
  -41.1743   60.1307   66.1044 C   0  0  0  0  0  0  0  0  0  0  0  0
  -43.1296   58.9043   65.3440 C   0  0  0  0  0  0  0  0  0  0  0  0
  -40.5753   59.8912   64.8679 C   0  0  0  0  0  0  0  0  0  0  0  0
  -41.2432   59.1625   63.8852 C   0  0  0  0  0  0  0  0  0  0  0  0
  -42.5194   58.6326   64.1143 C   0  0  0  0  0  0  0  0  0  0  0  0
  -39.3349   60.3445   64.5622 O   0  0  0  0  0  0  0  0  0  0  0  0
  -40.6148   58.9464   62.6934 O   0  0  0  0  0  0  0  0  0  0  0  0
  -38.8483   60.8390   65.1920 H   0  0  0  0  0  0  0  0  0  0  0  0
  -39.7612   59.3020   62.5426 H   0  0  0  0  0  0  0  0  0  0  0  0
 12 13  1  0  0  0
  9 10  2  0  0  0
  9  8  1  0  0  0
  6  7  2  0  0  0
  6  8  1  0  0  0
 10 11  1  0  0  0
  7  5  1  0  0  0
 16 17  2  0  0  0
 16 18  1  0  0  0
 17 19  1  0  0  0
 18 21  2  0  0  0
 13 11  1  0  0  0
  5  4  1  0  0  0
  4  3  1  0  0  0
  3  2  1  0  0  0
  2  1  1  0  0  0
  1 14  1  0  0  0
 14 15  1  0  0  0
 15 21  1  0  0  0
 19 20  2  0  0  0
 19 22  1  0  0  0
 20 21  1  0  0  0
 20 23  1  0  0  0
 22 24  1  0  0  0
 23 25  1  0  0  0
M  END
> <minimizedAffinity>
-7.91114

> <CNNscore>
0.4632798135

> <CNNaffinity>
6.2442216873

> <CNN_VS>
2.8928217888

> <CNNaffinity_variance>
0.3689590096

$$$$
/media/chris/experiments/cd1a-new-docking/inputs/ligands/5j1a_ligand.pdb


 25 25  0  0  0  0  0  0  0  0999 V2000
  -50.4215   59.8742   62.1729 C   0  0  0  0  0  0  0  0  0  0  0  0
  -50.2477   58.6869   63.1315 C   0  0  0  0  0  0  0  0  0  0  0  0
  -50.4730   59.1294   64.5708 C   0  0  0  0  0  0  0  0  0  0  0  0
  -49.7378   58.1781   65.5155 C   0  0  0  0  0  0  0  0  0  0  0  0
  -48.3971   57.7648   64.9085 C   0  0  0  0  0  0  0  0  0  0  0  0
  -46.7756   57.6069   67.0112 C   0  0  0  0  0  0  0  0  0  0  0  0
  -47.6540   56.9218   65.9462 C   0  0  0  0  0  0  0  0  0  0  0  0
  -46.5127   59.1207   67.0022 C   0  0  0  0  0  0  0  0  0  0  0  0
  -45.2808   59.3618   66.1176 C   0  0  0  0  0  0  0  0  0  0  0  0
  -45.3618   60.1786   64.8057 C   0  0  0  0  0  0  0  0  0  0  0  0
  -46.6777   60.8265   64.3320 C   0  0  0  0  0  0  0  0  0  0  0  0
  -44.8078   62.0079   63.0924 C   0  0  0  0  0  0  0  0  0  0  0  0
  -46.3224   61.8389   63.2345 C   0  0  0  0  0  0  0  0  0  0  0  0
  -49.4183   59.8603   60.9903 C   0  0  0  0  0  0  0  0  0  0  0  0
  -49.7425   58.7811   59.9302 C   0  0  0  0  0  0  0  0  0  0  0  0
  -46.7312   58.8343   57.7659 C   0  0  0  0  0  0  0  0  0  0  0  0
  -46.3836   57.4781   57.7105 C   0  0  0  0  0  0  0  0  0  0  0  0
  -47.8475   59.2490   58.5020 C   0  0  0  0  0  0  0  0  0  0  0  0
  -47.1673   56.5559   58.4039 C   0  0  0  0  0  0  0  0  0  0  0  0
  -48.2729   56.9766   59.1412 C   0  0  0  0  0  0  0  0  0  0  0  0
  -48.6169   58.3317   59.2266 C   0  0  0  0  0  0  0  0  0  0  0  0
  -46.8999   55.2270   58.3988 O   0  0  0  0  0  0  0  0  0  0  0  0
  -49.0057   56.0397   59.8097 O   0  0  0  0  0  0  0  0  0  0  0  0
  -46.1667   54.8984   57.9168 H   0  0  0  0  0  0  0  0  0  0  0  0
  -48.7735   55.1338   59.7509 H   0  0  0  0  0  0  0  0  0  0  0  0
 12 13  1  0  0  0
  9 10  2  0  0  0
  9  8  1  0  0  0
  6  7  2  0  0  0
  6  8  1  0  0  0
 10 11  1  0  0  0
  7  5  1  0  0  0
 16 17  2  0  0  0
 16 18  1  0  0  0
 17 19  1  0  0  0
 18 21  2  0  0  0
 13 11  1  0  0  0
  5  4  1  0  0  0
  4  3  1  0  0  0
  3  2  1  0  0  0
  2  1  1  0  0  0
  1 14  1  0  0  0
 14 15  1  0  0  0
 15 21  1  0  0  0
 19 20  2  0  0  0
 19 22  1  0  0  0
 20 21  1  0  0  0
 20 23  1  0  0  0
 22 24  1  0  0  0
 23 25  1  0  0  0
M  END
> <minimizedAffinity>
-7.95756

> <CNNscore>
0.3866367638

> <CNNaffinity>
6.5946679115

> <CNN_VS>
2.5497410297

> <CNNaffinity_variance>
0.1353262365

$$$$
/media/chris/experiments/cd1a-new-docking/inputs/ligands/5j1a_ligand.pdb


 25 25  0  0  0  0  0  0  0  0999 V2000
  -36.9060   57.4445   64.2362 C   0  0  0  0  0  0  0  0  0  0  0  0
  -37.7160   57.2080   62.9528 C   0  0  0  0  0  0  0  0  0  0  0  0
  -36.7881   57.1129   61.7495 C   0  0  0  0  0  0  0  0  0  0  0  0
  -37.1463   58.2081   60.7444 C   0  0  0  0  0  0  0  0  0  0  0  0
  -38.6430   58.5122   60.8078 C   0  0  0  0  0  0  0  0  0  0  0  0
  -40.0180   60.4656   61.9779 C   0  0  0  0  0  0  0  0  0  0  0  0
  -38.8050   59.9937   61.1527 C   0  0  0  0  0  0  0  0  0  0  0  0
  -41.1563   59.5129   62.3746 C   0  0  0  0  0  0  0  0  0  0  0  0
  -40.8824   59.0536   63.8141 C   0  0  0  0  0  0  0  0  0  0  0  0
  -40.9569   57.5639   64.2265 C   0  0  0  0  0  0  0  0  0  0  0  0
  -41.2752   56.4534   63.2063 C   0  0  0  0  0  0  0  0  0  0  0  0
  -43.2409   55.9744   64.7345 C   0  0  0  0  0  0  0  0  0  0  0  0
  -42.0795   55.3717   63.9403 C   0  0  0  0  0  0  0  0  0  0  0  0
  -36.4162   58.9077   64.3920 C   0  0  0  0  0  0  0  0  0  0  0  0
  -37.5128   59.8636   64.9184 C   0  0  0  0  0  0  0  0  0  0  0  0
  -36.3316   63.2157   63.8582 C   0  0  0  0  0  0  0  0  0  0  0  0
  -36.1733   63.8742   65.0847 C   0  0  0  0  0  0  0  0  0  0  0  0
  -36.7724   61.8874   63.8202 C   0  0  0  0  0  0  0  0  0  0  0  0
  -36.4665   63.1830   66.2600 C   0  0  0  0  0  0  0  0  0  0  0  0
  -36.9125   61.8632   66.2146 C   0  0  0  0  0  0  0  0  0  0  0  0
  -37.1001   61.2008   64.9947 C   0  0  0  0  0  0  0  0  0  0  0  0
  -36.3371   63.7474   67.4857 O   0  0  0  0  0  0  0  0  0  0  0  0
  -37.1945   61.2293   67.3895 O   0  0  0  0  0  0  0  0  0  0  0  0
  -36.0404   64.6327   67.5649 H   0  0  0  0  0  0  0  0  0  0  0  0
  -37.0682   61.6746   68.2042 H   0  0  0  0  0  0  0  0  0  0  0  0
 12 13  1  0  0  0
  9 10  2  0  0  0
  9  8  1  0  0  0
  6  7  2  0  0  0
  6  8  1  0  0  0
 10 11  1  0  0  0
  7  5  1  0  0  0
 16 17  2  0  0  0
 16 18  1  0  0  0
 17 19  1  0  0  0
 18 21  2  0  0  0
 13 11  1  0  0  0
  5  4  1  0  0  0
  4  3  1  0  0  0
  3  2  1  0  0  0
  2  1  1  0  0  0
  1 14  1  0  0  0
 14 15  1  0  0  0
 15 21  1  0  0  0
 19 20  2  0  0  0
 19 22  1  0  0  0
 20 21  1  0  0  0
 20 23  1  0  0  0
 22 24  1  0  0  0
 23 25  1  0  0  0
M  END
> <minimizedAffinity>
-7.16347

> <CNNscore>
0.3784927130

> <CNNaffinity>
5.9620804787

> <CNN_VS>
2.2566039562

> <CNNaffinity_variance>
0.0806042701

$$$$
/media/chris/experiments/cd1a-new-docking/inputs/ligands/5j1a_ligand.pdb


 25 25  0  0  0  0  0  0  0  0999 V2000
  -47.5849   58.8488   63.0270 C   0  0  0  0  0  0  0  0  0  0  0  0
  -48.8658   58.0671   63.3546 C   0  0  0  0  0  0  0  0  0  0  0  0
  -50.0670   59.0024   63.3782 C   0  0  0  0  0  0  0  0  0  0  0  0
  -50.8030   58.9173   62.0407 C   0  0  0  0  0  0  0  0  0  0  0  0
  -50.5242   57.5720   61.3707 C   0  0  0  0  0  0  0  0  0  0  0  0
  -49.3797   57.2402   58.9925 C   0  0  0  0  0  0  0  0  0  0  0  0
  -50.5293   57.7935   59.8571 C   0  0  0  0  0  0  0  0  0  0  0  0
  -48.1443   56.5673   59.6102 C   0  0  0  0  0  0  0  0  0  0  0  0
  -46.9691   56.8095   58.6518 C   0  0  0  0  0  0  0  0  0  0  0  0
  -46.1302   58.1091   58.6967 C   0  0  0  0  0  0  0  0  0  0  0  0
  -46.4054   59.2184   59.7308 C   0  0  0  0  0  0  0  0  0  0  0  0
  -48.2732   60.9092   60.0162 C   0  0  0  0  0  0  0  0  0  0  0  0
  -47.2710   60.2831   59.0432 C   0  0  0  0  0  0  0  0  0  0  0  0
  -46.6502   59.0359   64.2503 C   0  0  0  0  0  0  0  0  0  0  0  0
  -46.3939   60.5213   64.5985 C   0  0  0  0  0  0  0  0  0  0  0  0
  -45.1313   62.5957   61.7952 C   0  0  0  0  0  0  0  0  0  0  0  0
  -43.7478   62.3891   61.8751 C   0  0  0  0  0  0  0  0  0  0  0  0
  -45.9939   61.9677   62.7017 C   0  0  0  0  0  0  0  0  0  0  0  0
  -43.2511   61.5521   62.8741 C   0  0  0  0  0  0  0  0  0  0  0  0
  -44.1149   60.9362   63.7782 C   0  0  0  0  0  0  0  0  0  0  0  0
  -45.4976   61.1540   63.7264 C   0  0  0  0  0  0  0  0  0  0  0  0
  -41.9271   61.2988   63.0170 O   0  0  0  0  0  0  0  0  0  0  0  0
  -43.5832   60.1318   64.7436 O   0  0  0  0  0  0  0  0  0  0  0  0
  -41.3092   61.6910   62.4320 H   0  0  0  0  0  0  0  0  0  0  0  0
  -42.6579   59.9876   64.7760 H   0  0  0  0  0  0  0  0  0  0  0  0
 12 13  1  0  0  0
  9 10  2  0  0  0
  9  8  1  0  0  0
  6  7  2  0  0  0
  6  8  1  0  0  0
 10 11  1  0  0  0
  7  5  1  0  0  0
 16 17  2  0  0  0
 16 18  1  0  0  0
 17 19  1  0  0  0
 18 21  2  0  0  0
 13 11  1  0  0  0
  5  4  1  0  0  0
  4  3  1  0  0  0
  3  2  1  0  0  0
  2  1  1  0  0  0
  1 14  1  0  0  0
 14 15  1  0  0  0
 15 21  1  0  0  0
 19 20  2  0  0  0
 19 22  1  0  0  0
 20 21  1  0  0  0
 20 23  1  0  0  0
 22 24  1  0  0  0
 23 25  1  0  0  0
M  END
> <minimizedAffinity>
-7.50833

> <CNNscore>
0.3569685817

> <CNNaffinity>
6.1954030991

> <CNN_VS>
2.2115643024

> <CNNaffinity_variance>
0.1067229882

$$$$
/media/chris/experiments/cd1a-new-docking/inputs/ligands/5j1a_ligand.pdb


 25 25  0  0  0  0  0  0  0  0999 V2000
  -46.2860   61.7519   63.2704 C   0  0  0  0  0  0  0  0  0  0  0  0
  -45.4979   60.9489   62.2249 C   0  0  0  0  0  0  0  0  0  0  0  0
  -46.3176   60.7863   60.9522 C   0  0  0  0  0  0  0  0  0  0  0  0
  -46.1427   59.3659   60.4138 C   0  0  0  0  0  0  0  0  0  0  0  0
  -46.8404   59.2257   59.0610 C   0  0  0  0  0  0  0  0  0  0  0  0
  -46.9030   56.9373   57.7064 C   0  0  0  0  0  0  0  0  0  0  0  0
  -46.1146   58.1350   58.2713 C   0  0  0  0  0  0  0  0  0  0  0  0
  -48.3941   56.7249   58.0099 C   0  0  0  0  0  0  0  0  0  0  0  0
  -48.4809   55.8973   59.3006 C   0  0  0  0  0  0  0  0  0  0  0  0
  -49.4563   56.2642   60.4446 C   0  0  0  0  0  0  0  0  0  0  0  0
  -50.4213   57.4611   60.3369 C   0  0  0  0  0  0  0  0  0  0  0  0
  -49.0012   57.9786   62.3726 C   0  0  0  0  0  0  0  0  0  0  0  0
  -49.9018   58.5565   61.2782 C   0  0  0  0  0  0  0  0  0  0  0  0
  -47.2850   60.8876   64.0829 C   0  0  0  0  0  0  0  0  0  0  0  0
  -46.6881   60.3484   65.4044 C   0  0  0  0  0  0  0  0  0  0  0  0
  -48.1805   57.0122   66.0350 C   0  0  0  0  0  0  0  0  0  0  0  0
  -47.0695   56.1659   65.9224 C   0  0  0  0  0  0  0  0  0  0  0  0
  -48.0372   58.3943   65.8642 C   0  0  0  0  0  0  0  0  0  0  0  0
  -45.8255   56.7268   65.6343 C   0  0  0  0  0  0  0  0  0  0  0  0
  -45.6913   58.1029   65.4577 C   0  0  0  0  0  0  0  0  0  0  0  0
  -46.7975   58.9580   65.5417 C   0  0  0  0  0  0  0  0  0  0  0  0
  -44.7023   55.9778   65.5118 O   0  0  0  0  0  0  0  0  0  0  0  0
  -44.4561   58.6060   65.1696 O   0  0  0  0  0  0  0  0  0  0  0  0
  -44.7446   55.0482   65.6222 H   0  0  0  0  0  0  0  0  0  0  0  0
  -43.7177   58.0319   65.1141 H   0  0  0  0  0  0  0  0  0  0  0  0
 12 13  1  0  0  0
  9 10  2  0  0  0
  9  8  1  0  0  0
  6  7  2  0  0  0
  6  8  1  0  0  0
 10 11  1  0  0  0
  7  5  1  0  0  0
 16 17  2  0  0  0
 16 18  1  0  0  0
 17 19  1  0  0  0
 18 21  2  0  0  0
 13 11  1  0  0  0
  5  4  1  0  0  0
  4  3  1  0  0  0
  3  2  1  0  0  0
  2  1  1  0  0  0
  1 14  1  0  0  0
 14 15  1  0  0  0
 15 21  1  0  0  0
 19 20  2  0  0  0
 19 22  1  0  0  0
 20 21  1  0  0  0
 20 23  1  0  0  0
 22 24  1  0  0  0
 23 25  1  0  0  0
M  END
> <minimizedAffinity>
-7.21002

> <CNNscore>
0.3383865058

> <CNNaffinity>
6.2634749413

> <CNN_VS>
2.1194753647

> <CNNaffinity_variance>
0.3785509169

$$$$
/media/chris/experiments/cd1a-new-docking/inputs/ligands/5j1a_ligand.pdb


 25 25  0  0  0  0  0  0  0  0999 V2000
  -45.5603   57.5476   59.4953 C   0  0  0  0  0  0  0  0  0  0  0  0
  -46.1493   58.0647   58.1745 C   0  0  0  0  0  0  0  0  0  0  0  0
  -47.2905   59.0352   58.4462 C   0  0  0  0  0  0  0  0  0  0  0  0
  -48.6217   58.3584   58.1175 C   0  0  0  0  0  0  0  0  0  0  0  0
  -49.6583   58.6852   59.1922 C   0  0  0  0  0  0  0  0  0  0  0  0
  -49.6166   60.1440   61.4162 C   0  0  0  0  0  0  0  0  0  0  0  0
  -49.1636   59.9113   59.9616 C   0  0  0  0  0  0  0  0  0  0  0  0
  -50.6581   59.2455   62.1007 C   0  0  0  0  0  0  0  0  0  0  0  0
  -51.1715   60.0041   63.3333 C   0  0  0  0  0  0  0  0  0  0  0  0
  -50.5459   59.8076   64.7350 C   0  0  0  0  0  0  0  0  0  0  0  0
  -49.3480   58.8654   64.9652 C   0  0  0  0  0  0  0  0  0  0  0  0
  -47.6391   60.6828   64.5122 C   0  0  0  0  0  0  0  0  0  0  0  0
  -48.2055   59.7086   65.5480 C   0  0  0  0  0  0  0  0  0  0  0  0
  -46.1855   58.2135   60.7486 C   0  0  0  0  0  0  0  0  0  0  0  0
  -45.1648   58.4436   61.8883 C   0  0  0  0  0  0  0  0  0  0  0  0
  -45.2469   62.1377   61.5695 C   0  0  0  0  0  0  0  0  0  0  0  0
  -44.1226   62.5230   62.3115 C   0  0  0  0  0  0  0  0  0  0  0  0
  -45.5764   60.7836   61.4360 C   0  0  0  0  0  0  0  0  0  0  0  0
  -43.3454   61.5340   62.9141 C   0  0  0  0  0  0  0  0  0  0  0  0
  -43.6838   60.1880   62.7837 C   0  0  0  0  0  0  0  0  0  0  0  0
  -44.8193   59.7900   62.0667 C   0  0  0  0  0  0  0  0  0  0  0  0
  -42.2416   61.8234   63.6458 O   0  0  0  0  0  0  0  0  0  0  0  0
  -42.8985   59.2559   63.3972 O   0  0  0  0  0  0  0  0  0  0  0  0
  -41.9759   62.7146   63.7606 H   0  0  0  0  0  0  0  0  0  0  0  0
  -42.1394   59.5248   63.8762 H   0  0  0  0  0  0  0  0  0  0  0  0
 12 13  1  0  0  0
  9 10  2  0  0  0
  9  8  1  0  0  0
  6  7  2  0  0  0
  6  8  1  0  0  0
 10 11  1  0  0  0
  7  5  1  0  0  0
 16 17  2  0  0  0
 16 18  1  0  0  0
 17 19  1  0  0  0
 18 21  2  0  0  0
 13 11  1  0  0  0
  5  4  1  0  0  0
  4  3  1  0  0  0
  3  2  1  0  0  0
  2  1  1  0  0  0
  1 14  1  0  0  0
 14 15  1  0  0  0
 15 21  1  0  0  0
 19 20  2  0  0  0
 19 22  1  0  0  0
 20 21  1  0  0  0
 20 23  1  0  0  0
 22 24  1  0  0  0
 23 25  1  0  0  0
M  END
> <minimizedAffinity>
-7.89825

> <CNNscore>
0.3312597573

> <CNNaffinity>
6.1126904488

> <CNN_VS>
2.0248882771

> <CNNaffinity_variance>
0.2242023647

$$$$
/media/chris/experiments/cd1a-new-docking/inputs/ligands/5j1a_ligand.pdb


 25 25  0  0  0  0  0  0  0  0999 V2000
  -38.1754   58.5469   64.9148 C   0  0  0  0  0  0  0  0  0  0  0  0
  -37.3111   57.3773   64.4207 C   0  0  0  0  0  0  0  0  0  0  0  0
  -35.8924   57.8498   64.1340 C   0  0  0  0  0  0  0  0  0  0  0  0
  -35.5370   57.5366   62.6802 C   0  0  0  0  0  0  0  0  0  0  0  0
  -36.7655   57.0084   61.9397 C   0  0  0  0  0  0  0  0  0  0  0  0
  -38.7452   58.3046   60.7247 C   0  0  0  0  0  0  0  0  0  0  0  0
  -37.2390   58.1015   60.9801 C   0  0  0  0  0  0  0  0  0  0  0  0
  -39.8072   57.3611   61.3100 C   0  0  0  0  0  0  0  0  0  0  0  0
  -40.6923   58.1985   62.2447 C   0  0  0  0  0  0  0  0  0  0  0  0
  -41.4824   57.5613   63.4128 C   0  0  0  0  0  0  0  0  0  0  0  0
  -41.3965   56.0544   63.7252 C   0  0  0  0  0  0  0  0  0  0  0  0
  -43.6530   56.8439   64.5701 C   0  0  0  0  0  0  0  0  0  0  0  0
  -42.7295   55.6408   64.3640 C   0  0  0  0  0  0  0  0  0  0  0  0
  -37.5597   59.9371   64.6093 C   0  0  0  0  0  0  0  0  0  0  0  0
  -37.2384   60.7535   65.8836 C   0  0  0  0  0  0  0  0  0  0  0  0
  -34.2399   62.3579   64.4036 C   0  0  0  0  0  0  0  0  0  0  0  0
  -33.8461   63.2400   65.4184 C   0  0  0  0  0  0  0  0  0  0  0  0
  -35.3627   61.5393   64.5742 C   0  0  0  0  0  0  0  0  0  0  0  0
  -34.5950   63.2875   66.5940 C   0  0  0  0  0  0  0  0  0  0  0  0
  -35.7165   62.4752   66.7542 C   0  0  0  0  0  0  0  0  0  0  0  0
  -36.1369   61.6076   65.7381 C   0  0  0  0  0  0  0  0  0  0  0  0
  -34.2791   64.1110   67.6233 O   0  0  0  0  0  0  0  0  0  0  0  0
  -36.4231   62.5613   67.9183 O   0  0  0  0  0  0  0  0  0  0  0  0
  -33.5335   64.6750   67.5603 H   0  0  0  0  0  0  0  0  0  0  0  0
  -36.1398   63.1424   68.5965 H   0  0  0  0  0  0  0  0  0  0  0  0
 12 13  1  0  0  0
  9 10  2  0  0  0
  9  8  1  0  0  0
  6  7  2  0  0  0
  6  8  1  0  0  0
 10 11  1  0  0  0
  7  5  1  0  0  0
 16 17  2  0  0  0
 16 18  1  0  0  0
 17 19  1  0  0  0
 18 21  2  0  0  0
 13 11  1  0  0  0
  5  4  1  0  0  0
  4  3  1  0  0  0
  3  2  1  0  0  0
  2  1  1  0  0  0
  1 14  1  0  0  0
 14 15  1  0  0  0
 15 21  1  0  0  0
 19 20  2  0  0  0
 19 22  1  0  0  0
 20 21  1  0  0  0
 20 23  1  0  0  0
 22 24  1  0  0  0
 23 25  1  0  0  0
M  END
> <minimizedAffinity>
-7.50719

> <CNNscore>
0.3137587309

> <CNNaffinity>
5.9943513870

> <CNN_VS>
1.8807801008

> <CNNaffinity_variance>
0.1131209880

$$$$
/media/chris/experiments/cd1a-new-docking/inputs/ligands/5j1a_ligand.pdb


 25 25  0  0  0  0  0  0  0  0999 V2000
  -38.9131   60.5957   61.4072 C   0  0  0  0  0  0  0  0  0  0  0  0
  -38.6258   59.9025   60.0670 C   0  0  0  0  0  0  0  0  0  0  0  0
  -38.1746   58.4668   60.2981 C   0  0  0  0  0  0  0  0  0  0  0  0
  -39.2723   57.7027   61.0392 C   0  0  0  0  0  0  0  0  0  0  0  0
  -38.6634   56.8625   62.1616 C   0  0  0  0  0  0  0  0  0  0  0  0
  -37.9873   57.7092   64.5909 C   0  0  0  0  0  0  0  0  0  0  0  0
  -39.0499   57.5097   63.4926 C   0  0  0  0  0  0  0  0  0  0  0  0
  -36.5565   57.1673   64.4509 C   0  0  0  0  0  0  0  0  0  0  0  0
  -35.6104   58.3769   64.4586 C   0  0  0  0  0  0  0  0  0  0  0  0
  -34.8225   58.8083   63.1985 C   0  0  0  0  0  0  0  0  0  0  0  0
  -34.9712   58.0686   61.8545 C   0  0  0  0  0  0  0  0  0  0  0  0
  -33.2742   56.1957   61.6502 C   0  0  0  0  0  0  0  0  0  0  0  0
  -33.5627   57.6758   61.3878 C   0  0  0  0  0  0  0  0  0  0  0  0
  -37.6378   60.8517   62.2516 C   0  0  0  0  0  0  0  0  0  0  0  0
  -37.9458   61.2211   63.7221 C   0  0  0  0  0  0  0  0  0  0  0  0
  -34.7059   62.9459   64.2539 C   0  0  0  0  0  0  0  0  0  0  0  0
  -34.6348   63.0159   65.6514 C   0  0  0  0  0  0  0  0  0  0  0  0
  -35.8065   62.3458   63.6307 C   0  0  0  0  0  0  0  0  0  0  0  0
  -35.6803   62.4813   66.4039 C   0  0  0  0  0  0  0  0  0  0  0  0
  -36.7769   61.8921   65.7768 C   0  0  0  0  0  0  0  0  0  0  0  0
  -36.8736   61.8382   64.3805 C   0  0  0  0  0  0  0  0  0  0  0  0
  -35.6862   62.5066   67.7592 O   0  0  0  0  0  0  0  0  0  0  0  0
  -37.7797   61.3893   66.5535 O   0  0  0  0  0  0  0  0  0  0  0  0
  -34.9698   62.8926   68.2238 H   0  0  0  0  0  0  0  0  0  0  0  0
  -37.7126   61.4265   67.4874 H   0  0  0  0  0  0  0  0  0  0  0  0
 12 13  1  0  0  0
  9 10  2  0  0  0
  9  8  1  0  0  0
  6  7  2  0  0  0
  6  8  1  0  0  0
 10 11  1  0  0  0
  7  5  1  0  0  0
 16 17  2  0  0  0
 16 18  1  0  0  0
 17 19  1  0  0  0
 18 21  2  0  0  0
 13 11  1  0  0  0
  5  4  1  0  0  0
  4  3  1  0  0  0
  3  2  1  0  0  0
  2  1  1  0  0  0
  1 14  1  0  0  0
 14 15  1  0  0  0
 15 21  1  0  0  0
 19 20  2  0  0  0
 19 22  1  0  0  0
 20 21  1  0  0  0
 20 23  1  0  0  0
 22 24  1  0  0  0
 23 25  1  0  0  0
M  END
> <minimizedAffinity>
-7.06776

> <CNNscore>
0.3027570248

> <CNNaffinity>
6.0140709877

> <CNN_VS>
1.8208022118

> <CNNaffinity_variance>
0.0808990076

$$$$
