/media/chris/experiments/cd1a-new-docking/inputs/ligands/5j1a_ligand.pdb


 25 25  0  0  0  0  0  0  0  0999 V2000
  -49.2392   58.4229   61.9518 C   0  0  0  0  0  0  0  0  0  0  0  0
  -50.4066   58.4375   62.9498 C   0  0  0  0  0  0  0  0  0  0  0  0
  -51.0152   59.8306   63.0343 C   0  0  0  0  0  0  0  0  0  0  0  0
  -51.0526   60.2805   64.4952 C   0  0  0  0  0  0  0  0  0  0  0  0
  -50.4304   59.2105   65.3920 C   0  0  0  0  0  0  0  0  0  0  0  0
  -47.9221   59.6743   66.1469 C   0  0  0  0  0  0  0  0  0  0  0  0
  -49.4358   59.9032   66.3253 C   0  0  0  0  0  0  0  0  0  0  0  0
  -47.3629   58.6674   65.1301 C   0  0  0  0  0  0  0  0  0  0  0  0
  -47.0620   57.3700   65.8947 C   0  0  0  0  0  0  0  0  0  0  0  0
  -45.7165   56.6214   65.7397 C   0  0  0  0  0  0  0  0  0  0  0  0
  -44.5886   57.1562   64.8357 C   0  0  0  0  0  0  0  0  0  0  0  0
  -42.6724   55.5565   64.3911 C   0  0  0  0  0  0  0  0  0  0  0  0
  -43.2664   56.5807   65.3612 C   0  0  0  0  0  0  0  0  0  0  0  0
  -49.4251   59.4158   60.7751 C   0  0  0  0  0  0  0  0  0  0  0  0
  -49.7206   58.7146   59.4282 C   0  0  0  0  0  0  0  0  0  0  0  0
  -46.5856   58.6185   57.4489 C   0  0  0  0  0  0  0  0  0  0  0  0
  -46.2947   57.2480   57.4231 C   0  0  0  0  0  0  0  0  0  0  0  0
  -47.7248   59.0875   58.1137 C   0  0  0  0  0  0  0  0  0  0  0  0
  -47.1581   56.3669   58.0737 C   0  0  0  0  0  0  0  0  0  0  0  0
  -48.2864   56.8414   58.7405 C   0  0  0  0  0  0  0  0  0  0  0  0
  -48.5754   58.2108   58.7965 C   0  0  0  0  0  0  0  0  0  0  0  0
  -46.9491   55.0276   58.0932 O   0  0  0  0  0  0  0  0  0  0  0  0
  -49.0981   55.9429   59.3696 O   0  0  0  0  0  0  0  0  0  0  0  0
  -46.2033   54.6634   57.6583 H   0  0  0  0  0  0  0  0  0  0  0  0
  -48.9026   55.0274   59.3306 H   0  0  0  0  0  0  0  0  0  0  0  0
 12 13  1  0  0  0
  9 10  2  0  0  0
  9  8  1  0  0  0
  6  7  2  0  0  0
  6  8  1  0  0  0
 10 11  1  0  0  0
  7  5  1  0  0  0
 16 17  2  0  0  0
 16 18  1  0  0  0
 17 19  1  0  0  0
 18 21  2  0  0  0
 13 11  1  0  0  0
  5  4  1  0  0  0
  4  3  1  0  0  0
  3  2  1  0  0  0
  2  1  1  0  0  0
  1 14  1  0  0  0
 14 15  1  0  0  0
 15 21  1  0  0  0
 19 20  2  0  0  0
 19 22  1  0  0  0
 20 21  1  0  0  0
 20 23  1  0  0  0
 22 24  1  0  0  0
 23 25  1  0  0  0
M  END
> <minimizedAffinity>
-8.13264

> <CNNscore>
0.7495573163

> <CNNaffinity>
7.0682935715

> <CNN_VS>
5.2980909348

> <CNNaffinity_variance>
0.2480719537

$$$$
/media/chris/experiments/cd1a-new-docking/inputs/ligands/5j1a_ligand.pdb


 25 25  0  0  0  0  0  0  0  0999 V2000
  -47.7265   55.9554   59.3432 C   0  0  0  0  0  0  0  0  0  0  0  0
  -49.2089   55.9318   59.7446 C   0  0  0  0  0  0  0  0  0  0  0  0
  -49.7026   57.3425   60.0350 C   0  0  0  0  0  0  0  0  0  0  0  0
  -49.1717   57.7961   61.3953 C   0  0  0  0  0  0  0  0  0  0  0  0
  -50.3342   58.0851   62.3449 C   0  0  0  0  0  0  0  0  0  0  0  0
  -50.5084   60.1829   63.9712 C   0  0  0  0  0  0  0  0  0  0  0  0
  -50.4065   59.5995   62.5482 C   0  0  0  0  0  0  0  0  0  0  0  0
  -50.6648   59.2889   65.2109 C   0  0  0  0  0  0  0  0  0  0  0  0
  -49.4718   59.5793   66.1332 C   0  0  0  0  0  0  0  0  0  0  0  0
  -48.2570   58.6249   66.2259 C   0  0  0  0  0  0  0  0  0  0  0  0
  -48.1608   57.3468   65.3699 C   0  0  0  0  0  0  0  0  0  0  0  0
  -46.3405   57.0485   67.1094 C   0  0  0  0  0  0  0  0  0  0  0  0
  -47.2910   56.3430   66.1390 C   0  0  0  0  0  0  0  0  0  0  0  0
  -47.4562   56.7504   58.0394 C   0  0  0  0  0  0  0  0  0  0  0  0
  -46.2578   57.7217   58.1565 C   0  0  0  0  0  0  0  0  0  0  0  0
  -47.5616   60.9968   59.3094 C   0  0  0  0  0  0  0  0  0  0  0  0
  -46.9811   61.1151   60.5792 C   0  0  0  0  0  0  0  0  0  0  0  0
  -47.3097   59.8694   58.5186 C   0  0  0  0  0  0  0  0  0  0  0  0
  -46.1547   60.0892   61.0370 C   0  0  0  0  0  0  0  0  0  0  0  0
  -45.9144   58.9657   60.2478 C   0  0  0  0  0  0  0  0  0  0  0  0
  -46.5085   58.8222   58.9874 C   0  0  0  0  0  0  0  0  0  0  0  0
  -45.5536   60.1284   62.2515 O   0  0  0  0  0  0  0  0  0  0  0  0
  -45.1053   57.9837   60.7403 O   0  0  0  0  0  0  0  0  0  0  0  0
  -45.6864   60.8642   62.8163 H   0  0  0  0  0  0  0  0  0  0  0  0
  -44.7090   58.0820   61.5836 H   0  0  0  0  0  0  0  0  0  0  0  0
 12 13  1  0  0  0
  9 10  2  0  0  0
  9  8  1  0  0  0
  6  7  2  0  0  0
  6  8  1  0  0  0
 10 11  1  0  0  0
  7  5  1  0  0  0
 16 17  2  0  0  0
 16 18  1  0  0  0
 17 19  1  0  0  0
 18 21  2  0  0  0
 13 11  1  0  0  0
  5  4  1  0  0  0
  4  3  1  0  0  0
  3  2  1  0  0  0
  2  1  1  0  0  0
  1 14  1  0  0  0
 14 15  1  0  0  0
 15 21  1  0  0  0
 19 20  2  0  0  0
 19 22  1  0  0  0
 20 21  1  0  0  0
 20 23  1  0  0  0
 22 24  1  0  0  0
 23 25  1  0  0  0
M  END
> <minimizedAffinity>
-7.79501

> <CNNscore>
0.7119569778

> <CNNaffinity>
6.7990875244

> <CNN_VS>
4.8406577110

> <CNNaffinity_variance>
0.2361058295

$$$$
/media/chris/experiments/cd1a-new-docking/inputs/ligands/5j1a_ligand.pdb


 25 25  0  0  0  0  0  0  0  0999 V2000
  -47.6062   60.9009   61.3960 C   0  0  0  0  0  0  0  0  0  0  0  0
  -46.5331   61.9786   61.6110 C   0  0  0  0  0  0  0  0  0  0  0  0
  -45.4195   61.4481   62.5035 C   0  0  0  0  0  0  0  0  0  0  0  0
  -45.7799   60.0418   62.9834 C   0  0  0  0  0  0  0  0  0  0  0  0
  -44.9009   59.6488   64.1706 C   0  0  0  0  0  0  0  0  0  0  0  0
  -46.6962   59.0590   66.0429 C   0  0  0  0  0  0  0  0  0  0  0  0
  -45.6497   60.0234   65.4509 C   0  0  0  0  0  0  0  0  0  0  0  0
  -47.1151   57.7674   65.3241 C   0  0  0  0  0  0  0  0  0  0  0  0
  -48.4608   57.3314   65.9219 C   0  0  0  0  0  0  0  0  0  0  0  0
  -49.7688   58.1130   65.6513 C   0  0  0  0  0  0  0  0  0  0  0  0
  -49.7997   59.3531   64.7366 C   0  0  0  0  0  0  0  0  0  0  0  0
  -51.1777   59.9757   62.7014 C   0  0  0  0  0  0  0  0  0  0  0  0
  -50.3148   58.8990   63.3639 C   0  0  0  0  0  0  0  0  0  0  0  0
  -48.1489   60.8562   59.9440 C   0  0  0  0  0  0  0  0  0  0  0  0
  -48.9170   59.5527   59.6214 C   0  0  0  0  0  0  0  0  0  0  0  0
  -46.3417   58.2160   57.3113 C   0  0  0  0  0  0  0  0  0  0  0  0
  -46.6858   56.8596   57.2388 C   0  0  0  0  0  0  0  0  0  0  0  0
  -47.0921   59.0949   58.1015 C   0  0  0  0  0  0  0  0  0  0  0  0
  -47.7835   56.4062   57.9698 C   0  0  0  0  0  0  0  0  0  0  0  0
  -48.5216   57.2851   58.7608 C   0  0  0  0  0  0  0  0  0  0  0  0
  -48.1735   58.6381   58.8631 C   0  0  0  0  0  0  0  0  0  0  0  0
  -48.1829   55.1109   57.9516 O   0  0  0  0  0  0  0  0  0  0  0  0
  -49.5828   56.7950   59.4645 O   0  0  0  0  0  0  0  0  0  0  0  0
  -47.7168   54.4841   57.4340 H   0  0  0  0  0  0  0  0  0  0  0  0
  -49.8136   55.8896   59.3944 H   0  0  0  0  0  0  0  0  0  0  0  0
 12 13  1  0  0  0
  9 10  2  0  0  0
  9  8  1  0  0  0
  6  7  2  0  0  0
  6  8  1  0  0  0
 10 11  1  0  0  0
  7  5  1  0  0  0
 16 17  2  0  0  0
 16 18  1  0  0  0
 17 19  1  0  0  0
 18 21  2  0  0  0
 13 11  1  0  0  0
  5  4  1  0  0  0
  4  3  1  0  0  0
  3  2  1  0  0  0
  2  1  1  0  0  0
  1 14  1  0  0  0
 14 15  1  0  0  0
 15 21  1  0  0  0
 19 20  2  0  0  0
 19 22  1  0  0  0
 20 21  1  0  0  0
 20 23  1  0  0  0
 22 24  1  0  0  0
 23 25  1  0  0  0
M  END
> <minimizedAffinity>
-7.82230

> <CNNscore>
0.6483517289

> <CNNaffinity>
6.9702081680

> <CNN_VS>
4.5191464424

> <CNNaffinity_variance>
0.3564201593

$$$$
/media/chris/experiments/cd1a-new-docking/inputs/ligands/5j1a_ligand.pdb


 25 25  0  0  0  0  0  0  0  0999 V2000
  -47.2644   56.3660   57.0642 C   0  0  0  0  0  0  0  0  0  0  0  0
  -48.6800   56.8704   56.7465 C   0  0  0  0  0  0  0  0  0  0  0  0
  -49.3954   57.2842   58.0252 C   0  0  0  0  0  0  0  0  0  0  0  0
  -49.0646   56.2881   59.1371 C   0  0  0  0  0  0  0  0  0  0  0  0
  -49.5690   56.8125   60.4814 C   0  0  0  0  0  0  0  0  0  0  0  0
  -50.2240   59.1651   61.5360 C   0  0  0  0  0  0  0  0  0  0  0  0
  -49.9246   58.2896   60.3033 C   0  0  0  0  0  0  0  0  0  0  0  0
  -50.3003   58.5795   62.9544 C   0  0  0  0  0  0  0  0  0  0  0  0
  -50.7205   59.7193   63.8938 C   0  0  0  0  0  0  0  0  0  0  0  0
  -50.5791   59.6080   65.4309 C   0  0  0  0  0  0  0  0  0  0  0  0
  -49.9745   58.3596   66.1028 C   0  0  0  0  0  0  0  0  0  0  0  0
  -48.2852   60.2064   66.5075 C   0  0  0  0  0  0  0  0  0  0  0  0
  -48.5237   58.6948   66.4745 C   0  0  0  0  0  0  0  0  0  0  0  0
  -46.2358   57.5093   57.2638 C   0  0  0  0  0  0  0  0  0  0  0  0
  -45.7850   57.6722   58.7346 C   0  0  0  0  0  0  0  0  0  0  0  0
  -47.5528   60.9016   59.1832 C   0  0  0  0  0  0  0  0  0  0  0  0
  -47.3340   61.1718   60.5406 C   0  0  0  0  0  0  0  0  0  0  0  0
  -47.0307   59.7410   58.5998 C   0  0  0  0  0  0  0  0  0  0  0  0
  -46.5921   60.2626   61.2942 C   0  0  0  0  0  0  0  0  0  0  0  0
  -46.0818   59.1050   60.7089 C   0  0  0  0  0  0  0  0  0  0  0  0
  -46.3147   58.8093   59.3597 C   0  0  0  0  0  0  0  0  0  0  0  0
  -46.3339   60.4517   62.6115 O   0  0  0  0  0  0  0  0  0  0  0  0
  -45.3686   58.2406   61.4872 O   0  0  0  0  0  0  0  0  0  0  0  0
  -46.6569   61.2157   63.0473 H   0  0  0  0  0  0  0  0  0  0  0  0
  -45.2142   58.4407   62.3894 H   0  0  0  0  0  0  0  0  0  0  0  0
 12 13  1  0  0  0
  9 10  2  0  0  0
  9  8  1  0  0  0
  6  7  2  0  0  0
  6  8  1  0  0  0
 10 11  1  0  0  0
  7  5  1  0  0  0
 16 17  2  0  0  0
 16 18  1  0  0  0
 17 19  1  0  0  0
 18 21  2  0  0  0
 13 11  1  0  0  0
  5  4  1  0  0  0
  4  3  1  0  0  0
  3  2  1  0  0  0
  2  1  1  0  0  0
  1 14  1  0  0  0
 14 15  1  0  0  0
 15 21  1  0  0  0
 19 20  2  0  0  0
 19 22  1  0  0  0
 20 21  1  0  0  0
 20 23  1  0  0  0
 22 24  1  0  0  0
 23 25  1  0  0  0
M  END
> <minimizedAffinity>
-8.35769

> <CNNscore>
0.6235281229

> <CNNaffinity>
6.7177658081

> <CNN_VS>
4.1887159348

> <CNNaffinity_variance>
0.0976642221

$$$$
/media/chris/experiments/cd1a-new-docking/inputs/ligands/5j1a_ligand.pdb


 25 25  0  0  0  0  0  0  0  0999 V2000
  -48.1849   60.7666   64.9112 C   0  0  0  0  0  0  0  0  0  0  0  0
  -49.2204   59.9276   65.6747 C   0  0  0  0  0  0  0  0  0  0  0  0
  -50.0550   59.1030   64.7044 C   0  0  0  0  0  0  0  0  0  0  0  0
  -49.2001   57.9705   64.1348 C   0  0  0  0  0  0  0  0  0  0  0  0
  -49.1030   58.0971   62.6145 C   0  0  0  0  0  0  0  0  0  0  0  0
  -50.8515   57.5810   60.6774 C   0  0  0  0  0  0  0  0  0  0  0  0
  -50.5265   58.1788   62.0603 C   0  0  0  0  0  0  0  0  0  0  0  0
  -49.7621   57.0023   59.7615 C   0  0  0  0  0  0  0  0  0  0  0  0
  -49.5063   58.0338   58.6529 C   0  0  0  0  0  0  0  0  0  0  0  0
  -48.1674   58.8018   58.5420 C   0  0  0  0  0  0  0  0  0  0  0  0
  -47.0016   58.5475   59.5177 C   0  0  0  0  0  0  0  0  0  0  0  0
  -46.2072   57.6775   57.2726 C   0  0  0  0  0  0  0  0  0  0  0  0
  -45.9698   57.6793   58.7847 C   0  0  0  0  0  0  0  0  0  0  0  0
  -46.7195   60.3713   65.2294 C   0  0  0  0  0  0  0  0  0  0  0  0
  -45.9645   59.7990   64.0065 C   0  0  0  0  0  0  0  0  0  0  0  0
  -44.5099   62.4653   61.8781 C   0  0  0  0  0  0  0  0  0  0  0  0
  -43.1613   62.4434   62.2580 C   0  0  0  0  0  0  0  0  0  0  0  0
  -45.4242   61.5815   62.4635 C   0  0  0  0  0  0  0  0  0  0  0  0
  -42.7530   61.5298   63.2293 C   0  0  0  0  0  0  0  0  0  0  0  0
  -43.6702   60.6580   63.8140 C   0  0  0  0  0  0  0  0  0  0  0  0
  -45.0259   60.6864   63.4626 C   0  0  0  0  0  0  0  0  0  0  0  0
  -41.4672   61.4434   63.6499 O   0  0  0  0  0  0  0  0  0  0  0  0
  -43.2265   59.7866   64.7656 O   0  0  0  0  0  0  0  0  0  0  0  0
  -40.8159   62.0096   63.2849 H   0  0  0  0  0  0  0  0  0  0  0  0
  -42.3192   59.7696   64.9988 H   0  0  0  0  0  0  0  0  0  0  0  0
 12 13  1  0  0  0
  9 10  2  0  0  0
  9  8  1  0  0  0
  6  7  2  0  0  0
  6  8  1  0  0  0
 10 11  1  0  0  0
  7  5  1  0  0  0
 16 17  2  0  0  0
 16 18  1  0  0  0
 17 19  1  0  0  0
 18 21  2  0  0  0
 13 11  1  0  0  0
  5  4  1  0  0  0
  4  3  1  0  0  0
  3  2  1  0  0  0
  2  1  1  0  0  0
  1 14  1  0  0  0
 14 15  1  0  0  0
 15 21  1  0  0  0
 19 20  2  0  0  0
 19 22  1  0  0  0
 20 21  1  0  0  0
 20 23  1  0  0  0
 22 24  1  0  0  0
 23 25  1  0  0  0
M  END
> <minimizedAffinity>
-7.76929

> <CNNscore>
0.5730328560

> <CNNaffinity>
6.3557343483

> <CNN_VS>
3.6420445442

> <CNNaffinity_variance>
0.1825022399

$$$$
/media/chris/experiments/cd1a-new-docking/inputs/ligands/5j1a_ligand.pdb


 25 25  0  0  0  0  0  0  0  0999 V2000
  -48.8610   60.0914   66.1152 C   0  0  0  0  0  0  0  0  0  0  0  0
  -50.1914   59.4643   65.6726 C   0  0  0  0  0  0  0  0  0  0  0  0
  -50.0478   58.8317   64.2952 C   0  0  0  0  0  0  0  0  0  0  0  0
  -50.9240   59.5874   63.2956 C   0  0  0  0  0  0  0  0  0  0  0  0
  -50.4174   59.3575   61.8718 C   0  0  0  0  0  0  0  0  0  0  0  0
  -50.1432   57.3000   60.2081 C   0  0  0  0  0  0  0  0  0  0  0  0
  -50.3685   57.8476   61.6312 C   0  0  0  0  0  0  0  0  0  0  0  0
  -50.0846   58.2201   58.9790 C   0  0  0  0  0  0  0  0  0  0  0  0
  -49.1964   57.5270   57.9354 C   0  0  0  0  0  0  0  0  0  0  0  0
  -47.7200   57.9355   57.7156 C   0  0  0  0  0  0  0  0  0  0  0  0
  -47.0480   59.0376   58.5577 C   0  0  0  0  0  0  0  0  0  0  0  0
  -46.6555   58.4585   60.9947 C   0  0  0  0  0  0  0  0  0  0  0  0
  -46.1203   58.3449   59.5652 C   0  0  0  0  0  0  0  0  0  0  0  0
  -47.7957   60.1296   64.9888 C   0  0  0  0  0  0  0  0  0  0  0  0
  -46.3446   60.1538   65.5244 C   0  0  0  0  0  0  0  0  0  0  0  0
  -45.1410   56.6944   66.1067 C   0  0  0  0  0  0  0  0  0  0  0  0
  -44.2309   56.5177   65.0561 C   0  0  0  0  0  0  0  0  0  0  0  0
  -45.8299   57.9047   66.2500 C   0  0  0  0  0  0  0  0  0  0  0  0
  -44.0304   57.5666   64.1590 C   0  0  0  0  0  0  0  0  0  0  0  0
  -44.7255   58.7662   64.3028 C   0  0  0  0  0  0  0  0  0  0  0  0
  -45.6572   58.9475   65.3330 C   0  0  0  0  0  0  0  0  0  0  0  0
  -43.1663   57.4767   63.1184 O   0  0  0  0  0  0  0  0  0  0  0  0
  -44.5027   59.7617   63.3968 O   0  0  0  0  0  0  0  0  0  0  0  0
  -42.6772   56.6892   62.9823 H   0  0  0  0  0  0  0  0  0  0  0  0
  -43.8790   59.6380   62.7086 H   0  0  0  0  0  0  0  0  0  0  0  0
 12 13  1  0  0  0
  9 10  2  0  0  0
  9  8  1  0  0  0
  6  7  2  0  0  0
  6  8  1  0  0  0
 10 11  1  0  0  0
  7  5  1  0  0  0
 16 17  2  0  0  0
 16 18  1  0  0  0
 17 19  1  0  0  0
 18 21  2  0  0  0
 13 11  1  0  0  0
  5  4  1  0  0  0
  4  3  1  0  0  0
  3  2  1  0  0  0
  2  1  1  0  0  0
  1 14  1  0  0  0
 14 15  1  0  0  0
 15 21  1  0  0  0
 19 20  2  0  0  0
 19 22  1  0  0  0
 20 21  1  0  0  0
 20 23  1  0  0  0
 22 24  1  0  0  0
 23 25  1  0  0  0
M  END
> <minimizedAffinity>
-7.59945

> <CNNscore>
0.5380157232

> <CNNaffinity>
6.4853792191

> <CNN_VS>
3.4892358780

> <CNNaffinity_variance>
0.3618725240

$$$$
/media/chris/experiments/cd1a-new-docking/inputs/ligands/5j1a_ligand.pdb


 25 25  0  0  0  0  0  0  0  0999 V2000
  -47.8289   58.7764   62.1170 C   0  0  0  0  0  0  0  0  0  0  0  0
  -47.4551   60.2226   61.7592 C   0  0  0  0  0  0  0  0  0  0  0  0
  -45.9792   60.3151   61.3970 C   0  0  0  0  0  0  0  0  0  0  0  0
  -45.3706   58.9124   61.3845 C   0  0  0  0  0  0  0  0  0  0  0  0
  -44.1796   58.8464   62.3405 C   0  0  0  0  0  0  0  0  0  0  0  0
  -45.2544   58.1711   64.6782 C   0  0  0  0  0  0  0  0  0  0  0  0
  -44.4875   57.7850   63.3982 C   0  0  0  0  0  0  0  0  0  0  0  0
  -45.6250   59.6269   65.0003 C   0  0  0  0  0  0  0  0  0  0  0  0
  -46.3704   59.6190   66.3429 C   0  0  0  0  0  0  0  0  0  0  0  0
  -47.8356   60.1009   66.4691 C   0  0  0  0  0  0  0  0  0  0  0  0
  -48.6406   60.5825   65.2461 C   0  0  0  0  0  0  0  0  0  0  0  0
  -49.8146   58.3358   65.1948 C   0  0  0  0  0  0  0  0  0  0  0  0
  -49.9915   59.8543   65.2694 C   0  0  0  0  0  0  0  0  0  0  0  0
  -49.0433   58.2401   61.3156 C   0  0  0  0  0  0  0  0  0  0  0  0
  -49.1614   58.8594   59.9029 C   0  0  0  0  0  0  0  0  0  0  0  0
  -46.5755   58.4310   57.2789 C   0  0  0  0  0  0  0  0  0  0  0  0
  -46.7102   57.0756   56.9503 C   0  0  0  0  0  0  0  0  0  0  0  0
  -47.3965   59.0071   58.2556 C   0  0  0  0  0  0  0  0  0  0  0  0
  -47.6719   56.3164   57.6164 C   0  0  0  0  0  0  0  0  0  0  0  0
  -48.4807   56.8944   58.5935 C   0  0  0  0  0  0  0  0  0  0  0  0
  -48.3395   58.2415   58.9505 C   0  0  0  0  0  0  0  0  0  0  0  0
  -47.8668   55.0005   57.3552 O   0  0  0  0  0  0  0  0  0  0  0  0
  -49.4026   56.1109   59.2243 O   0  0  0  0  0  0  0  0  0  0  0  0
  -47.3462   54.5696   56.7062 H   0  0  0  0  0  0  0  0  0  0  0  0
  -49.4951   55.2101   58.9837 H   0  0  0  0  0  0  0  0  0  0  0  0
 12 13  1  0  0  0
  9 10  2  0  0  0
  9  8  1  0  0  0
  6  7  2  0  0  0
  6  8  1  0  0  0
 10 11  1  0  0  0
  7  5  1  0  0  0
 16 17  2  0  0  0
 16 18  1  0  0  0
 17 19  1  0  0  0
 18 21  2  0  0  0
 13 11  1  0  0  0
  5  4  1  0  0  0
  4  3  1  0  0  0
  3  2  1  0  0  0
  2  1  1  0  0  0
  1 14  1  0  0  0
 14 15  1  0  0  0
 15 21  1  0  0  0
 19 20  2  0  0  0
 19 22  1  0  0  0
 20 21  1  0  0  0
 20 23  1  0  0  0
 22 24  1  0  0  0
 23 25  1  0  0  0
M  END
> <minimizedAffinity>
-7.15113

> <CNNscore>
0.4305280447

> <CNNaffinity>
6.8011946678

> <CNN_VS>
2.9281051159

> <CNNaffinity_variance>
0.2426796257

$$$$
/media/chris/experiments/cd1a-new-docking/inputs/ligands/5j1a_ligand.pdb


 25 25  0  0  0  0  0  0  0  0999 V2000
  -48.3192   59.0975   66.5034 C   0  0  0  0  0  0  0  0  0  0  0  0
  -49.7321   59.6626   66.2948 C   0  0  0  0  0  0  0  0  0  0  0  0
  -50.3599   59.0720   65.0397 C   0  0  0  0  0  0  0  0  0  0  0  0
  -51.1194   60.1663   64.2888 C   0  0  0  0  0  0  0  0  0  0  0  0
  -51.0440   59.9207   62.7820 C   0  0  0  0  0  0  0  0  0  0  0  0
  -49.7156   58.1893   61.2608 C   0  0  0  0  0  0  0  0  0  0  0  0
  -50.4676   58.5204   62.5648 C   0  0  0  0  0  0  0  0  0  0  0  0
  -49.6221   59.1872   60.0962 C   0  0  0  0  0  0  0  0  0  0  0  0
  -49.7737   58.3833   58.7966 C   0  0  0  0  0  0  0  0  0  0  0  0
  -48.5693   58.0890   57.8705 C   0  0  0  0  0  0  0  0  0  0  0  0
  -47.1427   58.5563   58.2197 C   0  0  0  0  0  0  0  0  0  0  0  0
  -46.8797   56.5417   56.7030 C   0  0  0  0  0  0  0  0  0  0  0  0
  -46.1657   57.7023   57.4001 C   0  0  0  0  0  0  0  0  0  0  0  0
  -47.8713   58.1326   65.3750 C   0  0  0  0  0  0  0  0  0  0  0  0
  -46.3369   57.9474   65.3063 C   0  0  0  0  0  0  0  0  0  0  0  0
  -46.1124   58.9417   61.7403 C   0  0  0  0  0  0  0  0  0  0  0  0
  -44.8254   58.5093   61.3938 C   0  0  0  0  0  0  0  0  0  0  0  0
  -46.5992   58.7453   63.0381 C   0  0  0  0  0  0  0  0  0  0  0  0
  -44.0430   57.8860   62.3657 C   0  0  0  0  0  0  0  0  0  0  0  0
  -44.5309   57.7007   63.6581 C   0  0  0  0  0  0  0  0  0  0  0  0
  -45.8054   58.1510   64.0255 C   0  0  0  0  0  0  0  0  0  0  0  0
  -42.7896   57.4370   62.1104 O   0  0  0  0  0  0  0  0  0  0  0  0
  -43.7269   57.0929   64.5778 O   0  0  0  0  0  0  0  0  0  0  0  0
  -42.4201   57.5399   61.2555 H   0  0  0  0  0  0  0  0  0  0  0  0
  -42.8748   56.7926   64.3296 H   0  0  0  0  0  0  0  0  0  0  0  0
 12 13  1  0  0  0
  9 10  2  0  0  0
  9  8  1  0  0  0
  6  7  2  0  0  0
  6  8  1  0  0  0
 10 11  1  0  0  0
  7  5  1  0  0  0
 16 17  2  0  0  0
 16 18  1  0  0  0
 17 19  1  0  0  0
 18 21  2  0  0  0
 13 11  1  0  0  0
  5  4  1  0  0  0
  4  3  1  0  0  0
  3  2  1  0  0  0
  2  1  1  0  0  0
  1 14  1  0  0  0
 14 15  1  0  0  0
 15 21  1  0  0  0
 19 20  2  0  0  0
 19 22  1  0  0  0
 20 21  1  0  0  0
 20 23  1  0  0  0
 22 24  1  0  0  0
 23 25  1  0  0  0
M  END
> <minimizedAffinity>
-7.88348

> <CNNscore>
0.4065205455

> <CNNaffinity>
6.3921203613

> <CNN_VS>
2.5985281467

> <CNNaffinity_variance>
0.3267491162

$$$$
/media/chris/experiments/cd1a-new-docking/inputs/ligands/5j1a_ligand.pdb


 25 25  0  0  0  0  0  0  0  0999 V2000
  -50.8085   58.3136   61.5356 C   0  0  0  0  0  0  0  0  0  0  0  0
  -49.7144   59.0085   62.3597 C   0  0  0  0  0  0  0  0  0  0  0  0
  -49.3214   60.3297   61.7131 C   0  0  0  0  0  0  0  0  0  0  0  0
  -47.8003   60.3920   61.5695 C   0  0  0  0  0  0  0  0  0  0  0  0
  -47.1464   59.2968   62.4118 C   0  0  0  0  0  0  0  0  0  0  0  0
  -46.3282   60.6455   64.5538 C   0  0  0  0  0  0  0  0  0  0  0  0
  -46.0173   59.9396   63.2194 C   0  0  0  0  0  0  0  0  0  0  0  0
  -47.7662   60.8404   65.0587 C   0  0  0  0  0  0  0  0  0  0  0  0
  -47.8305   60.2615   66.4796 C   0  0  0  0  0  0  0  0  0  0  0  0
  -48.2485   58.7959   66.7486 C   0  0  0  0  0  0  0  0  0  0  0  0
  -48.5892   57.8246   65.6014 C   0  0  0  0  0  0  0  0  0  0  0  0
  -46.4677   56.8449   66.5851 C   0  0  0  0  0  0  0  0  0  0  0  0
  -47.7570   56.5526   65.8137 C   0  0  0  0  0  0  0  0  0  0  0  0
  -50.3616   57.9654   60.0920 C   0  0  0  0  0  0  0  0  0  0  0  0
  -49.1902   56.9561   60.0445 C   0  0  0  0  0  0  0  0  0  0  0  0
  -46.9772   58.7518   57.6709 C   0  0  0  0  0  0  0  0  0  0  0  0
  -46.5699   57.7231   56.8112 C   0  0  0  0  0  0  0  0  0  0  0  0
  -47.8474   58.4824   58.7341 C   0  0  0  0  0  0  0  0  0  0  0  0
  -47.0444   56.4315   57.0389 C   0  0  0  0  0  0  0  0  0  0  0  0
  -47.9042   56.1687   58.1040 C   0  0  0  0  0  0  0  0  0  0  0  0
  -48.2991   57.1823   58.9866 C   0  0  0  0  0  0  0  0  0  0  0  0
  -46.7002   55.3825   56.2523 O   0  0  0  0  0  0  0  0  0  0  0  0
  -48.3367   54.8885   58.2925 O   0  0  0  0  0  0  0  0  0  0  0  0
  -46.1244   55.5118   55.5244 H   0  0  0  0  0  0  0  0  0  0  0  0
  -48.0712   54.2123   57.7007 H   0  0  0  0  0  0  0  0  0  0  0  0
 12 13  1  0  0  0
  9 10  2  0  0  0
  9  8  1  0  0  0
  6  7  2  0  0  0
  6  8  1  0  0  0
 10 11  1  0  0  0
  7  5  1  0  0  0
 16 17  2  0  0  0
 16 18  1  0  0  0
 17 19  1  0  0  0
 18 21  2  0  0  0
 13 11  1  0  0  0
  5  4  1  0  0  0
  4  3  1  0  0  0
  3  2  1  0  0  0
  2  1  1  0  0  0
  1 14  1  0  0  0
 14 15  1  0  0  0
 15 21  1  0  0  0
 19 20  2  0  0  0
 19 22  1  0  0  0
 20 21  1  0  0  0
 20 23  1  0  0  0
 22 24  1  0  0  0
 23 25  1  0  0  0
M  END
> <minimizedAffinity>
-7.41624

> <CNNscore>
0.4010255635

> <CNNaffinity>
6.7786722183

> <CNN_VS>
2.7184207439

> <CNNaffinity_variance>
0.0560499020

$$$$
