/media/chris/experiments/cd1a-new-docking/inputs/ligands/5j1a_ligand.pdb


 25 25  0  0  0  0  0  0  0  0999 V2000
  -50.3881   58.3136   62.5022 C   0  0  0  0  0  0  0  0  0  0  0  0
  -51.1197   59.6602   62.6042 C   0  0  0  0  0  0  0  0  0  0  0  0
  -51.1679   60.1297   64.0517 C   0  0  0  0  0  0  0  0  0  0  0  0
  -49.7441   60.2323   64.5997 C   0  0  0  0  0  0  0  0  0  0  0  0
  -49.7116   59.8007   66.0657 C   0  0  0  0  0  0  0  0  0  0  0  0
  -48.9214   57.2646   65.9266 C   0  0  0  0  0  0  0  0  0  0  0  0
  -50.0394   58.3075   66.1209 C   0  0  0  0  0  0  0  0  0  0  0  0
  -47.4861   57.6660   65.5532 C   0  0  0  0  0  0  0  0  0  0  0  0
  -46.5695   57.1773   66.6842 C   0  0  0  0  0  0  0  0  0  0  0  0
  -45.0723   56.8655   66.4480 C   0  0  0  0  0  0  0  0  0  0  0  0
  -44.4088   57.0625   65.0709 C   0  0  0  0  0  0  0  0  0  0  0  0
  -43.7222   59.2440   66.1653 C   0  0  0  0  0  0  0  0  0  0  0  0
  -43.2916   58.1008   65.2432 C   0  0  0  0  0  0  0  0  0  0  0  0
  -49.8408   58.0183   61.0816 C   0  0  0  0  0  0  0  0  0  0  0  0
  -48.3013   57.8719   61.0409 C   0  0  0  0  0  0  0  0  0  0  0  0
  -46.5856   58.4264   57.7999 C   0  0  0  0  0  0  0  0  0  0  0  0
  -46.8267   57.2206   57.1283 C   0  0  0  0  0  0  0  0  0  0  0  0
  -47.0832   58.6278   59.0928 C   0  0  0  0  0  0  0  0  0  0  0  0
  -47.5660   56.2295   57.7737 C   0  0  0  0  0  0  0  0  0  0  0  0
  -48.0517   56.4336   59.0641 C   0  0  0  0  0  0  0  0  0  0  0  0
  -47.7964   57.6237   59.7573 C   0  0  0  0  0  0  0  0  0  0  0  0
  -47.8448   55.0371   57.1921 O   0  0  0  0  0  0  0  0  0  0  0  0
  -48.7632   55.4328   59.6589 O   0  0  0  0  0  0  0  0  0  0  0  0
  -47.5385   54.8555   56.3254 H   0  0  0  0  0  0  0  0  0  0  0  0
  -48.9328   54.6376   59.1931 H   0  0  0  0  0  0  0  0  0  0  0  0
 12 13  1  0  0  0
  9 10  2  0  0  0
  9  8  1  0  0  0
  6  7  2  0  0  0
  6  8  1  0  0  0
 10 11  1  0  0  0
  7  5  1  0  0  0
 16 17  2  0  0  0
 16 18  1  0  0  0
 17 19  1  0  0  0
 18 21  2  0  0  0
 13 11  1  0  0  0
  5  4  1  0  0  0
  4  3  1  0  0  0
  3  2  1  0  0  0
  2  1  1  0  0  0
  1 14  1  0  0  0
 14 15  1  0  0  0
 15 21  1  0  0  0
 19 20  2  0  0  0
 19 22  1  0  0  0
 20 21  1  0  0  0
 20 23  1  0  0  0
 22 24  1  0  0  0
 23 25  1  0  0  0
M  END
> <minimizedAffinity>
-7.94064

> <CNNscore>
0.7261590958

> <CNNaffinity>
7.1253371239

> <CNN_VS>
5.1741285324

> <CNNaffinity_variance>
0.2369780242

$$$$
/media/chris/experiments/cd1a-new-docking/inputs/ligands/5j1a_ligand.pdb


 25 25  0  0  0  0  0  0  0  0999 V2000
  -45.9404   57.0223   66.3238 C   0  0  0  0  0  0  0  0  0  0  0  0
  -45.1017   58.2860   66.5663 C   0  0  0  0  0  0  0  0  0  0  0  0
  -45.8279   59.5148   66.0364 C   0  0  0  0  0  0  0  0  0  0  0  0
  -45.1036   60.0364   64.7949 C   0  0  0  0  0  0  0  0  0  0  0  0
  -46.0481   60.0317   63.5931 C   0  0  0  0  0  0  0  0  0  0  0  0
  -45.9515   58.5466   61.3884 C   0  0  0  0  0  0  0  0  0  0  0  0
  -45.9485   58.6590   62.9255 C   0  0  0  0  0  0  0  0  0  0  0  0
  -46.1753   59.7661   60.4809 C   0  0  0  0  0  0  0  0  0  0  0  0
  -47.4870   59.5294   59.7183 C   0  0  0  0  0  0  0  0  0  0  0  0
  -47.5247   58.7729   58.3688 C   0  0  0  0  0  0  0  0  0  0  0  0
  -46.2510   58.1833   57.7321 C   0  0  0  0  0  0  0  0  0  0  0  0
  -48.0877   57.3165   56.2143 C   0  0  0  0  0  0  0  0  0  0  0  0
  -46.6895   57.0604   56.7821 C   0  0  0  0  0  0  0  0  0  0  0  0
  -47.4630   57.2511   66.5088 C   0  0  0  0  0  0  0  0  0  0  0  0
  -48.2631   57.1152   65.1919 C   0  0  0  0  0  0  0  0  0  0  0  0
  -50.6288   59.8771   65.9205 C   0  0  0  0  0  0  0  0  0  0  0  0
  -51.1037   60.2034   64.6433 C   0  0  0  0  0  0  0  0  0  0  0  0
  -49.6915   58.8504   66.0857 C   0  0  0  0  0  0  0  0  0  0  0  0
  -50.6224   59.4897   63.5460 C   0  0  0  0  0  0  0  0  0  0  0  0
  -49.6833   58.4739   63.7168 C   0  0  0  0  0  0  0  0  0  0  0  0
  -49.1804   58.1543   64.9845 C   0  0  0  0  0  0  0  0  0  0  0  0
  -51.0331   59.7420   62.2790 O   0  0  0  0  0  0  0  0  0  0  0  0
  -49.2351   57.8080   62.6134 O   0  0  0  0  0  0  0  0  0  0  0  0
  -51.6633   60.4160   62.1161 H   0  0  0  0  0  0  0  0  0  0  0  0
  -49.5731   58.0236   61.7665 H   0  0  0  0  0  0  0  0  0  0  0  0
 12 13  1  0  0  0
  9 10  2  0  0  0
  9  8  1  0  0  0
  6  7  2  0  0  0
  6  8  1  0  0  0
 10 11  1  0  0  0
  7  5  1  0  0  0
 16 17  2  0  0  0
 16 18  1  0  0  0
 17 19  1  0  0  0
 18 21  2  0  0  0
 13 11  1  0  0  0
  5  4  1  0  0  0
  4  3  1  0  0  0
  3  2  1  0  0  0
  2  1  1  0  0  0
  1 14  1  0  0  0
 14 15  1  0  0  0
 15 21  1  0  0  0
 19 20  2  0  0  0
 19 22  1  0  0  0
 20 21  1  0  0  0
 20 23  1  0  0  0
 22 24  1  0  0  0
 23 25  1  0  0  0
M  END
> <minimizedAffinity>
-7.52490

> <CNNscore>
0.5515155792

> <CNNaffinity>
6.6420297623

> <CNN_VS>
3.6631829739

> <CNNaffinity_variance>
0.4139934480

$$$$
/media/chris/experiments/cd1a-new-docking/inputs/ligands/5j1a_ligand.pdb


 25 25  0  0  0  0  0  0  0  0999 V2000
  -47.8939   61.2076   60.9821 C   0  0  0  0  0  0  0  0  0  0  0  0
  -46.4021   61.4515   61.2544 C   0  0  0  0  0  0  0  0  0  0  0  0
  -45.7451   60.1843   61.7839 C   0  0  0  0  0  0  0  0  0  0  0  0
  -46.5249   59.6771   62.9974 C   0  0  0  0  0  0  0  0  0  0  0  0
  -46.5348   60.7378   64.0980 C   0  0  0  0  0  0  0  0  0  0  0  0
  -46.9303   59.7493   66.5357 C   0  0  0  0  0  0  0  0  0  0  0  0
  -45.9817   60.0955   65.3714 C   0  0  0  0  0  0  0  0  0  0  0  0
  -48.4166   60.1383   66.5213 C   0  0  0  0  0  0  0  0  0  0  0  0
  -49.2099   58.8846   66.1250 C   0  0  0  0  0  0  0  0  0  0  0  0
  -50.4396   58.9557   65.1882 C   0  0  0  0  0  0  0  0  0  0  0  0
  -50.9155   60.2858   64.5718 C   0  0  0  0  0  0  0  0  0  0  0  0
  -50.4821   58.7601   62.5938 C   0  0  0  0  0  0  0  0  0  0  0  0
  -51.1777   60.0336   63.0807 C   0  0  0  0  0  0  0  0  0  0  0  0
  -48.1979   60.8515   59.5037 C   0  0  0  0  0  0  0  0  0  0  0  0
  -48.9061   59.4860   59.3400 C   0  0  0  0  0  0  0  0  0  0  0  0
  -46.3086   58.0803   57.0965 C   0  0  0  0  0  0  0  0  0  0  0  0
  -46.6501   56.7218   57.0646 C   0  0  0  0  0  0  0  0  0  0  0  0
  -47.0672   58.9829   57.8515 C   0  0  0  0  0  0  0  0  0  0  0  0
  -47.7537   56.2900   57.8002 C   0  0  0  0  0  0  0  0  0  0  0  0
  -48.4998   57.1927   58.5560 C   0  0  0  0  0  0  0  0  0  0  0  0
  -48.1547   58.5488   58.6179 C   0  0  0  0  0  0  0  0  0  0  0  0
  -48.1509   54.9941   57.8200 O   0  0  0  0  0  0  0  0  0  0  0  0
  -49.5665   56.7235   59.2659 O   0  0  0  0  0  0  0  0  0  0  0  0
  -47.6794   54.3518   57.3270 H   0  0  0  0  0  0  0  0  0  0  0  0
  -49.7954   55.8159   59.2228 H   0  0  0  0  0  0  0  0  0  0  0  0
 12 13  1  0  0  0
  9 10  2  0  0  0
  9  8  1  0  0  0
  6  7  2  0  0  0
  6  8  1  0  0  0
 10 11  1  0  0  0
  7  5  1  0  0  0
 16 17  2  0  0  0
 16 18  1  0  0  0
 17 19  1  0  0  0
 18 21  2  0  0  0
 13 11  1  0  0  0
  5  4  1  0  0  0
  4  3  1  0  0  0
  3  2  1  0  0  0
  2  1  1  0  0  0
  1 14  1  0  0  0
 14 15  1  0  0  0
 15 21  1  0  0  0
 19 20  2  0  0  0
 19 22  1  0  0  0
 20 21  1  0  0  0
 20 23  1  0  0  0
 22 24  1  0  0  0
 23 25  1  0  0  0
M  END
> <minimizedAffinity>
-8.14387

> <CNNscore>
0.5468262434

> <CNNaffinity>
6.7441587448

> <CNN_VS>
3.6878829002

> <CNNaffinity_variance>
0.1596458405

$$$$
/media/chris/experiments/cd1a-new-docking/inputs/ligands/5j1a_ligand.pdb


 25 25  0  0  0  0  0  0  0  0999 V2000
  -47.0535   56.6937   57.2718 C   0  0  0  0  0  0  0  0  0  0  0  0
  -47.5389   55.6841   58.3226 C   0  0  0  0  0  0  0  0  0  0  0  0
  -48.9739   55.9899   58.7291 C   0  0  0  0  0  0  0  0  0  0  0  0
  -49.3901   57.3406   58.1458 C   0  0  0  0  0  0  0  0  0  0  0  0
  -50.1403   58.1594   59.1961 C   0  0  0  0  0  0  0  0  0  0  0  0
  -50.3376   57.9747   61.8424 C   0  0  0  0  0  0  0  0  0  0  0  0
  -50.2621   57.3026   60.4575 C   0  0  0  0  0  0  0  0  0  0  0  0
  -50.1717   59.4913   62.0242 C   0  0  0  0  0  0  0  0  0  0  0  0
  -51.1768   59.9322   63.0982 C   0  0  0  0  0  0  0  0  0  0  0  0
  -50.7629   60.1269   64.5765 C   0  0  0  0  0  0  0  0  0  0  0  0
  -49.3092   59.9235   65.0468 C   0  0  0  0  0  0  0  0  0  0  0  0
  -48.1633   57.6627   64.9854 C   0  0  0  0  0  0  0  0  0  0  0  0
  -49.2210   58.5267   65.6766 C   0  0  0  0  0  0  0  0  0  0  0  0
  -45.9169   57.6154   57.7850 C   0  0  0  0  0  0  0  0  0  0  0  0
  -45.8269   57.6687   59.3284 C   0  0  0  0  0  0  0  0  0  0  0  0
  -47.4641   60.9889   59.5555 C   0  0  0  0  0  0  0  0  0  0  0  0
  -47.2687   61.3227   60.9021 C   0  0  0  0  0  0  0  0  0  0  0  0
  -46.9780   59.7776   59.0492 C   0  0  0  0  0  0  0  0  0  0  0  0
  -46.5864   60.4254   61.7236 C   0  0  0  0  0  0  0  0  0  0  0  0
  -46.1120   59.2176   61.2148 C   0  0  0  0  0  0  0  0  0  0  0  0
  -46.3226   58.8592   59.8772 C   0  0  0  0  0  0  0  0  0  0  0  0
  -46.3541   60.6747   63.0356 O   0  0  0  0  0  0  0  0  0  0  0  0
  -45.4570   58.3674   62.0575 O   0  0  0  0  0  0  0  0  0  0  0  0
  -46.6548   61.4741   63.4211 H   0  0  0  0  0  0  0  0  0  0  0  0
  -45.3173   58.6095   62.9519 H   0  0  0  0  0  0  0  0  0  0  0  0
 12 13  1  0  0  0
  9 10  2  0  0  0
  9  8  1  0  0  0
  6  7  2  0  0  0
  6  8  1  0  0  0
 10 11  1  0  0  0
  7  5  1  0  0  0
 16 17  2  0  0  0
 16 18  1  0  0  0
 17 19  1  0  0  0
 18 21  2  0  0  0
 13 11  1  0  0  0
  5  4  1  0  0  0
  4  3  1  0  0  0
  3  2  1  0  0  0
  2  1  1  0  0  0
  1 14  1  0  0  0
 14 15  1  0  0  0
 15 21  1  0  0  0
 19 20  2  0  0  0
 19 22  1  0  0  0
 20 21  1  0  0  0
 20 23  1  0  0  0
 22 24  1  0  0  0
 23 25  1  0  0  0
M  END
> <minimizedAffinity>
-8.21242

> <CNNscore>
0.5022510290

> <CNNaffinity>
6.6267266273

> <CNN_VS>
3.3282802105

> <CNNaffinity_variance>
0.1186525226

$$$$
/media/chris/experiments/cd1a-new-docking/inputs/ligands/5j1a_ligand.pdb


 25 25  0  0  0  0  0  0  0  0999 V2000
  -49.1652   59.7052   61.5586 C   0  0  0  0  0  0  0  0  0  0  0  0
  -50.2717   58.7211   61.9663 C   0  0  0  0  0  0  0  0  0  0  0  0
  -50.4344   58.7028   63.4800 C   0  0  0  0  0  0  0  0  0  0  0  0
  -51.1748   59.9640   63.9263 C   0  0  0  0  0  0  0  0  0  0  0  0
  -50.9428   60.2114   65.4167 C   0  0  0  0  0  0  0  0  0  0  0  0
  -48.7535   59.1968   66.5363 C   0  0  0  0  0  0  0  0  0  0  0  0
  -50.1773   59.0110   65.9764 C   0  0  0  0  0  0  0  0  0  0  0  0
  -48.0088   60.5376   66.4453 C   0  0  0  0  0  0  0  0  0  0  0  0
  -47.3343   60.5893   65.0666 C   0  0  0  0  0  0  0  0  0  0  0  0
  -45.9168   60.0168   64.8265 C   0  0  0  0  0  0  0  0  0  0  0  0
  -45.1167   59.3301   65.9507 C   0  0  0  0  0  0  0  0  0  0  0  0
  -45.6068   56.8793   66.3773 C   0  0  0  0  0  0  0  0  0  0  0  0
  -44.8487   57.8852   65.5077 C   0  0  0  0  0  0  0  0  0  0  0  0
  -49.2798   60.1830   60.0878 C   0  0  0  0  0  0  0  0  0  0  0  0
  -49.6033   59.0377   59.0994 C   0  0  0  0  0  0  0  0  0  0  0  0
  -46.3456   58.2777   57.4976 C   0  0  0  0  0  0  0  0  0  0  0  0
  -46.2085   56.9054   57.7445 C   0  0  0  0  0  0  0  0  0  0  0  0
  -47.4765   58.9683   57.9496 C   0  0  0  0  0  0  0  0  0  0  0  0
  -47.2156   56.2467   58.4497 C   0  0  0  0  0  0  0  0  0  0  0  0
  -48.3351   56.9419   58.9036 C   0  0  0  0  0  0  0  0  0  0  0  0
  -48.4732   58.3188   58.6866 C   0  0  0  0  0  0  0  0  0  0  0  0
  -47.1597   54.9209   58.7270 O   0  0  0  0  0  0  0  0  0  0  0  0
  -49.2912   56.2576   59.5959 O   0  0  0  0  0  0  0  0  0  0  0  0
  -46.4258   54.4130   58.4417 H   0  0  0  0  0  0  0  0  0  0  0  0
  -49.1966   55.3365   59.7398 H   0  0  0  0  0  0  0  0  0  0  0  0
 12 13  1  0  0  0
  9 10  2  0  0  0
  9  8  1  0  0  0
  6  7  2  0  0  0
  6  8  1  0  0  0
 10 11  1  0  0  0
  7  5  1  0  0  0
 16 17  2  0  0  0
 16 18  1  0  0  0
 17 19  1  0  0  0
 18 21  2  0  0  0
 13 11  1  0  0  0
  5  4  1  0  0  0
  4  3  1  0  0  0
  3  2  1  0  0  0
  2  1  1  0  0  0
  1 14  1  0  0  0
 14 15  1  0  0  0
 15 21  1  0  0  0
 19 20  2  0  0  0
 19 22  1  0  0  0
 20 21  1  0  0  0
 20 23  1  0  0  0
 22 24  1  0  0  0
 23 25  1  0  0  0
M  END
> <minimizedAffinity>
-8.13373

> <CNNscore>
0.3993449807

> <CNNaffinity>
6.4742636681

> <CNN_VS>
2.5854647160

> <CNNaffinity_variance>
0.1845995635

$$$$
/media/chris/experiments/cd1a-new-docking/inputs/ligands/5j1a_ligand.pdb


 25 25  0  0  0  0  0  0  0  0999 V2000
  -50.8063   59.0690   62.7812 C   0  0  0  0  0  0  0  0  0  0  0  0
  -50.1164   57.9578   61.9761 C   0  0  0  0  0  0  0  0  0  0  0  0
  -50.9431   57.6003   60.7486 C   0  0  0  0  0  0  0  0  0  0  0  0
  -50.0077   57.2653   59.5864 C   0  0  0  0  0  0  0  0  0  0  0  0
  -48.7960   56.4838   60.0939 C   0  0  0  0  0  0  0  0  0  0  0  0
  -46.8278   56.2512   58.3196 C   0  0  0  0  0  0  0  0  0  0  0  0
  -48.1703   55.7631   58.8984 C   0  0  0  0  0  0  0  0  0  0  0  0
  -46.1369   57.5275   58.8239 C   0  0  0  0  0  0  0  0  0  0  0  0
  -46.5978   58.6802   57.9201 C   0  0  0  0  0  0  0  0  0  0  0  0
  -47.3649   59.9025   58.4788 C   0  0  0  0  0  0  0  0  0  0  0  0
  -47.6781   60.0480   59.9809 C   0  0  0  0  0  0  0  0  0  0  0  0
  -45.5768   60.2090   61.3906 C   0  0  0  0  0  0  0  0  0  0  0  0
  -46.6206   60.9838   60.5824 C   0  0  0  0  0  0  0  0  0  0  0  0
  -49.9485   59.5954   63.9610 C   0  0  0  0  0  0  0  0  0  0  0  0
  -48.4294   59.5630   63.6707 C   0  0  0  0  0  0  0  0  0  0  0  0
  -47.5097   56.7729   65.9346 C   0  0  0  0  0  0  0  0  0  0  0  0
  -46.3229   57.2417   66.5136 C   0  0  0  0  0  0  0  0  0  0  0  0
  -48.1967   57.5544   64.9981 C   0  0  0  0  0  0  0  0  0  0  0  0
  -45.8417   58.4951   66.1358 C   0  0  0  0  0  0  0  0  0  0  0  0
  -46.5266   59.2646   65.1969 C   0  0  0  0  0  0  0  0  0  0  0  0
  -47.7000   58.7978   64.5908 C   0  0  0  0  0  0  0  0  0  0  0  0
  -44.7034   59.0210   66.6508 O   0  0  0  0  0  0  0  0  0  0  0  0
  -46.0141   60.4813   64.8522 O   0  0  0  0  0  0  0  0  0  0  0  0
  -44.2098   58.5394   67.2851 H   0  0  0  0  0  0  0  0  0  0  0  0
  -45.2290   60.7914   65.2591 H   0  0  0  0  0  0  0  0  0  0  0  0
 12 13  1  0  0  0
  9 10  2  0  0  0
  9  8  1  0  0  0
  6  7  2  0  0  0
  6  8  1  0  0  0
 10 11  1  0  0  0
  7  5  1  0  0  0
 16 17  2  0  0  0
 16 18  1  0  0  0
 17 19  1  0  0  0
 18 21  2  0  0  0
 13 11  1  0  0  0
  5  4  1  0  0  0
  4  3  1  0  0  0
  3  2  1  0  0  0
  2  1  1  0  0  0
  1 14  1  0  0  0
 14 15  1  0  0  0
 15 21  1  0  0  0
 19 20  2  0  0  0
 19 22  1  0  0  0
 20 21  1  0  0  0
 20 23  1  0  0  0
 22 24  1  0  0  0
 23 25  1  0  0  0
M  END
> <minimizedAffinity>
-7.59733

> <CNNscore>
0.3963123858

> <CNNaffinity>
6.4114799500

> <CNN_VS>
2.5409488678

> <CNNaffinity_variance>
0.1351668537

$$$$
/media/chris/experiments/cd1a-new-docking/inputs/ligands/5j1a_ligand.pdb


 25 25  0  0  0  0  0  0  0  0999 V2000
  -45.4791   57.4664   59.5724 C   0  0  0  0  0  0  0  0  0  0  0  0
  -46.1811   57.5429   58.2085 C   0  0  0  0  0  0  0  0  0  0  0  0
  -47.0431   58.7951   58.1247 C   0  0  0  0  0  0  0  0  0  0  0  0
  -48.4984   58.3943   57.8810 C   0  0  0  0  0  0  0  0  0  0  0  0
  -49.3590   58.7779   59.0846 C   0  0  0  0  0  0  0  0  0  0  0  0
  -50.7665   57.4334   60.8977 C   0  0  0  0  0  0  0  0  0  0  0  0
  -50.1917   57.5548   59.4728 C   0  0  0  0  0  0  0  0  0  0  0  0
  -50.4330   58.4484   62.0019 C   0  0  0  0  0  0  0  0  0  0  0  0
  -49.1959   57.9215   62.7437 C   0  0  0  0  0  0  0  0  0  0  0  0
  -48.5350   58.7121   63.8982 C   0  0  0  0  0  0  0  0  0  0  0  0
  -49.1036   60.0569   64.3919 C   0  0  0  0  0  0  0  0  0  0  0  0
  -46.7013   60.3478   65.1485 C   0  0  0  0  0  0  0  0  0  0  0  0
  -48.1742   60.5697   65.5005 C   0  0  0  0  0  0  0  0  0  0  0  0
  -46.1662   58.3254   60.6656 C   0  0  0  0  0  0  0  0  0  0  0  0
  -45.3052   58.4906   61.9401 C   0  0  0  0  0  0  0  0  0  0  0  0
  -44.9810   62.1725   61.6333 C   0  0  0  0  0  0  0  0  0  0  0  0
  -43.8066   62.4264   62.3541 C   0  0  0  0  0  0  0  0  0  0  0  0
  -45.4620   60.8642   61.5026 C   0  0  0  0  0  0  0  0  0  0  0  0
  -43.1330   61.3539   62.9384 C   0  0  0  0  0  0  0  0  0  0  0  0
  -43.6218   60.0548   62.8109 C   0  0  0  0  0  0  0  0  0  0  0  0
  -44.8083   59.7892   62.1154 C   0  0  0  0  0  0  0  0  0  0  0  0
  -41.9899   61.5149   63.6489 O   0  0  0  0  0  0  0  0  0  0  0  0
  -42.9337   59.0379   63.4061 O   0  0  0  0  0  0  0  0  0  0  0  0
  -41.6243   62.3703   63.7609 H   0  0  0  0  0  0  0  0  0  0  0  0
  -42.1402   59.2180   63.8708 H   0  0  0  0  0  0  0  0  0  0  0  0
 12 13  1  0  0  0
  9 10  2  0  0  0
  9  8  1  0  0  0
  6  7  2  0  0  0
  6  8  1  0  0  0
 10 11  1  0  0  0
  7  5  1  0  0  0
 16 17  2  0  0  0
 16 18  1  0  0  0
 17 19  1  0  0  0
 18 21  2  0  0  0
 13 11  1  0  0  0
  5  4  1  0  0  0
  4  3  1  0  0  0
  3  2  1  0  0  0
  2  1  1  0  0  0
  1 14  1  0  0  0
 14 15  1  0  0  0
 15 21  1  0  0  0
 19 20  2  0  0  0
 19 22  1  0  0  0
 20 21  1  0  0  0
 20 23  1  0  0  0
 22 24  1  0  0  0
 23 25  1  0  0  0
M  END
> <minimizedAffinity>
-7.65836

> <CNNscore>
0.3581473827

> <CNNaffinity>
6.1797213554

> <CNN_VS>
2.2132511139

> <CNNaffinity_variance>
0.1300450414

$$$$
/media/chris/experiments/cd1a-new-docking/inputs/ligands/5j1a_ligand.pdb


 25 25  0  0  0  0  0  0  0  0999 V2000
  -48.4253   59.0449   64.2475 C   0  0  0  0  0  0  0  0  0  0  0  0
  -49.9538   58.9027   64.2976 C   0  0  0  0  0  0  0  0  0  0  0  0
  -50.5839   59.5032   63.0484 C   0  0  0  0  0  0  0  0  0  0  0  0
  -50.6231   58.4482   61.9423 C   0  0  0  0  0  0  0  0  0  0  0  0
  -49.8219   58.9249   60.7310 C   0  0  0  0  0  0  0  0  0  0  0  0
  -48.3152   61.0433   60.1669 C   0  0  0  0  0  0  0  0  0  0  0  0
  -49.4756   60.3988   60.9501 C   0  0  0  0  0  0  0  0  0  0  0  0
  -47.3965   60.2243   59.2471 C   0  0  0  0  0  0  0  0  0  0  0  0
  -46.2759   59.6460   60.1235 C   0  0  0  0  0  0  0  0  0  0  0  0
  -45.8758   58.1524   60.0612 C   0  0  0  0  0  0  0  0  0  0  0  0
  -46.5565   57.1688   59.0893 C   0  0  0  0  0  0  0  0  0  0  0  0
  -47.1270   57.3373   56.6246 C   0  0  0  0  0  0  0  0  0  0  0  0
  -46.0279   57.4741   57.6811 C   0  0  0  0  0  0  0  0  0  0  0  0
  -47.9296   60.4716   64.5993 C   0  0  0  0  0  0  0  0  0  0  0  0
  -46.4200   60.5263   64.9324 C   0  0  0  0  0  0  0  0  0  0  0  0
  -45.4487   62.6507   62.0515 C   0  0  0  0  0  0  0  0  0  0  0  0
  -44.1548   62.1925   61.7701 C   0  0  0  0  0  0  0  0  0  0  0  0
  -46.1866   62.0867   63.0991 C   0  0  0  0  0  0  0  0  0  0  0  0
  -43.6196   61.1707   62.5542 C   0  0  0  0  0  0  0  0  0  0  0  0
  -44.3568   60.6192   63.6007 C   0  0  0  0  0  0  0  0  0  0  0  0
  -45.6411   61.0849   63.9099 C   0  0  0  0  0  0  0  0  0  0  0  0
  -42.3772   60.6703   62.3453 O   0  0  0  0  0  0  0  0  0  0  0  0
  -43.7894   59.6269   64.3459 O   0  0  0  0  0  0  0  0  0  0  0  0
  -41.8452   61.0106   61.6530 H   0  0  0  0  0  0  0  0  0  0  0  0
  -42.9301   59.3171   64.1371 H   0  0  0  0  0  0  0  0  0  0  0  0
 12 13  1  0  0  0
  9 10  2  0  0  0
  9  8  1  0  0  0
  6  7  2  0  0  0
  6  8  1  0  0  0
 10 11  1  0  0  0
  7  5  1  0  0  0
 16 17  2  0  0  0
 16 18  1  0  0  0
 17 19  1  0  0  0
 18 21  2  0  0  0
 13 11  1  0  0  0
  5  4  1  0  0  0
  4  3  1  0  0  0
  3  2  1  0  0  0
  2  1  1  0  0  0
  1 14  1  0  0  0
 14 15  1  0  0  0
 15 21  1  0  0  0
 19 20  2  0  0  0
 19 22  1  0  0  0
 20 21  1  0  0  0
 20 23  1  0  0  0
 22 24  1  0  0  0
 23 25  1  0  0  0
M  END
> <minimizedAffinity>
-7.68503

> <CNNscore>
0.3175486028

> <CNNaffinity>
6.0578794479

> <CNN_VS>
1.9236711264

> <CNNaffinity_variance>
0.2136472911

$$$$
/media/chris/experiments/cd1a-new-docking/inputs/ligands/5j1a_ligand.pdb


 25 25  0  0  0  0  0  0  0  0999 V2000
  -46.8822   61.2586   60.9873 C   0  0  0  0  0  0  0  0  0  0  0  0
  -45.8014   60.1682   61.0292 C   0  0  0  0  0  0  0  0  0  0  0  0
  -46.1155   59.1512   62.1180 C   0  0  0  0  0  0  0  0  0  0  0  0
  -47.4274   59.5319   62.8050 C   0  0  0  0  0  0  0  0  0  0  0  0
  -48.2921   58.2891   63.0147 C   0  0  0  0  0  0  0  0  0  0  0  0
  -50.1250   58.6137   64.9150 C   0  0  0  0  0  0  0  0  0  0  0  0
  -49.6841   58.7551   63.4450 C   0  0  0  0  0  0  0  0  0  0  0  0
  -49.2562   57.9014   65.9631 C   0  0  0  0  0  0  0  0  0  0  0  0
  -48.2980   58.9500   66.5467 C   0  0  0  0  0  0  0  0  0  0  0  0
  -46.9284   58.5606   67.1526 C   0  0  0  0  0  0  0  0  0  0  0  0
  -46.4339   57.1009   67.1717 C   0  0  0  0  0  0  0  0  0  0  0  0
  -44.8556   57.8895   65.3509 C   0  0  0  0  0  0  0  0  0  0  0  0
  -45.8365   56.7998   65.7904 C   0  0  0  0  0  0  0  0  0  0  0  0
  -47.7571   61.2070   59.7080 C   0  0  0  0  0  0  0  0  0  0  0  0
  -47.4285   60.0027   58.7943 C   0  0  0  0  0  0  0  0  0  0  0  0
  -50.2674   57.8643   59.8542 C   0  0  0  0  0  0  0  0  0  0  0  0
  -49.7075   56.5812   59.7972 C   0  0  0  0  0  0  0  0  0  0  0  0
  -49.4991   58.9867   59.5225 C   0  0  0  0  0  0  0  0  0  0  0  0
  -48.3769   56.4468   59.4014 C   0  0  0  0  0  0  0  0  0  0  0  0
  -47.6200   57.5678   59.0649 C   0  0  0  0  0  0  0  0  0  0  0  0
  -48.1740   58.8541   59.0924 C   0  0  0  0  0  0  0  0  0  0  0  0
  -47.7610   55.2417   59.3229 O   0  0  0  0  0  0  0  0  0  0  0  0
  -46.3247   57.3873   58.6759 O   0  0  0  0  0  0  0  0  0  0  0  0
  -48.2307   54.4604   59.5395 H   0  0  0  0  0  0  0  0  0  0  0  0
  -45.9564   56.5258   58.6584 H   0  0  0  0  0  0  0  0  0  0  0  0
 12 13  1  0  0  0
  9 10  2  0  0  0
  9  8  1  0  0  0
  6  7  2  0  0  0
  6  8  1  0  0  0
 10 11  1  0  0  0
  7  5  1  0  0  0
 16 17  2  0  0  0
 16 18  1  0  0  0
 17 19  1  0  0  0
 18 21  2  0  0  0
 13 11  1  0  0  0
  5  4  1  0  0  0
  4  3  1  0  0  0
  3  2  1  0  0  0
  2  1  1  0  0  0
  1 14  1  0  0  0
 14 15  1  0  0  0
 15 21  1  0  0  0
 19 20  2  0  0  0
 19 22  1  0  0  0
 20 21  1  0  0  0
 20 23  1  0  0  0
 22 24  1  0  0  0
 23 25  1  0  0  0
M  END
> <minimizedAffinity>
-7.27285

> <CNNscore>
0.3050151467

> <CNNaffinity>
6.5930213928

> <CNN_VS>
2.0109713078

> <CNNaffinity_variance>
0.1506736577

$$$$
