/media/chris/experiments/cd1a-new-docking/inputs/ligands/1onq_ligand.pdb
 OpenBabel06222310383D

137137  0  0  1  0  0  0  0  0999 V2000
  -40.4920   60.2280   63.6270 N   0  0  0  0  0  0  0  0  0  0  0  0
  -38.5950   61.7730   64.2860 C   0  0  0  0  0  0  0  0  0  0  0  0
  -37.8612   61.7550   63.0352 O   0  0  0  0  0  0  0  0  0  0  0  0
  -39.4590   60.5300   64.5980 C   0  0  1  0  0  0  0  0  0  0  0  0
  -41.2116   61.5409   65.7392 O   0  0  0  0  0  0  0  0  0  0  0  0
  -40.2280   60.5370   65.9080 C   0  0  2  0  0  0  0  0  0  0  0  0
  -40.6436   57.9696   63.7820 O   0  0  0  0  0  0  0  0  0  0  0  0
  -39.2689   60.8567   67.0571 C   0  0  0  0  0  0  0  0  0  0  0  0
  -39.4194   61.9233   67.8608 C   0  0  0  0  0  0  0  0  0  0  0  0
  -37.2160   60.7634   60.4318 O   0  0  0  0  0  0  0  0  0  0  0  0
  -38.4178   62.1745   68.9864 C   0  0  0  0  0  0  0  0  0  0  0  0
  -34.5577   59.6156   59.8102 O   0  0  0  0  0  0  0  0  0  0  0  0
  -37.2270   63.0523   68.5744 C   0  0  0  0  0  0  0  0  0  0  0  0
  -34.2435   57.1145   59.2078 O   0  0  0  0  0  0  0  0  0  0  0  0
  -36.1826   63.3177   69.6745 C   0  0  0  0  0  0  0  0  0  0  0  0
  -33.3383   60.7545   61.9686 O   0  0  0  0  0  0  0  0  0  0  0  0
  -36.8324   64.0206   70.8907 C   0  0  0  0  0  0  0  0  0  0  0  0
  -35.8018   60.6731   63.7236 O   0  0  0  0  0  0  0  0  0  0  0  0
  -37.9639   63.2242   71.5885 C   0  0  0  0  0  0  0  0  0  0  0  0
  -32.9238   60.8795   64.2370 O   0  0  0  0  0  0  0  0  0  0  0  0
  -37.5159   61.8607   72.1655 C   0  0  0  0  0  0  0  0  0  0  0  0
  -38.6574   61.0714   72.8422 C   0  0  0  0  0  0  0  0  0  0  0  0
  -39.8140   60.7251   71.8969 C   0  0  0  0  0  0  0  0  0  0  0  0
  -32.4608   58.3051   60.3451 O   0  5  0  0  0  0  0  0  0  0  0  0
  -40.5208   61.9084   71.2391 C   0  0  0  0  0  0  0  0  0  0  0  0
  -32.8764   58.6930   57.9891 O   0  0  0  0  0  0  0  0  0  0  0  0
  -41.6853   61.5058   70.3130 C   0  0  0  0  0  0  0  0  0  0  0  0
  -42.4064   62.6733   69.6224 C   0  0  0  0  0  0  0  0  0  0  0  0
  -42.9962   63.6415   70.6518 C   0  0  0  0  0  0  0  0  0  0  0  0
  -44.0061   63.0595   71.6249 C   0  0  0  0  0  0  0  0  0  0  0  0
  -40.9921   59.0290   63.2983 C   0  0  0  0  0  0  0  0  0  0  0  0
  -42.0683   59.0516   62.2538 C   0  0  0  0  0  0  0  0  0  0  0  0
  -41.9615   57.7299   61.4930 C   0  0  0  0  0  0  0  0  0  0  0  0
  -43.0170   57.6756   60.3911 C   0  0  0  0  0  0  0  0  0  0  0  0
  -44.4530   57.7906   60.8418 C   0  0  0  0  0  0  0  0  0  0  0  0
  -45.3344   57.6962   59.6008 C   0  0  0  0  0  0  0  0  0  0  0  0
  -46.8295   57.8177   59.9247 C   0  0  0  0  0  0  0  0  0  0  0  0
  -47.3560   56.7425   60.8929 C   0  0  0  0  0  0  0  0  0  0  0  0
  -48.8663   56.8839   61.1833 C   0  0  0  0  0  0  0  0  0  0  0  0
  -49.6796   56.7449   59.8932 C   0  0  0  0  0  0  0  0  0  0  0  0
  -49.5287   55.4087   59.1764 C   0  0  0  0  0  0  0  0  0  0  0  0
  -49.9790   54.2377   60.0371 C   0  0  0  0  0  0  0  0  0  0  0  0
  -49.8477   52.8503   59.4046 C   0  0  0  0  0  0  0  0  0  0  0  0
  -48.3778   52.6085   59.0891 C   0  0  0  0  0  0  0  0  0  0  0  0
  -47.9793   51.2947   58.4331 C   0  0  0  0  0  0  0  0  0  0  0  0
  -48.3812   50.0982   59.3099 C   0  0  0  0  0  0  0  0  0  0  0  0
  -47.9995   48.7241   58.7291 C   0  0  0  0  0  0  0  0  0  0  0  0
  -48.4264   47.5549   59.6134 C   0  0  0  0  0  0  0  0  0  0  0  0
  -36.8691   60.7008   62.7449 C   0  0  2  0  0  0  0  0  0  0  0  0
  -36.1862   60.7751   61.3717 C   0  0  1  0  0  0  0  0  0  0  0  0
  -35.2491   59.5828   61.0794 C   0  0  2  0  0  0  0  0  0  0  0  0
  -34.1816   59.6177   62.1379 C   0  0  2  0  0  0  0  0  0  0  0  0
  -34.8225   59.6202   63.5140 C   0  0  1  0  0  0  0  0  0  0  0  0
  -33.5929   59.6678   64.4184 C   0  0  0  0  0  0  0  0  0  0  0  0
  -33.5192   58.4163   59.3050 S   0  0  0  0  0  0  0  0  0  0  0  0
  -40.8737   60.9998   63.1496 H   0  0  0  0  0  0  0  0  0  0  0  0
  -39.2437   62.6238   64.2698 H   0  0  0  0  0  0  0  0  0  0  0  0
  -37.8479   61.7974   65.0516 H   0  0  0  0  0  0  0  0  0  0  0  0
  -38.6677   59.8099   64.6092 H   0  0  0  0  0  0  0  0  0  0  0  0
  -41.7964   61.3001   65.0038 H   0  0  0  0  0  0  0  0  0  0  0  0
  -40.6791   59.5963   66.1457 H   0  0  0  0  0  0  0  0  0  0  0  0
  -38.4702   60.2244   67.2223 H   0  0  0  0  0  0  0  0  0  0  0  0
  -40.2099   62.5712   67.7177 H   0  0  0  0  0  0  0  0  0  0  0  0
  -37.8159   61.5069   60.6001 H   0  0  0  0  0  0  0  0  0  0  0  0
  -38.0410   61.2300   69.3193 H   0  0  0  0  0  0  0  0  0  0  0  0
  -38.9412   62.7021   69.7562 H   0  0  0  0  0  0  0  0  0  0  0  0
  -37.6111   63.9970   68.2507 H   0  0  0  0  0  0  0  0  0  0  0  0
  -36.7137   62.5081   67.8094 H   0  0  0  0  0  0  0  0  0  0  0  0
  -34.6692   56.9172   60.0568 H   0  0  0  0  0  0  0  0  0  0  0  0
  -35.4088   63.9427   69.2801 H   0  0  0  0  0  0  0  0  0  0  0  0
  -35.7771   62.3811   69.9958 H   0  0  0  0  0  0  0  0  0  0  0  0
  -32.9400   60.7327   61.0845 H   0  0  0  0  0  0  0  0  0  0  0  0
  -37.2410   64.9509   70.5554 H   0  0  0  0  0  0  0  0  0  0  0  0
  -36.0558   64.1312   71.6184 H   0  0  0  0  0  0  0  0  0  0  0  0
  -38.7401   63.0474   70.8736 H   0  0  0  0  0  0  0  0  0  0  0  0
  -38.2911   63.8166   72.4173 H   0  0  0  0  0  0  0  0  0  0  0  0
  -32.1433   60.9072   64.8124 H   0  0  0  0  0  0  0  0  0  0  0  0
  -36.7491   62.0358   72.8910 H   0  0  0  0  0  0  0  0  0  0  0  0
  -37.1703   61.2699   71.3430 H   0  0  0  0  0  0  0  0  0  0  0  0
  -39.0443   61.6608   73.6472 H   0  0  0  0  0  0  0  0  0  0  0  0
  -38.2402   60.1449   73.1775 H   0  0  0  0  0  0  0  0  0  0  0  0
  -40.5433   60.1796   72.4586 H   0  0  0  0  0  0  0  0  0  0  0  0
  -39.3736   60.1709   71.0945 H   0  0  0  0  0  0  0  0  0  0  0  0
  -39.8023   62.4504   70.6604 H   0  0  0  0  0  0  0  0  0  0  0  0
  -40.9412   62.4961   72.0283 H   0  0  0  0  0  0  0  0  0  0  0  0
  -33.5598   58.7671   57.3046 H   0  0  0  0  0  0  0  0  0  0  0  0
  -42.4047   60.9725   70.8986 H   0  0  0  0  0  0  0  0  0  0  0  0
  -41.2522   60.9196   69.5296 H   0  0  0  0  0  0  0  0  0  0  0  0
  -43.1967   62.2855   69.0141 H   0  0  0  0  0  0  0  0  0  0  0  0
  -41.6972   63.2046   69.0226 H   0  0  0  0  0  0  0  0  0  0  0  0
  -43.4787   64.4321   70.1161 H   0  0  0  0  0  0  0  0  0  0  0  0
  -42.1691   63.9546   71.2541 H   0  0  0  0  0  0  0  0  0  0  0  0
  -44.8674   62.7231   71.0864 H   0  0  0  0  0  0  0  0  0  0  0  0
  -44.2968   63.8107   72.3292 H   0  0  0  0  0  0  0  0  0  0  0  0
  -43.5659   62.2344   72.1449 H   0  0  0  0  0  0  0  0  0  0  0  0
  -41.9193   59.8751   61.5871 H   0  0  0  0  0  0  0  0  0  0  0  0
  -43.0355   59.1663   62.6968 H   0  0  0  0  0  0  0  0  0  0  0  0
  -42.1152   56.9169   62.1715 H   0  0  0  0  0  0  0  0  0  0  0  0
  -40.9893   57.6556   61.0524 H   0  0  0  0  0  0  0  0  0  0  0  0
  -42.9084   56.7419   59.8800 H   0  0  0  0  0  0  0  0  0  0  0  0
  -42.8380   58.5345   59.7787 H   0  0  0  0  0  0  0  0  0  0  0  0
  -44.6083   58.7305   61.3290 H   0  0  0  0  0  0  0  0  0  0  0  0
  -44.6934   57.0108   61.5338 H   0  0  0  0  0  0  0  0  0  0  0  0
  -45.1621   56.7510   59.1298 H   0  0  0  0  0  0  0  0  0  0  0  0
  -45.0759   58.5118   58.9583 H   0  0  0  0  0  0  0  0  0  0  0  0
  -47.3782   57.7423   59.0092 H   0  0  0  0  0  0  0  0  0  0  0  0
  -46.9624   58.7611   60.4118 H   0  0  0  0  0  0  0  0  0  0  0  0
  -46.8216   56.8233   61.8163 H   0  0  0  0  0  0  0  0  0  0  0  0
  -47.2058   55.7904   60.4282 H   0  0  0  0  0  0  0  0  0  0  0  0
  -49.0529   57.8452   61.6146 H   0  0  0  0  0  0  0  0  0  0  0  0
  -49.1607   56.1101   61.8612 H   0  0  0  0  0  0  0  0  0  0  0  0
  -49.3709   57.5185   59.2215 H   0  0  0  0  0  0  0  0  0  0  0  0
  -50.7082   56.8157   60.1796 H   0  0  0  0  0  0  0  0  0  0  0  0
  -48.4993   55.2707   58.9189 H   0  0  0  0  0  0  0  0  0  0  0  0
  -50.1495   55.4325   58.3052 H   0  0  0  0  0  0  0  0  0  0  0  0
  -51.0093   54.3893   60.2829 H   0  0  0  0  0  0  0  0  0  0  0  0
  -49.3233   54.2324   60.8827 H   0  0  0  0  0  0  0  0  0  0  0  0
  -50.4235   52.8070   58.5038 H   0  0  0  0  0  0  0  0  0  0  0  0
  -50.2093   52.1014   60.0779 H   0  0  0  0  0  0  0  0  0  0  0  0
  -47.8420   52.6748   60.0129 H   0  0  0  0  0  0  0  0  0  0  0  0
  -48.1444   53.3487   58.3525 H   0  0  0  0  0  0  0  0  0  0  0  0
  -46.9191   51.2828   58.2891 H   0  0  0  0  0  0  0  0  0  0  0  0
  -48.4856   51.2148   57.4938 H   0  0  0  0  0  0  0  0  0  0  0  0
  -49.4427   50.1221   59.4417 H   0  0  0  0  0  0  0  0  0  0  0  0
  -47.8430   50.2001   60.2291 H   0  0  0  0  0  0  0  0  0  0  0  0
  -46.9367   48.6892   58.6096 H   0  0  0  0  0  0  0  0  0  0  0  0
  -48.5137   48.6204   57.7965 H   0  0  0  0  0  0  0  0  0  0  0  0
  -47.9311   47.6237   60.5594 H   0  0  0  0  0  0  0  0  0  0  0  0
  -48.1618   46.6333   59.1385 H   0  0  0  0  0  0  0  0  0  0  0  0
  -49.4855   47.5882   59.7621 H   0  0  0  0  0  0  0  0  0  0  0  0
  -37.4739   59.8185   62.7711 H   0  0  0  0  0  0  0  0  0  0  0  0
  -35.5755   61.6531   61.3389 H   0  0  0  0  0  0  0  0  0  0  0  0
  -35.8690   58.7108   61.0631 H   0  0  0  0  0  0  0  0  0  0  0  0
  -33.5723   58.7432   62.0435 H   0  0  0  0  0  0  0  0  0  0  0  0
  -35.4454   58.7715   63.7053 H   0  0  0  0  0  0  0  0  0  0  0  0
  -33.8988   59.5795   65.4399 H   0  0  0  0  0  0  0  0  0  0  0  0
  -32.9375   58.8595   64.1692 H   0  0  0  0  0  0  0  0  0  0  0  0
  1  4  1  0  0  0  0
  1 31  1  0  0  0  0
  1 56  1  0  0  0  0
  2  3  1  0  0  0  0
  2  4  1  0  0  0  0
  2 57  1  0  0  0  0
  2 58  1  0  0  0  0
  3 49  1  0  0  0  0
  4  6  1  0  0  0  0
  4 59  1  1  0  0  0
  5  6  1  0  0  0  0
  5 60  1  0  0  0  0
  6  8  1  0  0  0  0
  6 61  1  1  0  0  0
  7 31  2  0  0  0  0
  8  9  2  0  0  0  0
  8 62  1  0  0  0  0
  9 11  1  0  0  0  0
  9 63  1  0  0  0  0
 10 50  1  0  0  0  0
 10 64  1  0  0  0  0
 11 13  1  0  0  0  0
 11 65  1  0  0  0  0
 11 66  1  0  0  0  0
 12 51  1  0  0  0  0
 12 55  1  0  0  0  0
 13 15  1  0  0  0  0
 13 67  1  0  0  0  0
 13 68  1  0  0  0  0
 14 55  1  0  0  0  0
 14 69  1  0  0  0  0
 15 17  1  0  0  0  0
 15 70  1  0  0  0  0
 15 71  1  0  0  0  0
 16 52  1  0  0  0  0
 16 72  1  0  0  0  0
 17 19  1  0  0  0  0
 17 73  1  0  0  0  0
 17 74  1  0  0  0  0
 18 49  1  0  0  0  0
 18 53  1  0  0  0  0
 19 21  1  0  0  0  0
 19 75  1  0  0  0  0
 19 76  1  0  0  0  0
 20 54  1  0  0  0  0
 20 77  1  0  0  0  0
 21 22  1  0  0  0  0
 21 78  1  0  0  0  0
 21 79  1  0  0  0  0
 22 23  1  0  0  0  0
 22 80  1  0  0  0  0
 22 81  1  0  0  0  0
 23 25  1  0  0  0  0
 23 82  1  0  0  0  0
 23 83  1  0  0  0  0
 24 55  1  0  0  0  0
 25 27  1  0  0  0  0
 25 84  1  0  0  0  0
 25 85  1  0  0  0  0
 26 55  1  0  0  0  0
 26 86  1  0  0  0  0
 27 28  1  0  0  0  0
 27 87  1  0  0  0  0
 27 88  1  0  0  0  0
 28 29  1  0  0  0  0
 28 89  1  0  0  0  0
 28 90  1  0  0  0  0
 29 30  1  0  0  0  0
 29 91  1  0  0  0  0
 29 92  1  0  0  0  0
 30 93  1  0  0  0  0
 30 94  1  0  0  0  0
 30 95  1  0  0  0  0
 31 32  1  0  0  0  0
 32 33  1  0  0  0  0
 32 96  1  0  0  0  0
 32 97  1  0  0  0  0
 33 34  1  0  0  0  0
 33 98  1  0  0  0  0
 33 99  1  0  0  0  0
 34 35  1  0  0  0  0
 34100  1  0  0  0  0
 34101  1  0  0  0  0
 35 36  1  0  0  0  0
 35102  1  0  0  0  0
 35103  1  0  0  0  0
 36 37  1  0  0  0  0
 36104  1  0  0  0  0
 36105  1  0  0  0  0
 37 38  1  0  0  0  0
 37106  1  0  0  0  0
 37107  1  0  0  0  0
 38 39  1  0  0  0  0
 38108  1  0  0  0  0
 38109  1  0  0  0  0
 39 40  1  0  0  0  0
 39110  1  0  0  0  0
 39111  1  0  0  0  0
 40 41  1  0  0  0  0
 40112  1  0  0  0  0
 40113  1  0  0  0  0
 41 42  1  0  0  0  0
 41114  1  0  0  0  0
 41115  1  0  0  0  0
 42 43  1  0  0  0  0
 42116  1  0  0  0  0
 42117  1  0  0  0  0
 43 44  1  0  0  0  0
 43118  1  0  0  0  0
 43119  1  0  0  0  0
 44 45  1  0  0  0  0
 44120  1  0  0  0  0
 44121  1  0  0  0  0
 45 46  1  0  0  0  0
 45122  1  0  0  0  0
 45123  1  0  0  0  0
 46 47  1  0  0  0  0
 46124  1  0  0  0  0
 46125  1  0  0  0  0
 47 48  1  0  0  0  0
 47126  1  0  0  0  0
 47127  1  0  0  0  0
 48128  1  0  0  0  0
 48129  1  0  0  0  0
 48130  1  0  0  0  0
 49 50  1  0  0  0  0
 49131  1  1  0  0  0
 50 51  1  0  0  0  0
 50132  1  6  0  0  0
 51 52  1  0  0  0  0
 51133  1  1  0  0  0
 52 53  1  0  0  0  0
 52134  1  6  0  0  0
 53 54  1  0  0  0  0
 53135  1  1  0  0  0
 54136  1  0  0  0  0
 54137  1  0  0  0  0
M  CHG  1  24  -1
M  END
$$$$