/media/chris/experiments/cd1a-new-docking/inputs/ligands/1onq_ligand.pdb
 OpenBabel06222310383D

137137  0  0  1  0  0  0  0  0999 V2000
  -40.4920   60.2280   63.6270 N   0  0  0  0  0  0  0  0  0  0  0  0
  -38.5950   61.7730   64.2860 C   0  0  0  0  0  0  0  0  0  0  0  0
  -37.5441   62.0867   65.2349 O   0  0  0  0  0  0  0  0  0  0  0  0
  -39.4590   60.5300   64.5980 C   0  0  1  0  0  0  0  0  0  0  0  0
  -39.2569   60.8461   66.8904 O   0  0  0  0  0  0  0  0  0  0  0  0
  -40.2280   60.5370   65.9080 C   0  0  2  0  0  0  0  0  0  0  0  0
  -39.4065   58.8441   62.1938 O   0  0  0  0  0  0  0  0  0  0  0  0
  -40.8583   59.1606   66.1332 C   0  0  0  0  0  0  0  0  0  0  0  0
  -41.0723   58.6448   67.3556 C   0  0  0  0  0  0  0  0  0  0  0  0
  -36.3260   63.5957   67.3365 O   0  0  0  0  0  0  0  0  0  0  0  0
  -41.7060   57.2621   67.4971 C   0  0  0  0  0  0  0  0  0  0  0  0
  -33.7882   65.0685   66.9357 O   0  0  0  0  0  0  0  0  0  0  0  0
  -43.2388   57.2871   67.5876 C   0  0  0  0  0  0  0  0  0  0  0  0
  -32.0570   66.4929   65.6354 O   0  0  0  0  0  0  0  0  0  0  0  0
  -43.8241   58.0935   68.7617 C   0  0  0  0  0  0  0  0  0  0  0  0
  -33.0907   63.6620   64.7045 O   0  0  0  0  0  0  0  0  0  0  0  0
  -45.3704   58.0288   68.7557 C   0  0  0  0  0  0  0  0  0  0  0  0
  -35.9395   63.1998   63.7956 O   0  0  0  0  0  0  0  0  0  0  0  0
  -46.0505   58.5726   67.4737 C   0  0  0  0  0  0  0  0  0  0  0  0
  -33.4262   65.4161   62.1957 O   0  0  0  0  0  0  0  0  0  0  0  0
  -45.6596   57.8187   66.1808 C   0  0  0  0  0  0  0  0  0  0  0  0
  -46.0343   56.3209   66.2022 C   0  0  0  0  0  0  0  0  0  0  0  0
  -45.6333   55.5656   64.9294 C   0  0  0  0  0  0  0  0  0  0  0  0
  -31.8719   66.2910   68.0467 O   0  5  0  0  0  0  0  0  0  0  0  0
  -45.9943   54.0823   64.8871 C   0  0  0  0  0  0  0  0  0  0  0  0
  -33.5831   67.7019   67.0691 O   0  0  0  0  0  0  0  0  0  0  0  0
  -45.5539   53.3676   63.5943 C   0  0  0  0  0  0  0  0  0  0  0  0
  -45.9176   51.8772   63.5136 C   0  0  0  0  0  0  0  0  0  0  0  0
  -47.4343   51.6768   63.5826 C   0  0  0  0  0  0  0  0  0  0  0  0
  -47.9289   50.2422   63.5296 C   0  0  0  0  0  0  0  0  0  0  0  0
  -40.4039   59.4449   62.5432 C   0  0  0  0  0  0  0  0  0  0  0  0
  -41.6634   59.3275   61.7372 C   0  0  0  0  0  0  0  0  0  0  0  0
  -42.4292   58.1308   62.3018 C   0  0  0  0  0  0  0  0  0  0  0  0
  -43.7261   57.9268   61.5224 C   0  0  0  0  0  0  0  0  0  0  0  0
  -44.6016   56.7849   61.9786 C   0  0  0  0  0  0  0  0  0  0  0  0
  -45.8225   56.7471   61.0655 C   0  0  0  0  0  0  0  0  0  0  0  0
  -46.6287   58.0524   61.0989 C   0  0  0  0  0  0  0  0  0  0  0  0
  -47.1621   58.4305   62.4928 C   0  0  0  0  0  0  0  0  0  0  0  0
  -47.9826   59.7391   62.4870 C   0  0  0  0  0  0  0  0  0  0  0  0
  -48.4724   60.0755   63.8984 C   0  0  0  0  0  0  0  0  0  0  0  0
  -47.3709   60.2931   64.9286 C   0  0  0  0  0  0  0  0  0  0  0  0
  -46.4548   61.4502   64.5586 C   0  0  0  0  0  0  0  0  0  0  0  0
  -47.1220   62.8223   64.4379 C   0  0  0  0  0  0  0  0  0  0  0  0
  -47.7323   63.1749   65.7876 C   0  0  0  0  0  0  0  0  0  0  0  0
  -48.7841   62.2469   66.3773 C   0  0  0  0  0  0  0  0  0  0  0  0
  -49.9925   62.1172   65.4365 C   0  0  0  0  0  0  0  0  0  0  0  0
  -50.7043   63.4465   65.1243 C   0  0  0  0  0  0  0  0  0  0  0  0
  -51.2385   64.1523   66.3685 C   0  0  0  0  0  0  0  0  0  0  0  0
  -36.6675   63.2597   65.0462 C   0  0  2  0  0  0  0  0  0  0  0  0
  -35.6170   63.5011   66.1397 C   0  0  1  0  0  0  0  0  0  0  0  0
  -34.8113   64.8049   65.9489 C   0  0  2  0  0  0  0  0  0  0  0  0
  -34.0971   64.6690   64.6325 C   0  0  2  0  0  0  0  0  0  0  0  0
  -35.0980   64.3555   63.5351 C   0  0  1  0  0  0  0  0  0  0  0  0
  -34.1843   64.2500   62.3160 C   0  0  0  0  0  0  0  0  0  0  0  0
  -32.8264   66.4273   66.9131 S   0  0  0  0  0  0  0  0  0  0  0  0
  -41.3672   60.6509   63.7832 H   0  0  0  0  0  0  0  0  0  0  0  0
  -38.1357   61.6183   63.3320 H   0  0  0  0  0  0  0  0  0  0  0  0
  -39.2690   62.6030   64.3261 H   0  0  0  0  0  0  0  0  0  0  0  0
  -38.6677   59.8099   64.6092 H   0  0  0  0  0  0  0  0  0  0  0  0
  -38.8837   61.7234   66.7113 H   0  0  0  0  0  0  0  0  0  0  0  0
  -41.0317   61.2430   65.9299 H   0  0  0  0  0  0  0  0  0  0  0  0
  -41.1313   58.6032   65.3087 H   0  0  0  0  0  0  0  0  0  0  0  0
  -40.8092   59.1816   68.1968 H   0  0  0  0  0  0  0  0  0  0  0  0
  -36.8391   62.7839   67.4733 H   0  0  0  0  0  0  0  0  0  0  0  0
  -41.3233   56.8054   68.3858 H   0  0  0  0  0  0  0  0  0  0  0  0
  -41.4558   56.7135   66.6131 H   0  0  0  0  0  0  0  0  0  0  0  0
  -43.5794   56.2770   67.6802 H   0  0  0  0  0  0  0  0  0  0  0  0
  -43.5760   57.7783   66.6989 H   0  0  0  0  0  0  0  0  0  0  0  0
  -31.5570   65.6703   65.5164 H   0  0  0  0  0  0  0  0  0  0  0  0
  -43.5153   59.1142   68.6747 H   0  0  0  0  0  0  0  0  0  0  0  0
  -43.4667   57.6732   69.6785 H   0  0  0  0  0  0  0  0  0  0  0  0
  -32.4632   63.8819   65.4108 H   0  0  0  0  0  0  0  0  0  0  0  0
  -45.7285   58.5990   69.5873 H   0  0  0  0  0  0  0  0  0  0  0  0
  -45.6235   56.9904   68.8074 H   0  0  0  0  0  0  0  0  0  0  0  0
  -45.7765   59.6005   67.3587 H   0  0  0  0  0  0  0  0  0  0  0  0
  -47.1039   58.4366   67.6028 H   0  0  0  0  0  0  0  0  0  0  0  0
  -32.8469   65.3466   61.4208 H   0  0  0  0  0  0  0  0  0  0  0  0
  -44.6011   57.9008   66.0481 H   0  0  0  0  0  0  0  0  0  0  0  0
  -46.2062   58.2677   65.3780 H   0  0  0  0  0  0  0  0  0  0  0  0
  -47.0943   56.2398   66.3230 H   0  0  0  0  0  0  0  0  0  0  0  0
  -45.4951   55.8758   67.0121 H   0  0  0  0  0  0  0  0  0  0  0  0
  -44.5719   55.6471   64.8214 H   0  0  0  0  0  0  0  0  0  0  0  0
  -46.1912   56.0201   64.1374 H   0  0  0  0  0  0  0  0  0  0  0  0
  -47.0567   53.9916   64.9767 H   0  0  0  0  0  0  0  0  0  0  0  0
  -45.4717   53.6129   65.6942 H   0  0  0  0  0  0  0  0  0  0  0  0
  -34.2082   67.7988   66.3338 H   0  0  0  0  0  0  0  0  0  0  0  0
  -44.4904   53.4534   63.5146 H   0  0  0  0  0  0  0  0  0  0  0  0
  -46.0827   53.8456   62.7963 H   0  0  0  0  0  0  0  0  0  0  0  0
  -45.4591   51.3606   64.3307 H   0  0  0  0  0  0  0  0  0  0  0  0
  -45.5653   51.4908   62.5801 H   0  0  0  0  0  0  0  0  0  0  0  0
  -47.8699   52.2020   62.7584 H   0  0  0  0  0  0  0  0  0  0  0  0
  -47.7258   52.0426   64.5450 H   0  0  0  0  0  0  0  0  0  0  0  0
  -47.6694   49.8101   62.5857 H   0  0  0  0  0  0  0  0  0  0  0  0
  -48.9921   50.2268   63.6487 H   0  0  0  0  0  0  0  0  0  0  0  0
  -47.4736   49.6786   64.3170 H   0  0  0  0  0  0  0  0  0  0  0  0
  -41.4287   59.1633   60.7063 H   0  0  0  0  0  0  0  0  0  0  0  0
  -42.2460   60.2230   61.7966 H   0  0  0  0  0  0  0  0  0  0  0  0
  -42.6589   58.3107   63.3312 H   0  0  0  0  0  0  0  0  0  0  0  0
  -41.8241   57.2528   62.2133 H   0  0  0  0  0  0  0  0  0  0  0  0
  -43.4684   57.7525   60.4986 H   0  0  0  0  0  0  0  0  0  0  0  0
  -44.3021   58.8137   61.6850 H   0  0  0  0  0  0  0  0  0  0  0  0
  -44.9082   56.9424   62.9916 H   0  0  0  0  0  0  0  0  0  0  0  0
  -44.0673   55.8591   61.9305 H   0  0  0  0  0  0  0  0  0  0  0  0
  -46.4579   55.9444   61.3769 H   0  0  0  0  0  0  0  0  0  0  0  0
  -45.4724   56.6093   60.0638 H   0  0  0  0  0  0  0  0  0  0  0  0
  -47.4632   57.9482   60.4373 H   0  0  0  0  0  0  0  0  0  0  0  0
  -45.9600   58.8338   60.8037 H   0  0  0  0  0  0  0  0  0  0  0  0
  -46.3307   58.5517   63.1553 H   0  0  0  0  0  0  0  0  0  0  0  0
  -47.8137   57.6440   62.8117 H   0  0  0  0  0  0  0  0  0  0  0  0
  -48.8272   59.6215   61.8406 H   0  0  0  0  0  0  0  0  0  0  0  0
  -47.3583   60.5357   62.1400 H   0  0  0  0  0  0  0  0  0  0  0  0
  -49.0885   59.2688   64.2368 H   0  0  0  0  0  0  0  0  0  0  0  0
  -48.9952   61.0058   63.8192 H   0  0  0  0  0  0  0  0  0  0  0  0
  -46.7856   59.4002   65.0004 H   0  0  0  0  0  0  0  0  0  0  0  0
  -47.8375   60.5304   65.8618 H   0  0  0  0  0  0  0  0  0  0  0  0
  -46.0033   61.2218   63.6158 H   0  0  0  0  0  0  0  0  0  0  0  0
  -45.7597   61.5378   65.3674 H   0  0  0  0  0  0  0  0  0  0  0  0
  -47.8882   62.7881   63.6917 H   0  0  0  0  0  0  0  0  0  0  0  0
  -46.4010   63.5602   64.1541 H   0  0  0  0  0  0  0  0  0  0  0  0
  -48.1840   64.1397   65.6870 H   0  0  0  0  0  0  0  0  0  0  0  0
  -46.9116   63.1056   66.4706 H   0  0  0  0  0  0  0  0  0  0  0  0
  -49.1122   62.6414   67.3162 H   0  0  0  0  0  0  0  0  0  0  0  0
  -48.3491   61.2783   66.5095 H   0  0  0  0  0  0  0  0  0  0  0  0
  -50.7013   61.4575   65.8918 H   0  0  0  0  0  0  0  0  0  0  0  0
  -49.6153   61.7482   64.5057 H   0  0  0  0  0  0  0  0  0  0  0  0
  -51.5257   63.2461   64.4685 H   0  0  0  0  0  0  0  0  0  0  0  0
  -49.9809   64.0961   64.6775 H   0  0  0  0  0  0  0  0  0  0  0  0
  -51.9679   63.5314   66.8453 H   0  0  0  0  0  0  0  0  0  0  0  0
  -51.6899   65.0803   66.0859 H   0  0  0  0  0  0  0  0  0  0  0  0
  -50.4319   64.3398   67.0462 H   0  0  0  0  0  0  0  0  0  0  0  0
  -37.3714   64.0651   65.0741 H   0  0  0  0  0  0  0  0  0  0  0  0
  -34.9062   62.7017   66.1156 H   0  0  0  0  0  0  0  0  0  0  0  0
  -35.5159   65.6067   66.0228 H   0  0  0  0  0  0  0  0  0  0  0  0
  -33.6145   65.5961   64.4038 H   0  0  0  0  0  0  0  0  0  0  0  0
  -35.8616   65.0958   63.4182 H   0  0  0  0  0  0  0  0  0  0  0  0
  -33.5307   63.4109   62.4325 H   0  0  0  0  0  0  0  0  0  0  0  0
  -34.7797   64.1214   61.4363 H   0  0  0  0  0  0  0  0  0  0  0  0
  1  4  1  0  0  0  0
  1 31  1  0  0  0  0
  1 56  1  0  0  0  0
  2  3  1  0  0  0  0
  2  4  1  0  0  0  0
  2 57  1  0  0  0  0
  2 58  1  0  0  0  0
  3 49  1  0  0  0  0
  4  6  1  0  0  0  0
  4 59  1  1  0  0  0
  5  6  1  0  0  0  0
  5 60  1  0  0  0  0
  6  8  1  0  0  0  0
  6 61  1  6  0  0  0
  7 31  2  0  0  0  0
  8  9  2  0  0  0  0
  8 62  1  0  0  0  0
  9 11  1  0  0  0  0
  9 63  1  0  0  0  0
 10 50  1  0  0  0  0
 10 64  1  0  0  0  0
 11 13  1  0  0  0  0
 11 65  1  0  0  0  0
 11 66  1  0  0  0  0
 12 51  1  0  0  0  0
 12 55  1  0  0  0  0
 13 15  1  0  0  0  0
 13 67  1  0  0  0  0
 13 68  1  0  0  0  0
 14 55  1  0  0  0  0
 14 69  1  0  0  0  0
 15 17  1  0  0  0  0
 15 70  1  0  0  0  0
 15 71  1  0  0  0  0
 16 52  1  0  0  0  0
 16 72  1  0  0  0  0
 17 19  1  0  0  0  0
 17 73  1  0  0  0  0
 17 74  1  0  0  0  0
 18 49  1  0  0  0  0
 18 53  1  0  0  0  0
 19 21  1  0  0  0  0
 19 75  1  0  0  0  0
 19 76  1  0  0  0  0
 20 54  1  0  0  0  0
 20 77  1  0  0  0  0
 21 22  1  0  0  0  0
 21 78  1  0  0  0  0
 21 79  1  0  0  0  0
 22 23  1  0  0  0  0
 22 80  1  0  0  0  0
 22 81  1  0  0  0  0
 23 25  1  0  0  0  0
 23 82  1  0  0  0  0
 23 83  1  0  0  0  0
 24 55  1  0  0  0  0
 25 27  1  0  0  0  0
 25 84  1  0  0  0  0
 25 85  1  0  0  0  0
 26 55  1  0  0  0  0
 26 86  1  0  0  0  0
 27 28  1  0  0  0  0
 27 87  1  0  0  0  0
 27 88  1  0  0  0  0
 28 29  1  0  0  0  0
 28 89  1  0  0  0  0
 28 90  1  0  0  0  0
 29 30  1  0  0  0  0
 29 91  1  0  0  0  0
 29 92  1  0  0  0  0
 30 93  1  0  0  0  0
 30 94  1  0  0  0  0
 30 95  1  0  0  0  0
 31 32  1  0  0  0  0
 32 33  1  0  0  0  0
 32 96  1  0  0  0  0
 32 97  1  0  0  0  0
 33 34  1  0  0  0  0
 33 98  1  0  0  0  0
 33 99  1  0  0  0  0
 34 35  1  0  0  0  0
 34100  1  0  0  0  0
 34101  1  0  0  0  0
 35 36  1  0  0  0  0
 35102  1  0  0  0  0
 35103  1  0  0  0  0
 36 37  1  0  0  0  0
 36104  1  0  0  0  0
 36105  1  0  0  0  0
 37 38  1  0  0  0  0
 37106  1  0  0  0  0
 37107  1  0  0  0  0
 38 39  1  0  0  0  0
 38108  1  0  0  0  0
 38109  1  0  0  0  0
 39 40  1  0  0  0  0
 39110  1  0  0  0  0
 39111  1  0  0  0  0
 40 41  1  0  0  0  0
 40112  1  0  0  0  0
 40113  1  0  0  0  0
 41 42  1  0  0  0  0
 41114  1  0  0  0  0
 41115  1  0  0  0  0
 42 43  1  0  0  0  0
 42116  1  0  0  0  0
 42117  1  0  0  0  0
 43 44  1  0  0  0  0
 43118  1  0  0  0  0
 43119  1  0  0  0  0
 44 45  1  0  0  0  0
 44120  1  0  0  0  0
 44121  1  0  0  0  0
 45 46  1  0  0  0  0
 45122  1  0  0  0  0
 45123  1  0  0  0  0
 46 47  1  0  0  0  0
 46124  1  0  0  0  0
 46125  1  0  0  0  0
 47 48  1  0  0  0  0
 47126  1  0  0  0  0
 47127  1  0  0  0  0
 48128  1  0  0  0  0
 48129  1  0  0  0  0
 48130  1  0  0  0  0
 49 50  1  0  0  0  0
 49131  1  6  0  0  0
 50 51  1  0  0  0  0
 50132  1  1  0  0  0
 51 52  1  0  0  0  0
 51133  1  6  0  0  0
 52 53  1  0  0  0  0
 52134  1  6  0  0  0
 53 54  1  0  0  0  0
 53135  1  6  0  0  0
 54136  1  0  0  0  0
 54137  1  0  0  0  0
M  CHG  1  24  -1
M  END
$$$$