/media/chris/experiments/cd1a-new-docking/inputs/ligands/1onq_ligand.pdb
 OpenBabel06222310383D

137137  0  0  1  0  0  0  0  0999 V2000
  -40.4920   60.2280   63.6270 N   0  0  0  0  0  0  0  0  0  0  0  0
  -38.5950   61.7730   64.2860 C   0  0  0  0  0  0  0  0  0  0  0  0
  -37.8612   61.7550   63.0352 O   0  0  0  0  0  0  0  0  0  0  0  0
  -39.4590   60.5300   64.5980 C   0  0  1  0  0  0  0  0  0  0  0  0
  -39.2569   60.8461   66.8904 O   0  0  0  0  0  0  0  0  0  0  0  0
  -40.2280   60.5370   65.9080 C   0  0  2  0  0  0  0  0  0  0  0  0
  -40.9980   62.2858   62.8166 O   0  0  0  0  0  0  0  0  0  0  0  0
  -40.8583   59.1606   66.1332 C   0  0  0  0  0  0  0  0  0  0  0  0
  -41.6129   58.8678   67.2060 C   0  0  0  0  0  0  0  0  0  0  0  0
  -36.4617   63.4735   64.8422 O   0  0  0  0  0  0  0  0  0  0  0  0
  -42.2065   57.4687   67.3592 C   0  0  0  0  0  0  0  0  0  0  0  0
  -33.9514   64.8423   64.0706 O   0  0  0  0  0  0  0  0  0  0  0  0
  -41.7514   56.7360   68.6297 C   0  0  0  0  0  0  0  0  0  0  0  0
  -31.9283   66.2529   64.8673 O   0  0  0  0  0  0  0  0  0  0  0  0
  -40.2330   56.5198   68.7668 C   0  0  0  0  0  0  0  0  0  0  0  0
  -33.4515   63.1747   61.9701 O   0  0  0  0  0  0  0  0  0  0  0  0
  -39.4858   57.8749   68.7965 C   0  0  0  0  0  0  0  0  0  0  0  0
  -36.3692   62.6641   61.3521 O   0  0  0  0  0  0  0  0  0  0  0  0
  -37.9437   57.7778   68.9153 C   0  0  0  0  0  0  0  0  0  0  0  0
  -33.8767   62.4184   59.8301 O   0  0  0  0  0  0  0  0  0  0  0  0
  -37.2646   57.0248   67.7471 C   0  0  0  0  0  0  0  0  0  0  0  0
  -37.4979   57.6826   66.3698 C   0  0  0  0  0  0  0  0  0  0  0  0
  -36.9559   59.1134   66.2688 C   0  0  0  0  0  0  0  0  0  0  0  0
  -33.8632   67.3659   63.9151 O   0  5  0  0  0  0  0  0  0  0  0  0
  -35.4520   59.2780   66.4781 C   0  0  0  0  0  0  0  0  0  0  0  0
  -32.3123   66.1772   62.4813 O   0  0  0  0  0  0  0  0  0  0  0  0
  -34.9628   60.7366   66.3832 C   0  0  0  0  0  0  0  0  0  0  0  0
  -33.4511   60.9339   66.5725 C   0  0  0  0  0  0  0  0  0  0  0  0
  -33.0737   62.4149   66.4773 C   0  0  0  0  0  0  0  0  0  0  0  0
  -33.4143   63.1161   65.1743 C   0  0  0  0  0  0  0  0  0  0  0  0
  -41.1606   61.0813   62.8393 C   0  0  0  0  0  0  0  0  0  0  0  0
  -42.1710   60.4499   61.9282 C   0  0  0  0  0  0  0  0  0  0  0  0
  -43.5248   61.0584   62.2944 C   0  0  0  0  0  0  0  0  0  0  0  0
  -43.8451   60.7741   63.7599 C   0  0  0  0  0  0  0  0  0  0  0  0
  -42.8730   61.3310   64.7715 C   0  0  0  0  0  0  0  0  0  0  0  0
  -43.3642   60.9221   66.1562 C   0  0  0  0  0  0  0  0  0  0  0  0
  -42.4640   61.4458   67.2833 C   0  0  0  0  0  0  0  0  0  0  0  0
  -42.9188   61.0384   68.6967 C   0  0  0  0  0  0  0  0  0  0  0  0
  -42.0012   61.5961   69.8068 C   0  0  0  0  0  0  0  0  0  0  0  0
  -41.9874   63.1271   69.7775 C   0  0  0  0  0  0  0  0  0  0  0  0
  -41.0966   63.7842   70.8248 C   0  0  0  0  0  0  0  0  0  0  0  0
  -39.6356   63.3882   70.6705 C   0  0  0  0  0  0  0  0  0  0  0  0
  -38.9762   63.7605   69.3406 C   0  0  0  0  0  0  0  0  0  0  0  0
  -39.0265   65.2751   69.1922 C   0  0  0  0  0  0  0  0  0  0  0  0
  -40.3835   65.9635   69.1953 C   0  0  0  0  0  0  0  0  0  0  0  0
  -40.2299   67.4824   69.0179 C   0  0  0  0  0  0  0  0  0  0  0  0
  -41.5567   68.2638   69.0264 C   0  0  0  0  0  0  0  0  0  0  0  0
  -42.5218   67.8270   67.9268 C   0  0  0  0  0  0  0  0  0  0  0  0
  -36.9920   62.8817   62.6414 C   0  0  2  0  0  0  0  0  0  0  0  0
  -35.8536   63.2281   63.6117 C   0  0  1  0  0  0  0  0  0  0  0  0
  -35.0540   64.4857   63.2063 C   0  0  2  0  0  0  0  0  0  0  0  0
  -34.4510   64.1853   61.8619 C   0  0  2  0  0  0  0  0  0  0  0  0
  -35.5409   63.7659   60.8921 C   0  0  1  0  0  0  0  0  0  0  0  0
  -34.7309   63.5033   59.6245 C   0  0  0  0  0  0  0  0  0  0  0  0
  -32.9820   66.1711   63.8128 S   0  0  0  0  0  0  0  0  0  0  0  0
  -40.7322   59.2777   63.5347 H   0  0  0  0  0  0  0  0  0  0  0  0
  -39.2437   62.6238   64.2698 H   0  0  0  0  0  0  0  0  0  0  0  0
  -37.8479   61.7974   65.0516 H   0  0  0  0  0  0  0  0  0  0  0  0
  -38.6677   59.8099   64.6092 H   0  0  0  0  0  0  0  0  0  0  0  0
  -38.8837   61.7234   66.7113 H   0  0  0  0  0  0  0  0  0  0  0  0
  -41.0317   61.2430   65.9299 H   0  0  0  0  0  0  0  0  0  0  0  0
  -40.6964   58.4237   65.4290 H   0  0  0  0  0  0  0  0  0  0  0  0
  -41.7909   59.5867   67.9248 H   0  0  0  0  0  0  0  0  0  0  0  0
  -36.9694   62.6928   65.1133 H   0  0  0  0  0  0  0  0  0  0  0  0
  -41.9160   56.8847   66.5110 H   0  0  0  0  0  0  0  0  0  0  0  0
  -43.2674   57.5874   67.4319 H   0  0  0  0  0  0  0  0  0  0  0  0
  -42.2229   55.7756   68.6423 H   0  0  0  0  0  0  0  0  0  0  0  0
  -42.0317   57.3670   69.4471 H   0  0  0  0  0  0  0  0  0  0  0  0
  -32.3461   66.2501   65.7427 H   0  0  0  0  0  0  0  0  0  0  0  0
  -39.8839   55.9449   67.9346 H   0  0  0  0  0  0  0  0  0  0  0  0
  -40.0414   56.0022   69.6834 H   0  0  0  0  0  0  0  0  0  0  0  0
  -32.7664   63.4629   62.5935 H   0  0  0  0  0  0  0  0  0  0  0  0
  -39.8474   58.4336   69.6344 H   0  0  0  0  0  0  0  0  0  0  0  0
  -39.6814   58.3417   67.8538 H   0  0  0  0  0  0  0  0  0  0  0  0
  -37.7086   57.2670   69.8256 H   0  0  0  0  0  0  0  0  0  0  0  0
  -37.5697   58.7801   68.8941 H   0  0  0  0  0  0  0  0  0  0  0  0
  -33.3634   62.2536   59.0236 H   0  0  0  0  0  0  0  0  0  0  0  0
  -37.6525   56.0280   67.7161 H   0  0  0  0  0  0  0  0  0  0  0  0
  -36.2107   57.0455   67.9305 H   0  0  0  0  0  0  0  0  0  0  0  0
  -38.5509   57.7064   66.1810 H   0  0  0  0  0  0  0  0  0  0  0  0
  -36.9665   57.0960   65.6497 H   0  0  0  0  0  0  0  0  0  0  0  0
  -37.4555   59.7052   67.0070 H   0  0  0  0  0  0  0  0  0  0  0  0
  -37.1413   59.4208   65.2608 H   0  0  0  0  0  0  0  0  0  0  0  0
  -34.9434   58.7031   65.7327 H   0  0  0  0  0  0  0  0  0  0  0  0
  -35.2390   58.9436   67.4720 H   0  0  0  0  0  0  0  0  0  0  0  0
  -31.7354   65.4010   62.4060 H   0  0  0  0  0  0  0  0  0  0  0  0
  -35.4676   61.3046   67.1365 H   0  0  0  0  0  0  0  0  0  0  0  0
  -35.1814   61.0585   65.3864 H   0  0  0  0  0  0  0  0  0  0  0  0
  -32.9296   60.3905   65.8125 H   0  0  0  0  0  0  0  0  0  0  0  0
  -33.1800   60.5752   67.5435 H   0  0  0  0  0  0  0  0  0  0  0  0
  -32.0162   62.4913   66.6213 H   0  0  0  0  0  0  0  0  0  0  0  0
  -33.6594   62.9062   67.2259 H   0  0  0  0  0  0  0  0  0  0  0  0
  -32.8591   62.6720   64.3746 H   0  0  0  0  0  0  0  0  0  0  0  0
  -33.1620   64.1531   65.2507 H   0  0  0  0  0  0  0  0  0  0  0  0
  -34.4617   63.0172   64.9792 H   0  0  0  0  0  0  0  0  0  0  0  0
  -42.1900   59.3902   62.0749 H   0  0  0  0  0  0  0  0  0  0  0  0
  -41.9312   60.6288   60.9008 H   0  0  0  0  0  0  0  0  0  0  0  0
  -44.2852   60.6294   61.6758 H   0  0  0  0  0  0  0  0  0  0  0  0
  -43.4873   62.1167   62.1417 H   0  0  0  0  0  0  0  0  0  0  0  0
  -43.8775   59.7122   63.8876 H   0  0  0  0  0  0  0  0  0  0  0  0
  -44.7747   61.2678   63.9522 H   0  0  0  0  0  0  0  0  0  0  0  0
  -42.8394   62.3978   64.6965 H   0  0  0  0  0  0  0  0  0  0  0  0
  -41.8882   60.9516   64.5949 H   0  0  0  0  0  0  0  0  0  0  0  0
  -43.3910   59.8537   66.2082 H   0  0  0  0  0  0  0  0  0  0  0  0
  -44.3353   61.3498   66.2936 H   0  0  0  0  0  0  0  0  0  0  0  0
  -42.4484   62.5144   67.2310 H   0  0  0  0  0  0  0  0  0  0  0  0
  -41.4988   61.0087   67.1335 H   0  0  0  0  0  0  0  0  0  0  0  0
  -42.9212   59.9703   68.7601 H   0  0  0  0  0  0  0  0  0  0  0  0
  -43.8951   61.4483   68.8507 H   0  0  0  0  0  0  0  0  0  0  0  0
  -41.0062   61.2327   69.6559 H   0  0  0  0  0  0  0  0  0  0  0  0
  -42.3738   61.2730   70.7564 H   0  0  0  0  0  0  0  0  0  0  0  0
  -42.9889   63.4709   69.9311 H   0  0  0  0  0  0  0  0  0  0  0  0
  -41.5838   63.4039   68.8260 H   0  0  0  0  0  0  0  0  0  0  0  0
  -41.4324   63.4885   71.7968 H   0  0  0  0  0  0  0  0  0  0  0  0
  -41.1641   64.8440   70.6938 H   0  0  0  0  0  0  0  0  0  0  0  0
  -39.5708   62.3260   70.7820 H   0  0  0  0  0  0  0  0  0  0  0  0
  -39.1066   63.9402   71.4191 H   0  0  0  0  0  0  0  0  0  0  0  0
  -39.5050   63.2996   68.5326 H   0  0  0  0  0  0  0  0  0  0  0  0
  -37.9617   63.4209   69.3232 H   0  0  0  0  0  0  0  0  0  0  0  0
  -38.5526   65.5168   68.2638 H   0  0  0  0  0  0  0  0  0  0  0  0
  -38.5476   65.6395   70.0769 H   0  0  0  0  0  0  0  0  0  0  0  0
  -40.8732   65.7676   70.1263 H   0  0  0  0  0  0  0  0  0  0  0  0
  -40.9619   65.5815   68.3802 H   0  0  0  0  0  0  0  0  0  0  0  0
  -39.7423   67.6620   68.0826 H   0  0  0  0  0  0  0  0  0  0  0  0
  -39.6659   67.8314   69.8576 H   0  0  0  0  0  0  0  0  0  0  0  0
  -41.3396   69.3032   68.8946 H   0  0  0  0  0  0  0  0  0  0  0  0
  -42.0342   68.0673   69.9636 H   0  0  0  0  0  0  0  0  0  0  0  0
  -42.0782   68.0084   66.9701 H   0  0  0  0  0  0  0  0  0  0  0  0
  -43.4319   68.3836   68.0092 H   0  0  0  0  0  0  0  0  0  0  0  0
  -42.7317   66.7829   68.0304 H   0  0  0  0  0  0  0  0  0  0  0  0
  -37.6838   63.6979   62.6313 H   0  0  0  0  0  0  0  0  0  0  0  0
  -35.1546   62.4180   63.6243 H   0  0  0  0  0  0  0  0  0  0  0  0
  -35.7427   65.3038   63.2423 H   0  0  0  0  0  0  0  0  0  0  0  0
  -33.9800   65.0706   61.4887 H   0  0  0  0  0  0  0  0  0  0  0  0
  -36.3046   64.5020   60.7512 H   0  0  0  0  0  0  0  0  0  0  0  0
  -35.3964   63.2841   58.8158 H   0  0  0  0  0  0  0  0  0  0  0  0
  -34.1517   64.3711   59.3871 H   0  0  0  0  0  0  0  0  0  0  0  0
  1  4  1  0  0  0  0
  1 31  1  0  0  0  0
  1 56  1  0  0  0  0
  2  3  1  0  0  0  0
  2  4  1  0  0  0  0
  2 57  1  0  0  0  0
  2 58  1  0  0  0  0
  3 49  1  0  0  0  0
  4  6  1  0  0  0  0
  4 59  1  1  0  0  0
  5  6  1  0  0  0  0
  5 60  1  0  0  0  0
  6  8  1  0  0  0  0
  6 61  1  6  0  0  0
  7 31  2  0  0  0  0
  8  9  2  0  0  0  0
  8 62  1  0  0  0  0
  9 11  1  0  0  0  0
  9 63  1  0  0  0  0
 10 50  1  0  0  0  0
 10 64  1  0  0  0  0
 11 13  1  0  0  0  0
 11 65  1  0  0  0  0
 11 66  1  0  0  0  0
 12 51  1  0  0  0  0
 12 55  1  0  0  0  0
 13 15  1  0  0  0  0
 13 67  1  0  0  0  0
 13 68  1  0  0  0  0
 14 55  1  0  0  0  0
 14 69  1  0  0  0  0
 15 17  1  0  0  0  0
 15 70  1  0  0  0  0
 15 71  1  0  0  0  0
 16 52  1  0  0  0  0
 16 72  1  0  0  0  0
 17 19  1  0  0  0  0
 17 73  1  0  0  0  0
 17 74  1  0  0  0  0
 18 49  1  0  0  0  0
 18 53  1  0  0  0  0
 19 21  1  0  0  0  0
 19 75  1  0  0  0  0
 19 76  1  0  0  0  0
 20 54  1  0  0  0  0
 20 77  1  0  0  0  0
 21 22  1  0  0  0  0
 21 78  1  0  0  0  0
 21 79  1  0  0  0  0
 22 23  1  0  0  0  0
 22 80  1  0  0  0  0
 22 81  1  0  0  0  0
 23 25  1  0  0  0  0
 23 82  1  0  0  0  0
 23 83  1  0  0  0  0
 24 55  1  0  0  0  0
 25 27  1  0  0  0  0
 25 84  1  0  0  0  0
 25 85  1  0  0  0  0
 26 55  1  0  0  0  0
 26 86  1  0  0  0  0
 27 28  1  0  0  0  0
 27 87  1  0  0  0  0
 27 88  1  0  0  0  0
 28 29  1  0  0  0  0
 28 89  1  0  0  0  0
 28 90  1  0  0  0  0
 29 30  1  0  0  0  0
 29 91  1  0  0  0  0
 29 92  1  0  0  0  0
 30 93  1  0  0  0  0
 30 94  1  0  0  0  0
 30 95  1  0  0  0  0
 31 32  1  0  0  0  0
 32 33  1  0  0  0  0
 32 96  1  0  0  0  0
 32 97  1  0  0  0  0
 33 34  1  0  0  0  0
 33 98  1  0  0  0  0
 33 99  1  0  0  0  0
 34 35  1  0  0  0  0
 34100  1  0  0  0  0
 34101  1  0  0  0  0
 35 36  1  0  0  0  0
 35102  1  0  0  0  0
 35103  1  0  0  0  0
 36 37  1  0  0  0  0
 36104  1  0  0  0  0
 36105  1  0  0  0  0
 37 38  1  0  0  0  0
 37106  1  0  0  0  0
 37107  1  0  0  0  0
 38 39  1  0  0  0  0
 38108  1  0  0  0  0
 38109  1  0  0  0  0
 39 40  1  0  0  0  0
 39110  1  0  0  0  0
 39111  1  0  0  0  0
 40 41  1  0  0  0  0
 40112  1  0  0  0  0
 40113  1  0  0  0  0
 41 42  1  0  0  0  0
 41114  1  0  0  0  0
 41115  1  0  0  0  0
 42 43  1  0  0  0  0
 42116  1  0  0  0  0
 42117  1  0  0  0  0
 43 44  1  0  0  0  0
 43118  1  0  0  0  0
 43119  1  0  0  0  0
 44 45  1  0  0  0  0
 44120  1  0  0  0  0
 44121  1  0  0  0  0
 45 46  1  0  0  0  0
 45122  1  0  0  0  0
 45123  1  0  0  0  0
 46 47  1  0  0  0  0
 46124  1  0  0  0  0
 46125  1  0  0  0  0
 47 48  1  0  0  0  0
 47126  1  0  0  0  0
 47127  1  0  0  0  0
 48128  1  0  0  0  0
 48129  1  0  0  0  0
 48130  1  0  0  0  0
 49 50  1  0  0  0  0
 49131  1  6  0  0  0
 50 51  1  0  0  0  0
 50132  1  1  0  0  0
 51 52  1  0  0  0  0
 51133  1  6  0  0  0
 52 53  1  0  0  0  0
 52134  1  6  0  0  0
 53 54  1  0  0  0  0
 53135  1  6  0  0  0
 54136  1  0  0  0  0
 54137  1  0  0  0  0
M  CHG  1  24  -1
M  END
$$$$