/media/chris/experiments/cd1a-new-docking/inputs/ligands/1onq_ligand.pdb
 OpenBabel06222310383D

137137  0  0  1  0  0  0  0  0999 V2000
  -40.4920   60.2280   63.6270 N   0  0  0  0  0  0  0  0  0  0  0  0
  -38.5950   61.7730   64.2860 C   0  0  0  0  0  0  0  0  0  0  0  0
  -37.8612   61.7550   63.0352 O   0  0  0  0  0  0  0  0  0  0  0  0
  -39.4590   60.5300   64.5980 C   0  0  1  0  0  0  0  0  0  0  0  0
  -39.2569   60.8461   66.8904 O   0  0  0  0  0  0  0  0  0  0  0  0
  -40.2280   60.5370   65.9080 C   0  0  2  0  0  0  0  0  0  0  0  0
  -42.2618   61.3924   64.4390 O   0  0  0  0  0  0  0  0  0  0  0  0
  -40.8583   59.1606   66.1332 C   0  0  0  0  0  0  0  0  0  0  0  0
  -40.5775   58.3927   67.1998 C   0  0  0  0  0  0  0  0  0  0  0  0
  -36.4617   63.4735   64.8422 O   0  0  0  0  0  0  0  0  0  0  0  0
  -41.2481   57.0288   67.3524 C   0  0  0  0  0  0  0  0  0  0  0  0
  -33.9514   64.8423   64.0706 O   0  0  0  0  0  0  0  0  0  0  0  0
  -40.9397   56.0528   66.2076 C   0  0  0  0  0  0  0  0  0  0  0  0
  -35.0622   66.3440   65.8673 O   0  0  0  0  0  0  0  0  0  0  0  0
  -39.4539   55.6946   66.0193 C   0  0  0  0  0  0  0  0  0  0  0  0
  -33.4515   63.1747   61.9701 O   0  0  0  0  0  0  0  0  0  0  0  0
  -38.8877   55.0144   67.2890 C   0  0  0  0  0  0  0  0  0  0  0  0
  -36.3692   62.6641   61.3521 O   0  0  0  0  0  0  0  0  0  0  0  0
  -37.3896   54.6242   67.2185 C   0  0  0  0  0  0  0  0  0  0  0  0
  -33.8767   62.4184   59.8301 O   0  0  0  0  0  0  0  0  0  0  0  0
  -37.0439   53.6427   66.0740 C   0  0  0  0  0  0  0  0  0  0  0  0
  -35.5514   53.2498   66.0271 C   0  0  0  0  0  0  0  0  0  0  0  0
  -35.2008   52.2902   64.8835 C   0  0  0  0  0  0  0  0  0  0  0  0
  -32.7880   65.5645   66.1981 O   0  5  0  0  0  0  0  0  0  0  0  0
  -33.7399   51.8534   64.7977 C   0  0  0  0  0  0  0  0  0  0  0  0
  -34.6528   64.0446   66.4927 O   0  0  0  0  0  0  0  0  0  0  0  0
  -33.2377   51.0999   66.0452 C   0  0  0  0  0  0  0  0  0  0  0  0
  -33.9810   49.7941   66.3648 C   0  0  0  0  0  0  0  0  0  0  0  0
  -33.8507   48.7915   65.2146 C   0  0  0  0  0  0  0  0  0  0  0  0
  -32.4420   48.3485   64.8614 C   0  0  0  0  0  0  0  0  0  0  0  0
  -41.7615   60.6565   63.6107 C   0  0  0  0  0  0  0  0  0  0  0  0
  -42.5847   60.1680   62.4559 C   0  0  0  0  0  0  0  0  0  0  0  0
  -42.6099   58.6428   62.5563 C   0  0  0  0  0  0  0  0  0  0  0  0
  -43.4180   58.0574   61.4007 C   0  0  0  0  0  0  0  0  0  0  0  0
  -43.5460   56.5535   61.3755 C   0  0  0  0  0  0  0  0  0  0  0  0
  -44.2507   56.1295   62.6599 C   0  0  0  0  0  0  0  0  0  0  0  0
  -44.4279   54.6088   62.7646 C   0  0  0  0  0  0  0  0  0  0  0  0
  -43.1073   53.8170   62.7655 C   0  0  0  0  0  0  0  0  0  0  0  0
  -42.1883   54.1836   63.9515 C   0  0  0  0  0  0  0  0  0  0  0  0
  -40.8853   53.3812   63.8930 C   0  0  0  0  0  0  0  0  0  0  0  0
  -41.0577   51.8676   63.9314 C   0  0  0  0  0  0  0  0  0  0  0  0
  -39.7257   51.1336   63.8874 C   0  0  0  0  0  0  0  0  0  0  0  0
  -38.8524   51.4008   62.6593 C   0  0  0  0  0  0  0  0  0  0  0  0
  -37.5825   50.5706   62.7888 C   0  0  0  0  0  0  0  0  0  0  0  0
  -37.7057   49.0558   62.8611 C   0  0  0  0  0  0  0  0  0  0  0  0
  -38.3647   48.4964   61.5904 C   0  0  0  0  0  0  0  0  0  0  0  0
  -37.5919   48.7851   60.2902 C   0  0  0  0  0  0  0  0  0  0  0  0
  -38.2792   48.2324   59.0437 C   0  0  0  0  0  0  0  0  0  0  0  0
  -36.9920   62.8817   62.6414 C   0  0  2  0  0  0  0  0  0  0  0  0
  -35.8536   63.2281   63.6117 C   0  0  1  0  0  0  0  0  0  0  0  0
  -35.0540   64.4857   63.2063 C   0  0  2  0  0  0  0  0  0  0  0  0
  -34.4510   64.1853   61.8619 C   0  0  2  0  0  0  0  0  0  0  0  0
  -35.5409   63.7659   60.8921 C   0  0  1  0  0  0  0  0  0  0  0  0
  -34.7309   63.5033   59.6245 C   0  0  0  0  0  0  0  0  0  0  0  0
  -34.1347   65.1878   65.6890 S   0  0  0  0  0  0  0  0  0  0  0  0
  -40.2280   59.6342   62.8875 H   0  0  0  0  0  0  0  0  0  0  0  0
  -39.2437   62.6238   64.2698 H   0  0  0  0  0  0  0  0  0  0  0  0
  -37.8479   61.7974   65.0516 H   0  0  0  0  0  0  0  0  0  0  0  0
  -38.6677   59.8099   64.6092 H   0  0  0  0  0  0  0  0  0  0  0  0
  -38.8837   61.7234   66.7113 H   0  0  0  0  0  0  0  0  0  0  0  0
  -41.0317   61.2430   65.9299 H   0  0  0  0  0  0  0  0  0  0  0  0
  -41.5295   58.8060   65.4340 H   0  0  0  0  0  0  0  0  0  0  0  0
  -39.9104   58.7238   67.9142 H   0  0  0  0  0  0  0  0  0  0  0  0
  -36.9694   62.6928   65.1133 H   0  0  0  0  0  0  0  0  0  0  0  0
  -42.3071   57.1766   67.3931 H   0  0  0  0  0  0  0  0  0  0  0  0
  -40.8602   56.5901   68.2479 H   0  0  0  0  0  0  0  0  0  0  0  0
  -41.2900   56.4923   65.2972 H   0  0  0  0  0  0  0  0  0  0  0  0
  -41.4307   55.1373   66.4638 H   0  0  0  0  0  0  0  0  0  0  0  0
  -34.7406   67.0992   65.3505 H   0  0  0  0  0  0  0  0  0  0  0  0
  -38.8996   56.5886   65.8233 H   0  0  0  0  0  0  0  0  0  0  0  0
  -39.3663   55.0146   65.1978 H   0  0  0  0  0  0  0  0  0  0  0  0
  -32.7664   63.4629   62.5935 H   0  0  0  0  0  0  0  0  0  0  0  0
  -39.4534   54.1238   67.4672 H   0  0  0  0  0  0  0  0  0  0  0  0
  -38.9687   55.7376   68.0735 H   0  0  0  0  0  0  0  0  0  0  0  0
  -37.1179   54.1665   68.1467 H   0  0  0  0  0  0  0  0  0  0  0  0
  -36.8456   55.5252   67.0261 H   0  0  0  0  0  0  0  0  0  0  0  0
  -33.3634   62.2536   59.0236 H   0  0  0  0  0  0  0  0  0  0  0  0
  -37.3019   54.1036   65.1435 H   0  0  0  0  0  0  0  0  0  0  0  0
  -37.5994   52.7455   66.2511 H   0  0  0  0  0  0  0  0  0  0  0  0
  -35.2973   52.7782   66.9533 H   0  0  0  0  0  0  0  0  0  0  0  0
  -34.9969   54.1496   65.8606 H   0  0  0  0  0  0  0  0  0  0  0  0
  -35.4523   52.7734   63.9626 H   0  0  0  0  0  0  0  0  0  0  0  0
  -35.7573   51.3970   65.0768 H   0  0  0  0  0  0  0  0  0  0  0  0
  -33.1349   52.7259   64.6651 H   0  0  0  0  0  0  0  0  0  0  0  0
  -33.6675   51.1735   63.9747 H   0  0  0  0  0  0  0  0  0  0  0  0
  -35.5310   63.7923   66.1673 H   0  0  0  0  0  0  0  0  0  0  0  0
  -33.3368   51.7519   66.8878 H   0  0  0  0  0  0  0  0  0  0  0  0
  -32.2258   50.8217   65.8362 H   0  0  0  0  0  0  0  0  0  0  0  0
  -35.0166   50.0112   66.5239 H   0  0  0  0  0  0  0  0  0  0  0  0
  -33.5487   49.3625   67.2433 H   0  0  0  0  0  0  0  0  0  0  0  0
  -34.2796   49.2391   64.3425 H   0  0  0  0  0  0  0  0  0  0  0  0
  -34.3509   47.9072   65.5504 H   0  0  0  0  0  0  0  0  0  0  0  0
  -31.8798   49.1903   64.5147 H   0  0  0  0  0  0  0  0  0  0  0  0
  -32.4839   47.6063   64.0919 H   0  0  0  0  0  0  0  0  0  0  0  0
  -31.9696   47.9368   65.7287 H   0  0  0  0  0  0  0  0  0  0  0  0
  -42.1401   60.4704   61.5308 H   0  0  0  0  0  0  0  0  0  0  0  0
  -43.5740   60.5745   62.4862 H   0  0  0  0  0  0  0  0  0  0  0  0
  -43.0591   58.3560   63.4841 H   0  0  0  0  0  0  0  0  0  0  0  0
  -41.6078   58.2708   62.5083 H   0  0  0  0  0  0  0  0  0  0  0  0
  -42.9502   58.3611   60.4876 H   0  0  0  0  0  0  0  0  0  0  0  0
  -44.4133   58.4287   61.5285 H   0  0  0  0  0  0  0  0  0  0  0  0
  -42.5756   56.1055   61.3268 H   0  0  0  0  0  0  0  0  0  0  0  0
  -44.1040   56.2381   60.5188 H   0  0  0  0  0  0  0  0  0  0  0  0
  -45.2165   56.5892   62.6881 H   0  0  0  0  0  0  0  0  0  0  0  0
  -43.6397   56.4407   63.4813 H   0  0  0  0  0  0  0  0  0  0  0  0
  -45.0146   54.2813   61.9320 H   0  0  0  0  0  0  0  0  0  0  0  0
  -44.9003   54.4188   63.7057 H   0  0  0  0  0  0  0  0  0  0  0  0
  -42.5861   54.0213   61.8537 H   0  0  0  0  0  0  0  0  0  0  0  0
  -43.3544   52.7802   62.8589 H   0  0  0  0  0  0  0  0  0  0  0  0
  -42.6944   53.9657   64.8687 H   0  0  0  0  0  0  0  0  0  0  0  0
  -41.9537   55.2261   63.8962 H   0  0  0  0  0  0  0  0  0  0  0  0
  -40.2815   53.6676   64.7286 H   0  0  0  0  0  0  0  0  0  0  0  0
  -40.4378   53.6069   62.9476 H   0  0  0  0  0  0  0  0  0  0  0  0
  -41.6445   51.5666   63.0888 H   0  0  0  0  0  0  0  0  0  0  0  0
  -41.5397   51.6163   64.8531 H   0  0  0  0  0  0  0  0  0  0  0  0
  -39.9292   50.0837   63.9221 H   0  0  0  0  0  0  0  0  0  0  0  0
  -39.1671   51.4993   64.7235 H   0  0  0  0  0  0  0  0  0  0  0  0
  -38.6025   52.4401   62.6118 H   0  0  0  0  0  0  0  0  0  0  0  0
  -39.3787   51.1345   61.7665 H   0  0  0  0  0  0  0  0  0  0  0  0
  -37.0871   50.8896   63.6820 H   0  0  0  0  0  0  0  0  0  0  0  0
  -37.0619   50.7461   61.8706 H   0  0  0  0  0  0  0  0  0  0  0  0
  -38.3024   48.7932   63.7096 H   0  0  0  0  0  0  0  0  0  0  0  0
  -36.7248   48.6375   62.9493 H   0  0  0  0  0  0  0  0  0  0  0  0
  -39.3400   48.9277   61.5022 H   0  0  0  0  0  0  0  0  0  0  0  0
  -38.3861   47.4325   61.7018 H   0  0  0  0  0  0  0  0  0  0  0  0
  -36.6207   48.3426   60.3670 H   0  0  0  0  0  0  0  0  0  0  0  0
  -37.5430   49.8483   60.1800 H   0  0  0  0  0  0  0  0  0  0  0  0
  -38.3472   47.1670   59.1167 H   0  0  0  0  0  0  0  0  0  0  0  0
  -37.7099   48.4948   58.1765 H   0  0  0  0  0  0  0  0  0  0  0  0
  -39.2620   48.6480   58.9644 H   0  0  0  0  0  0  0  0  0  0  0  0
  -37.6838   63.6979   62.6313 H   0  0  0  0  0  0  0  0  0  0  0  0
  -35.1546   62.4180   63.6243 H   0  0  0  0  0  0  0  0  0  0  0  0
  -35.7427   65.3038   63.2423 H   0  0  0  0  0  0  0  0  0  0  0  0
  -33.9800   65.0706   61.4887 H   0  0  0  0  0  0  0  0  0  0  0  0
  -36.3046   64.5020   60.7512 H   0  0  0  0  0  0  0  0  0  0  0  0
  -35.3964   63.2841   58.8158 H   0  0  0  0  0  0  0  0  0  0  0  0
  -34.1517   64.3711   59.3871 H   0  0  0  0  0  0  0  0  0  0  0  0
  1  4  1  0  0  0  0
  1 31  1  0  0  0  0
  1 56  1  0  0  0  0
  2  3  1  0  0  0  0
  2  4  1  0  0  0  0
  2 57  1  0  0  0  0
  2 58  1  0  0  0  0
  3 49  1  0  0  0  0
  4  6  1  0  0  0  0
  4 59  1  1  0  0  0
  5  6  1  0  0  0  0
  5 60  1  0  0  0  0
  6  8  1  0  0  0  0
  6 61  1  6  0  0  0
  7 31  2  0  0  0  0
  8  9  2  0  0  0  0
  8 62  1  0  0  0  0
  9 11  1  0  0  0  0
  9 63  1  0  0  0  0
 10 50  1  0  0  0  0
 10 64  1  0  0  0  0
 11 13  1  0  0  0  0
 11 65  1  0  0  0  0
 11 66  1  0  0  0  0
 12 51  1  0  0  0  0
 12 55  1  0  0  0  0
 13 15  1  0  0  0  0
 13 67  1  0  0  0  0
 13 68  1  0  0  0  0
 14 55  1  0  0  0  0
 14 69  1  0  0  0  0
 15 17  1  0  0  0  0
 15 70  1  0  0  0  0
 15 71  1  0  0  0  0
 16 52  1  0  0  0  0
 16 72  1  0  0  0  0
 17 19  1  0  0  0  0
 17 73  1  0  0  0  0
 17 74  1  0  0  0  0
 18 49  1  0  0  0  0
 18 53  1  0  0  0  0
 19 21  1  0  0  0  0
 19 75  1  0  0  0  0
 19 76  1  0  0  0  0
 20 54  1  0  0  0  0
 20 77  1  0  0  0  0
 21 22  1  0  0  0  0
 21 78  1  0  0  0  0
 21 79  1  0  0  0  0
 22 23  1  0  0  0  0
 22 80  1  0  0  0  0
 22 81  1  0  0  0  0
 23 25  1  0  0  0  0
 23 82  1  0  0  0  0
 23 83  1  0  0  0  0
 24 55  1  0  0  0  0
 25 27  1  0  0  0  0
 25 84  1  0  0  0  0
 25 85  1  0  0  0  0
 26 55  1  0  0  0  0
 26 86  1  0  0  0  0
 27 28  1  0  0  0  0
 27 87  1  0  0  0  0
 27 88  1  0  0  0  0
 28 29  1  0  0  0  0
 28 89  1  0  0  0  0
 28 90  1  0  0  0  0
 29 30  1  0  0  0  0
 29 91  1  0  0  0  0
 29 92  1  0  0  0  0
 30 93  1  0  0  0  0
 30 94  1  0  0  0  0
 30 95  1  0  0  0  0
 31 32  1  0  0  0  0
 32 33  1  0  0  0  0
 32 96  1  0  0  0  0
 32 97  1  0  0  0  0
 33 34  1  0  0  0  0
 33 98  1  0  0  0  0
 33 99  1  0  0  0  0
 34 35  1  0  0  0  0
 34100  1  0  0  0  0
 34101  1  0  0  0  0
 35 36  1  0  0  0  0
 35102  1  0  0  0  0
 35103  1  0  0  0  0
 36 37  1  0  0  0  0
 36104  1  0  0  0  0
 36105  1  0  0  0  0
 37 38  1  0  0  0  0
 37106  1  0  0  0  0
 37107  1  0  0  0  0
 38 39  1  0  0  0  0
 38108  1  0  0  0  0
 38109  1  0  0  0  0
 39 40  1  0  0  0  0
 39110  1  0  0  0  0
 39111  1  0  0  0  0
 40 41  1  0  0  0  0
 40112  1  0  0  0  0
 40113  1  0  0  0  0
 41 42  1  0  0  0  0
 41114  1  0  0  0  0
 41115  1  0  0  0  0
 42 43  1  0  0  0  0
 42116  1  0  0  0  0
 42117  1  0  0  0  0
 43 44  1  0  0  0  0
 43118  1  0  0  0  0
 43119  1  0  0  0  0
 44 45  1  0  0  0  0
 44120  1  0  0  0  0
 44121  1  0  0  0  0
 45 46  1  0  0  0  0
 45122  1  0  0  0  0
 45123  1  0  0  0  0
 46 47  1  0  0  0  0
 46124  1  0  0  0  0
 46125  1  0  0  0  0
 47 48  1  0  0  0  0
 47126  1  0  0  0  0
 47127  1  0  0  0  0
 48128  1  0  0  0  0
 48129  1  0  0  0  0
 48130  1  0  0  0  0
 49 50  1  0  0  0  0
 49131  1  6  0  0  0
 50 51  1  0  0  0  0
 50132  1  1  0  0  0
 51 52  1  0  0  0  0
 51133  1  6  0  0  0
 52 53  1  0  0  0  0
 52134  1  6  0  0  0
 53 54  1  0  0  0  0
 53135  1  6  0  0  0
 54136  1  0  0  0  0
 54137  1  0  0  0  0
M  CHG  1  24  -1
M  END
$$$$