/media/chris/experiments/cd1a-new-docking/inputs/ligands/1onq_ligand.pdb
 OpenBabel06222310383D

137137  0  0  1  0  0  0  0  0999 V2000
  -40.4920   60.2280   63.6270 N   0  0  0  0  0  0  0  0  0  0  0  0
  -38.5950   61.7730   64.2860 C   0  0  0  0  0  0  0  0  0  0  0  0
  -39.2927   63.0412   64.1953 O   0  0  0  0  0  0  0  0  0  0  0  0
  -39.4590   60.5300   64.5980 C   0  0  1  0  0  0  0  0  0  0  0  0
  -39.2569   60.8461   66.8904 O   0  0  0  0  0  0  0  0  0  0  0  0
  -40.2280   60.5370   65.9080 C   0  0  2  0  0  0  0  0  0  0  0  0
  -40.6436   57.9696   63.7820 O   0  0  0  0  0  0  0  0  0  0  0  0
  -40.8583   59.1606   66.1332 C   0  0  0  0  0  0  0  0  0  0  0  0
  -42.0897   58.8399   65.7007 C   0  0  0  0  0  0  0  0  0  0  0  0
  -40.3964   65.2906   62.8172 O   0  0  0  0  0  0  0  0  0  0  0  0
  -42.6490   57.4435   65.9661 C   0  0  0  0  0  0  0  0  0  0  0  0
  -39.3931   68.0416   63.2594 O   0  0  0  0  0  0  0  0  0  0  0  0
  -44.1767   57.4042   66.1175 C   0  0  0  0  0  0  0  0  0  0  0  0
  -41.2594   69.6187   62.3950 O   0  0  0  0  0  0  0  0  0  0  0  0
  -44.9803   57.8774   64.8922 C   0  0  0  0  0  0  0  0  0  0  0  0
  -38.1858   67.4358   65.6297 O   0  0  0  0  0  0  0  0  0  0  0  0
  -44.6770   56.9907   63.6605 C   0  0  0  0  0  0  0  0  0  0  0  0
  -37.5407   64.5807   64.8630 O   0  0  0  0  0  0  0  0  0  0  0  0
  -45.0292   55.4902   63.8225 C   0  0  0  0  0  0  0  0  0  0  0  0
  -34.8543   65.1971   65.8955 O   0  0  0  0  0  0  0  0  0  0  0  0
  -44.6999   54.6249   62.5833 C   0  0  0  0  0  0  0  0  0  0  0  0
  -45.0722   53.1361   62.7532 C   0  0  0  0  0  0  0  0  0  0  0  0
  -44.7318   52.2712   61.5336 C   0  0  0  0  0  0  0  0  0  0  0  0
  -41.7430   67.2649   62.7342 O   0  5  0  0  0  0  0  0  0  0  0  0
  -45.3980   52.6721   60.2192 C   0  0  0  0  0  0  0  0  0  0  0  0
  -40.4283   67.9769   60.8266 O   0  0  0  0  0  0  0  0  0  0  0  0
  -46.9386   52.6551   60.2676 C   0  0  0  0  0  0  0  0  0  0  0  0
  -47.6393   53.0376   58.9551 C   0  0  0  0  0  0  0  0  0  0  0  0
  -47.2427   54.4485   58.5110 C   0  0  0  0  0  0  0  0  0  0  0  0
  -47.5552   55.5744   59.4807 C   0  0  0  0  0  0  0  0  0  0  0  0
  -40.9921   59.0290   63.2983 C   0  0  0  0  0  0  0  0  0  0  0  0
  -42.0683   59.0516   62.2538 C   0  0  0  0  0  0  0  0  0  0  0  0
  -41.4398   59.6537   60.9970 C   0  0  0  0  0  0  0  0  0  0  0  0
  -40.9251   61.0602   61.2938 C   0  0  0  0  0  0  0  0  0  0  0  0
  -40.2893   61.7919   60.1367 C   0  0  0  0  0  0  0  0  0  0  0  0
  -41.3454   61.9348   59.0457 C   0  0  0  0  0  0  0  0  0  0  0  0
  -40.8150   62.6528   57.7975 C   0  0  0  0  0  0  0  0  0  0  0  0
  -39.6382   61.9375   57.1089 C   0  0  0  0  0  0  0  0  0  0  0  0
  -39.1184   62.6954   55.8675 C   0  0  0  0  0  0  0  0  0  0  0  0
  -37.9629   61.9323   55.2137 C   0  0  0  0  0  0  0  0  0  0  0  0
  -38.3119   60.5344   54.7176 C   0  0  0  0  0  0  0  0  0  0  0  0
  -39.4025   60.5539   53.6569 C   0  0  0  0  0  0  0  0  0  0  0  0
  -40.7389   61.1684   54.0795 C   0  0  0  0  0  0  0  0  0  0  0  0
  -41.6973   61.0807   52.8994 C   0  0  0  0  0  0  0  0  0  0  0  0
  -43.1022   61.6431   53.0574 C   0  0  0  0  0  0  0  0  0  0  0  0
  -43.8483   60.9445   54.2051 C   0  0  0  0  0  0  0  0  0  0  0  0
  -45.2890   61.4410   54.4259 C   0  0  0  0  0  0  0  0  0  0  0  0
  -45.9985   60.7410   55.5828 C   0  0  0  0  0  0  0  0  0  0  0  0
  -38.5707   64.2916   63.8868 C   0  0  2  0  0  0  0  0  0  0  0  0
  -39.4297   65.5603   63.7851 C   0  0  1  0  0  0  0  0  0  0  0  0
  -38.6385   66.8115   63.3449 C   0  0  2  0  0  0  0  0  0  0  0  0
  -37.5890   67.0373   64.3980 C   0  0  2  0  0  0  0  0  0  0  0  0
  -36.7643   65.7760   64.5802 C   0  0  1  0  0  0  0  0  0  0  0  0
  -35.7901   66.2089   65.6736 C   0  0  0  0  0  0  0  0  0  0  0  0
  -40.7155   68.2343   62.2663 S   0  0  0  0  0  0  0  0  0  0  0  0
  -40.8737   60.9998   63.1496 H   0  0  0  0  0  0  0  0  0  0  0  0
  -37.8608   61.8607   65.0594 H   0  0  0  0  0  0  0  0  0  0  0  0
  -38.1940   61.6005   63.3091 H   0  0  0  0  0  0  0  0  0  0  0  0
  -38.6677   59.8099   64.6092 H   0  0  0  0  0  0  0  0  0  0  0  0
  -38.8837   61.7234   66.7113 H   0  0  0  0  0  0  0  0  0  0  0  0
  -41.0317   61.2430   65.9299 H   0  0  0  0  0  0  0  0  0  0  0  0
  -40.3128   58.4462   66.6402 H   0  0  0  0  0  0  0  0  0  0  0  0
  -42.6561   59.5355   65.1904 H   0  0  0  0  0  0  0  0  0  0  0  0
  -40.9043   64.5062   63.0773 H   0  0  0  0  0  0  0  0  0  0  0  0
  -42.2112   57.0710   66.8686 H   0  0  0  0  0  0  0  0  0  0  0  0
  -42.4056   56.8440   65.1139 H   0  0  0  0  0  0  0  0  0  0  0  0
  -44.4414   58.0281   66.9455 H   0  0  0  0  0  0  0  0  0  0  0  0
  -44.4305   56.3736   66.2531 H   0  0  0  0  0  0  0  0  0  0  0  0
  -41.4526   69.8047   63.3272 H   0  0  0  0  0  0  0  0  0  0  0  0
  -44.7161   58.8900   64.6691 H   0  0  0  0  0  0  0  0  0  0  0  0
  -46.0238   57.8060   65.1177 H   0  0  0  0  0  0  0  0  0  0  0  0
  -38.7070   68.2420   65.4906 H   0  0  0  0  0  0  0  0  0  0  0  0
  -43.6304   57.0638   63.4501 H   0  0  0  0  0  0  0  0  0  0  0  0
  -45.2993   57.3574   62.8711 H   0  0  0  0  0  0  0  0  0  0  0  0
  -46.0782   55.4109   64.0181 H   0  0  0  0  0  0  0  0  0  0  0  0
  -44.4287   55.1181   64.6261 H   0  0  0  0  0  0  0  0  0  0  0  0
  -34.2368   65.4744   66.5903 H   0  0  0  0  0  0  0  0  0  0  0  0
  -43.6489   54.6915   62.3937 H   0  0  0  0  0  0  0  0  0  0  0  0
  -45.2844   55.0041   61.7712 H   0  0  0  0  0  0  0  0  0  0  0  0
  -46.1252   53.0696   62.9308 H   0  0  0  0  0  0  0  0  0  0  0  0
  -44.4947   52.7615   63.5724 H   0  0  0  0  0  0  0  0  0  0  0  0
  -45.0230   51.2655   61.7544 H   0  0  0  0  0  0  0  0  0  0  0  0
  -43.6814   52.3990   61.3744 H   0  0  0  0  0  0  0  0  0  0  0  0
  -45.0776   51.9918   59.4580 H   0  0  0  0  0  0  0  0  0  0  0  0
  -45.1053   53.6816   60.0185 H   0  0  0  0  0  0  0  0  0  0  0  0
  -39.7589   68.6050   60.5130 H   0  0  0  0  0  0  0  0  0  0  0  0
  -47.2535   53.3437   61.0237 H   0  0  0  0  0  0  0  0  0  0  0  0
  -47.2179   51.6420   60.4687 H   0  0  0  0  0  0  0  0  0  0  0  0
  -48.6987   53.0016   59.1009 H   0  0  0  0  0  0  0  0  0  0  0  0
  -47.3411   52.3452   58.1957 H   0  0  0  0  0  0  0  0  0  0  0  0
  -47.7540   54.6570   57.5944 H   0  0  0  0  0  0  0  0  0  0  0  0
  -46.1760   54.4315   58.4294 H   0  0  0  0  0  0  0  0  0  0  0  0
  -48.6146   55.6494   59.6108 H   0  0  0  0  0  0  0  0  0  0  0  0
  -47.1776   56.4963   59.0904 H   0  0  0  0  0  0  0  0  0  0  0  0
  -47.0935   55.3708   60.4242 H   0  0  0  0  0  0  0  0  0  0  0  0
  -42.8893   59.6543   62.5818 H   0  0  0  0  0  0  0  0  0  0  0  0
  -42.4454   58.0682   62.0651 H   0  0  0  0  0  0  0  0  0  0  0  0
  -42.1751   59.7018   60.2212 H   0  0  0  0  0  0  0  0  0  0  0  0
  -40.6219   59.0390   60.6839 H   0  0  0  0  0  0  0  0  0  0  0  0
  -40.1957   60.9838   62.0729 H   0  0  0  0  0  0  0  0  0  0  0  0
  -41.7895   61.6334   61.5566 H   0  0  0  0  0  0  0  0  0  0  0  0
  -39.4551   61.2337   59.7661 H   0  0  0  0  0  0  0  0  0  0  0  0
  -39.9376   62.7534   60.4476 H   0  0  0  0  0  0  0  0  0  0  0  0
  -42.1691   62.4939   59.4379 H   0  0  0  0  0  0  0  0  0  0  0  0
  -41.6402   60.9495   58.7506 H   0  0  0  0  0  0  0  0  0  0  0  0
  -40.4907   63.6309   58.0856 H   0  0  0  0  0  0  0  0  0  0  0  0
  -41.6180   62.6732   57.0906 H   0  0  0  0  0  0  0  0  0  0  0  0
  -39.9614   60.9641   56.8042 H   0  0  0  0  0  0  0  0  0  0  0  0
  -38.8353   61.8875   57.8144 H   0  0  0  0  0  0  0  0  0  0  0  0
  -38.7759   63.6644   56.1652 H   0  0  0  0  0  0  0  0  0  0  0  0
  -39.9159   62.7854   55.1599 H   0  0  0  0  0  0  0  0  0  0  0  0
  -37.1758   61.8422   55.9330 H   0  0  0  0  0  0  0  0  0  0  0  0
  -37.6851   62.4958   54.3476 H   0  0  0  0  0  0  0  0  0  0  0  0
  -38.6494   59.9491   55.5474 H   0  0  0  0  0  0  0  0  0  0  0  0
  -37.4326   60.1148   54.2755 H   0  0  0  0  0  0  0  0  0  0  0  0
  -39.5869   59.5430   53.3584 H   0  0  0  0  0  0  0  0  0  0  0  0
  -39.0316   61.1812   52.8734 H   0  0  0  0  0  0  0  0  0  0  0  0
  -40.5958   62.1925   54.3545 H   0  0  0  0  0  0  0  0  0  0  0  0
  -41.1388   60.6412   54.9203 H   0  0  0  0  0  0  0  0  0  0  0  0
  -41.7985   60.0446   52.6519 H   0  0  0  0  0  0  0  0  0  0  0  0
  -41.2497   61.7038   52.1535 H   0  0  0  0  0  0  0  0  0  0  0  0
  -43.6433   61.4945   52.1464 H   0  0  0  0  0  0  0  0  0  0  0  0
  -43.0287   62.6864   53.2833 H   0  0  0  0  0  0  0  0  0  0  0  0
  -43.2974   61.1048   55.1083 H   0  0  0  0  0  0  0  0  0  0  0  0
  -43.9203   59.9112   53.9368 H   0  0  0  0  0  0  0  0  0  0  0  0
  -45.8486   61.2688   53.5303 H   0  0  0  0  0  0  0  0  0  0  0  0
  -45.2317   62.4807   54.6719 H   0  0  0  0  0  0  0  0  0  0  0  0
  -46.0754   59.6946   55.3732 H   0  0  0  0  0  0  0  0  0  0  0  0
  -46.9784   61.1538   55.7024 H   0  0  0  0  0  0  0  0  0  0  0  0
  -45.4388   60.8842   56.4834 H   0  0  0  0  0  0  0  0  0  0  0  0
  -38.1706   64.0792   62.9174 H   0  0  0  0  0  0  0  0  0  0  0  0
  -39.8304   65.7822   64.7521 H   0  0  0  0  0  0  0  0  0  0  0  0
  -38.2799   66.6080   62.3576 H   0  0  0  0  0  0  0  0  0  0  0  0
  -36.9429   67.8280   64.0783 H   0  0  0  0  0  0  0  0  0  0  0  0
  -36.2694   65.4476   63.6902 H   0  0  0  0  0  0  0  0  0  0  0  0
  -35.2842   67.1006   65.3670 H   0  0  0  0  0  0  0  0  0  0  0  0
  -36.3313   66.3964   66.5774 H   0  0  0  0  0  0  0  0  0  0  0  0
  1  4  1  0  0  0  0
  1 31  1  0  0  0  0
  1 56  1  0  0  0  0
  2  3  1  0  0  0  0
  2  4  1  0  0  0  0
  2 57  1  0  0  0  0
  2 58  1  0  0  0  0
  3 49  1  0  0  0  0
  4  6  1  0  0  0  0
  4 59  1  1  0  0  0
  5  6  1  0  0  0  0
  5 60  1  0  0  0  0
  6  8  1  0  0  0  0
  6 61  1  6  0  0  0
  7 31  2  0  0  0  0
  8  9  2  0  0  0  0
  8 62  1  0  0  0  0
  9 11  1  0  0  0  0
  9 63  1  0  0  0  0
 10 50  1  0  0  0  0
 10 64  1  0  0  0  0
 11 13  1  0  0  0  0
 11 65  1  0  0  0  0
 11 66  1  0  0  0  0
 12 51  1  0  0  0  0
 12 55  1  0  0  0  0
 13 15  1  0  0  0  0
 13 67  1  0  0  0  0
 13 68  1  0  0  0  0
 14 55  1  0  0  0  0
 14 69  1  0  0  0  0
 15 17  1  0  0  0  0
 15 70  1  0  0  0  0
 15 71  1  0  0  0  0
 16 52  1  0  0  0  0
 16 72  1  0  0  0  0
 17 19  1  0  0  0  0
 17 73  1  0  0  0  0
 17 74  1  0  0  0  0
 18 49  1  0  0  0  0
 18 53  1  0  0  0  0
 19 21  1  0  0  0  0
 19 75  1  0  0  0  0
 19 76  1  0  0  0  0
 20 54  1  0  0  0  0
 20 77  1  0  0  0  0
 21 22  1  0  0  0  0
 21 78  1  0  0  0  0
 21 79  1  0  0  0  0
 22 23  1  0  0  0  0
 22 80  1  0  0  0  0
 22 81  1  0  0  0  0
 23 25  1  0  0  0  0
 23 82  1  0  0  0  0
 23 83  1  0  0  0  0
 24 55  1  0  0  0  0
 25 27  1  0  0  0  0
 25 84  1  0  0  0  0
 25 85  1  0  0  0  0
 26 55  1  0  0  0  0
 26 86  1  0  0  0  0
 27 28  1  0  0  0  0
 27 87  1  0  0  0  0
 27 88  1  0  0  0  0
 28 29  1  0  0  0  0
 28 89  1  0  0  0  0
 28 90  1  0  0  0  0
 29 30  1  0  0  0  0
 29 91  1  0  0  0  0
 29 92  1  0  0  0  0
 30 93  1  0  0  0  0
 30 94  1  0  0  0  0
 30 95  1  0  0  0  0
 31 32  1  0  0  0  0
 32 33  1  0  0  0  0
 32 96  1  0  0  0  0
 32 97  1  0  0  0  0
 33 34  1  0  0  0  0
 33 98  1  0  0  0  0
 33 99  1  0  0  0  0
 34 35  1  0  0  0  0
 34100  1  0  0  0  0
 34101  1  0  0  0  0
 35 36  1  0  0  0  0
 35102  1  0  0  0  0
 35103  1  0  0  0  0
 36 37  1  0  0  0  0
 36104  1  0  0  0  0
 36105  1  0  0  0  0
 37 38  1  0  0  0  0
 37106  1  0  0  0  0
 37107  1  0  0  0  0
 38 39  1  0  0  0  0
 38108  1  0  0  0  0
 38109  1  0  0  0  0
 39 40  1  0  0  0  0
 39110  1  0  0  0  0
 39111  1  0  0  0  0
 40 41  1  0  0  0  0
 40112  1  0  0  0  0
 40113  1  0  0  0  0
 41 42  1  0  0  0  0
 41114  1  0  0  0  0
 41115  1  0  0  0  0
 42 43  1  0  0  0  0
 42116  1  0  0  0  0
 42117  1  0  0  0  0
 43 44  1  0  0  0  0
 43118  1  0  0  0  0
 43119  1  0  0  0  0
 44 45  1  0  0  0  0
 44120  1  0  0  0  0
 44121  1  0  0  0  0
 45 46  1  0  0  0  0
 45122  1  0  0  0  0
 45123  1  0  0  0  0
 46 47  1  0  0  0  0
 46124  1  0  0  0  0
 46125  1  0  0  0  0
 47 48  1  0  0  0  0
 47126  1  0  0  0  0
 47127  1  0  0  0  0
 48128  1  0  0  0  0
 48129  1  0  0  0  0
 48130  1  0  0  0  0
 49 50  1  0  0  0  0
 49131  1  6  0  0  0
 50 51  1  0  0  0  0
 50132  1  1  0  0  0
 51 52  1  0  0  0  0
 51133  1  6  0  0  0
 52 53  1  0  0  0  0
 52134  1  6  0  0  0
 53 54  1  0  0  0  0
 53135  1  6  0  0  0
 54136  1  0  0  0  0
 54137  1  0  0  0  0
M  CHG  1  24  -1
M  END
$$$$