/media/chris/experiments/cd1a-new-docking/inputs/ligands/1onq_ligand.pdb
 OpenBabel06222310383D

137137  0  0  1  0  0  0  0  0999 V2000
  -40.4920   60.2280   63.6270 N   0  0  0  0  0  0  0  0  0  0  0  0
  -38.5950   61.7730   64.2860 C   0  0  0  0  0  0  0  0  0  0  0  0
  -37.5441   62.0867   65.2349 O   0  0  0  0  0  0  0  0  0  0  0  0
  -39.4590   60.5300   64.5980 C   0  0  1  0  0  0  0  0  0  0  0  0
  -39.2569   60.8461   66.8904 O   0  0  0  0  0  0  0  0  0  0  0  0
  -40.2280   60.5370   65.9080 C   0  0  2  0  0  0  0  0  0  0  0  0
  -40.2107   61.8855   62.1035 O   0  0  0  0  0  0  0  0  0  0  0  0
  -40.8583   59.1606   66.1332 C   0  0  0  0  0  0  0  0  0  0  0  0
  -42.0897   58.8399   65.7007 C   0  0  0  0  0  0  0  0  0  0  0  0
  -36.4945   60.1938   63.3661 O   0  0  0  0  0  0  0  0  0  0  0  0
  -42.6490   57.4435   65.9661 C   0  0  0  0  0  0  0  0  0  0  0  0
  -33.7032   59.2181   63.5295 O   0  0  0  0  0  0  0  0  0  0  0  0
  -44.1767   57.4042   66.1175 C   0  0  0  0  0  0  0  0  0  0  0  0
  -35.0608   57.3179   62.4054 O   0  0  0  0  0  0  0  0  0  0  0  0
  -44.7562   58.2662   67.2543 C   0  0  0  0  0  0  0  0  0  0  0  0
  -32.8610   61.2829   65.1011 O   0  0  0  0  0  0  0  0  0  0  0  0
  -46.2966   58.1299   67.3164 C   0  0  0  0  0  0  0  0  0  0  0  0
  -35.5214   61.6397   66.4977 O   0  0  0  0  0  0  0  0  0  0  0  0
  -46.9915   58.9708   68.4171 C   0  0  0  0  0  0  0  0  0  0  0  0
  -32.7574   62.3815   67.1297 O   0  0  0  0  0  0  0  0  0  0  0  0
  -48.5284   58.8022   68.4674 C   0  0  0  0  0  0  0  0  0  0  0  0
  -48.9817   57.3543   68.7539 C   0  0  0  0  0  0  0  0  0  0  0  0
  -48.4930   56.8091   70.1012 C   0  0  0  0  0  0  0  0  0  0  0  0
  -33.1081   58.2202   61.2820 O   0  5  0  0  0  0  0  0  0  0  0  0
  -48.9603   57.5676   71.3417 C   0  0  0  0  0  0  0  0  0  0  0  0
  -35.1721   59.4890   61.3470 O   0  0  0  0  0  0  0  0  0  0  0  0
  -50.4914   57.5970   71.5176 C   0  0  0  0  0  0  0  0  0  0  0  0
  -51.1596   56.2220   71.6688 C   0  0  0  0  0  0  0  0  0  0  0  0
  -52.6771   56.3617   71.8194 C   0  0  0  0  0  0  0  0  0  0  0  0
  -53.4598   55.0724   71.9944 C   0  0  0  0  0  0  0  0  0  0  0  0
  -40.7863   60.8910   62.5003 C   0  0  0  0  0  0  0  0  0  0  0  0
  -41.9161   60.3159   61.6986 C   0  0  0  0  0  0  0  0  0  0  0  0
  -41.3379   59.9587   60.3293 C   0  0  0  0  0  0  0  0  0  0  0  0
  -40.7643   61.2072   59.6634 C   0  0  0  0  0  0  0  0  0  0  0  0
  -40.1695   61.0126   58.2898 C   0  0  0  0  0  0  0  0  0  0  0  0
  -39.0415   59.9940   58.4162 C   0  0  0  0  0  0  0  0  0  0  0  0
  -37.9427   60.4436   59.3885 C   0  0  0  0  0  0  0  0  0  0  0  0
  -36.7770   59.4477   59.5295 C   0  0  0  0  0  0  0  0  0  0  0  0
  -37.2313   58.0584   60.0286 C   0  0  0  0  0  0  0  0  0  0  0  0
  -38.2251   57.4305   59.0472 C   0  0  0  0  0  0  0  0  0  0  0  0
  -38.7529   56.0596   59.4524 C   0  0  0  0  0  0  0  0  0  0  0  0
  -39.4999   56.0971   60.7775 C   0  0  0  0  0  0  0  0  0  0  0  0
  -40.0528   54.7593   61.2743 C   0  0  0  0  0  0  0  0  0  0  0  0
  -38.8831   53.8042   61.4699 C   0  0  0  0  0  0  0  0  0  0  0  0
  -37.7973   54.1759   62.4690 C   0  0  0  0  0  0  0  0  0  0  0  0
  -36.6992   53.1015   62.5126 C   0  0  0  0  0  0  0  0  0  0  0  0
  -37.1949   51.6973   62.9042 C   0  0  0  0  0  0  0  0  0  0  0  0
  -37.8555   51.6519   64.2801 C   0  0  0  0  0  0  0  0  0  0  0  0
  -36.4503   61.1334   65.5086 C   0  0  2  0  0  0  0  0  0  0  0  0
  -35.6003   60.7152   64.3002 C   0  0  1  0  0  0  0  0  0  0  0  0
  -34.5510   59.6298   64.6257 C   0  0  2  0  0  0  0  0  0  0  0  0
  -33.6366   60.2256   65.6603 C   0  0  2  0  0  0  0  0  0  0  0  0
  -34.4510   60.7194   66.8423 C   0  0  1  0  0  0  0  0  0  0  0  0
  -33.3571   61.2824   67.7470 C   0  0  0  0  0  0  0  0  0  0  0  0
  -34.2917   58.5643   62.1159 S   0  0  0  0  0  0  0  0  0  0  0  0
  -41.0464   59.4375   63.8192 H   0  0  0  0  0  0  0  0  0  0  0  0
  -38.1357   61.6183   63.3320 H   0  0  0  0  0  0  0  0  0  0  0  0
  -39.2690   62.6030   64.3261 H   0  0  0  0  0  0  0  0  0  0  0  0
  -38.6677   59.8099   64.6092 H   0  0  0  0  0  0  0  0  0  0  0  0
  -38.8837   61.7234   66.7113 H   0  0  0  0  0  0  0  0  0  0  0  0
  -41.0317   61.2430   65.9299 H   0  0  0  0  0  0  0  0  0  0  0  0
  -40.3128   58.4462   66.6402 H   0  0  0  0  0  0  0  0  0  0  0  0
  -42.6561   59.5355   65.1904 H   0  0  0  0  0  0  0  0  0  0  0  0
  -37.1623   60.8630   63.1492 H   0  0  0  0  0  0  0  0  0  0  0  0
  -42.2112   57.0710   66.8686 H   0  0  0  0  0  0  0  0  0  0  0  0
  -42.4056   56.8440   65.1139 H   0  0  0  0  0  0  0  0  0  0  0  0
  -44.4636   56.3888   66.2955 H   0  0  0  0  0  0  0  0  0  0  0  0
  -44.5708   57.8131   65.2107 H   0  0  0  0  0  0  0  0  0  0  0  0
  -34.5028   56.7027   62.9064 H   0  0  0  0  0  0  0  0  0  0  0  0
  -44.5013   59.2911   67.0823 H   0  0  0  0  0  0  0  0  0  0  0  0
  -44.3444   57.9310   68.1832 H   0  0  0  0  0  0  0  0  0  0  0  0
  -32.3496   60.9459   64.3489 H   0  0  0  0  0  0  0  0  0  0  0  0
  -46.5308   57.1003   67.4896 H   0  0  0  0  0  0  0  0  0  0  0  0
  -46.6647   58.5018   66.3830 H   0  0  0  0  0  0  0  0  0  0  0  0
  -46.7727   60.0030   68.2393 H   0  0  0  0  0  0  0  0  0  0  0  0
  -46.6129   58.6227   69.3553 H   0  0  0  0  0  0  0  0  0  0  0  0
  -32.0631   62.7372   67.7062 H   0  0  0  0  0  0  0  0  0  0  0  0
  -48.9329   59.1030   67.5236 H   0  0  0  0  0  0  0  0  0  0  0  0
  -48.8845   59.4083   69.2741 H   0  0  0  0  0  0  0  0  0  0  0  0
  -48.6044   56.7225   67.9772 H   0  0  0  0  0  0  0  0  0  0  0  0
  -50.0511   57.3635   68.7903 H   0  0  0  0  0  0  0  0  0  0  0  0
  -47.4232   56.8251   70.0918 H   0  0  0  0  0  0  0  0  0  0  0  0
  -48.9166   55.8302   70.1861 H   0  0  0  0  0  0  0  0  0  0  0  0
  -48.6100   58.5762   71.2714 H   0  0  0  0  0  0  0  0  0  0  0  0
  -48.5607   57.0513   72.1895 H   0  0  0  0  0  0  0  0  0  0  0  0
  -35.9469   59.7186   61.8836 H   0  0  0  0  0  0  0  0  0  0  0  0
  -50.9137   58.0776   70.6600 H   0  0  0  0  0  0  0  0  0  0  0  0
  -50.6747   58.1183   72.4338 H   0  0  0  0  0  0  0  0  0  0  0  0
  -50.7654   55.7351   72.5363 H   0  0  0  0  0  0  0  0  0  0  0  0
  -50.9563   55.6462   70.7902 H   0  0  0  0  0  0  0  0  0  0  0  0
  -53.0476   56.8510   70.9429 H   0  0  0  0  0  0  0  0  0  0  0  0
  -52.8235   56.9086   72.7274 H   0  0  0  0  0  0  0  0  0  0  0  0
  -53.3573   54.4708   71.1155 H   0  0  0  0  0  0  0  0  0  0  0  0
  -54.4932   55.3011   72.1516 H   0  0  0  0  0  0  0  0  0  0  0  0
  -53.0805   54.5368   72.8395 H   0  0  0  0  0  0  0  0  0  0  0  0
  -42.6990   61.0375   61.5926 H   0  0  0  0  0  0  0  0  0  0  0  0
  -42.3333   59.4557   62.1792 H   0  0  0  0  0  0  0  0  0  0  0  0
  -42.1122   59.5521   59.7127 H   0  0  0  0  0  0  0  0  0  0  0  0
  -40.5577   59.2372   60.4545 H   0  0  0  0  0  0  0  0  0  0  0  0
  -39.9966   61.5941   60.3005 H   0  0  0  0  0  0  0  0  0  0  0  0
  -41.5950   61.8675   59.5263 H   0  0  0  0  0  0  0  0  0  0  0  0
  -39.7834   61.9413   57.9245 H   0  0  0  0  0  0  0  0  0  0  0  0
  -40.9137   60.6662   57.6035 H   0  0  0  0  0  0  0  0  0  0  0  0
  -38.6045   59.8459   57.4508 H   0  0  0  0  0  0  0  0  0  0  0  0
  -39.4644   59.0902   58.8024 H   0  0  0  0  0  0  0  0  0  0  0  0
  -38.3845   60.5815   60.3532 H   0  0  0  0  0  0  0  0  0  0  0  0
  -37.5291   61.3457   58.9885 H   0  0  0  0  0  0  0  0  0  0  0  0
  -36.0696   59.8463   60.2262 H   0  0  0  0  0  0  0  0  0  0  0  0
  -36.3479   59.3157   58.5582 H   0  0  0  0  0  0  0  0  0  0  0  0
  -37.7005   58.1644   60.9843 H   0  0  0  0  0  0  0  0  0  0  0  0
  -36.3742   57.4225   60.1050 H   0  0  0  0  0  0  0  0  0  0  0  0
  -37.7382   57.3316   58.0996 H   0  0  0  0  0  0  0  0  0  0  0  0
  -39.0736   58.0820   59.0235 H   0  0  0  0  0  0  0  0  0  0  0  0
  -37.9267   55.3855   59.5421 H   0  0  0  0  0  0  0  0  0  0  0  0
  -39.4400   55.7372   58.6982 H   0  0  0  0  0  0  0  0  0  0  0  0
  -40.3232   56.7720   60.6701 H   0  0  0  0  0  0  0  0  0  0  0  0
  -38.7779   56.3995   61.5070 H   0  0  0  0  0  0  0  0  0  0  0  0
  -40.7318   54.3572   60.5517 H   0  0  0  0  0  0  0  0  0  0  0  0
  -40.5769   54.8958   62.1971 H   0  0  0  0  0  0  0  0  0  0  0  0
  -38.4088   53.6875   60.5179 H   0  0  0  0  0  0  0  0  0  0  0  0
  -39.3306   52.9261   61.8864 H   0  0  0  0  0  0  0  0  0  0  0  0
  -38.2337   54.2702   63.4414 H   0  0  0  0  0  0  0  0  0  0  0  0
  -37.3565   55.1023   62.1650 H   0  0  0  0  0  0  0  0  0  0  0  0
  -35.9616   53.4064   63.2254 H   0  0  0  0  0  0  0  0  0  0  0  0
  -36.3122   53.0213   61.5183 H   0  0  0  0  0  0  0  0  0  0  0  0
  -36.3582   51.0303   62.9070 H   0  0  0  0  0  0  0  0  0  0  0  0
  -37.9360   51.4115   62.1873 H   0  0  0  0  0  0  0  0  0  0  0  0
  -37.1429   51.9327   65.0273 H   0  0  0  0  0  0  0  0  0  0  0  0
  -38.2048   50.6596   64.4755 H   0  0  0  0  0  0  0  0  0  0  0  0
  -38.6816   52.3316   64.3017 H   0  0  0  0  0  0  0  0  0  0  0  0
  -36.9895   60.2753   65.8521 H   0  0  0  0  0  0  0  0  0  0  0  0
  -35.0542   61.5674   63.9530 H   0  0  0  0  0  0  0  0  0  0  0  0
  -35.1001   58.7616   64.9253 H   0  0  0  0  0  0  0  0  0  0  0  0
  -32.9599   59.4697   66.0001 H   0  0  0  0  0  0  0  0  0  0  0  0
  -35.0320   59.9577   67.3189 H   0  0  0  0  0  0  0  0  0  0  0  0
  -33.7873   61.5879   68.6779 H   0  0  0  0  0  0  0  0  0  0  0  0
  -32.6191   60.5280   67.9235 H   0  0  0  0  0  0  0  0  0  0  0  0
  1  4  1  0  0  0  0
  1 31  1  0  0  0  0
  1 56  1  0  0  0  0
  2  3  1  0  0  0  0
  2  4  1  0  0  0  0
  2 57  1  0  0  0  0
  2 58  1  0  0  0  0
  3 49  1  0  0  0  0
  4  6  1  0  0  0  0
  4 59  1  1  0  0  0
  5  6  1  0  0  0  0
  5 60  1  0  0  0  0
  6  8  1  0  0  0  0
  6 61  1  6  0  0  0
  7 31  2  0  0  0  0
  8  9  2  0  0  0  0
  8 62  1  0  0  0  0
  9 11  1  0  0  0  0
  9 63  1  0  0  0  0
 10 50  1  0  0  0  0
 10 64  1  0  0  0  0
 11 13  1  0  0  0  0
 11 65  1  0  0  0  0
 11 66  1  0  0  0  0
 12 51  1  0  0  0  0
 12 55  1  0  0  0  0
 13 15  1  0  0  0  0
 13 67  1  0  0  0  0
 13 68  1  0  0  0  0
 14 55  1  0  0  0  0
 14 69  1  0  0  0  0
 15 17  1  0  0  0  0
 15 70  1  0  0  0  0
 15 71  1  0  0  0  0
 16 52  1  0  0  0  0
 16 72  1  0  0  0  0
 17 19  1  0  0  0  0
 17 73  1  0  0  0  0
 17 74  1  0  0  0  0
 18 49  1  0  0  0  0
 18 53  1  0  0  0  0
 19 21  1  0  0  0  0
 19 75  1  0  0  0  0
 19 76  1  0  0  0  0
 20 54  1  0  0  0  0
 20 77  1  0  0  0  0
 21 22  1  0  0  0  0
 21 78  1  0  0  0  0
 21 79  1  0  0  0  0
 22 23  1  0  0  0  0
 22 80  1  0  0  0  0
 22 81  1  0  0  0  0
 23 25  1  0  0  0  0
 23 82  1  0  0  0  0
 23 83  1  0  0  0  0
 24 55  1  0  0  0  0
 25 27  1  0  0  0  0
 25 84  1  0  0  0  0
 25 85  1  0  0  0  0
 26 55  1  0  0  0  0
 26 86  1  0  0  0  0
 27 28  1  0  0  0  0
 27 87  1  0  0  0  0
 27 88  1  0  0  0  0
 28 29  1  0  0  0  0
 28 89  1  0  0  0  0
 28 90  1  0  0  0  0
 29 30  1  0  0  0  0
 29 91  1  0  0  0  0
 29 92  1  0  0  0  0
 30 93  1  0  0  0  0
 30 94  1  0  0  0  0
 30 95  1  0  0  0  0
 31 32  1  0  0  0  0
 32 33  1  0  0  0  0
 32 96  1  0  0  0  0
 32 97  1  0  0  0  0
 33 34  1  0  0  0  0
 33 98  1  0  0  0  0
 33 99  1  0  0  0  0
 34 35  1  0  0  0  0
 34100  1  0  0  0  0
 34101  1  0  0  0  0
 35 36  1  0  0  0  0
 35102  1  0  0  0  0
 35103  1  0  0  0  0
 36 37  1  0  0  0  0
 36104  1  0  0  0  0
 36105  1  0  0  0  0
 37 38  1  0  0  0  0
 37106  1  0  0  0  0
 37107  1  0  0  0  0
 38 39  1  0  0  0  0
 38108  1  0  0  0  0
 38109  1  0  0  0  0
 39 40  1  0  0  0  0
 39110  1  0  0  0  0
 39111  1  0  0  0  0
 40 41  1  0  0  0  0
 40112  1  0  0  0  0
 40113  1  0  0  0  0
 41 42  1  0  0  0  0
 41114  1  0  0  0  0
 41115  1  0  0  0  0
 42 43  1  0  0  0  0
 42116  1  0  0  0  0
 42117  1  0  0  0  0
 43 44  1  0  0  0  0
 43118  1  0  0  0  0
 43119  1  0  0  0  0
 44 45  1  0  0  0  0
 44120  1  0  0  0  0
 44121  1  0  0  0  0
 45 46  1  0  0  0  0
 45122  1  0  0  0  0
 45123  1  0  0  0  0
 46 47  1  0  0  0  0
 46124  1  0  0  0  0
 46125  1  0  0  0  0
 47 48  1  0  0  0  0
 47126  1  0  0  0  0
 47127  1  0  0  0  0
 48128  1  0  0  0  0
 48129  1  0  0  0  0
 48130  1  0  0  0  0
 49 50  1  0  0  0  0
 49131  1  1  0  0  0
 50 51  1  0  0  0  0
 50132  1  6  0  0  0
 51 52  1  0  0  0  0
 51133  1  1  0  0  0
 52 53  1  0  0  0  0
 52134  1  1  0  0  0
 53 54  1  0  0  0  0
 53135  1  1  0  0  0
 54136  1  0  0  0  0
 54137  1  0  0  0  0
M  CHG  1  24  -1
M  END
$$$$