/media/chris/experiments/cd1a-new-docking/inputs/ligands/1onq_ligand.pdb
 OpenBabel06222310383D

137137  0  0  1  0  0  0  0  0999 V2000
  -40.4920   60.2280   63.6270 N   0  0  0  0  0  0  0  0  0  0  0  0
  -38.5950   61.7730   64.2860 C   0  0  0  0  0  0  0  0  0  0  0  0
  -39.2927   63.0412   64.1953 O   0  0  0  0  0  0  0  0  0  0  0  0
  -39.4590   60.5300   64.5980 C   0  0  1  0  0  0  0  0  0  0  0  0
  -40.7577   59.2290   66.0180 O   0  0  0  0  0  0  0  0  0  0  0  0
  -40.2280   60.5370   65.9080 C   0  0  2  0  0  0  0  0  0  0  0  0
  -39.2820   59.8772   61.7401 O   0  0  0  0  0  0  0  0  0  0  0  0
  -41.3266   61.6007   65.8452 C   0  0  0  0  0  0  0  0  0  0  0  0
  -42.1639   61.8493   66.8667 C   0  0  0  0  0  0  0  0  0  0  0  0
  -36.9245   63.2334   62.6041 O   0  0  0  0  0  0  0  0  0  0  0  0
  -43.2362   62.9280   66.7255 C   0  0  0  0  0  0  0  0  0  0  0  0
  -36.2474   65.6923   61.0988 O   0  0  0  0  0  0  0  0  0  0  0  0
  -44.2378   62.6643   65.5918 C   0  0  0  0  0  0  0  0  0  0  0  0
  -33.9903   64.5362   61.6333 O   0  0  0  0  0  0  0  0  0  0  0  0
  -45.0585   61.3673   65.7158 C   0  0  0  0  0  0  0  0  0  0  0  0
  -38.7865   66.6864   61.1867 O   0  0  0  0  0  0  0  0  0  0  0  0
  -45.9100   61.3775   67.0081 C   0  0  0  0  0  0  0  0  0  0  0  0
  -39.4547   65.4386   63.8611 O   0  0  0  0  0  0  0  0  0  0  0  0
  -46.7673   60.1086   67.2459 C   0  0  0  0  0  0  0  0  0  0  0  0
  -40.5437   67.6756   62.3121 O   0  0  0  0  0  0  0  0  0  0  0  0
  -47.6208   60.1532   68.5352 C   0  0  0  0  0  0  0  0  0  0  0  0
  -48.4559   58.8754   68.7674 C   0  0  0  0  0  0  0  0  0  0  0  0
  -49.3168   58.9220   70.0355 C   0  0  0  0  0  0  0  0  0  0  0  0
  -34.5490   65.0650   59.3317 O   0  5  0  0  0  0  0  0  0  0  0  0
  -50.3634   60.0325   70.0960 C   0  0  0  0  0  0  0  0  0  0  0  0
  -35.6260   63.2046   60.4511 O   0  0  0  0  0  0  0  0  0  0  0  0
  -51.4136   59.9649   68.9697 C   0  0  0  0  0  0  0  0  0  0  0  0
  -52.4712   61.0789   68.9927 C   0  0  0  0  0  0  0  0  0  0  0  0
  -51.8207   62.4577   68.8485 C   0  0  0  0  0  0  0  0  0  0  0  0
  -51.0383   62.7048   67.5708 C   0  0  0  0  0  0  0  0  0  0  0  0
  -40.3447   59.9361   62.3275 C   0  0  0  0  0  0  0  0  0  0  0  0
  -41.6199   59.6610   61.5872 C   0  0  0  0  0  0  0  0  0  0  0  0
  -42.4612   60.9337   61.6856 C   0  0  0  0  0  0  0  0  0  0  0  0
  -43.7942   60.7344   60.9683 C   0  0  0  0  0  0  0  0  0  0  0  0
  -44.7302   61.9186   60.9667 C   0  0  0  0  0  0  0  0  0  0  0  0
  -44.0200   63.0665   60.2569 C   0  0  0  0  0  0  0  0  0  0  0  0
  -44.8668   64.3451   60.2034 C   0  0  0  0  0  0  0  0  0  0  0  0
  -45.2412   64.9136   61.5844 C   0  0  0  0  0  0  0  0  0  0  0  0
  -44.0074   65.3000   62.4293 C   0  0  0  0  0  0  0  0  0  0  0  0
  -44.4367   65.8418   63.7957 C   0  0  0  0  0  0  0  0  0  0  0  0
  -45.3316   67.0744   63.7486 C   0  0  0  0  0  0  0  0  0  0  0  0
  -45.7060   67.5693   65.1378 C   0  0  0  0  0  0  0  0  0  0  0  0
  -46.4531   66.5723   66.0266 C   0  0  0  0  0  0  0  0  0  0  0  0
  -46.7524   67.2517   67.3561 C   0  0  0  0  0  0  0  0  0  0  0  0
  -47.4813   66.4601   68.4319 C   0  0  0  0  0  0  0  0  0  0  0  0
  -46.6734   65.2192   68.8438 C   0  0  0  0  0  0  0  0  0  0  0  0
  -47.3466   64.3472   69.9196 C   0  0  0  0  0  0  0  0  0  0  0  0
  -46.5133   63.1321   70.3205 C   0  0  0  0  0  0  0  0  0  0  0  0
  -38.5707   64.2916   63.8868 C   0  0  2  0  0  0  0  0  0  0  0  0
  -37.8007   64.3171   62.5587 C   0  0  1  0  0  0  0  0  0  0  0  0
  -36.9714   65.6028   62.3469 C   0  0  2  0  0  0  0  0  0  0  0  0
  -37.9542   66.7410   62.3427 C   0  0  2  0  0  0  0  0  0  0  0  0
  -38.7875   66.7050   63.6110 C   0  0  1  0  0  0  0  0  0  0  0  0
  -39.7042   67.9085   63.4028 C   0  0  0  0  0  0  0  0  0  0  0  0
  -35.0951   64.5857   60.6304 S   0  0  0  0  0  0  0  0  0  0  0  0
  -41.4169   60.2387   63.9642 H   0  0  0  0  0  0  0  0  0  0  0  0
  -37.8608   61.8607   65.0594 H   0  0  0  0  0  0  0  0  0  0  0  0
  -38.1940   61.6005   63.3091 H   0  0  0  0  0  0  0  0  0  0  0  0
  -38.6677   59.8099   64.6092 H   0  0  0  0  0  0  0  0  0  0  0  0
  -40.0308   58.5878   66.0547 H   0  0  0  0  0  0  0  0  0  0  0  0
  -39.6247   60.7776   66.7583 H   0  0  0  0  0  0  0  0  0  0  0  0
  -41.4292   62.1522   64.9789 H   0  0  0  0  0  0  0  0  0  0  0  0
  -42.0825   61.3127   67.7444 H   0  0  0  0  0  0  0  0  0  0  0  0
  -37.4286   62.4154   62.7369 H   0  0  0  0  0  0  0  0  0  0  0  0
  -42.7511   63.8627   66.5360 H   0  0  0  0  0  0  0  0  0  0  0  0
  -43.7943   62.9329   67.6385 H   0  0  0  0  0  0  0  0  0  0  0  0
  -43.6910   62.6210   64.6731 H   0  0  0  0  0  0  0  0  0  0  0  0
  -44.9471   63.4642   65.6365 H   0  0  0  0  0  0  0  0  0  0  0  0
  -33.6315   65.4279   61.7634 H   0  0  0  0  0  0  0  0  0  0  0  0
  -44.3914   60.5311   65.7418 H   0  0  0  0  0  0  0  0  0  0  0  0
  -45.7143   61.2943   64.8734 H   0  0  0  0  0  0  0  0  0  0  0  0
  -38.2346   66.7105   60.3894 H   0  0  0  0  0  0  0  0  0  0  0  0
  -46.5699   62.2186   66.9627 H   0  0  0  0  0  0  0  0  0  0  0  0
  -45.2149   61.4217   67.8204 H   0  0  0  0  0  0  0  0  0  0  0  0
  -46.1103   59.2663   67.3072 H   0  0  0  0  0  0  0  0  0  0  0  0
  -47.4515   60.0414   66.4260 H   0  0  0  0  0  0  0  0  0  0  0  0
  -41.1248   68.4413   62.1820 H   0  0  0  0  0  0  0  0  0  0  0  0
  -48.2885   60.9867   68.4703 H   0  0  0  0  0  0  0  0  0  0  0  0
  -46.9423   60.2387   69.3581 H   0  0  0  0  0  0  0  0  0  0  0  0
  -47.7867   58.0440   68.8441 H   0  0  0  0  0  0  0  0  0  0  0  0
  -49.1263   58.7857   67.9382 H   0  0  0  0  0  0  0  0  0  0  0  0
  -48.6607   59.0450   70.8717 H   0  0  0  0  0  0  0  0  0  0  0  0
  -49.8691   58.0056   70.0420 H   0  0  0  0  0  0  0  0  0  0  0  0
  -49.8594   60.9741   70.0302 H   0  0  0  0  0  0  0  0  0  0  0  0
  -50.8907   59.9117   71.0192 H   0  0  0  0  0  0  0  0  0  0  0  0
  -35.9843   62.8840   61.2936 H   0  0  0  0  0  0  0  0  0  0  0  0
  -51.9205   59.0257   69.0459 H   0  0  0  0  0  0  0  0  0  0  0  0
  -50.8743   60.0868   68.0536 H   0  0  0  0  0  0  0  0  0  0  0  0
  -53.0020   61.0380   69.9209 H   0  0  0  0  0  0  0  0  0  0  0  0
  -53.1401   60.9303   68.1709 H   0  0  0  0  0  0  0  0  0  0  0  0
  -51.1497   62.5888   69.6716 H   0  0  0  0  0  0  0  0  0  0  0  0
  -52.6329   63.1539   68.8235 H   0  0  0  0  0  0  0  0  0  0  0  0
  -50.2035   62.0368   67.5290 H   0  0  0  0  0  0  0  0  0  0  0  0
  -50.6874   63.7155   67.5573 H   0  0  0  0  0  0  0  0  0  0  0  0
  -51.6727   62.5362   66.7258 H   0  0  0  0  0  0  0  0  0  0  0  0
  -42.1382   58.8395   62.0360 H   0  0  0  0  0  0  0  0  0  0  0  0
  -41.4273   59.4020   60.5671 H   0  0  0  0  0  0  0  0  0  0  0  0
  -41.9317   61.7446   61.2307 H   0  0  0  0  0  0  0  0  0  0  0  0
  -42.6461   61.1540   62.7162 H   0  0  0  0  0  0  0  0  0  0  0  0
  -44.3004   59.9180   61.4397 H   0  0  0  0  0  0  0  0  0  0  0  0
  -43.5457   60.5627   59.9418 H   0  0  0  0  0  0  0  0  0  0  0  0
  -44.9641   62.2002   61.9722 H   0  0  0  0  0  0  0  0  0  0  0  0
  -45.6439   61.6749   60.4661 H   0  0  0  0  0  0  0  0  0  0  0  0
  -43.7951   62.7628   59.2558 H   0  0  0  0  0  0  0  0  0  0  0  0
  -43.1328   63.2897   60.8118 H   0  0  0  0  0  0  0  0  0  0  0  0
  -45.7708   64.1268   59.6742 H   0  0  0  0  0  0  0  0  0  0  0  0
  -44.2702   65.0883   59.7169 H   0  0  0  0  0  0  0  0  0  0  0  0
  -45.8022   64.1746   62.1173 H   0  0  0  0  0  0  0  0  0  0  0  0
  -45.8109   65.8046   61.4214 H   0  0  0  0  0  0  0  0  0  0  0  0
  -43.4491   66.0524   61.9125 H   0  0  0  0  0  0  0  0  0  0  0  0
  -43.4050   64.4283   62.5781 H   0  0  0  0  0  0  0  0  0  0  0  0
  -43.5538   66.0937   64.3451 H   0  0  0  0  0  0  0  0  0  0  0  0
  -45.0171   65.0688   64.2545 H   0  0  0  0  0  0  0  0  0  0  0  0
  -46.2275   66.8291   63.2176 H   0  0  0  0  0  0  0  0  0  0  0  0
  -44.7881   67.8549   63.2584 H   0  0  0  0  0  0  0  0  0  0  0  0
  -46.3268   68.4330   65.0212 H   0  0  0  0  0  0  0  0  0  0  0  0
  -44.7784   67.7606   65.6355 H   0  0  0  0  0  0  0  0  0  0  0  0
  -45.8453   65.7072   66.1907 H   0  0  0  0  0  0  0  0  0  0  0  0
  -47.3633   66.2663   65.5547 H   0  0  0  0  0  0  0  0  0  0  0  0
  -47.3477   68.1148   67.1421 H   0  0  0  0  0  0  0  0  0  0  0  0
  -45.7864   67.4359   67.7778 H   0  0  0  0  0  0  0  0  0  0  0  0
  -48.4325   66.1487   68.0534 H   0  0  0  0  0  0  0  0  0  0  0  0
  -47.6067   67.0862   69.2904 H   0  0  0  0  0  0  0  0  0  0  0  0
  -45.7278   65.5467   69.2226 H   0  0  0  0  0  0  0  0  0  0  0  0
  -46.5853   64.6094   67.9691 H   0  0  0  0  0  0  0  0  0  0  0  0
  -48.2863   64.0042   69.5398 H   0  0  0  0  0  0  0  0  0  0  0  0
  -47.4622   64.9543   70.7931 H   0  0  0  0  0  0  0  0  0  0  0  0
  -46.3753   62.4979   69.4699 H   0  0  0  0  0  0  0  0  0  0  0  0
  -47.0208   62.5900   71.0909 H   0  0  0  0  0  0  0  0  0  0  0  0
  -45.5599   63.4568   70.6817 H   0  0  0  0  0  0  0  0  0  0  0  0
  -37.8613   64.3371   64.6865 H   0  0  0  0  0  0  0  0  0  0  0  0
  -38.5037   64.2763   61.7531 H   0  0  0  0  0  0  0  0  0  0  0  0
  -36.2362   65.6172   63.1242 H   0  0  0  0  0  0  0  0  0  0  0  0
  -37.4139   67.6641   62.3117 H   0  0  0  0  0  0  0  0  0  0  0  0
  -38.2128   66.7722   64.5111 H   0  0  0  0  0  0  0  0  0  0  0  0
  -40.2958   68.0614   64.2812 H   0  0  0  0  0  0  0  0  0  0  0  0
  -39.1105   68.7786   63.2144 H   0  0  0  0  0  0  0  0  0  0  0  0
  1  4  1  0  0  0  0
  1 31  1  0  0  0  0
  1 56  1  0  0  0  0
  2  3  1  0  0  0  0
  2  4  1  0  0  0  0
  2 57  1  0  0  0  0
  2 58  1  0  0  0  0
  3 49  1  0  0  0  0
  4  6  1  0  0  0  0
  4 59  1  1  0  0  0
  5  6  1  0  0  0  0
  5 60  1  0  0  0  0
  6  8  1  0  0  0  0
  6 61  1  1  0  0  0
  7 31  2  0  0  0  0
  8  9  2  0  0  0  0
  8 62  1  0  0  0  0
  9 11  1  0  0  0  0
  9 63  1  0  0  0  0
 10 50  1  0  0  0  0
 10 64  1  0  0  0  0
 11 13  1  0  0  0  0
 11 65  1  0  0  0  0
 11 66  1  0  0  0  0
 12 51  1  0  0  0  0
 12 55  1  0  0  0  0
 13 15  1  0  0  0  0
 13 67  1  0  0  0  0
 13 68  1  0  0  0  0
 14 55  1  0  0  0  0
 14 69  1  0  0  0  0
 15 17  1  0  0  0  0
 15 70  1  0  0  0  0
 15 71  1  0  0  0  0
 16 52  1  0  0  0  0
 16 72  1  0  0  0  0
 17 19  1  0  0  0  0
 17 73  1  0  0  0  0
 17 74  1  0  0  0  0
 18 49  1  0  0  0  0
 18 53  1  0  0  0  0
 19 21  1  0  0  0  0
 19 75  1  0  0  0  0
 19 76  1  0  0  0  0
 20 54  1  0  0  0  0
 20 77  1  0  0  0  0
 21 22  1  0  0  0  0
 21 78  1  0  0  0  0
 21 79  1  0  0  0  0
 22 23  1  0  0  0  0
 22 80  1  0  0  0  0
 22 81  1  0  0  0  0
 23 25  1  0  0  0  0
 23 82  1  0  0  0  0
 23 83  1  0  0  0  0
 24 55  1  0  0  0  0
 25 27  1  0  0  0  0
 25 84  1  0  0  0  0
 25 85  1  0  0  0  0
 26 55  1  0  0  0  0
 26 86  1  0  0  0  0
 27 28  1  0  0  0  0
 27 87  1  0  0  0  0
 27 88  1  0  0  0  0
 28 29  1  0  0  0  0
 28 89  1  0  0  0  0
 28 90  1  0  0  0  0
 29 30  1  0  0  0  0
 29 91  1  0  0  0  0
 29 92  1  0  0  0  0
 30 93  1  0  0  0  0
 30 94  1  0  0  0  0
 30 95  1  0  0  0  0
 31 32  1  0  0  0  0
 32 33  1  0  0  0  0
 32 96  1  0  0  0  0
 32 97  1  0  0  0  0
 33 34  1  0  0  0  0
 33 98  1  0  0  0  0
 33 99  1  0  0  0  0
 34 35  1  0  0  0  0
 34100  1  0  0  0  0
 34101  1  0  0  0  0
 35 36  1  0  0  0  0
 35102  1  0  0  0  0
 35103  1  0  0  0  0
 36 37  1  0  0  0  0
 36104  1  0  0  0  0
 36105  1  0  0  0  0
 37 38  1  0  0  0  0
 37106  1  0  0  0  0
 37107  1  0  0  0  0
 38 39  1  0  0  0  0
 38108  1  0  0  0  0
 38109  1  0  0  0  0
 39 40  1  0  0  0  0
 39110  1  0  0  0  0
 39111  1  0  0  0  0
 40 41  1  0  0  0  0
 40112  1  0  0  0  0
 40113  1  0  0  0  0
 41 42  1  0  0  0  0
 41114  1  0  0  0  0
 41115  1  0  0  0  0
 42 43  1  0  0  0  0
 42116  1  0  0  0  0
 42117  1  0  0  0  0
 43 44  1  0  0  0  0
 43118  1  0  0  0  0
 43119  1  0  0  0  0
 44 45  1  0  0  0  0
 44120  1  0  0  0  0
 44121  1  0  0  0  0
 45 46  1  0  0  0  0
 45122  1  0  0  0  0
 45123  1  0  0  0  0
 46 47  1  0  0  0  0
 46124  1  0  0  0  0
 46125  1  0  0  0  0
 47 48  1  0  0  0  0
 47126  1  0  0  0  0
 47127  1  0  0  0  0
 48128  1  0  0  0  0
 48129  1  0  0  0  0
 48130  1  0  0  0  0
 49 50  1  0  0  0  0
 49131  1  1  0  0  0
 50 51  1  0  0  0  0
 50132  1  6  0  0  0
 51 52  1  0  0  0  0
 51133  1  1  0  0  0
 52 53  1  0  0  0  0
 52134  1  6  0  0  0
 53 54  1  0  0  0  0
 53135  1  1  0  0  0
 54136  1  0  0  0  0
 54137  1  0  0  0  0
M  CHG  1  24  -1
M  END
$$$$