/media/chris/experiments/cd1a-new-docking/inputs/ligands/1onq_ligand.pdb
 OpenBabel06222310383D

137137  0  0  1  0  0  0  0  0999 V2000
  -40.4920   60.2280   63.6270 N   0  0  0  0  0  0  0  0  0  0  0  0
  -38.5950   61.7730   64.2860 C   0  0  0  0  0  0  0  0  0  0  0  0
  -39.2927   63.0412   64.1953 O   0  0  0  0  0  0  0  0  0  0  0  0
  -39.4590   60.5300   64.5980 C   0  0  1  0  0  0  0  0  0  0  0  0
  -39.2569   60.8461   66.8904 O   0  0  0  0  0  0  0  0  0  0  0  0
  -40.2280   60.5370   65.9080 C   0  0  2  0  0  0  0  0  0  0  0  0
  -42.2618   61.3924   64.4390 O   0  0  0  0  0  0  0  0  0  0  0  0
  -40.8583   59.1606   66.1332 C   0  0  0  0  0  0  0  0  0  0  0  0
  -42.0897   58.8399   65.7007 C   0  0  0  0  0  0  0  0  0  0  0  0
  -40.3964   65.2906   62.8172 O   0  0  0  0  0  0  0  0  0  0  0  0
  -42.6490   57.4435   65.9661 C   0  0  0  0  0  0  0  0  0  0  0  0
  -39.3931   68.0416   63.2594 O   0  0  0  0  0  0  0  0  0  0  0  0
  -44.1767   57.4042   66.1175 C   0  0  0  0  0  0  0  0  0  0  0  0
  -41.2594   69.6187   62.3950 O   0  0  0  0  0  0  0  0  0  0  0  0
  -44.9803   57.8774   64.8922 C   0  0  0  0  0  0  0  0  0  0  0  0
  -38.1858   67.4358   65.6297 O   0  0  0  0  0  0  0  0  0  0  0  0
  -44.6770   56.9907   63.6605 C   0  0  0  0  0  0  0  0  0  0  0  0
  -37.5407   64.5807   64.8630 O   0  0  0  0  0  0  0  0  0  0  0  0
  -45.4207   57.3874   62.3601 C   0  0  0  0  0  0  0  0  0  0  0  0
  -34.8543   65.1971   65.8955 O   0  0  0  0  0  0  0  0  0  0  0  0
  -45.1122   56.4743   61.1502 C   0  0  0  0  0  0  0  0  0  0  0  0
  -45.8469   56.8922   59.8580 C   0  0  0  0  0  0  0  0  0  0  0  0
  -45.5574   55.9797   58.6602 C   0  0  0  0  0  0  0  0  0  0  0  0
  -41.7430   67.2649   62.7342 O   0  5  0  0  0  0  0  0  0  0  0  0
  -44.0941   55.8722   58.2363 C   0  0  0  0  0  0  0  0  0  0  0  0
  -40.4283   67.9769   60.8266 O   0  0  0  0  0  0  0  0  0  0  0  0
  -43.4568   57.2185   57.8396 C   0  0  0  0  0  0  0  0  0  0  0  0
  -41.9894   57.1416   57.3918 C   0  0  0  0  0  0  0  0  0  0  0  0
  -41.1058   56.5625   58.5004 C   0  0  0  0  0  0  0  0  0  0  0  0
  -39.6235   56.4475   58.1916 C   0  0  0  0  0  0  0  0  0  0  0  0
  -41.7615   60.6565   63.6107 C   0  0  0  0  0  0  0  0  0  0  0  0
  -42.5847   60.1680   62.4559 C   0  0  0  0  0  0  0  0  0  0  0  0
  -42.6099   58.6428   62.5563 C   0  0  0  0  0  0  0  0  0  0  0  0
  -41.1870   58.0925   62.4955 C   0  0  0  0  0  0  0  0  0  0  0  0
  -41.0530   56.5907   62.5667 C   0  0  0  0  0  0  0  0  0  0  0  0
  -41.7990   56.0042   61.3729 C   0  0  0  0  0  0  0  0  0  0  0  0
  -41.7524   54.4707   61.3395 C   0  0  0  0  0  0  0  0  0  0  0  0
  -42.3874   53.7921   62.5670 C   0  0  0  0  0  0  0  0  0  0  0  0
  -43.8850   54.1315   62.7330 C   0  0  0  0  0  0  0  0  0  0  0  0
  -44.4595   53.4458   63.9759 C   0  0  0  0  0  0  0  0  0  0  0  0
  -45.9409   53.7006   64.2263 C   0  0  0  0  0  0  0  0  0  0  0  0
  -46.8133   53.2057   63.0821 C   0  0  0  0  0  0  0  0  0  0  0  0
  -46.5328   53.8217   61.7095 C   0  0  0  0  0  0  0  0  0  0  0  0
  -47.5095   53.2187   60.7089 C   0  0  0  0  0  0  0  0  0  0  0  0
  -47.4273   53.6575   59.2543 C   0  0  0  0  0  0  0  0  0  0  0  0
  -47.6392   55.1742   59.1247 C   0  0  0  0  0  0  0  0  0  0  0  0
  -47.5891   55.7048   57.6801 C   0  0  0  0  0  0  0  0  0  0  0  0
  -47.7857   57.2160   57.5846 C   0  0  0  0  0  0  0  0  0  0  0  0
  -38.5707   64.2916   63.8868 C   0  0  2  0  0  0  0  0  0  0  0  0
  -39.4297   65.5603   63.7851 C   0  0  1  0  0  0  0  0  0  0  0  0
  -38.6385   66.8115   63.3449 C   0  0  2  0  0  0  0  0  0  0  0  0
  -37.5890   67.0373   64.3980 C   0  0  2  0  0  0  0  0  0  0  0  0
  -36.7643   65.7760   64.5802 C   0  0  1  0  0  0  0  0  0  0  0  0
  -35.7901   66.2089   65.6736 C   0  0  0  0  0  0  0  0  0  0  0  0
  -40.7155   68.2343   62.2663 S   0  0  0  0  0  0  0  0  0  0  0  0
  -40.2280   59.6342   62.8875 H   0  0  0  0  0  0  0  0  0  0  0  0
  -37.8608   61.8607   65.0594 H   0  0  0  0  0  0  0  0  0  0  0  0
  -38.1940   61.6005   63.3091 H   0  0  0  0  0  0  0  0  0  0  0  0
  -38.6677   59.8099   64.6092 H   0  0  0  0  0  0  0  0  0  0  0  0
  -38.8837   61.7234   66.7113 H   0  0  0  0  0  0  0  0  0  0  0  0
  -41.0317   61.2430   65.9299 H   0  0  0  0  0  0  0  0  0  0  0  0
  -40.3128   58.4462   66.6402 H   0  0  0  0  0  0  0  0  0  0  0  0
  -42.6561   59.5355   65.1904 H   0  0  0  0  0  0  0  0  0  0  0  0
  -40.9043   64.5062   63.0773 H   0  0  0  0  0  0  0  0  0  0  0  0
  -42.2112   57.0710   66.8686 H   0  0  0  0  0  0  0  0  0  0  0  0
  -42.4056   56.8440   65.1139 H   0  0  0  0  0  0  0  0  0  0  0  0
  -44.4414   58.0281   66.9455 H   0  0  0  0  0  0  0  0  0  0  0  0
  -44.4305   56.3736   66.2531 H   0  0  0  0  0  0  0  0  0  0  0  0
  -41.4526   69.8047   63.3272 H   0  0  0  0  0  0  0  0  0  0  0  0
  -44.7161   58.8900   64.6691 H   0  0  0  0  0  0  0  0  0  0  0  0
  -46.0238   57.8060   65.1177 H   0  0  0  0  0  0  0  0  0  0  0  0
  -38.7070   68.2420   65.4906 H   0  0  0  0  0  0  0  0  0  0  0  0
  -44.9483   55.9843   63.9027 H   0  0  0  0  0  0  0  0  0  0  0  0
  -43.6343   57.1157   63.4552 H   0  0  0  0  0  0  0  0  0  0  0  0
  -45.1409   58.3882   62.1054 H   0  0  0  0  0  0  0  0  0  0  0  0
  -46.4669   57.2884   62.5616 H   0  0  0  0  0  0  0  0  0  0  0  0
  -34.2368   65.4744   66.5903 H   0  0  0  0  0  0  0  0  0  0  0  0
  -45.4041   55.4750   61.3973 H   0  0  0  0  0  0  0  0  0  0  0  0
  -44.0633   56.5552   60.9552 H   0  0  0  0  0  0  0  0  0  0  0  0
  -45.5454   57.8872   59.6050 H   0  0  0  0  0  0  0  0  0  0  0  0
  -46.8956   56.8211   60.0583 H   0  0  0  0  0  0  0  0  0  0  0  0
  -46.1134   56.3507   57.8246 H   0  0  0  0  0  0  0  0  0  0  0  0
  -45.8392   54.9961   58.9731 H   0  0  0  0  0  0  0  0  0  0  0  0
  -44.0344   55.2112   57.3970 H   0  0  0  0  0  0  0  0  0  0  0  0
  -43.5514   55.5103   59.0845 H   0  0  0  0  0  0  0  0  0  0  0  0
  -39.7589   68.6050   60.5130 H   0  0  0  0  0  0  0  0  0  0  0  0
  -43.5110   57.8721   58.6851 H   0  0  0  0  0  0  0  0  0  0  0  0
  -44.0077   57.5691   56.9919 H   0  0  0  0  0  0  0  0  0  0  0  0
  -41.6459   58.1254   57.1489 H   0  0  0  0  0  0  0  0  0  0  0  0
  -41.9273   56.5007   56.5373 H   0  0  0  0  0  0  0  0  0  0  0  0
  -41.4682   55.5815   58.7265 H   0  0  0  0  0  0  0  0  0  0  0  0
  -41.1742   57.2579   59.3107 H   0  0  0  0  0  0  0  0  0  0  0  0
  -39.4798   55.7615   57.3831 H   0  0  0  0  0  0  0  0  0  0  0  0
  -39.1054   56.0918   59.0575 H   0  0  0  0  0  0  0  0  0  0  0  0
  -39.2410   57.4082   57.9165 H   0  0  0  0  0  0  0  0  0  0  0  0
  -42.1401   60.4704   61.5308 H   0  0  0  0  0  0  0  0  0  0  0  0
  -43.5740   60.5745   62.4862 H   0  0  0  0  0  0  0  0  0  0  0  0
  -43.1794   58.2434   61.7432 H   0  0  0  0  0  0  0  0  0  0  0  0
  -43.0571   58.3590   63.4860 H   0  0  0  0  0  0  0  0  0  0  0  0
  -40.6400   58.5089   63.3154 H   0  0  0  0  0  0  0  0  0  0  0  0
  -40.8124   58.3694   61.5322 H   0  0  0  0  0  0  0  0  0  0  0  0
  -41.4811   56.2289   63.4782 H   0  0  0  0  0  0  0  0  0  0  0  0
  -40.0224   56.3038   62.5438 H   0  0  0  0  0  0  0  0  0  0  0  0
  -41.3558   56.3797   60.4743 H   0  0  0  0  0  0  0  0  0  0  0  0
  -42.8254   56.2942   61.4593 H   0  0  0  0  0  0  0  0  0  0  0  0
  -40.7279   54.1676   61.2812 H   0  0  0  0  0  0  0  0  0  0  0  0
  -42.3249   54.1646   60.4889 H   0  0  0  0  0  0  0  0  0  0  0  0
  -41.8650   54.1140   63.4436 H   0  0  0  0  0  0  0  0  0  0  0  0
  -42.3115   52.7343   62.4245 H   0  0  0  0  0  0  0  0  0  0  0  0
  -44.4191   53.7969   61.8684 H   0  0  0  0  0  0  0  0  0  0  0  0
  -43.9878   55.1906   62.8453 H   0  0  0  0  0  0  0  0  0  0  0  0
  -43.9143   53.7934   64.8284 H   0  0  0  0  0  0  0  0  0  0  0  0
  -44.3616   52.3935   63.8085 H   0  0  0  0  0  0  0  0  0  0  0  0
  -46.0937   54.7529   64.3454 H   0  0  0  0  0  0  0  0  0  0  0  0
  -46.2211   53.1628   65.1079 H   0  0  0  0  0  0  0  0  0  0  0  0
  -47.8321   53.4153   63.3330 H   0  0  0  0  0  0  0  0  0  0  0  0
  -46.5926   52.1636   62.9811 H   0  0  0  0  0  0  0  0  0  0  0  0
  -45.5285   53.6026   61.4125 H   0  0  0  0  0  0  0  0  0  0  0  0
  -46.6535   54.8841   61.7495 H   0  0  0  0  0  0  0  0  0  0  0  0
  -48.4960   53.4500   61.0527 H   0  0  0  0  0  0  0  0  0  0  0  0
  -47.2486   52.1813   60.6831 H   0  0  0  0  0  0  0  0  0  0  0  0
  -48.1826   53.1492   58.6921 H   0  0  0  0  0  0  0  0  0  0  0  0
  -46.4549   53.4154   58.8792 H   0  0  0  0  0  0  0  0  0  0  0  0
  -46.8754   55.6677   59.6887 H   0  0  0  0  0  0  0  0  0  0  0  0
  -48.6248   55.3760   59.4891 H   0  0  0  0  0  0  0  0  0  0  0  0
  -48.3613   55.2256   57.1153 H   0  0  0  0  0  0  0  0  0  0  0  0
  -46.6144   55.4871   57.2961 H   0  0  0  0  0  0  0  0  0  0  0  0
  -48.7534   57.4743   57.9609 H   0  0  0  0  0  0  0  0  0  0  0  0
  -47.7072   57.5220   56.5623 H   0  0  0  0  0  0  0  0  0  0  0  0
  -47.0341   57.7107   58.1637 H   0  0  0  0  0  0  0  0  0  0  0  0
  -38.1706   64.0792   62.9174 H   0  0  0  0  0  0  0  0  0  0  0  0
  -39.8304   65.7822   64.7521 H   0  0  0  0  0  0  0  0  0  0  0  0
  -38.2799   66.6080   62.3576 H   0  0  0  0  0  0  0  0  0  0  0  0
  -36.9429   67.8280   64.0783 H   0  0  0  0  0  0  0  0  0  0  0  0
  -36.2694   65.4476   63.6902 H   0  0  0  0  0  0  0  0  0  0  0  0
  -35.2842   67.1006   65.3670 H   0  0  0  0  0  0  0  0  0  0  0  0
  -36.3313   66.3964   66.5774 H   0  0  0  0  0  0  0  0  0  0  0  0
  1  4  1  0  0  0  0
  1 31  1  0  0  0  0
  1 56  1  0  0  0  0
  2  3  1  0  0  0  0
  2  4  1  0  0  0  0
  2 57  1  0  0  0  0
  2 58  1  0  0  0  0
  3 49  1  0  0  0  0
  4  6  1  0  0  0  0
  4 59  1  1  0  0  0
  5  6  1  0  0  0  0
  5 60  1  0  0  0  0
  6  8  1  0  0  0  0
  6 61  1  6  0  0  0
  7 31  2  0  0  0  0
  8  9  2  0  0  0  0
  8 62  1  0  0  0  0
  9 11  1  0  0  0  0
  9 63  1  0  0  0  0
 10 50  1  0  0  0  0
 10 64  1  0  0  0  0
 11 13  1  0  0  0  0
 11 65  1  0  0  0  0
 11 66  1  0  0  0  0
 12 51  1  0  0  0  0
 12 55  1  0  0  0  0
 13 15  1  0  0  0  0
 13 67  1  0  0  0  0
 13 68  1  0  0  0  0
 14 55  1  0  0  0  0
 14 69  1  0  0  0  0
 15 17  1  0  0  0  0
 15 70  1  0  0  0  0
 15 71  1  0  0  0  0
 16 52  1  0  0  0  0
 16 72  1  0  0  0  0
 17 19  1  0  0  0  0
 17 73  1  0  0  0  0
 17 74  1  0  0  0  0
 18 49  1  0  0  0  0
 18 53  1  0  0  0  0
 19 21  1  0  0  0  0
 19 75  1  0  0  0  0
 19 76  1  0  0  0  0
 20 54  1  0  0  0  0
 20 77  1  0  0  0  0
 21 22  1  0  0  0  0
 21 78  1  0  0  0  0
 21 79  1  0  0  0  0
 22 23  1  0  0  0  0
 22 80  1  0  0  0  0
 22 81  1  0  0  0  0
 23 25  1  0  0  0  0
 23 82  1  0  0  0  0
 23 83  1  0  0  0  0
 24 55  1  0  0  0  0
 25 27  1  0  0  0  0
 25 84  1  0  0  0  0
 25 85  1  0  0  0  0
 26 55  1  0  0  0  0
 26 86  1  0  0  0  0
 27 28  1  0  0  0  0
 27 87  1  0  0  0  0
 27 88  1  0  0  0  0
 28 29  1  0  0  0  0
 28 89  1  0  0  0  0
 28 90  1  0  0  0  0
 29 30  1  0  0  0  0
 29 91  1  0  0  0  0
 29 92  1  0  0  0  0
 30 93  1  0  0  0  0
 30 94  1  0  0  0  0
 30 95  1  0  0  0  0
 31 32  1  0  0  0  0
 32 33  1  0  0  0  0
 32 96  1  0  0  0  0
 32 97  1  0  0  0  0
 33 34  1  0  0  0  0
 33 98  1  0  0  0  0
 33 99  1  0  0  0  0
 34 35  1  0  0  0  0
 34100  1  0  0  0  0
 34101  1  0  0  0  0
 35 36  1  0  0  0  0
 35102  1  0  0  0  0
 35103  1  0  0  0  0
 36 37  1  0  0  0  0
 36104  1  0  0  0  0
 36105  1  0  0  0  0
 37 38  1  0  0  0  0
 37106  1  0  0  0  0
 37107  1  0  0  0  0
 38 39  1  0  0  0  0
 38108  1  0  0  0  0
 38109  1  0  0  0  0
 39 40  1  0  0  0  0
 39110  1  0  0  0  0
 39111  1  0  0  0  0
 40 41  1  0  0  0  0
 40112  1  0  0  0  0
 40113  1  0  0  0  0
 41 42  1  0  0  0  0
 41114  1  0  0  0  0
 41115  1  0  0  0  0
 42 43  1  0  0  0  0
 42116  1  0  0  0  0
 42117  1  0  0  0  0
 43 44  1  0  0  0  0
 43118  1  0  0  0  0
 43119  1  0  0  0  0
 44 45  1  0  0  0  0
 44120  1  0  0  0  0
 44121  1  0  0  0  0
 45 46  1  0  0  0  0
 45122  1  0  0  0  0
 45123  1  0  0  0  0
 46 47  1  0  0  0  0
 46124  1  0  0  0  0
 46125  1  0  0  0  0
 47 48  1  0  0  0  0
 47126  1  0  0  0  0
 47127  1  0  0  0  0
 48128  1  0  0  0  0
 48129  1  0  0  0  0
 48130  1  0  0  0  0
 49 50  1  0  0  0  0
 49131  1  6  0  0  0
 50 51  1  0  0  0  0
 50132  1  1  0  0  0
 51 52  1  0  0  0  0
 51133  1  6  0  0  0
 52 53  1  0  0  0  0
 52134  1  6  0  0  0
 53 54  1  0  0  0  0
 53135  1  6  0  0  0
 54136  1  0  0  0  0
 54137  1  0  0  0  0
M  CHG  1  24  -1
M  END
$$$$
/media/chris/experiments/cd1a-new-docking/inputs/ligands/1onq_ligand.pdb
 OpenBabel06222310383D

137137  0  0  1  0  0  0  0  0999 V2000
  -40.4920   60.2280   63.6270 N   0  0  0  0  0  0  0  0  0  0  0  0
  -38.5950   61.7730   64.2860 C   0  0  0  0  0  0  0  0  0  0  0  0
  -39.2927   63.0412   64.1953 O   0  0  0  0  0  0  0  0  0  0  0  0
  -39.4590   60.5300   64.5980 C   0  0  1  0  0  0  0  0  0  0  0  0
  -41.2116   61.5409   65.7392 O   0  0  0  0  0  0  0  0  0  0  0  0
  -40.2280   60.5370   65.9080 C   0  0  2  0  0  0  0  0  0  0  0  0
  -40.6436   57.9696   63.7820 O   0  0  0  0  0  0  0  0  0  0  0  0
  -39.2689   60.8567   67.0571 C   0  0  0  0  0  0  0  0  0  0  0  0
  -39.4194   61.9233   67.8608 C   0  0  0  0  0  0  0  0  0  0  0  0
  -36.9245   63.2334   62.6041 O   0  0  0  0  0  0  0  0  0  0  0  0
  -38.4178   62.1745   68.9864 C   0  0  0  0  0  0  0  0  0  0  0  0
  -36.2474   65.6923   61.0988 O   0  0  0  0  0  0  0  0  0  0  0  0
  -36.9761   62.3831   68.5005 C   0  0  0  0  0  0  0  0  0  0  0  0
  -34.5230   64.9669   59.3052 O   0  0  0  0  0  0  0  0  0  0  0  0
  -36.7564   63.5829   67.5606 C   0  0  0  0  0  0  0  0  0  0  0  0
  -38.7865   66.6864   61.1867 O   0  0  0  0  0  0  0  0  0  0  0  0
  -37.1379   64.9081   68.2633 C   0  0  0  0  0  0  0  0  0  0  0  0
  -39.4547   65.4386   63.8611 O   0  0  0  0  0  0  0  0  0  0  0  0
  -36.9724   66.1855   67.4017 C   0  0  0  0  0  0  0  0  0  0  0  0
  -40.5437   67.6756   62.3121 O   0  0  0  0  0  0  0  0  0  0  0  0
  -35.5309   66.4246   66.8938 C   0  0  0  0  0  0  0  0  0  0  0  0
  -35.3781   67.7096   66.0516 C   0  0  0  0  0  0  0  0  0  0  0  0
  -35.7332   68.9928   66.8123 C   0  0  0  0  0  0  0  0  0  0  0  0
  -35.7915   63.2771   60.4988 O   0  5  0  0  0  0  0  0  0  0  0  0
  -35.6166   70.2951   66.0233 C   0  0  0  0  0  0  0  0  0  0  0  0
  -33.9724   64.4403   61.5999 O   0  0  0  0  0  0  0  0  0  0  0  0
  -36.5353   70.3626   64.7874 C   0  0  0  0  0  0  0  0  0  0  0  0
  -38.0393   70.2595   65.0832 C   0  0  0  0  0  0  0  0  0  0  0  0
  -38.3718   68.9422   65.7896 C   0  0  0  0  0  0  0  0  0  0  0  0
  -39.8337   68.7063   66.1254 C   0  0  0  0  0  0  0  0  0  0  0  0
  -40.9921   59.0290   63.2983 C   0  0  0  0  0  0  0  0  0  0  0  0
  -42.0683   59.0516   62.2538 C   0  0  0  0  0  0  0  0  0  0  0  0
  -41.5552   58.2106   61.0848 C   0  0  0  0  0  0  0  0  0  0  0  0
  -41.3002   56.7776   61.5456 C   0  0  0  0  0  0  0  0  0  0  0  0
  -40.7718   55.8279   60.4980 C   0  0  0  0  0  0  0  0  0  0  0  0
  -40.6059   54.4620   61.1558 C   0  0  0  0  0  0  0  0  0  0  0  0
  -40.0541   53.4029   60.1921 C   0  0  0  0  0  0  0  0  0  0  0  0
  -38.6626   53.7315   59.6209 C   0  0  0  0  0  0  0  0  0  0  0  0
  -38.1455   52.6541   58.6424 C   0  0  0  0  0  0  0  0  0  0  0  0
  -36.7541   53.0225   58.1198 C   0  0  0  0  0  0  0  0  0  0  0  0
  -36.1539   52.0318   57.1296 C   0  0  0  0  0  0  0  0  0  0  0  0
  -37.0031   51.8824   55.8760 C   0  0  0  0  0  0  0  0  0  0  0  0
  -37.2064   53.1532   55.0478 C   0  0  0  0  0  0  0  0  0  0  0  0
  -35.8411   53.6420   54.5834 C   0  0  0  0  0  0  0  0  0  0  0  0
  -35.0005   52.7293   53.7027 C   0  0  0  0  0  0  0  0  0  0  0  0
  -35.7281   52.4126   52.3865 C   0  0  0  0  0  0  0  0  0  0  0  0
  -36.0443   53.6450   51.5191 C   0  0  0  0  0  0  0  0  0  0  0  0
  -34.7983   54.4119   51.0823 C   0  0  0  0  0  0  0  0  0  0  0  0
  -38.5707   64.2916   63.8868 C   0  0  2  0  0  0  0  0  0  0  0  0
  -37.8007   64.3171   62.5587 C   0  0  1  0  0  0  0  0  0  0  0  0
  -36.9714   65.6028   62.3469 C   0  0  2  0  0  0  0  0  0  0  0  0
  -37.9542   66.7410   62.3427 C   0  0  2  0  0  0  0  0  0  0  0  0
  -38.7875   66.7050   63.6110 C   0  0  1  0  0  0  0  0  0  0  0  0
  -39.7042   67.9085   63.4028 C   0  0  0  0  0  0  0  0  0  0  0  0
  -35.0951   64.5857   60.6304 S   0  0  0  0  0  0  0  0  0  0  0  0
  -40.8737   60.9998   63.1496 H   0  0  0  0  0  0  0  0  0  0  0  0
  -37.8608   61.8607   65.0594 H   0  0  0  0  0  0  0  0  0  0  0  0
  -38.1940   61.6005   63.3091 H   0  0  0  0  0  0  0  0  0  0  0  0
  -38.6677   59.8099   64.6092 H   0  0  0  0  0  0  0  0  0  0  0  0
  -41.7964   61.3001   65.0038 H   0  0  0  0  0  0  0  0  0  0  0  0
  -40.6791   59.5963   66.1457 H   0  0  0  0  0  0  0  0  0  0  0  0
  -38.4702   60.2244   67.2223 H   0  0  0  0  0  0  0  0  0  0  0  0
  -40.2099   62.5712   67.7177 H   0  0  0  0  0  0  0  0  0  0  0  0
  -37.4286   62.4154   62.7369 H   0  0  0  0  0  0  0  0  0  0  0  0
  -38.4328   61.3315   69.6452 H   0  0  0  0  0  0  0  0  0  0  0  0
  -38.7163   63.0802   69.4717 H   0  0  0  0  0  0  0  0  0  0  0  0
  -36.6728   61.4983   67.9809 H   0  0  0  0  0  0  0  0  0  0  0  0
  -36.3991   62.5896   69.3777 H   0  0  0  0  0  0  0  0  0  0  0  0
  -35.2403   65.0663   58.6599 H   0  0  0  0  0  0  0  0  0  0  0  0
  -37.3638   63.4609   66.6882 H   0  0  0  0  0  0  0  0  0  0  0  0
  -35.7217   63.6229   67.2913 H   0  0  0  0  0  0  0  0  0  0  0  0
  -38.2346   66.7105   60.3894 H   0  0  0  0  0  0  0  0  0  0  0  0
  -36.5203   65.0121   69.1308 H   0  0  0  0  0  0  0  0  0  0  0  0
  -38.1818   64.8349   68.4868 H   0  0  0  0  0  0  0  0  0  0  0  0
  -37.2645   67.0288   67.9919 H   0  0  0  0  0  0  0  0  0  0  0  0
  -37.5861   66.0539   66.5351 H   0  0  0  0  0  0  0  0  0  0  0  0
  -41.1248   68.4413   62.1820 H   0  0  0  0  0  0  0  0  0  0  0  0
  -35.2414   65.5889   66.2917 H   0  0  0  0  0  0  0  0  0  0  0  0
  -34.9089   66.5389   67.7569 H   0  0  0  0  0  0  0  0  0  0  0  0
  -36.0211   67.6333   65.1997 H   0  0  0  0  0  0  0  0  0  0  0  0
  -34.3459   67.7836   65.7795 H   0  0  0  0  0  0  0  0  0  0  0  0
  -35.0808   69.0630   67.6575 H   0  0  0  0  0  0  0  0  0  0  0  0
  -36.7691   68.9007   67.0639 H   0  0  0  0  0  0  0  0  0  0  0  0
  -34.6034   70.4008   65.6957 H   0  0  0  0  0  0  0  0  0  0  0  0
  -35.9212   71.0835   66.6794 H   0  0  0  0  0  0  0  0  0  0  0  0
  -33.5125   65.2894   61.6918 H   0  0  0  0  0  0  0  0  0  0  0  0
  -36.2707   69.5576   64.1340 H   0  0  0  0  0  0  0  0  0  0  0  0
  -36.3833   71.3304   64.3572 H   0  0  0  0  0  0  0  0  0  0  0  0
  -38.5811   70.3087   64.1618 H   0  0  0  0  0  0  0  0  0  0  0  0
  -38.3163   71.0695   65.7252 H   0  0  0  0  0  0  0  0  0  0  0  0
  -37.8190   68.9153   66.7054 H   0  0  0  0  0  0  0  0  0  0  0  0
  -38.1125   68.1727   65.0927 H   0  0  0  0  0  0  0  0  0  0  0  0
  -40.1630   69.4466   66.8243 H   0  0  0  0  0  0  0  0  0  0  0  0
  -39.9484   67.7335   66.5558 H   0  0  0  0  0  0  0  0  0  0  0  0
  -40.4199   68.7728   65.2327 H   0  0  0  0  0  0  0  0  0  0  0  0
  -42.2523   60.0560   61.9341 H   0  0  0  0  0  0  0  0  0  0  0  0
  -42.9881   58.6617   62.6370 H   0  0  0  0  0  0  0  0  0  0  0  0
  -40.6430   58.6327   60.7180 H   0  0  0  0  0  0  0  0  0  0  0  0
  -42.2902   58.2042   60.3072 H   0  0  0  0  0  0  0  0  0  0  0  0
  -42.2252   56.3814   61.9093 H   0  0  0  0  0  0  0  0  0  0  0  0
  -40.5308   56.8461   62.2860 H   0  0  0  0  0  0  0  0  0  0  0  0
  -39.8273   56.1749   60.1341 H   0  0  0  0  0  0  0  0  0  0  0  0
  -41.4476   55.7671   59.6707 H   0  0  0  0  0  0  0  0  0  0  0  0
  -41.5604   54.1359   61.5127 H   0  0  0  0  0  0  0  0  0  0  0  0
  -39.9010   54.5713   61.9534 H   0  0  0  0  0  0  0  0  0  0  0  0
  -40.7376   53.3047   59.3747 H   0  0  0  0  0  0  0  0  0  0  0  0
  -39.9490   52.4997   60.7561 H   0  0  0  0  0  0  0  0  0  0  0  0
  -37.9711   53.8153   60.4331 H   0  0  0  0  0  0  0  0  0  0  0  0
  -38.7477   54.6476   59.0746 H   0  0  0  0  0  0  0  0  0  0  0  0
  -38.8216   52.5756   57.8168 H   0  0  0  0  0  0  0  0  0  0  0  0
  -38.0829   51.7199   59.1603 H   0  0  0  0  0  0  0  0  0  0  0  0
  -36.0933   53.0951   58.9583 H   0  0  0  0  0  0  0  0  0  0  0  0
  -36.8691   53.9438   57.5879 H   0  0  0  0  0  0  0  0  0  0  0  0
  -36.0716   51.0769   57.6053 H   0  0  0  0  0  0  0  0  0  0  0  0
  -35.1957   52.4047   56.8335 H   0  0  0  0  0  0  0  0  0  0  0  0
  -37.9677   51.5283   56.1744 H   0  0  0  0  0  0  0  0  0  0  0  0
  -36.4657   51.2081   55.2424 H   0  0  0  0  0  0  0  0  0  0  0  0
  -37.6757   53.9051   55.6472 H   0  0  0  0  0  0  0  0  0  0  0  0
  -37.8322   52.9485   54.2043 H   0  0  0  0  0  0  0  0  0  0  0  0
  -35.2657   53.8504   55.4611 H   0  0  0  0  0  0  0  0  0  0  0  0
  -36.0640   54.4782   53.9541 H   0  0  0  0  0  0  0  0  0  0  0  0
  -34.8103   51.8157   54.2262 H   0  0  0  0  0  0  0  0  0  0  0  0
  -34.0818   53.2277   53.4734 H   0  0  0  0  0  0  0  0  0  0  0  0
  -36.6507   51.9252   52.6236 H   0  0  0  0  0  0  0  0  0  0  0  0
  -35.0658   51.7985   51.8128 H   0  0  0  0  0  0  0  0  0  0  0  0
  -36.6696   54.3056   52.0827 H   0  0  0  0  0  0  0  0  0  0  0  0
  -36.5268   53.2924   50.6315 H   0  0  0  0  0  0  0  0  0  0  0  0
  -34.2863   54.7819   51.9459 H   0  0  0  0  0  0  0  0  0  0  0  0
  -35.0850   55.2327   50.4587 H   0  0  0  0  0  0  0  0  0  0  0  0
  -34.1504   53.7584   50.5363 H   0  0  0  0  0  0  0  0  0  0  0  0
  -37.8613   64.3371   64.6865 H   0  0  0  0  0  0  0  0  0  0  0  0
  -38.5037   64.2763   61.7531 H   0  0  0  0  0  0  0  0  0  0  0  0
  -36.2362   65.6172   63.1242 H   0  0  0  0  0  0  0  0  0  0  0  0
  -37.4139   67.6641   62.3117 H   0  0  0  0  0  0  0  0  0  0  0  0
  -38.2128   66.7722   64.5111 H   0  0  0  0  0  0  0  0  0  0  0  0
  -40.2958   68.0614   64.2812 H   0  0  0  0  0  0  0  0  0  0  0  0
  -39.1105   68.7786   63.2144 H   0  0  0  0  0  0  0  0  0  0  0  0
  1  4  1  0  0  0  0
  1 31  1  0  0  0  0
  1 56  1  0  0  0  0
  2  3  1  0  0  0  0
  2  4  1  0  0  0  0
  2 57  1  0  0  0  0
  2 58  1  0  0  0  0
  3 49  1  0  0  0  0
  4  6  1  0  0  0  0
  4 59  1  1  0  0  0
  5  6  1  0  0  0  0
  5 60  1  0  0  0  0
  6  8  1  0  0  0  0
  6 61  1  1  0  0  0
  7 31  2  0  0  0  0
  8  9  2  0  0  0  0
  8 62  1  0  0  0  0
  9 11  1  0  0  0  0
  9 63  1  0  0  0  0
 10 50  1  0  0  0  0
 10 64  1  0  0  0  0
 11 13  1  0  0  0  0
 11 65  1  0  0  0  0
 11 66  1  0  0  0  0
 12 51  1  0  0  0  0
 12 55  1  0  0  0  0
 13 15  1  0  0  0  0
 13 67  1  0  0  0  0
 13 68  1  0  0  0  0
 14 55  1  0  0  0  0
 14 69  1  0  0  0  0
 15 17  1  0  0  0  0
 15 70  1  0  0  0  0
 15 71  1  0  0  0  0
 16 52  1  0  0  0  0
 16 72  1  0  0  0  0
 17 19  1  0  0  0  0
 17 73  1  0  0  0  0
 17 74  1  0  0  0  0
 18 49  1  0  0  0  0
 18 53  1  0  0  0  0
 19 21  1  0  0  0  0
 19 75  1  0  0  0  0
 19 76  1  0  0  0  0
 20 54  1  0  0  0  0
 20 77  1  0  0  0  0
 21 22  1  0  0  0  0
 21 78  1  0  0  0  0
 21 79  1  0  0  0  0
 22 23  1  0  0  0  0
 22 80  1  0  0  0  0
 22 81  1  0  0  0  0
 23 25  1  0  0  0  0
 23 82  1  0  0  0  0
 23 83  1  0  0  0  0
 24 55  1  0  0  0  0
 25 27  1  0  0  0  0
 25 84  1  0  0  0  0
 25 85  1  0  0  0  0
 26 55  1  0  0  0  0
 26 86  1  0  0  0  0
 27 28  1  0  0  0  0
 27 87  1  0  0  0  0
 27 88  1  0  0  0  0
 28 29  1  0  0  0  0
 28 89  1  0  0  0  0
 28 90  1  0  0  0  0
 29 30  1  0  0  0  0
 29 91  1  0  0  0  0
 29 92  1  0  0  0  0
 30 93  1  0  0  0  0
 30 94  1  0  0  0  0
 30 95  1  0  0  0  0
 31 32  1  0  0  0  0
 32 33  1  0  0  0  0
 32 96  1  0  0  0  0
 32 97  1  0  0  0  0
 33 34  1  0  0  0  0
 33 98  1  0  0  0  0
 33 99  1  0  0  0  0
 34 35  1  0  0  0  0
 34100  1  0  0  0  0
 34101  1  0  0  0  0
 35 36  1  0  0  0  0
 35102  1  0  0  0  0
 35103  1  0  0  0  0
 36 37  1  0  0  0  0
 36104  1  0  0  0  0
 36105  1  0  0  0  0
 37 38  1  0  0  0  0
 37106  1  0  0  0  0
 37107  1  0  0  0  0
 38 39  1  0  0  0  0
 38108  1  0  0  0  0
 38109  1  0  0  0  0
 39 40  1  0  0  0  0
 39110  1  0  0  0  0
 39111  1  0  0  0  0
 40 41  1  0  0  0  0
 40112  1  0  0  0  0
 40113  1  0  0  0  0
 41 42  1  0  0  0  0
 41114  1  0  0  0  0
 41115  1  0  0  0  0
 42 43  1  0  0  0  0
 42116  1  0  0  0  0
 42117  1  0  0  0  0
 43 44  1  0  0  0  0
 43118  1  0  0  0  0
 43119  1  0  0  0  0
 44 45  1  0  0  0  0
 44120  1  0  0  0  0
 44121  1  0  0  0  0
 45 46  1  0  0  0  0
 45122  1  0  0  0  0
 45123  1  0  0  0  0
 46 47  1  0  0  0  0
 46124  1  0  0  0  0
 46125  1  0  0  0  0
 47 48  1  0  0  0  0
 47126  1  0  0  0  0
 47127  1  0  0  0  0
 48128  1  0  0  0  0
 48129  1  0  0  0  0
 48130  1  0  0  0  0
 49 50  1  0  0  0  0
 49131  1  1  0  0  0
 50 51  1  0  0  0  0
 50132  1  6  0  0  0
 51 52  1  0  0  0  0
 51133  1  1  0  0  0
 52 53  1  0  0  0  0
 52134  1  6  0  0  0
 53 54  1  0  0  0  0
 53135  1  1  0  0  0
 54136  1  0  0  0  0
 54137  1  0  0  0  0
M  CHG  1  24  -1
M  END
$$$$
/media/chris/experiments/cd1a-new-docking/inputs/ligands/1onq_ligand.pdb
 OpenBabel06222310383D

137137  0  0  1  0  0  0  0  0999 V2000
  -40.4920   60.2280   63.6270 N   0  0  0  0  0  0  0  0  0  0  0  0
  -38.5950   61.7730   64.2860 C   0  0  0  0  0  0  0  0  0  0  0  0
  -37.8612   61.7550   63.0352 O   0  0  0  0  0  0  0  0  0  0  0  0
  -39.4590   60.5300   64.5980 C   0  0  1  0  0  0  0  0  0  0  0  0
  -39.2569   60.8461   66.8904 O   0  0  0  0  0  0  0  0  0  0  0  0
  -40.2280   60.5370   65.9080 C   0  0  2  0  0  0  0  0  0  0  0  0
  -40.9980   62.2858   62.8166 O   0  0  0  0  0  0  0  0  0  0  0  0
  -40.8583   59.1606   66.1332 C   0  0  0  0  0  0  0  0  0  0  0  0
  -41.6129   58.8678   67.2060 C   0  0  0  0  0  0  0  0  0  0  0  0
  -36.4617   63.4735   64.8422 O   0  0  0  0  0  0  0  0  0  0  0  0
  -42.2065   57.4687   67.3592 C   0  0  0  0  0  0  0  0  0  0  0  0
  -33.9514   64.8423   64.0706 O   0  0  0  0  0  0  0  0  0  0  0  0
  -41.7514   56.7360   68.6297 C   0  0  0  0  0  0  0  0  0  0  0  0
  -31.9283   66.2529   64.8673 O   0  0  0  0  0  0  0  0  0  0  0  0
  -40.2330   56.5198   68.7668 C   0  0  0  0  0  0  0  0  0  0  0  0
  -33.4515   63.1747   61.9701 O   0  0  0  0  0  0  0  0  0  0  0  0
  -39.4858   57.8749   68.7965 C   0  0  0  0  0  0  0  0  0  0  0  0
  -36.3692   62.6641   61.3521 O   0  0  0  0  0  0  0  0  0  0  0  0
  -37.9437   57.7778   68.9153 C   0  0  0  0  0  0  0  0  0  0  0  0
  -33.8767   62.4184   59.8301 O   0  0  0  0  0  0  0  0  0  0  0  0
  -37.2646   57.0248   67.7471 C   0  0  0  0  0  0  0  0  0  0  0  0
  -37.4979   57.6826   66.3698 C   0  0  0  0  0  0  0  0  0  0  0  0
  -36.9559   59.1134   66.2688 C   0  0  0  0  0  0  0  0  0  0  0  0
  -33.8632   67.3659   63.9151 O   0  5  0  0  0  0  0  0  0  0  0  0
  -35.4520   59.2780   66.4781 C   0  0  0  0  0  0  0  0  0  0  0  0
  -32.3123   66.1772   62.4813 O   0  0  0  0  0  0  0  0  0  0  0  0
  -34.9628   60.7366   66.3832 C   0  0  0  0  0  0  0  0  0  0  0  0
  -33.4511   60.9339   66.5725 C   0  0  0  0  0  0  0  0  0  0  0  0
  -33.0737   62.4149   66.4773 C   0  0  0  0  0  0  0  0  0  0  0  0
  -33.4143   63.1161   65.1743 C   0  0  0  0  0  0  0  0  0  0  0  0
  -41.1606   61.0813   62.8393 C   0  0  0  0  0  0  0  0  0  0  0  0
  -42.1710   60.4499   61.9282 C   0  0  0  0  0  0  0  0  0  0  0  0
  -43.5248   61.0584   62.2944 C   0  0  0  0  0  0  0  0  0  0  0  0
  -43.8451   60.7741   63.7599 C   0  0  0  0  0  0  0  0  0  0  0  0
  -42.8730   61.3310   64.7715 C   0  0  0  0  0  0  0  0  0  0  0  0
  -43.3642   60.9221   66.1562 C   0  0  0  0  0  0  0  0  0  0  0  0
  -42.4640   61.4458   67.2833 C   0  0  0  0  0  0  0  0  0  0  0  0
  -42.9188   61.0384   68.6967 C   0  0  0  0  0  0  0  0  0  0  0  0
  -42.0012   61.5961   69.8068 C   0  0  0  0  0  0  0  0  0  0  0  0
  -41.9874   63.1271   69.7775 C   0  0  0  0  0  0  0  0  0  0  0  0
  -41.0966   63.7842   70.8248 C   0  0  0  0  0  0  0  0  0  0  0  0
  -39.6356   63.3882   70.6705 C   0  0  0  0  0  0  0  0  0  0  0  0
  -38.9762   63.7605   69.3406 C   0  0  0  0  0  0  0  0  0  0  0  0
  -39.0265   65.2751   69.1922 C   0  0  0  0  0  0  0  0  0  0  0  0
  -40.3835   65.9635   69.1953 C   0  0  0  0  0  0  0  0  0  0  0  0
  -40.2299   67.4824   69.0179 C   0  0  0  0  0  0  0  0  0  0  0  0
  -41.5567   68.2638   69.0264 C   0  0  0  0  0  0  0  0  0  0  0  0
  -42.5218   67.8270   67.9268 C   0  0  0  0  0  0  0  0  0  0  0  0
  -36.9920   62.8817   62.6414 C   0  0  2  0  0  0  0  0  0  0  0  0
  -35.8536   63.2281   63.6117 C   0  0  1  0  0  0  0  0  0  0  0  0
  -35.0540   64.4857   63.2063 C   0  0  2  0  0  0  0  0  0  0  0  0
  -34.4510   64.1853   61.8619 C   0  0  2  0  0  0  0  0  0  0  0  0
  -35.5409   63.7659   60.8921 C   0  0  1  0  0  0  0  0  0  0  0  0
  -34.7309   63.5033   59.6245 C   0  0  0  0  0  0  0  0  0  0  0  0
  -32.9820   66.1711   63.8128 S   0  0  0  0  0  0  0  0  0  0  0  0
  -40.7322   59.2777   63.5347 H   0  0  0  0  0  0  0  0  0  0  0  0
  -39.2437   62.6238   64.2698 H   0  0  0  0  0  0  0  0  0  0  0  0
  -37.8479   61.7974   65.0516 H   0  0  0  0  0  0  0  0  0  0  0  0
  -38.6677   59.8099   64.6092 H   0  0  0  0  0  0  0  0  0  0  0  0
  -38.8837   61.7234   66.7113 H   0  0  0  0  0  0  0  0  0  0  0  0
  -41.0317   61.2430   65.9299 H   0  0  0  0  0  0  0  0  0  0  0  0
  -40.6964   58.4237   65.4290 H   0  0  0  0  0  0  0  0  0  0  0  0
  -41.7909   59.5867   67.9248 H   0  0  0  0  0  0  0  0  0  0  0  0
  -36.9694   62.6928   65.1133 H   0  0  0  0  0  0  0  0  0  0  0  0
  -41.9160   56.8847   66.5110 H   0  0  0  0  0  0  0  0  0  0  0  0
  -43.2674   57.5874   67.4319 H   0  0  0  0  0  0  0  0  0  0  0  0
  -42.2229   55.7756   68.6423 H   0  0  0  0  0  0  0  0  0  0  0  0
  -42.0317   57.3670   69.4471 H   0  0  0  0  0  0  0  0  0  0  0  0
  -32.3461   66.2501   65.7427 H   0  0  0  0  0  0  0  0  0  0  0  0
  -39.8839   55.9449   67.9346 H   0  0  0  0  0  0  0  0  0  0  0  0
  -40.0414   56.0022   69.6834 H   0  0  0  0  0  0  0  0  0  0  0  0
  -32.7664   63.4629   62.5935 H   0  0  0  0  0  0  0  0  0  0  0  0
  -39.8474   58.4336   69.6344 H   0  0  0  0  0  0  0  0  0  0  0  0
  -39.6814   58.3417   67.8538 H   0  0  0  0  0  0  0  0  0  0  0  0
  -37.7086   57.2670   69.8256 H   0  0  0  0  0  0  0  0  0  0  0  0
  -37.5697   58.7801   68.8941 H   0  0  0  0  0  0  0  0  0  0  0  0
  -33.3634   62.2536   59.0236 H   0  0  0  0  0  0  0  0  0  0  0  0
  -37.6525   56.0280   67.7161 H   0  0  0  0  0  0  0  0  0  0  0  0
  -36.2107   57.0455   67.9305 H   0  0  0  0  0  0  0  0  0  0  0  0
  -38.5509   57.7064   66.1810 H   0  0  0  0  0  0  0  0  0  0  0  0
  -36.9665   57.0960   65.6497 H   0  0  0  0  0  0  0  0  0  0  0  0
  -37.4555   59.7052   67.0070 H   0  0  0  0  0  0  0  0  0  0  0  0
  -37.1413   59.4208   65.2608 H   0  0  0  0  0  0  0  0  0  0  0  0
  -34.9434   58.7031   65.7327 H   0  0  0  0  0  0  0  0  0  0  0  0
  -35.2390   58.9436   67.4720 H   0  0  0  0  0  0  0  0  0  0  0  0
  -31.7354   65.4010   62.4060 H   0  0  0  0  0  0  0  0  0  0  0  0
  -35.4676   61.3046   67.1365 H   0  0  0  0  0  0  0  0  0  0  0  0
  -35.1814   61.0585   65.3864 H   0  0  0  0  0  0  0  0  0  0  0  0
  -32.9296   60.3905   65.8125 H   0  0  0  0  0  0  0  0  0  0  0  0
  -33.1800   60.5752   67.5435 H   0  0  0  0  0  0  0  0  0  0  0  0
  -32.0162   62.4913   66.6213 H   0  0  0  0  0  0  0  0  0  0  0  0
  -33.6594   62.9062   67.2259 H   0  0  0  0  0  0  0  0  0  0  0  0
  -32.8591   62.6720   64.3746 H   0  0  0  0  0  0  0  0  0  0  0  0
  -33.1620   64.1531   65.2507 H   0  0  0  0  0  0  0  0  0  0  0  0
  -34.4617   63.0172   64.9792 H   0  0  0  0  0  0  0  0  0  0  0  0
  -42.1900   59.3902   62.0749 H   0  0  0  0  0  0  0  0  0  0  0  0
  -41.9312   60.6288   60.9008 H   0  0  0  0  0  0  0  0  0  0  0  0
  -44.2852   60.6294   61.6758 H   0  0  0  0  0  0  0  0  0  0  0  0
  -43.4873   62.1167   62.1417 H   0  0  0  0  0  0  0  0  0  0  0  0
  -43.8775   59.7122   63.8876 H   0  0  0  0  0  0  0  0  0  0  0  0
  -44.7747   61.2678   63.9522 H   0  0  0  0  0  0  0  0  0  0  0  0
  -42.8394   62.3978   64.6965 H   0  0  0  0  0  0  0  0  0  0  0  0
  -41.8882   60.9516   64.5949 H   0  0  0  0  0  0  0  0  0  0  0  0
  -43.3910   59.8537   66.2082 H   0  0  0  0  0  0  0  0  0  0  0  0
  -44.3353   61.3498   66.2936 H   0  0  0  0  0  0  0  0  0  0  0  0
  -42.4484   62.5144   67.2310 H   0  0  0  0  0  0  0  0  0  0  0  0
  -41.4988   61.0087   67.1335 H   0  0  0  0  0  0  0  0  0  0  0  0
  -42.9212   59.9703   68.7601 H   0  0  0  0  0  0  0  0  0  0  0  0
  -43.8951   61.4483   68.8507 H   0  0  0  0  0  0  0  0  0  0  0  0
  -41.0062   61.2327   69.6559 H   0  0  0  0  0  0  0  0  0  0  0  0
  -42.3738   61.2730   70.7564 H   0  0  0  0  0  0  0  0  0  0  0  0
  -42.9889   63.4709   69.9311 H   0  0  0  0  0  0  0  0  0  0  0  0
  -41.5838   63.4039   68.8260 H   0  0  0  0  0  0  0  0  0  0  0  0
  -41.4324   63.4885   71.7968 H   0  0  0  0  0  0  0  0  0  0  0  0
  -41.1641   64.8440   70.6938 H   0  0  0  0  0  0  0  0  0  0  0  0
  -39.5708   62.3260   70.7820 H   0  0  0  0  0  0  0  0  0  0  0  0
  -39.1066   63.9402   71.4191 H   0  0  0  0  0  0  0  0  0  0  0  0
  -39.5050   63.2996   68.5326 H   0  0  0  0  0  0  0  0  0  0  0  0
  -37.9617   63.4209   69.3232 H   0  0  0  0  0  0  0  0  0  0  0  0
  -38.5526   65.5168   68.2638 H   0  0  0  0  0  0  0  0  0  0  0  0
  -38.5476   65.6395   70.0769 H   0  0  0  0  0  0  0  0  0  0  0  0
  -40.8732   65.7676   70.1263 H   0  0  0  0  0  0  0  0  0  0  0  0
  -40.9619   65.5815   68.3802 H   0  0  0  0  0  0  0  0  0  0  0  0
  -39.7423   67.6620   68.0826 H   0  0  0  0  0  0  0  0  0  0  0  0
  -39.6659   67.8314   69.8576 H   0  0  0  0  0  0  0  0  0  0  0  0
  -41.3396   69.3032   68.8946 H   0  0  0  0  0  0  0  0  0  0  0  0
  -42.0342   68.0673   69.9636 H   0  0  0  0  0  0  0  0  0  0  0  0
  -42.0782   68.0084   66.9701 H   0  0  0  0  0  0  0  0  0  0  0  0
  -43.4319   68.3836   68.0092 H   0  0  0  0  0  0  0  0  0  0  0  0
  -42.7317   66.7829   68.0304 H   0  0  0  0  0  0  0  0  0  0  0  0
  -37.6838   63.6979   62.6313 H   0  0  0  0  0  0  0  0  0  0  0  0
  -35.1546   62.4180   63.6243 H   0  0  0  0  0  0  0  0  0  0  0  0
  -35.7427   65.3038   63.2423 H   0  0  0  0  0  0  0  0  0  0  0  0
  -33.9800   65.0706   61.4887 H   0  0  0  0  0  0  0  0  0  0  0  0
  -36.3046   64.5020   60.7512 H   0  0  0  0  0  0  0  0  0  0  0  0
  -35.3964   63.2841   58.8158 H   0  0  0  0  0  0  0  0  0  0  0  0
  -34.1517   64.3711   59.3871 H   0  0  0  0  0  0  0  0  0  0  0  0
  1  4  1  0  0  0  0
  1 31  1  0  0  0  0
  1 56  1  0  0  0  0
  2  3  1  0  0  0  0
  2  4  1  0  0  0  0
  2 57  1  0  0  0  0
  2 58  1  0  0  0  0
  3 49  1  0  0  0  0
  4  6  1  0  0  0  0
  4 59  1  1  0  0  0
  5  6  1  0  0  0  0
  5 60  1  0  0  0  0
  6  8  1  0  0  0  0
  6 61  1  6  0  0  0
  7 31  2  0  0  0  0
  8  9  2  0  0  0  0
  8 62  1  0  0  0  0
  9 11  1  0  0  0  0
  9 63  1  0  0  0  0
 10 50  1  0  0  0  0
 10 64  1  0  0  0  0
 11 13  1  0  0  0  0
 11 65  1  0  0  0  0
 11 66  1  0  0  0  0
 12 51  1  0  0  0  0
 12 55  1  0  0  0  0
 13 15  1  0  0  0  0
 13 67  1  0  0  0  0
 13 68  1  0  0  0  0
 14 55  1  0  0  0  0
 14 69  1  0  0  0  0
 15 17  1  0  0  0  0
 15 70  1  0  0  0  0
 15 71  1  0  0  0  0
 16 52  1  0  0  0  0
 16 72  1  0  0  0  0
 17 19  1  0  0  0  0
 17 73  1  0  0  0  0
 17 74  1  0  0  0  0
 18 49  1  0  0  0  0
 18 53  1  0  0  0  0
 19 21  1  0  0  0  0
 19 75  1  0  0  0  0
 19 76  1  0  0  0  0
 20 54  1  0  0  0  0
 20 77  1  0  0  0  0
 21 22  1  0  0  0  0
 21 78  1  0  0  0  0
 21 79  1  0  0  0  0
 22 23  1  0  0  0  0
 22 80  1  0  0  0  0
 22 81  1  0  0  0  0
 23 25  1  0  0  0  0
 23 82  1  0  0  0  0
 23 83  1  0  0  0  0
 24 55  1  0  0  0  0
 25 27  1  0  0  0  0
 25 84  1  0  0  0  0
 25 85  1  0  0  0  0
 26 55  1  0  0  0  0
 26 86  1  0  0  0  0
 27 28  1  0  0  0  0
 27 87  1  0  0  0  0
 27 88  1  0  0  0  0
 28 29  1  0  0  0  0
 28 89  1  0  0  0  0
 28 90  1  0  0  0  0
 29 30  1  0  0  0  0
 29 91  1  0  0  0  0
 29 92  1  0  0  0  0
 30 93  1  0  0  0  0
 30 94  1  0  0  0  0
 30 95  1  0  0  0  0
 31 32  1  0  0  0  0
 32 33  1  0  0  0  0
 32 96  1  0  0  0  0
 32 97  1  0  0  0  0
 33 34  1  0  0  0  0
 33 98  1  0  0  0  0
 33 99  1  0  0  0  0
 34 35  1  0  0  0  0
 34100  1  0  0  0  0
 34101  1  0  0  0  0
 35 36  1  0  0  0  0
 35102  1  0  0  0  0
 35103  1  0  0  0  0
 36 37  1  0  0  0  0
 36104  1  0  0  0  0
 36105  1  0  0  0  0
 37 38  1  0  0  0  0
 37106  1  0  0  0  0
 37107  1  0  0  0  0
 38 39  1  0  0  0  0
 38108  1  0  0  0  0
 38109  1  0  0  0  0
 39 40  1  0  0  0  0
 39110  1  0  0  0  0
 39111  1  0  0  0  0
 40 41  1  0  0  0  0
 40112  1  0  0  0  0
 40113  1  0  0  0  0
 41 42  1  0  0  0  0
 41114  1  0  0  0  0
 41115  1  0  0  0  0
 42 43  1  0  0  0  0
 42116  1  0  0  0  0
 42117  1  0  0  0  0
 43 44  1  0  0  0  0
 43118  1  0  0  0  0
 43119  1  0  0  0  0
 44 45  1  0  0  0  0
 44120  1  0  0  0  0
 44121  1  0  0  0  0
 45 46  1  0  0  0  0
 45122  1  0  0  0  0
 45123  1  0  0  0  0
 46 47  1  0  0  0  0
 46124  1  0  0  0  0
 46125  1  0  0  0  0
 47 48  1  0  0  0  0
 47126  1  0  0  0  0
 47127  1  0  0  0  0
 48128  1  0  0  0  0
 48129  1  0  0  0  0
 48130  1  0  0  0  0
 49 50  1  0  0  0  0
 49131  1  6  0  0  0
 50 51  1  0  0  0  0
 50132  1  1  0  0  0
 51 52  1  0  0  0  0
 51133  1  6  0  0  0
 52 53  1  0  0  0  0
 52134  1  6  0  0  0
 53 54  1  0  0  0  0
 53135  1  6  0  0  0
 54136  1  0  0  0  0
 54137  1  0  0  0  0
M  CHG  1  24  -1
M  END
$$$$
/media/chris/experiments/cd1a-new-docking/inputs/ligands/1onq_ligand.pdb
 OpenBabel06222310383D

137137  0  0  1  0  0  0  0  0999 V2000
  -40.4920   60.2280   63.6270 N   0  0  0  0  0  0  0  0  0  0  0  0
  -38.5950   61.7730   64.2860 C   0  0  0  0  0  0  0  0  0  0  0  0
  -37.5441   62.0867   65.2349 O   0  0  0  0  0  0  0  0  0  0  0  0
  -39.4590   60.5300   64.5980 C   0  0  1  0  0  0  0  0  0  0  0  0
  -40.7577   59.2290   66.0180 O   0  0  0  0  0  0  0  0  0  0  0  0
  -40.2280   60.5370   65.9080 C   0  0  2  0  0  0  0  0  0  0  0  0
  -41.3058   59.2379   61.7548 O   0  0  0  0  0  0  0  0  0  0  0  0
  -41.3266   61.6007   65.8452 C   0  0  0  0  0  0  0  0  0  0  0  0
  -41.3921   62.6366   66.6990 C   0  0  0  0  0  0  0  0  0  0  0  0
  -35.0677   62.0871   63.8049 O   0  0  0  0  0  0  0  0  0  0  0  0
  -42.5217   63.6569   66.5713 C   0  0  0  0  0  0  0  0  0  0  0  0
  -34.0199   64.5267   62.4933 O   0  0  0  0  0  0  0  0  0  0  0  0
  -42.1870   64.8436   65.6560 C   0  0  0  0  0  0  0  0  0  0  0  0
  -33.7161   62.0480   61.7999 O   0  0  0  0  0  0  0  0  0  0  0  0
  -40.9647   65.6825   66.0724 C   0  0  0  0  0  0  0  0  0  0  0  0
  -36.4318   65.8017   62.4860 O   0  0  0  0  0  0  0  0  0  0  0  0
  -40.7408   66.8542   65.0863 C   0  0  0  0  0  0  0  0  0  0  0  0
  -37.4137   64.5009   65.0354 O   0  0  0  0  0  0  0  0  0  0  0  0
  -40.5021   66.4415   63.6117 C   0  0  0  0  0  0  0  0  0  0  0  0
  -36.4467   68.0573   64.5825 O   0  0  0  0  0  0  0  0  0  0  0  0
  -41.6761   65.6617   62.9742 C   0  0  0  0  0  0  0  0  0  0  0  0
  -41.4167   65.2425   61.5109 C   0  0  0  0  0  0  0  0  0  0  0  0
  -40.2054   64.3183   61.3385 C   0  0  0  0  0  0  0  0  0  0  0  0
  -32.0205   63.1272   63.1599 O   0  5  0  0  0  0  0  0  0  0  0  0
  -40.2716   62.9807   62.0727 C   0  0  0  0  0  0  0  0  0  0  0  0
  -32.1955   63.6382   60.7971 O   0  0  0  0  0  0  0  0  0  0  0  0
  -41.4506   62.0870   61.6401 C   0  0  0  0  0  0  0  0  0  0  0  0
  -42.8448   62.7012   61.8375 C   0  0  0  0  0  0  0  0  0  0  0  0
  -43.9418   61.7289   61.3944 C   0  0  0  0  0  0  0  0  0  0  0  0
  -43.8988   61.2774   59.9453 C   0  0  0  0  0  0  0  0  0  0  0  0
  -40.4039   59.4449   62.5432 C   0  0  0  0  0  0  0  0  0  0  0  0
  -39.0653   58.8037   62.3269 C   0  0  0  0  0  0  0  0  0  0  0  0
  -39.2993   57.2932   62.3513 C   0  0  0  0  0  0  0  0  0  0  0  0
  -37.9762   56.5572   62.1545 C   0  0  0  0  0  0  0  0  0  0  0  0
  -36.9144   56.8111   63.1969 C   0  0  0  0  0  0  0  0  0  0  0  0
  -37.4710   56.3563   64.5420 C   0  0  0  0  0  0  0  0  0  0  0  0
  -37.8197   54.8621   64.5648 C   0  0  0  0  0  0  0  0  0  0  0  0
  -38.4012   54.3689   65.9024 C   0  0  0  0  0  0  0  0  0  0  0  0
  -37.4416   54.5904   67.0923 C   0  0  0  0  0  0  0  0  0  0  0  0
  -38.0620   54.0671   68.3909 C   0  0  0  0  0  0  0  0  0  0  0  0
  -37.2030   54.2513   69.6360 C   0  0  0  0  0  0  0  0  0  0  0  0
  -36.9055   55.7161   69.9206 C   0  0  0  0  0  0  0  0  0  0  0  0
  -36.0326   55.9979   71.1457 C   0  0  0  0  0  0  0  0  0  0  0  0
  -35.8637   57.5059   71.2728 C   0  0  0  0  0  0  0  0  0  0  0  0
  -35.2277   58.2682   70.1197 C   0  0  0  0  0  0  0  0  0  0  0  0
  -35.1281   59.7679   70.4406 C   0  0  0  0  0  0  0  0  0  0  0  0
  -34.2720   60.1010   71.6764 C   0  0  0  0  0  0  0  0  0  0  0  0
  -32.8193   59.6496   71.5443 C   0  0  0  0  0  0  0  0  0  0  0  0
  -36.6675   63.2597   65.0462 C   0  0  2  0  0  0  0  0  0  0  0  0
  -35.8119   63.2657   63.7712 C   0  0  1  0  0  0  0  0  0  0  0  0
  -34.8316   64.4561   63.6875 C   0  0  2  0  0  0  0  0  0  0  0  0
  -35.6781   65.6990   63.6916 C   0  0  2  0  0  0  0  0  0  0  0  0
  -36.5935   65.6931   64.9025 C   0  0  1  0  0  0  0  0  0  0  0  0
  -37.3535   67.0038   64.7114 C   0  0  0  0  0  0  0  0  0  0  0  0
  -32.9699   63.3204   62.0304 S   0  0  0  0  0  0  0  0  0  0  0  0
  -41.3672   60.6509   63.7832 H   0  0  0  0  0  0  0  0  0  0  0  0
  -38.1357   61.6183   63.3320 H   0  0  0  0  0  0  0  0  0  0  0  0
  -39.2690   62.6030   64.3261 H   0  0  0  0  0  0  0  0  0  0  0  0
  -38.6677   59.8099   64.6092 H   0  0  0  0  0  0  0  0  0  0  0  0
  -40.0308   58.5878   66.0547 H   0  0  0  0  0  0  0  0  0  0  0  0
  -39.6247   60.7776   66.7583 H   0  0  0  0  0  0  0  0  0  0  0  0
  -42.0502   61.5188   65.1139 H   0  0  0  0  0  0  0  0  0  0  0  0
  -40.6808   62.7424   67.4391 H   0  0  0  0  0  0  0  0  0  0  0  0
  -35.6681   61.3270   63.8576 H   0  0  0  0  0  0  0  0  0  0  0  0
  -42.7452   64.0361   67.5466 H   0  0  0  0  0  0  0  0  0  0  0  0
  -43.3521   63.1475   66.1287 H   0  0  0  0  0  0  0  0  0  0  0  0
  -43.0382   65.4915   65.6328 H   0  0  0  0  0  0  0  0  0  0  0  0
  -41.9397   64.4189   64.7055 H   0  0  0  0  0  0  0  0  0  0  0  0
  -34.2271   61.8246   62.5935 H   0  0  0  0  0  0  0  0  0  0  0  0
  -40.0959   65.0579   66.0782 H   0  0  0  0  0  0  0  0  0  0  0  0
  -41.1407   66.0844   67.0484 H   0  0  0  0  0  0  0  0  0  0  0  0
  -35.8283   65.8037   61.7266 H   0  0  0  0  0  0  0  0  0  0  0  0
  -39.8864   67.4065   65.4175 H   0  0  0  0  0  0  0  0  0  0  0  0
  -41.6471   67.4229   65.0916 H   0  0  0  0  0  0  0  0  0  0  0  0
  -39.6289   65.8244   63.5730 H   0  0  0  0  0  0  0  0  0  0  0  0
  -40.3944   67.3472   63.0522 H   0  0  0  0  0  0  0  0  0  0  0  0
  -36.9318   68.8885   64.4613 H   0  0  0  0  0  0  0  0  0  0  0  0
  -42.5476   66.2820   62.9991 H   0  0  0  0  0  0  0  0  0  0  0  0
  -41.8005   64.7627   63.5410 H   0  0  0  0  0  0  0  0  0  0  0  0
  -41.2522   66.1264   60.9307 H   0  0  0  0  0  0  0  0  0  0  0  0
  -42.2764   64.6943   61.1863 H   0  0  0  0  0  0  0  0  0  0  0  0
  -39.3415   64.8422   61.6907 H   0  0  0  0  0  0  0  0  0  0  0  0
  -40.1762   64.0737   60.2973 H   0  0  0  0  0  0  0  0  0  0  0  0
  -40.3642   63.1762   63.1207 H   0  0  0  0  0  0  0  0  0  0  0  0
  -39.3748   62.4496   61.8309 H   0  0  0  0  0  0  0  0  0  0  0  0
  -32.8072   63.7658   60.0552 H   0  0  0  0  0  0  0  0  0  0  0  0
  -41.4048   61.1811   62.2077 H   0  0  0  0  0  0  0  0  0  0  0  0
  -41.3386   61.9377   60.5865 H   0  0  0  0  0  0  0  0  0  0  0  0
  -42.9171   63.5978   61.2579 H   0  0  0  0  0  0  0  0  0  0  0  0
  -42.9787   62.9146   62.8774 H   0  0  0  0  0  0  0  0  0  0  0  0
  -44.8854   62.2059   61.5589 H   0  0  0  0  0  0  0  0  0  0  0  0
  -43.7865   60.8424   61.9730 H   0  0  0  0  0  0  0  0  0  0  0  0
  -44.0484   62.1209   59.3043 H   0  0  0  0  0  0  0  0  0  0  0  0
  -44.6711   60.5571   59.7731 H   0  0  0  0  0  0  0  0  0  0  0  0
  -42.9466   60.8359   59.7374 H   0  0  0  0  0  0  0  0  0  0  0  0
  -38.3897   59.0859   63.1073 H   0  0  0  0  0  0  0  0  0  0  0  0
  -38.6329   59.1137   61.3985 H   0  0  0  0  0  0  0  0  0  0  0  0
  -39.9737   57.0263   61.5647 H   0  0  0  0  0  0  0  0  0  0  0  0
  -39.7176   57.0175   63.2968 H   0  0  0  0  0  0  0  0  0  0  0  0
  -37.5783   56.8479   61.2048 H   0  0  0  0  0  0  0  0  0  0  0  0
  -38.2118   55.5163   62.2315 H   0  0  0  0  0  0  0  0  0  0  0  0
  -36.6804   57.8546   63.2328 H   0  0  0  0  0  0  0  0  0  0  0  0
  -36.0191   56.2751   62.9599 H   0  0  0  0  0  0  0  0  0  0  0  0
  -38.3570   56.9177   64.7532 H   0  0  0  0  0  0  0  0  0  0  0  0
  -36.7122   56.5221   65.2781 H   0  0  0  0  0  0  0  0  0  0  0  0
  -36.9281   54.3065   64.3615 H   0  0  0  0  0  0  0  0  0  0  0  0
  -38.5793   54.7128   63.8261 H   0  0  0  0  0  0  0  0  0  0  0  0
  -38.6072   53.3222   65.8201 H   0  0  0  0  0  0  0  0  0  0  0  0
  -39.2884   54.9351   66.0954 H   0  0  0  0  0  0  0  0  0  0  0  0
  -37.2437   55.6370   67.1941 H   0  0  0  0  0  0  0  0  0  0  0  0
  -36.5326   54.0578   66.9056 H   0  0  0  0  0  0  0  0  0  0  0  0
  -38.2512   53.0209   68.2701 H   0  0  0  0  0  0  0  0  0  0  0  0
  -38.9487   54.6439   68.5519 H   0  0  0  0  0  0  0  0  0  0  0  0
  -36.2774   53.7332   69.4953 H   0  0  0  0  0  0  0  0  0  0  0  0
  -37.7471   53.8597   70.4700 H   0  0  0  0  0  0  0  0  0  0  0  0
  -37.8396   56.2184   70.0617 H   0  0  0  0  0  0  0  0  0  0  0  0
  -36.3433   56.0648   69.0796 H   0  0  0  0  0  0  0  0  0  0  0  0
  -35.0756   55.5353   71.0228 H   0  0  0  0  0  0  0  0  0  0  0  0
  -36.4932   55.6020   72.0266 H   0  0  0  0  0  0  0  0  0  0  0  0
  -35.2609   57.6837   72.1387 H   0  0  0  0  0  0  0  0  0  0  0  0
  -36.8662   57.8780   71.3095 H   0  0  0  0  0  0  0  0  0  0  0  0
  -35.8249   58.1370   69.2416 H   0  0  0  0  0  0  0  0  0  0  0  0
  -34.2406   57.8867   69.9616 H   0  0  0  0  0  0  0  0  0  0  0  0
  -36.1170   60.1400   70.6090 H   0  0  0  0  0  0  0  0  0  0  0  0
  -34.6452   60.2269   69.6033 H   0  0  0  0  0  0  0  0  0  0  0  0
  -34.7020   59.6167   72.5281 H   0  0  0  0  0  0  0  0  0  0  0  0
  -34.2648   61.1661   71.7792 H   0  0  0  0  0  0  0  0  0  0  0  0
  -32.7847   58.5854   71.4390 H   0  0  0  0  0  0  0  0  0  0  0  0
  -32.2748   59.9395   72.4186 H   0  0  0  0  0  0  0  0  0  0  0  0
  -32.3804   60.1078   70.6827 H   0  0  0  0  0  0  0  0  0  0  0  0
  -36.0127   63.1808   65.8888 H   0  0  0  0  0  0  0  0  0  0  0  0
  -36.4595   63.3487   62.9234 H   0  0  0  0  0  0  0  0  0  0  0  0
  -34.1533   64.3446   64.5075 H   0  0  0  0  0  0  0  0  0  0  0  0
  -35.0370   66.5538   63.7488 H   0  0  0  0  0  0  0  0  0  0  0  0
  -36.0767   65.6460   65.8383 H   0  0  0  0  0  0  0  0  0  0  0  0
  -37.9544   66.9413   63.8283 H   0  0  0  0  0  0  0  0  0  0  0  0
  -37.9810   67.1774   65.5606 H   0  0  0  0  0  0  0  0  0  0  0  0
  1  4  1  0  0  0  0
  1 31  1  0  0  0  0
  1 56  1  0  0  0  0
  2  3  1  0  0  0  0
  2  4  1  0  0  0  0
  2 57  1  0  0  0  0
  2 58  1  0  0  0  0
  3 49  1  0  0  0  0
  4  6  1  0  0  0  0
  4 59  1  1  0  0  0
  5  6  1  0  0  0  0
  5 60  1  0  0  0  0
  6  8  1  0  0  0  0
  6 61  1  1  0  0  0
  7 31  2  0  0  0  0
  8  9  2  0  0  0  0
  8 62  1  0  0  0  0
  9 11  1  0  0  0  0
  9 63  1  0  0  0  0
 10 50  1  0  0  0  0
 10 64  1  0  0  0  0
 11 13  1  0  0  0  0
 11 65  1  0  0  0  0
 11 66  1  0  0  0  0
 12 51  1  0  0  0  0
 12 55  1  0  0  0  0
 13 15  1  0  0  0  0
 13 67  1  0  0  0  0
 13 68  1  0  0  0  0
 14 55  1  0  0  0  0
 14 69  1  0  0  0  0
 15 17  1  0  0  0  0
 15 70  1  0  0  0  0
 15 71  1  0  0  0  0
 16 52  1  0  0  0  0
 16 72  1  0  0  0  0
 17 19  1  0  0  0  0
 17 73  1  0  0  0  0
 17 74  1  0  0  0  0
 18 49  1  0  0  0  0
 18 53  1  0  0  0  0
 19 21  1  0  0  0  0
 19 75  1  0  0  0  0
 19 76  1  0  0  0  0
 20 54  1  0  0  0  0
 20 77  1  0  0  0  0
 21 22  1  0  0  0  0
 21 78  1  0  0  0  0
 21 79  1  0  0  0  0
 22 23  1  0  0  0  0
 22 80  1  0  0  0  0
 22 81  1  0  0  0  0
 23 25  1  0  0  0  0
 23 82  1  0  0  0  0
 23 83  1  0  0  0  0
 24 55  1  0  0  0  0
 25 27  1  0  0  0  0
 25 84  1  0  0  0  0
 25 85  1  0  0  0  0
 26 55  1  0  0  0  0
 26 86  1  0  0  0  0
 27 28  1  0  0  0  0
 27 87  1  0  0  0  0
 27 88  1  0  0  0  0
 28 29  1  0  0  0  0
 28 89  1  0  0  0  0
 28 90  1  0  0  0  0
 29 30  1  0  0  0  0
 29 91  1  0  0  0  0
 29 92  1  0  0  0  0
 30 93  1  0  0  0  0
 30 94  1  0  0  0  0
 30 95  1  0  0  0  0
 31 32  1  0  0  0  0
 32 33  1  0  0  0  0
 32 96  1  0  0  0  0
 32 97  1  0  0  0  0
 33 34  1  0  0  0  0
 33 98  1  0  0  0  0
 33 99  1  0  0  0  0
 34 35  1  0  0  0  0
 34100  1  0  0  0  0
 34101  1  0  0  0  0
 35 36  1  0  0  0  0
 35102  1  0  0  0  0
 35103  1  0  0  0  0
 36 37  1  0  0  0  0
 36104  1  0  0  0  0
 36105  1  0  0  0  0
 37 38  1  0  0  0  0
 37106  1  0  0  0  0
 37107  1  0  0  0  0
 38 39  1  0  0  0  0
 38108  1  0  0  0  0
 38109  1  0  0  0  0
 39 40  1  0  0  0  0
 39110  1  0  0  0  0
 39111  1  0  0  0  0
 40 41  1  0  0  0  0
 40112  1  0  0  0  0
 40113  1  0  0  0  0
 41 42  1  0  0  0  0
 41114  1  0  0  0  0
 41115  1  0  0  0  0
 42 43  1  0  0  0  0
 42116  1  0  0  0  0
 42117  1  0  0  0  0
 43 44  1  0  0  0  0
 43118  1  0  0  0  0
 43119  1  0  0  0  0
 44 45  1  0  0  0  0
 44120  1  0  0  0  0
 44121  1  0  0  0  0
 45 46  1  0  0  0  0
 45122  1  0  0  0  0
 45123  1  0  0  0  0
 46 47  1  0  0  0  0
 46124  1  0  0  0  0
 46125  1  0  0  0  0
 47 48  1  0  0  0  0
 47126  1  0  0  0  0
 47127  1  0  0  0  0
 48128  1  0  0  0  0
 48129  1  0  0  0  0
 48130  1  0  0  0  0
 49 50  1  0  0  0  0
 49131  1  1  0  0  0
 50 51  1  0  0  0  0
 50132  1  6  0  0  0
 51 52  1  0  0  0  0
 51133  1  1  0  0  0
 52 53  1  0  0  0  0
 52134  1  1  0  0  0
 53 54  1  0  0  0  0
 53135  1  1  0  0  0
 54136  1  0  0  0  0
 54137  1  0  0  0  0
M  CHG  1  24  -1
M  END
$$$$
/media/chris/experiments/cd1a-new-docking/inputs/ligands/1onq_ligand.pdb
 OpenBabel06222310383D

137137  0  0  1  0  0  0  0  0999 V2000
  -40.4920   60.2280   63.6270 N   0  0  0  0  0  0  0  0  0  0  0  0
  -38.5950   61.7730   64.2860 C   0  0  0  0  0  0  0  0  0  0  0  0
  -37.8612   61.7550   63.0352 O   0  0  0  0  0  0  0  0  0  0  0  0
  -39.4590   60.5300   64.5980 C   0  0  1  0  0  0  0  0  0  0  0  0
  -39.2569   60.8461   66.8904 O   0  0  0  0  0  0  0  0  0  0  0  0
  -40.2280   60.5370   65.9080 C   0  0  2  0  0  0  0  0  0  0  0  0
  -39.5856   61.0253   61.7060 O   0  0  0  0  0  0  0  0  0  0  0  0
  -40.8583   59.1606   66.1332 C   0  0  0  0  0  0  0  0  0  0  0  0
  -42.0897   58.8399   65.7007 C   0  0  0  0  0  0  0  0  0  0  0  0
  -35.0763   61.8852   63.6713 O   0  0  0  0  0  0  0  0  0  0  0  0
  -42.6490   57.4435   65.9661 C   0  0  0  0  0  0  0  0  0  0  0  0
  -33.4668   59.4465   64.1535 O   0  0  0  0  0  0  0  0  0  0  0  0
  -41.8027   56.3106   65.3673 C   0  0  0  0  0  0  0  0  0  0  0  0
  -31.2016   58.4787   64.9591 O   0  0  0  0  0  0  0  0  0  0  0  0
  -42.3390   54.8854   65.5963 C   0  0  0  0  0  0  0  0  0  0  0  0
  -35.6387   57.8611   64.6143 O   0  0  0  0  0  0  0  0  0  0  0  0
  -41.3944   53.8350   64.9640 C   0  0  0  0  0  0  0  0  0  0  0  0
  -37.4637   59.3802   62.7389 O   0  0  0  0  0  0  0  0  0  0  0  0
  -41.8460   52.3607   65.1190 C   0  0  0  0  0  0  0  0  0  0  0  0
  -37.4860   56.6829   63.8849 O   0  0  0  0  0  0  0  0  0  0  0  0
  -40.8752   51.3318   64.4931 C   0  0  0  0  0  0  0  0  0  0  0  0
  -40.6555   51.5323   62.9780 C   0  0  0  0  0  0  0  0  0  0  0  0
  -39.7072   50.5040   62.3498 C   0  0  0  0  0  0  0  0  0  0  0  0
  -31.5793   58.8261   62.5872 O   0  5  0  0  0  0  0  0  0  0  0  0
  -38.2936   50.4546   62.9260 C   0  0  0  0  0  0  0  0  0  0  0  0
  -32.6385   56.9705   63.7315 O   0  0  0  0  0  0  0  0  0  0  0  0
  -37.3774   49.4168   62.2480 C   0  0  0  0  0  0  0  0  0  0  0  0
  -35.9529   49.3306   62.8166 C   0  0  0  0  0  0  0  0  0  0  0  0
  -35.2317   50.6764   62.6994 C   0  0  0  0  0  0  0  0  0  0  0  0
  -35.8621   51.8464   63.4336 C   0  0  0  0  0  0  0  0  0  0  0  0
  -40.4890   60.4819   62.3113 C   0  0  0  0  0  0  0  0  0  0  0  0
  -41.7153   60.0341   61.5727 C   0  0  0  0  0  0  0  0  0  0  0  0
  -42.2522   58.8152   62.3232 C   0  0  0  0  0  0  0  0  0  0  0  0
  -43.4997   58.2802   61.6242 C   0  0  0  0  0  0  0  0  0  0  0  0
  -44.1553   57.0803   62.2636 C   0  0  0  0  0  0  0  0  0  0  0  0
  -43.1249   55.9565   62.2990 C   0  0  0  0  0  0  0  0  0  0  0  0
  -42.6151   55.5752   60.9027 C   0  0  0  0  0  0  0  0  0  0  0  0
  -43.7155   55.1015   59.9356 C   0  0  0  0  0  0  0  0  0  0  0  0
  -43.1659   54.7097   58.5464 C   0  0  0  0  0  0  0  0  0  0  0  0
  -42.1655   53.5565   58.6671 C   0  0  0  0  0  0  0  0  0  0  0  0
  -41.5464   53.0995   57.3518 C   0  0  0  0  0  0  0  0  0  0  0  0
  -40.7650   54.2098   56.6649 C   0  0  0  0  0  0  0  0  0  0  0  0
  -39.5821   54.7821   57.4493 C   0  0  0  0  0  0  0  0  0  0  0  0
  -38.5899   53.6553   57.7034 C   0  0  0  0  0  0  0  0  0  0  0  0
  -37.3220   53.9628   58.4864 C   0  0  0  0  0  0  0  0  0  0  0  0
  -37.6567   54.4637   59.9003 C   0  0  0  0  0  0  0  0  0  0  0  0
  -38.4410   53.4592   60.7646 C   0  0  0  0  0  0  0  0  0  0  0  0
  -37.6911   52.1500   60.9995 C   0  0  0  0  0  0  0  0  0  0  0  0
  -36.8691   60.7008   62.7449 C   0  0  2  0  0  0  0  0  0  0  0  0
  -35.6676   60.6228   63.6978 C   0  0  1  0  0  0  0  0  0  0  0  0
  -34.6077   59.5817   63.2759 C   0  0  2  0  0  0  0  0  0  0  0  0
  -35.3019   58.2478   63.2843 C   0  0  2  0  0  0  0  0  0  0  0  0
  -36.5404   58.3078   62.4087 C   0  0  1  0  0  0  0  0  0  0  0  0
  -37.0870   56.8902   62.5633 C   0  0  0  0  0  0  0  0  0  0  0  0
  -32.2113   58.3924   63.8628 S   0  0  0  0  0  0  0  0  0  0  0  0
  -41.2958   59.7807   63.9778 H   0  0  0  0  0  0  0  0  0  0  0  0
  -39.2437   62.6238   64.2698 H   0  0  0  0  0  0  0  0  0  0  0  0
  -37.8479   61.7974   65.0516 H   0  0  0  0  0  0  0  0  0  0  0  0
  -38.6677   59.8099   64.6092 H   0  0  0  0  0  0  0  0  0  0  0  0
  -38.8837   61.7234   66.7113 H   0  0  0  0  0  0  0  0  0  0  0  0
  -41.0317   61.2430   65.9299 H   0  0  0  0  0  0  0  0  0  0  0  0
  -40.3128   58.4462   66.6402 H   0  0  0  0  0  0  0  0  0  0  0  0
  -42.6561   59.5355   65.1904 H   0  0  0  0  0  0  0  0  0  0  0  0
  -35.7286   62.5534   63.9341 H   0  0  0  0  0  0  0  0  0  0  0  0
  -43.6315   57.3885   65.5458 H   0  0  0  0  0  0  0  0  0  0  0  0
  -42.6481   57.3047   67.0271 H   0  0  0  0  0  0  0  0  0  0  0  0
  -40.8249   56.3674   65.7982 H   0  0  0  0  0  0  0  0  0  0  0  0
  -41.8189   56.4623   64.3082 H   0  0  0  0  0  0  0  0  0  0  0  0
  -30.9111   59.3987   65.0595 H   0  0  0  0  0  0  0  0  0  0  0  0
  -43.3079   54.7993   65.1506 H   0  0  0  0  0  0  0  0  0  0  0  0
  -42.3962   54.7055   66.6495 H   0  0  0  0  0  0  0  0  0  0  0  0
  -34.8342   57.8293   65.1553 H   0  0  0  0  0  0  0  0  0  0  0  0
  -40.4330   53.9363   65.4225 H   0  0  0  0  0  0  0  0  0  0  0  0
  -41.3909   54.0346   63.9128 H   0  0  0  0  0  0  0  0  0  0  0  0
  -42.8007   52.2508   64.6485 H   0  0  0  0  0  0  0  0  0  0  0  0
  -41.8756   52.1567   66.1689 H   0  0  0  0  0  0  0  0  0  0  0  0
  -37.8327   55.7820   63.9805 H   0  0  0  0  0  0  0  0  0  0  0  0
  -41.2739   50.3513   64.6503 H   0  0  0  0  0  0  0  0  0  0  0  0
  -39.9261   51.4659   64.9685 H   0  0  0  0  0  0  0  0  0  0  0  0
  -40.2457   52.5085   62.8226 H   0  0  0  0  0  0  0  0  0  0  0  0
  -41.6075   51.4084   62.5054 H   0  0  0  0  0  0  0  0  0  0  0  0
  -39.6274   50.7273   61.3064 H   0  0  0  0  0  0  0  0  0  0  0  0
  -40.1380   49.5479   62.5623 H   0  0  0  0  0  0  0  0  0  0  0  0
  -38.3624   50.2142   63.9664 H   0  0  0  0  0  0  0  0  0  0  0  0
  -37.8548   51.4151   62.7537 H   0  0  0  0  0  0  0  0  0  0  0  0
  -33.0518   56.6794   64.5593 H   0  0  0  0  0  0  0  0  0  0  0  0
  -37.3049   49.6673   61.2103 H   0  0  0  0  0  0  0  0  0  0  0  0
  -37.8266   48.4624   62.4274 H   0  0  0  0  0  0  0  0  0  0  0  0
  -35.4034   48.5909   62.2726 H   0  0  0  0  0  0  0  0  0  0  0  0
  -36.0148   49.0665   63.8516 H   0  0  0  0  0  0  0  0  0  0  0  0
  -35.1842   50.9310   61.6612 H   0  0  0  0  0  0  0  0  0  0  0  0
  -34.2789   50.5296   63.1637 H   0  0  0  0  0  0  0  0  0  0  0  0
  -36.8266   52.0506   63.0176 H   0  0  0  0  0  0  0  0  0  0  0  0
  -35.2390   52.7100   63.3301 H   0  0  0  0  0  0  0  0  0  0  0  0
  -35.9652   51.6031   64.4705 H   0  0  0  0  0  0  0  0  0  0  0  0
  -41.4647   59.7683   60.5670 H   0  0  0  0  0  0  0  0  0  0  0  0
  -42.4465   60.8140   61.5273 H   0  0  0  0  0  0  0  0  0  0  0  0
  -42.5007   59.0970   63.3250 H   0  0  0  0  0  0  0  0  0  0  0  0
  -41.5022   58.0522   62.3365 H   0  0  0  0  0  0  0  0  0  0  0  0
  -43.2246   58.0095   60.6262 H   0  0  0  0  0  0  0  0  0  0  0  0
  -44.2219   59.0676   61.6820 H   0  0  0  0  0  0  0  0  0  0  0  0
  -45.0049   56.7784   61.6874 H   0  0  0  0  0  0  0  0  0  0  0  0
  -44.4881   57.3164   63.2527 H   0  0  0  0  0  0  0  0  0  0  0  0
  -43.5739   55.0945   62.7465 H   0  0  0  0  0  0  0  0  0  0  0  0
  -42.2863   56.3050   62.8648 H   0  0  0  0  0  0  0  0  0  0  0  0
  -41.9009   54.7858   61.0105 H   0  0  0  0  0  0  0  0  0  0  0  0
  -42.1931   56.4616   60.4773 H   0  0  0  0  0  0  0  0  0  0  0  0
  -44.4248   55.8929   59.8114 H   0  0  0  0  0  0  0  0  0  0  0  0
  -44.1639   54.2285   60.3617 H   0  0  0  0  0  0  0  0  0  0  0  0
  -42.6764   55.5555   58.1107 H   0  0  0  0  0  0  0  0  0  0  0  0
  -43.9815   54.3950   57.9294 H   0  0  0  0  0  0  0  0  0  0  0  0
  -42.6730   52.7213   59.1028 H   0  0  0  0  0  0  0  0  0  0  0  0
  -41.3580   53.9232   59.2657 H   0  0  0  0  0  0  0  0  0  0  0  0
  -42.3285   52.7739   56.6981 H   0  0  0  0  0  0  0  0  0  0  0  0
  -40.8635   52.3052   57.5699 H   0  0  0  0  0  0  0  0  0  0  0  0
  -41.4439   55.0122   56.4646 H   0  0  0  0  0  0  0  0  0  0  0  0
  -40.3419   53.7650   55.7886 H   0  0  0  0  0  0  0  0  0  0  0  0
  -39.9243   55.1806   58.3815 H   0  0  0  0  0  0  0  0  0  0  0  0
  -39.1148   55.5675   56.8926 H   0  0  0  0  0  0  0  0  0  0  0  0
  -38.2873   53.2803   56.7481 H   0  0  0  0  0  0  0  0  0  0  0  0
  -39.1250   52.9739   58.3314 H   0  0  0  0  0  0  0  0  0  0  0  0
  -36.7661   54.7174   57.9701 H   0  0  0  0  0  0  0  0  0  0  0  0
  -36.7462   53.0648   58.5698 H   0  0  0  0  0  0  0  0  0  0  0  0
  -38.2421   55.3547   59.8093 H   0  0  0  0  0  0  0  0  0  0  0  0
  -36.7219   54.6259   60.3949 H   0  0  0  0  0  0  0  0  0  0  0  0
  -39.3654   53.2377   60.2734 H   0  0  0  0  0  0  0  0  0  0  0  0
  -38.5916   53.9142   61.7213 H   0  0  0  0  0  0  0  0  0  0  0  0
  -37.5209   51.6633   60.0619 H   0  0  0  0  0  0  0  0  0  0  0  0
  -38.2746   51.5132   61.6312 H   0  0  0  0  0  0  0  0  0  0  0  0
  -36.7525   52.3560   61.4700 H   0  0  0  0  0  0  0  0  0  0  0  0
  -36.5129   60.9958   61.7800 H   0  0  0  0  0  0  0  0  0  0  0  0
  -36.0149   60.3239   64.6648 H   0  0  0  0  0  0  0  0  0  0  0  0
  -34.2252   59.9085   62.3316 H   0  0  0  0  0  0  0  0  0  0  0  0
  -34.6362   57.5092   62.8890 H   0  0  0  0  0  0  0  0  0  0  0  0
  -36.3408   58.5664   61.3898 H   0  0  0  0  0  0  0  0  0  0  0  0
  -37.9268   56.7597   61.9133 H   0  0  0  0  0  0  0  0  0  0  0  0
  -36.3233   56.1855   62.3083 H   0  0  0  0  0  0  0  0  0  0  0  0
  1  4  1  0  0  0  0
  1 31  1  0  0  0  0
  1 56  1  0  0  0  0
  2  3  1  0  0  0  0
  2  4  1  0  0  0  0
  2 57  1  0  0  0  0
  2 58  1  0  0  0  0
  3 49  1  0  0  0  0
  4  6  1  0  0  0  0
  4 59  1  1  0  0  0
  5  6  1  0  0  0  0
  5 60  1  0  0  0  0
  6  8  1  0  0  0  0
  6 61  1  6  0  0  0
  7 31  2  0  0  0  0
  8  9  2  0  0  0  0
  8 62  1  0  0  0  0
  9 11  1  0  0  0  0
  9 63  1  0  0  0  0
 10 50  1  0  0  0  0
 10 64  1  0  0  0  0
 11 13  1  0  0  0  0
 11 65  1  0  0  0  0
 11 66  1  0  0  0  0
 12 51  1  0  0  0  0
 12 55  1  0  0  0  0
 13 15  1  0  0  0  0
 13 67  1  0  0  0  0
 13 68  1  0  0  0  0
 14 55  1  0  0  0  0
 14 69  1  0  0  0  0
 15 17  1  0  0  0  0
 15 70  1  0  0  0  0
 15 71  1  0  0  0  0
 16 52  1  0  0  0  0
 16 72  1  0  0  0  0
 17 19  1  0  0  0  0
 17 73  1  0  0  0  0
 17 74  1  0  0  0  0
 18 49  1  0  0  0  0
 18 53  1  0  0  0  0
 19 21  1  0  0  0  0
 19 75  1  0  0  0  0
 19 76  1  0  0  0  0
 20 54  1  0  0  0  0
 20 77  1  0  0  0  0
 21 22  1  0  0  0  0
 21 78  1  0  0  0  0
 21 79  1  0  0  0  0
 22 23  1  0  0  0  0
 22 80  1  0  0  0  0
 22 81  1  0  0  0  0
 23 25  1  0  0  0  0
 23 82  1  0  0  0  0
 23 83  1  0  0  0  0
 24 55  1  0  0  0  0
 25 27  1  0  0  0  0
 25 84  1  0  0  0  0
 25 85  1  0  0  0  0
 26 55  1  0  0  0  0
 26 86  1  0  0  0  0
 27 28  1  0  0  0  0
 27 87  1  0  0  0  0
 27 88  1  0  0  0  0
 28 29  1  0  0  0  0
 28 89  1  0  0  0  0
 28 90  1  0  0  0  0
 29 30  1  0  0  0  0
 29 91  1  0  0  0  0
 29 92  1  0  0  0  0
 30 93  1  0  0  0  0
 30 94  1  0  0  0  0
 30 95  1  0  0  0  0
 31 32  1  0  0  0  0
 32 33  1  0  0  0  0
 32 96  1  0  0  0  0
 32 97  1  0  0  0  0
 33 34  1  0  0  0  0
 33 98  1  0  0  0  0
 33 99  1  0  0  0  0
 34 35  1  0  0  0  0
 34100  1  0  0  0  0
 34101  1  0  0  0  0
 35 36  1  0  0  0  0
 35102  1  0  0  0  0
 35103  1  0  0  0  0
 36 37  1  0  0  0  0
 36104  1  0  0  0  0
 36105  1  0  0  0  0
 37 38  1  0  0  0  0
 37106  1  0  0  0  0
 37107  1  0  0  0  0
 38 39  1  0  0  0  0
 38108  1  0  0  0  0
 38109  1  0  0  0  0
 39 40  1  0  0  0  0
 39110  1  0  0  0  0
 39111  1  0  0  0  0
 40 41  1  0  0  0  0
 40112  1  0  0  0  0
 40113  1  0  0  0  0
 41 42  1  0  0  0  0
 41114  1  0  0  0  0
 41115  1  0  0  0  0
 42 43  1  0  0  0  0
 42116  1  0  0  0  0
 42117  1  0  0  0  0
 43 44  1  0  0  0  0
 43118  1  0  0  0  0
 43119  1  0  0  0  0
 44 45  1  0  0  0  0
 44120  1  0  0  0  0
 44121  1  0  0  0  0
 45 46  1  0  0  0  0
 45122  1  0  0  0  0
 45123  1  0  0  0  0
 46 47  1  0  0  0  0
 46124  1  0  0  0  0
 46125  1  0  0  0  0
 47 48  1  0  0  0  0
 47126  1  0  0  0  0
 47127  1  0  0  0  0
 48128  1  0  0  0  0
 48129  1  0  0  0  0
 48130  1  0  0  0  0
 49 50  1  0  0  0  0
 49131  1  6  0  0  0
 50 51  1  0  0  0  0
 50132  1  1  0  0  0
 51 52  1  0  0  0  0
 51133  1  6  0  0  0
 52 53  1  0  0  0  0
 52134  1  6  0  0  0
 53 54  1  0  0  0  0
 53135  1  6  0  0  0
 54136  1  0  0  0  0
 54137  1  0  0  0  0
M  CHG  1  24  -1
M  END
$$$$
/media/chris/experiments/cd1a-new-docking/inputs/ligands/1onq_ligand.pdb
 OpenBabel06222310383D

137137  0  0  1  0  0  0  0  0999 V2000
  -40.4920   60.2280   63.6270 N   0  0  0  0  0  0  0  0  0  0  0  0
  -38.5950   61.7730   64.2860 C   0  0  0  0  0  0  0  0  0  0  0  0
  -37.8612   61.7550   63.0352 O   0  0  0  0  0  0  0  0  0  0  0  0
  -39.4590   60.5300   64.5980 C   0  0  1  0  0  0  0  0  0  0  0  0
  -39.2569   60.8461   66.8904 O   0  0  0  0  0  0  0  0  0  0  0  0
  -40.2280   60.5370   65.9080 C   0  0  2  0  0  0  0  0  0  0  0  0
  -40.9980   62.2858   62.8166 O   0  0  0  0  0  0  0  0  0  0  0  0
  -40.8583   59.1606   66.1332 C   0  0  0  0  0  0  0  0  0  0  0  0
  -41.6129   58.8678   67.2060 C   0  0  0  0  0  0  0  0  0  0  0  0
  -36.4617   63.4735   64.8422 O   0  0  0  0  0  0  0  0  0  0  0  0
  -42.2065   57.4687   67.3592 C   0  0  0  0  0  0  0  0  0  0  0  0
  -33.9514   64.8423   64.0706 O   0  0  0  0  0  0  0  0  0  0  0  0
  -41.7514   56.7360   68.6297 C   0  0  0  0  0  0  0  0  0  0  0  0
  -32.3189   66.0743   62.4788 O   0  0  0  0  0  0  0  0  0  0  0  0
  -42.1162   57.4199   69.9603 C   0  0  0  0  0  0  0  0  0  0  0  0
  -33.4515   63.1747   61.9701 O   0  0  0  0  0  0  0  0  0  0  0  0
  -43.6510   57.5567   70.1049 C   0  0  0  0  0  0  0  0  0  0  0  0
  -36.3692   62.6641   61.3521 O   0  0  0  0  0  0  0  0  0  0  0  0
  -44.1341   58.2492   71.4043 C   0  0  0  0  0  0  0  0  0  0  0  0
  -33.8767   62.4184   59.8301 O   0  0  0  0  0  0  0  0  0  0  0  0
  -45.6721   58.3571   71.5305 C   0  0  0  0  0  0  0  0  0  0  0  0
  -46.3882   56.9892   71.5414 C   0  0  0  0  0  0  0  0  0  0  0  0
  -45.9717   56.0831   72.7062 C   0  0  0  0  0  0  0  0  0  0  0  0
  -31.9395   66.1488   64.8745 O   0  5  0  0  0  0  0  0  0  0  0  0
  -46.2431   56.6245   74.1082 C   0  0  0  0  0  0  0  0  0  0  0  0
  -33.7115   67.4691   63.8791 O   0  0  0  0  0  0  0  0  0  0  0  0
  -45.7901   55.6827   75.2413 C   0  0  0  0  0  0  0  0  0  0  0  0
  -46.0648   56.1915   76.6646 C   0  0  0  0  0  0  0  0  0  0  0  0
  -45.5627   55.1932   77.7118 C   0  0  0  0  0  0  0  0  0  0  0  0
  -46.1611   53.7988   77.6568 C   0  0  0  0  0  0  0  0  0  0  0  0
  -41.1606   61.0813   62.8393 C   0  0  0  0  0  0  0  0  0  0  0  0
  -42.1710   60.4499   61.9282 C   0  0  0  0  0  0  0  0  0  0  0  0
  -43.5248   61.0584   62.2944 C   0  0  0  0  0  0  0  0  0  0  0  0
  -43.8451   60.7741   63.7599 C   0  0  0  0  0  0  0  0  0  0  0  0
  -42.8730   61.3310   64.7715 C   0  0  0  0  0  0  0  0  0  0  0  0
  -43.3642   60.9221   66.1562 C   0  0  0  0  0  0  0  0  0  0  0  0
  -42.4640   61.4458   67.2833 C   0  0  0  0  0  0  0  0  0  0  0  0
  -42.9188   61.0384   68.6967 C   0  0  0  0  0  0  0  0  0  0  0  0
  -42.0012   61.5961   69.8068 C   0  0  0  0  0  0  0  0  0  0  0  0
  -41.9874   63.1271   69.7775 C   0  0  0  0  0  0  0  0  0  0  0  0
  -41.0966   63.7842   70.8248 C   0  0  0  0  0  0  0  0  0  0  0  0
  -39.6356   63.3882   70.6705 C   0  0  0  0  0  0  0  0  0  0  0  0
  -38.9762   63.7605   69.3406 C   0  0  0  0  0  0  0  0  0  0  0  0
  -39.0265   65.2751   69.1922 C   0  0  0  0  0  0  0  0  0  0  0  0
  -40.3835   65.9635   69.1953 C   0  0  0  0  0  0  0  0  0  0  0  0
  -40.2299   67.4824   69.0179 C   0  0  0  0  0  0  0  0  0  0  0  0
  -41.5567   68.2638   69.0264 C   0  0  0  0  0  0  0  0  0  0  0  0
  -42.5218   67.8270   67.9268 C   0  0  0  0  0  0  0  0  0  0  0  0
  -36.9920   62.8817   62.6414 C   0  0  2  0  0  0  0  0  0  0  0  0
  -35.8536   63.2281   63.6117 C   0  0  1  0  0  0  0  0  0  0  0  0
  -35.0540   64.4857   63.2063 C   0  0  2  0  0  0  0  0  0  0  0  0
  -34.4510   64.1853   61.8619 C   0  0  2  0  0  0  0  0  0  0  0  0
  -35.5409   63.7659   60.8921 C   0  0  1  0  0  0  0  0  0  0  0  0
  -34.7309   63.5033   59.6245 C   0  0  0  0  0  0  0  0  0  0  0  0
  -32.9820   66.1711   63.8128 S   0  0  0  0  0  0  0  0  0  0  0  0
  -40.7322   59.2777   63.5347 H   0  0  0  0  0  0  0  0  0  0  0  0
  -39.2437   62.6238   64.2698 H   0  0  0  0  0  0  0  0  0  0  0  0
  -37.8479   61.7974   65.0516 H   0  0  0  0  0  0  0  0  0  0  0  0
  -38.6677   59.8099   64.6092 H   0  0  0  0  0  0  0  0  0  0  0  0
  -38.8837   61.7234   66.7113 H   0  0  0  0  0  0  0  0  0  0  0  0
  -41.0317   61.2430   65.9299 H   0  0  0  0  0  0  0  0  0  0  0  0
  -40.6964   58.4237   65.4290 H   0  0  0  0  0  0  0  0  0  0  0  0
  -41.7909   59.5867   67.9248 H   0  0  0  0  0  0  0  0  0  0  0  0
  -36.9694   62.6928   65.1133 H   0  0  0  0  0  0  0  0  0  0  0  0
  -41.9160   56.8847   66.5110 H   0  0  0  0  0  0  0  0  0  0  0  0
  -43.2674   57.5874   67.4319 H   0  0  0  0  0  0  0  0  0  0  0  0
  -40.6865   56.6397   68.5904 H   0  0  0  0  0  0  0  0  0  0  0  0
  -42.2713   55.8008   68.6297 H   0  0  0  0  0  0  0  0  0  0  0  0
  -31.8380   65.2341   62.4170 H   0  0  0  0  0  0  0  0  0  0  0  0
  -41.6730   58.3934   69.9875 H   0  0  0  0  0  0  0  0  0  0  0  0
  -41.7477   56.8205   70.7665 H   0  0  0  0  0  0  0  0  0  0  0  0
  -32.7664   63.4629   62.5935 H   0  0  0  0  0  0  0  0  0  0  0  0
  -44.0747   56.5746   70.0764 H   0  0  0  0  0  0  0  0  0  0  0  0
  -43.9696   58.1843   69.2989 H   0  0  0  0  0  0  0  0  0  0  0  0
  -43.7251   59.2376   71.4300 H   0  0  0  0  0  0  0  0  0  0  0  0
  -43.8004   57.6415   72.2193 H   0  0  0  0  0  0  0  0  0  0  0  0
  -33.3634   62.2536   59.0236 H   0  0  0  0  0  0  0  0  0  0  0  0
  -46.0405   58.9253   70.7021 H   0  0  0  0  0  0  0  0  0  0  0  0
  -45.8780   58.8268   72.4695 H   0  0  0  0  0  0  0  0  0  0  0  0
  -46.1656   56.4843   70.6247 H   0  0  0  0  0  0  0  0  0  0  0  0
  -47.4337   57.1852   71.6569 H   0  0  0  0  0  0  0  0  0  0  0  0
  -44.9199   55.9053   72.6223 H   0  0  0  0  0  0  0  0  0  0  0  0
  -46.5741   55.2034   72.6160 H   0  0  0  0  0  0  0  0  0  0  0  0
  -47.2957   56.7889   74.2077 H   0  0  0  0  0  0  0  0  0  0  0  0
  -45.6746   57.5255   74.2081 H   0  0  0  0  0  0  0  0  0  0  0  0
  -34.3936   67.4922   63.1898 H   0  0  0  0  0  0  0  0  0  0  0  0
  -44.7358   55.5293   75.1425 H   0  0  0  0  0  0  0  0  0  0  0  0
  -46.3650   54.7872   75.1304 H   0  0  0  0  0  0  0  0  0  0  0  0
  -47.1185   56.3290   76.7896 H   0  0  0  0  0  0  0  0  0  0  0  0
  -45.5465   57.1176   76.8011 H   0  0  0  0  0  0  0  0  0  0  0  0
  -45.7751   55.6007   78.6781 H   0  0  0  0  0  0  0  0  0  0  0  0
  -44.5210   55.0638   77.5046 H   0  0  0  0  0  0  0  0  0  0  0  0
  -47.2109   53.8531   77.8566 H   0  0  0  0  0  0  0  0  0  0  0  0
  -45.6899   53.1793   78.3910 H   0  0  0  0  0  0  0  0  0  0  0  0
  -46.0042   53.3815   76.6841 H   0  0  0  0  0  0  0  0  0  0  0  0
  -42.1900   59.3902   62.0749 H   0  0  0  0  0  0  0  0  0  0  0  0
  -41.9312   60.6288   60.9008 H   0  0  0  0  0  0  0  0  0  0  0  0
  -44.2852   60.6294   61.6758 H   0  0  0  0  0  0  0  0  0  0  0  0
  -43.4873   62.1167   62.1417 H   0  0  0  0  0  0  0  0  0  0  0  0
  -43.8775   59.7122   63.8876 H   0  0  0  0  0  0  0  0  0  0  0  0
  -44.7747   61.2678   63.9522 H   0  0  0  0  0  0  0  0  0  0  0  0
  -42.8394   62.3978   64.6965 H   0  0  0  0  0  0  0  0  0  0  0  0
  -41.8882   60.9516   64.5949 H   0  0  0  0  0  0  0  0  0  0  0  0
  -43.3910   59.8537   66.2082 H   0  0  0  0  0  0  0  0  0  0  0  0
  -44.3353   61.3498   66.2936 H   0  0  0  0  0  0  0  0  0  0  0  0
  -42.4484   62.5144   67.2310 H   0  0  0  0  0  0  0  0  0  0  0  0
  -41.4988   61.0087   67.1335 H   0  0  0  0  0  0  0  0  0  0  0  0
  -42.9212   59.9703   68.7601 H   0  0  0  0  0  0  0  0  0  0  0  0
  -43.8951   61.4483   68.8507 H   0  0  0  0  0  0  0  0  0  0  0  0
  -41.0062   61.2327   69.6559 H   0  0  0  0  0  0  0  0  0  0  0  0
  -42.3738   61.2730   70.7564 H   0  0  0  0  0  0  0  0  0  0  0  0
  -42.9889   63.4709   69.9311 H   0  0  0  0  0  0  0  0  0  0  0  0
  -41.5838   63.4039   68.8260 H   0  0  0  0  0  0  0  0  0  0  0  0
  -41.4324   63.4885   71.7968 H   0  0  0  0  0  0  0  0  0  0  0  0
  -41.1641   64.8440   70.6938 H   0  0  0  0  0  0  0  0  0  0  0  0
  -39.5708   62.3260   70.7820 H   0  0  0  0  0  0  0  0  0  0  0  0
  -39.1066   63.9402   71.4191 H   0  0  0  0  0  0  0  0  0  0  0  0
  -39.5050   63.2996   68.5326 H   0  0  0  0  0  0  0  0  0  0  0  0
  -37.9617   63.4209   69.3232 H   0  0  0  0  0  0  0  0  0  0  0  0
  -38.5526   65.5168   68.2638 H   0  0  0  0  0  0  0  0  0  0  0  0
  -38.5476   65.6395   70.0769 H   0  0  0  0  0  0  0  0  0  0  0  0
  -40.8732   65.7676   70.1263 H   0  0  0  0  0  0  0  0  0  0  0  0
  -40.9619   65.5815   68.3802 H   0  0  0  0  0  0  0  0  0  0  0  0
  -39.7423   67.6620   68.0826 H   0  0  0  0  0  0  0  0  0  0  0  0
  -39.6659   67.8314   69.8576 H   0  0  0  0  0  0  0  0  0  0  0  0
  -41.3396   69.3032   68.8946 H   0  0  0  0  0  0  0  0  0  0  0  0
  -42.0342   68.0673   69.9636 H   0  0  0  0  0  0  0  0  0  0  0  0
  -42.0782   68.0084   66.9701 H   0  0  0  0  0  0  0  0  0  0  0  0
  -43.4319   68.3836   68.0092 H   0  0  0  0  0  0  0  0  0  0  0  0
  -42.7317   66.7829   68.0304 H   0  0  0  0  0  0  0  0  0  0  0  0
  -37.6838   63.6979   62.6313 H   0  0  0  0  0  0  0  0  0  0  0  0
  -35.1546   62.4180   63.6243 H   0  0  0  0  0  0  0  0  0  0  0  0
  -35.7427   65.3038   63.2423 H   0  0  0  0  0  0  0  0  0  0  0  0
  -33.9800   65.0706   61.4887 H   0  0  0  0  0  0  0  0  0  0  0  0
  -36.3046   64.5020   60.7512 H   0  0  0  0  0  0  0  0  0  0  0  0
  -35.3964   63.2841   58.8158 H   0  0  0  0  0  0  0  0  0  0  0  0
  -34.1517   64.3711   59.3871 H   0  0  0  0  0  0  0  0  0  0  0  0
  1  4  1  0  0  0  0
  1 31  1  0  0  0  0
  1 56  1  0  0  0  0
  2  3  1  0  0  0  0
  2  4  1  0  0  0  0
  2 57  1  0  0  0  0
  2 58  1  0  0  0  0
  3 49  1  0  0  0  0
  4  6  1  0  0  0  0
  4 59  1  1  0  0  0
  5  6  1  0  0  0  0
  5 60  1  0  0  0  0
  6  8  1  0  0  0  0
  6 61  1  6  0  0  0
  7 31  2  0  0  0  0
  8  9  2  0  0  0  0
  8 62  1  0  0  0  0
  9 11  1  0  0  0  0
  9 63  1  0  0  0  0
 10 50  1  0  0  0  0
 10 64  1  0  0  0  0
 11 13  1  0  0  0  0
 11 65  1  0  0  0  0
 11 66  1  0  0  0  0
 12 51  1  0  0  0  0
 12 55  1  0  0  0  0
 13 15  1  0  0  0  0
 13 67  1  0  0  0  0
 13 68  1  0  0  0  0
 14 55  1  0  0  0  0
 14 69  1  0  0  0  0
 15 17  1  0  0  0  0
 15 70  1  0  0  0  0
 15 71  1  0  0  0  0
 16 52  1  0  0  0  0
 16 72  1  0  0  0  0
 17 19  1  0  0  0  0
 17 73  1  0  0  0  0
 17 74  1  0  0  0  0
 18 49  1  0  0  0  0
 18 53  1  0  0  0  0
 19 21  1  0  0  0  0
 19 75  1  0  0  0  0
 19 76  1  0  0  0  0
 20 54  1  0  0  0  0
 20 77  1  0  0  0  0
 21 22  1  0  0  0  0
 21 78  1  0  0  0  0
 21 79  1  0  0  0  0
 22 23  1  0  0  0  0
 22 80  1  0  0  0  0
 22 81  1  0  0  0  0
 23 25  1  0  0  0  0
 23 82  1  0  0  0  0
 23 83  1  0  0  0  0
 24 55  1  0  0  0  0
 25 27  1  0  0  0  0
 25 84  1  0  0  0  0
 25 85  1  0  0  0  0
 26 55  1  0  0  0  0
 26 86  1  0  0  0  0
 27 28  1  0  0  0  0
 27 87  1  0  0  0  0
 27 88  1  0  0  0  0
 28 29  1  0  0  0  0
 28 89  1  0  0  0  0
 28 90  1  0  0  0  0
 29 30  1  0  0  0  0
 29 91  1  0  0  0  0
 29 92  1  0  0  0  0
 30 93  1  0  0  0  0
 30 94  1  0  0  0  0
 30 95  1  0  0  0  0
 31 32  1  0  0  0  0
 32 33  1  0  0  0  0
 32 96  1  0  0  0  0
 32 97  1  0  0  0  0
 33 34  1  0  0  0  0
 33 98  1  0  0  0  0
 33 99  1  0  0  0  0
 34 35  1  0  0  0  0
 34100  1  0  0  0  0
 34101  1  0  0  0  0
 35 36  1  0  0  0  0
 35102  1  0  0  0  0
 35103  1  0  0  0  0
 36 37  1  0  0  0  0
 36104  1  0  0  0  0
 36105  1  0  0  0  0
 37 38  1  0  0  0  0
 37106  1  0  0  0  0
 37107  1  0  0  0  0
 38 39  1  0  0  0  0
 38108  1  0  0  0  0
 38109  1  0  0  0  0
 39 40  1  0  0  0  0
 39110  1  0  0  0  0
 39111  1  0  0  0  0
 40 41  1  0  0  0  0
 40112  1  0  0  0  0
 40113  1  0  0  0  0
 41 42  1  0  0  0  0
 41114  1  0  0  0  0
 41115  1  0  0  0  0
 42 43  1  0  0  0  0
 42116  1  0  0  0  0
 42117  1  0  0  0  0
 43 44  1  0  0  0  0
 43118  1  0  0  0  0
 43119  1  0  0  0  0
 44 45  1  0  0  0  0
 44120  1  0  0  0  0
 44121  1  0  0  0  0
 45 46  1  0  0  0  0
 45122  1  0  0  0  0
 45123  1  0  0  0  0
 46 47  1  0  0  0  0
 46124  1  0  0  0  0
 46125  1  0  0  0  0
 47 48  1  0  0  0  0
 47126  1  0  0  0  0
 47127  1  0  0  0  0
 48128  1  0  0  0  0
 48129  1  0  0  0  0
 48130  1  0  0  0  0
 49 50  1  0  0  0  0
 49131  1  6  0  0  0
 50 51  1  0  0  0  0
 50132  1  1  0  0  0
 51 52  1  0  0  0  0
 51133  1  6  0  0  0
 52 53  1  0  0  0  0
 52134  1  6  0  0  0
 53 54  1  0  0  0  0
 53135  1  6  0  0  0
 54136  1  0  0  0  0
 54137  1  0  0  0  0
M  CHG  1  24  -1
M  END
$$$$
/media/chris/experiments/cd1a-new-docking/inputs/ligands/1onq_ligand.pdb
 OpenBabel06222310383D

137137  0  0  1  0  0  0  0  0999 V2000
  -40.4920   60.2280   63.6270 N   0  0  0  0  0  0  0  0  0  0  0  0
  -38.5950   61.7730   64.2860 C   0  0  0  0  0  0  0  0  0  0  0  0
  -37.5441   62.0867   65.2349 O   0  0  0  0  0  0  0  0  0  0  0  0
  -39.4590   60.5300   64.5980 C   0  0  1  0  0  0  0  0  0  0  0  0
  -41.2116   61.5409   65.7392 O   0  0  0  0  0  0  0  0  0  0  0  0
  -40.2280   60.5370   65.9080 C   0  0  2  0  0  0  0  0  0  0  0  0
  -40.9980   62.2858   62.8166 O   0  0  0  0  0  0  0  0  0  0  0  0
  -39.2689   60.8567   67.0571 C   0  0  0  0  0  0  0  0  0  0  0  0
  -39.0539   60.0187   68.0855 C   0  0  0  0  0  0  0  0  0  0  0  0
  -38.2938   64.5178   63.9293 O   0  0  0  0  0  0  0  0  0  0  0  0
  -38.0807   60.4114   69.1956 C   0  0  0  0  0  0  0  0  0  0  0  0
  -37.0206   67.1074   64.5954 O   0  0  0  0  0  0  0  0  0  0  0  0
  -37.9260   59.3472   70.2919 C   0  0  0  0  0  0  0  0  0  0  0  0
  -35.5491   68.3969   62.8957 O   0  0  0  0  0  0  0  0  0  0  0  0
  -37.3921   57.9808   69.8238 C   0  0  0  0  0  0  0  0  0  0  0  0
  -36.0508   66.2424   66.9942 O   0  0  0  0  0  0  0  0  0  0  0  0
  -35.9813   58.1254   69.2040 C   0  0  0  0  0  0  0  0  0  0  0  0
  -35.6795   63.3761   66.0987 O   0  0  0  0  0  0  0  0  0  0  0  0
  -35.3503   56.8102   68.6809 C   0  0  0  0  0  0  0  0  0  0  0  0
  -34.5625   65.0109   68.2596 O   0  0  0  0  0  0  0  0  0  0  0  0
  -33.9341   56.9812   68.0828 C   0  0  0  0  0  0  0  0  0  0  0  0
  -33.8817   57.9598   66.8895 C   0  0  0  0  0  0  0  0  0  0  0  0
  -34.3233   59.3857   67.2402 C   0  0  0  0  0  0  0  0  0  0  0  0
  -35.0811   68.5856   65.2694 O   0  5  0  0  0  0  0  0  0  0  0  0
  -33.4979   60.1008   68.3078 C   0  0  0  0  0  0  0  0  0  0  0  0
  -36.9848   69.7361   64.3068 O   0  0  0  0  0  0  0  0  0  0  0  0
  -33.9944   61.5231   68.6343 C   0  0  0  0  0  0  0  0  0  0  0  0
  -35.4286   61.6072   69.1783 C   0  0  0  0  0  0  0  0  0  0  0  0
  -35.8283   63.0598   69.4528 C   0  0  0  0  0  0  0  0  0  0  0  0
  -37.2224   63.2824   70.0116 C   0  0  0  0  0  0  0  0  0  0  0  0
  -41.1606   61.0813   62.8393 C   0  0  0  0  0  0  0  0  0  0  0  0
  -42.1710   60.4499   61.9282 C   0  0  0  0  0  0  0  0  0  0  0  0
  -42.7946   61.5868   61.1184 C   0  0  0  0  0  0  0  0  0  0  0  0
  -43.4490   62.5977   62.0570 C   0  0  0  0  0  0  0  0  0  0  0  0
  -44.1249   63.7750   61.3970 C   0  0  0  0  0  0  0  0  0  0  0  0
  -44.6912   64.6603   62.5022 C   0  0  0  0  0  0  0  0  0  0  0  0
  -45.7025   63.9247   63.3916 C   0  0  0  0  0  0  0  0  0  0  0  0
  -46.3095   64.7921   64.5095 C   0  0  0  0  0  0  0  0  0  0  0  0
  -47.3090   64.0165   65.3955 C   0  0  0  0  0  0  0  0  0  0  0  0
  -47.8935   64.9298   66.4769 C   0  0  0  0  0  0  0  0  0  0  0  0
  -46.8697   65.5491   67.4205 C   0  0  0  0  0  0  0  0  0  0  0  0
  -45.8640   66.4243   66.6873 C   0  0  0  0  0  0  0  0  0  0  0  0
  -44.7844   67.0766   67.5540 C   0  0  0  0  0  0  0  0  0  0  0  0
  -43.8935   67.9184   66.6505 C   0  0  0  0  0  0  0  0  0  0  0  0
  -43.1578   67.2333   65.5084 C   0  0  0  0  0  0  0  0  0  0  0  0
  -42.3004   68.2396   64.7245 C   0  0  0  0  0  0  0  0  0  0  0  0
  -41.2089   68.9349   65.5590 C   0  0  0  0  0  0  0  0  0  0  0  0
  -40.1934   67.9628   66.1551 C   0  0  0  0  0  0  0  0  0  0  0  0
  -36.6675   63.2597   65.0462 C   0  0  2  0  0  0  0  0  0  0  0  0
  -37.3701   64.6228   64.9685 C   0  0  1  0  0  0  0  0  0  0  0  0
  -36.4160   65.7955   64.6529 C   0  0  2  0  0  0  0  0  0  0  0  0
  -35.4210   65.8428   65.7794 C   0  0  2  0  0  0  0  0  0  0  0  0
  -34.7568   64.4868   65.9355 C   0  0  1  0  0  0  0  0  0  0  0  0
  -33.8159   64.7462   67.1101 C   0  0  0  0  0  0  0  0  0  0  0  0
  -36.1639   68.4933   64.2527 S   0  0  0  0  0  0  0  0  0  0  0  0
  -40.7322   59.2777   63.5347 H   0  0  0  0  0  0  0  0  0  0  0  0
  -38.1357   61.6183   63.3320 H   0  0  0  0  0  0  0  0  0  0  0  0
  -39.2690   62.6030   64.3261 H   0  0  0  0  0  0  0  0  0  0  0  0
  -38.6677   59.8099   64.6092 H   0  0  0  0  0  0  0  0  0  0  0  0
  -41.7964   61.3001   65.0038 H   0  0  0  0  0  0  0  0  0  0  0  0
  -40.6791   59.5963   66.1457 H   0  0  0  0  0  0  0  0  0  0  0  0
  -38.7644   61.7568   67.0415 H   0  0  0  0  0  0  0  0  0  0  0  0
  -39.5451   59.1120   68.1252 H   0  0  0  0  0  0  0  0  0  0  0  0
  -38.9026   63.7849   64.1107 H   0  0  0  0  0  0  0  0  0  0  0  0
  -38.4335   61.3139   69.6494 H   0  0  0  0  0  0  0  0  0  0  0  0
  -37.1201   60.5296   68.7394 H   0  0  0  0  0  0  0  0  0  0  0  0
  -38.8867   59.1904   70.7360 H   0  0  0  0  0  0  0  0  0  0  0  0
  -37.1926   59.7308   70.9700 H   0  0  0  0  0  0  0  0  0  0  0  0
  -35.0098   67.5924   62.8415 H   0  0  0  0  0  0  0  0  0  0  0  0
  -38.0578   57.5766   69.0901 H   0  0  0  0  0  0  0  0  0  0  0  0
  -37.3300   57.3286   70.6698 H   0  0  0  0  0  0  0  0  0  0  0  0
  -36.4678   67.1097   66.8721 H   0  0  0  0  0  0  0  0  0  0  0  0
  -35.3314   58.5293   69.9520 H   0  0  0  0  0  0  0  0  0  0  0  0
  -36.0968   58.7588   68.3494 H   0  0  0  0  0  0  0  0  0  0  0  0
  -35.9893   56.4101   67.9217 H   0  0  0  0  0  0  0  0  0  0  0  0
  -35.2516   56.1594   69.5245 H   0  0  0  0  0  0  0  0  0  0  0  0
  -33.9627   65.1753   69.0040 H   0  0  0  0  0  0  0  0  0  0  0  0
  -33.5891   56.0242   67.7510 H   0  0  0  0  0  0  0  0  0  0  0  0
  -33.3153   57.3919   68.8531 H   0  0  0  0  0  0  0  0  0  0  0  0
  -34.5240   57.5873   66.1191 H   0  0  0  0  0  0  0  0  0  0  0  0
  -32.8598   58.0173   66.5777 H   0  0  0  0  0  0  0  0  0  0  0  0
  -35.3349   59.3391   67.5857 H   0  0  0  0  0  0  0  0  0  0  0  0
  -34.1913   59.9561   66.3446 H   0  0  0  0  0  0  0  0  0  0  0  0
  -32.4872   60.1679   67.9630 H   0  0  0  0  0  0  0  0  0  0  0  0
  -33.5890   59.5267   69.2062 H   0  0  0  0  0  0  0  0  0  0  0  0
  -37.6937   69.6843   63.6467 H   0  0  0  0  0  0  0  0  0  0  0  0
  -33.9460   62.1045   67.7373 H   0  0  0  0  0  0  0  0  0  0  0  0
  -33.3593   61.8870   69.4148 H   0  0  0  0  0  0  0  0  0  0  0  0
  -35.4904   61.0493   70.0892 H   0  0  0  0  0  0  0  0  0  0  0  0
  -36.0950   61.2035   68.4449 H   0  0  0  0  0  0  0  0  0  0  0  0
  -35.7579   63.5967   68.5299 H   0  0  0  0  0  0  0  0  0  0  0  0
  -35.1589   63.3995   70.2153 H   0  0  0  0  0  0  0  0  0  0  0  0
  -37.9494   62.9617   69.2949 H   0  0  0  0  0  0  0  0  0  0  0  0
  -37.3614   64.3227   70.2196 H   0  0  0  0  0  0  0  0  0  0  0  0
  -37.3390   62.7195   70.9141 H   0  0  0  0  0  0  0  0  0  0  0  0
  -42.9228   59.9482   62.5008 H   0  0  0  0  0  0  0  0  0  0  0  0
  -41.7149   59.7236   61.2883 H   0  0  0  0  0  0  0  0  0  0  0  0
  -43.5344   61.1866   60.4570 H   0  0  0  0  0  0  0  0  0  0  0  0
  -42.0294   62.0764   60.5530 H   0  0  0  0  0  0  0  0  0  0  0  0
  -42.6900   62.9789   62.7077 H   0  0  0  0  0  0  0  0  0  0  0  0
  -44.2283   62.0624   62.5582 H   0  0  0  0  0  0  0  0  0  0  0  0
  -44.9155   63.4331   60.7623 H   0  0  0  0  0  0  0  0  0  0  0  0
  -43.4270   64.3217   60.7979 H   0  0  0  0  0  0  0  0  0  0  0  0
  -45.1784   65.4999   62.0521 H   0  0  0  0  0  0  0  0  0  0  0  0
  -43.8745   64.9628   63.1239 H   0  0  0  0  0  0  0  0  0  0  0  0
  -45.2069   63.0919   63.8450 H   0  0  0  0  0  0  0  0  0  0  0  0
  -46.5124   63.6307   62.7572 H   0  0  0  0  0  0  0  0  0  0  0  0
  -46.8203   65.6186   64.0613 H   0  0  0  0  0  0  0  0  0  0  0  0
  -45.5059   65.1145   65.1382 H   0  0  0  0  0  0  0  0  0  0  0  0
  -46.8028   63.1979   65.8627 H   0  0  0  0  0  0  0  0  0  0  0  0
  -48.1071   63.6564   64.7804 H   0  0  0  0  0  0  0  0  0  0  0  0
  -48.5788   64.3536   67.0628 H   0  0  0  0  0  0  0  0  0  0  0  0
  -48.3560   65.7453   65.9611 H   0  0  0  0  0  0  0  0  0  0  0  0
  -46.3424   64.7633   67.9199 H   0  0  0  0  0  0  0  0  0  0  0  0
  -47.3975   66.1684   68.1153 H   0  0  0  0  0  0  0  0  0  0  0  0
  -46.4063   67.2055   66.1967 H   0  0  0  0  0  0  0  0  0  0  0  0
  -45.3424   65.7686   66.0218 H   0  0  0  0  0  0  0  0  0  0  0  0
  -44.2006   66.3202   68.0355 H   0  0  0  0  0  0  0  0  0  0  0  0
  -45.2349   67.6910   68.3053 H   0  0  0  0  0  0  0  0  0  0  0  0
  -43.1529   68.3740   67.2742 H   0  0  0  0  0  0  0  0  0  0  0  0
  -44.5736   68.5834   66.1605 H   0  0  0  0  0  0  0  0  0  0  0  0
  -43.8730   66.7921   64.8460 H   0  0  0  0  0  0  0  0  0  0  0  0
  -42.5144   66.4830   65.9182 H   0  0  0  0  0  0  0  0  0  0  0  0
  -42.9484   68.9929   64.3276 H   0  0  0  0  0  0  0  0  0  0  0  0
  -41.7936   67.6812   63.9654 H   0  0  0  0  0  0  0  0  0  0  0  0
  -41.6802   69.4667   66.3590 H   0  0  0  0  0  0  0  0  0  0  0  0
  -40.6744   69.5875   64.9007 H   0  0  0  0  0  0  0  0  0  0  0  0
  -40.6919   67.2907   66.8220 H   0  0  0  0  0  0  0  0  0  0  0  0
  -39.4480   68.5109   66.6925 H   0  0  0  0  0  0  0  0  0  0  0  0
  -39.7287   67.4057   65.3686 H   0  0  0  0  0  0  0  0  0  0  0  0
  -36.2294   63.0536   64.0919 H   0  0  0  0  0  0  0  0  0  0  0  0
  -37.8075   64.8385   65.9209 H   0  0  0  0  0  0  0  0  0  0  0  0
  -36.0169   65.6040   63.6787 H   0  0  0  0  0  0  0  0  0  0  0  0
  -34.6703   66.5692   65.5474 H   0  0  0  0  0  0  0  0  0  0  0  0
  -34.2432   64.1505   65.0592 H   0  0  0  0  0  0  0  0  0  0  0  0
  -33.2045   63.8834   67.2736 H   0  0  0  0  0  0  0  0  0  0  0  0
  -33.1949   65.5888   66.8881 H   0  0  0  0  0  0  0  0  0  0  0  0
  1  4  1  0  0  0  0
  1 31  1  0  0  0  0
  1 56  1  0  0  0  0
  2  3  1  0  0  0  0
  2  4  1  0  0  0  0
  2 57  1  0  0  0  0
  2 58  1  0  0  0  0
  3 49  1  0  0  0  0
  4  6  1  0  0  0  0
  4 59  1  1  0  0  0
  5  6  1  0  0  0  0
  5 60  1  0  0  0  0
  6  8  1  0  0  0  0
  6 61  1  1  0  0  0
  7 31  2  0  0  0  0
  8  9  2  0  0  0  0
  8 62  1  0  0  0  0
  9 11  1  0  0  0  0
  9 63  1  0  0  0  0
 10 50  1  0  0  0  0
 10 64  1  0  0  0  0
 11 13  1  0  0  0  0
 11 65  1  0  0  0  0
 11 66  1  0  0  0  0
 12 51  1  0  0  0  0
 12 55  1  0  0  0  0
 13 15  1  0  0  0  0
 13 67  1  0  0  0  0
 13 68  1  0  0  0  0
 14 55  1  0  0  0  0
 14 69  1  0  0  0  0
 15 17  1  0  0  0  0
 15 70  1  0  0  0  0
 15 71  1  0  0  0  0
 16 52  1  0  0  0  0
 16 72  1  0  0  0  0
 17 19  1  0  0  0  0
 17 73  1  0  0  0  0
 17 74  1  0  0  0  0
 18 49  1  0  0  0  0
 18 53  1  0  0  0  0
 19 21  1  0  0  0  0
 19 75  1  0  0  0  0
 19 76  1  0  0  0  0
 20 54  1  0  0  0  0
 20 77  1  0  0  0  0
 21 22  1  0  0  0  0
 21 78  1  0  0  0  0
 21 79  1  0  0  0  0
 22 23  1  0  0  0  0
 22 80  1  0  0  0  0
 22 81  1  0  0  0  0
 23 25  1  0  0  0  0
 23 82  1  0  0  0  0
 23 83  1  0  0  0  0
 24 55  1  0  0  0  0
 25 27  1  0  0  0  0
 25 84  1  0  0  0  0
 25 85  1  0  0  0  0
 26 55  1  0  0  0  0
 26 86  1  0  0  0  0
 27 28  1  0  0  0  0
 27 87  1  0  0  0  0
 27 88  1  0  0  0  0
 28 29  1  0  0  0  0
 28 89  1  0  0  0  0
 28 90  1  0  0  0  0
 29 30  1  0  0  0  0
 29 91  1  0  0  0  0
 29 92  1  0  0  0  0
 30 93  1  0  0  0  0
 30 94  1  0  0  0  0
 30 95  1  0  0  0  0
 31 32  1  0  0  0  0
 32 33  1  0  0  0  0
 32 96  1  0  0  0  0
 32 97  1  0  0  0  0
 33 34  1  0  0  0  0
 33 98  1  0  0  0  0
 33 99  1  0  0  0  0
 34 35  1  0  0  0  0
 34100  1  0  0  0  0
 34101  1  0  0  0  0
 35 36  1  0  0  0  0
 35102  1  0  0  0  0
 35103  1  0  0  0  0
 36 37  1  0  0  0  0
 36104  1  0  0  0  0
 36105  1  0  0  0  0
 37 38  1  0  0  0  0
 37106  1  0  0  0  0
 37107  1  0  0  0  0
 38 39  1  0  0  0  0
 38108  1  0  0  0  0
 38109  1  0  0  0  0
 39 40  1  0  0  0  0
 39110  1  0  0  0  0
 39111  1  0  0  0  0
 40 41  1  0  0  0  0
 40112  1  0  0  0  0
 40113  1  0  0  0  0
 41 42  1  0  0  0  0
 41114  1  0  0  0  0
 41115  1  0  0  0  0
 42 43  1  0  0  0  0
 42116  1  0  0  0  0
 42117  1  0  0  0  0
 43 44  1  0  0  0  0
 43118  1  0  0  0  0
 43119  1  0  0  0  0
 44 45  1  0  0  0  0
 44120  1  0  0  0  0
 44121  1  0  0  0  0
 45 46  1  0  0  0  0
 45122  1  0  0  0  0
 45123  1  0  0  0  0
 46 47  1  0  0  0  0
 46124  1  0  0  0  0
 46125  1  0  0  0  0
 47 48  1  0  0  0  0
 47126  1  0  0  0  0
 47127  1  0  0  0  0
 48128  1  0  0  0  0
 48129  1  0  0  0  0
 48130  1  0  0  0  0
 49 50  1  0  0  0  0
 49131  1  6  0  0  0
 50 51  1  0  0  0  0
 50132  1  1  0  0  0
 51 52  1  0  0  0  0
 51133  1  6  0  0  0
 52 53  1  0  0  0  0
 52134  1  6  0  0  0
 53 54  1  0  0  0  0
 53135  1  6  0  0  0
 54136  1  0  0  0  0
 54137  1  0  0  0  0
M  CHG  1  24  -1
M  END
$$$$
/media/chris/experiments/cd1a-new-docking/inputs/ligands/1onq_ligand.pdb
 OpenBabel06222310383D

137137  0  0  1  0  0  0  0  0999 V2000
  -40.4920   60.2280   63.6270 N   0  0  0  0  0  0  0  0  0  0  0  0
  -38.5950   61.7730   64.2860 C   0  0  0  0  0  0  0  0  0  0  0  0
  -37.5441   62.0867   65.2349 O   0  0  0  0  0  0  0  0  0  0  0  0
  -39.4590   60.5300   64.5980 C   0  0  1  0  0  0  0  0  0  0  0  0
  -39.2569   60.8461   66.8904 O   0  0  0  0  0  0  0  0  0  0  0  0
  -40.2280   60.5370   65.9080 C   0  0  2  0  0  0  0  0  0  0  0  0
  -41.8540   58.8360   62.4630 O   0  0  0  0  0  0  0  0  0  0  0  0
  -40.8583   59.1606   66.1332 C   0  0  0  0  0  0  0  0  0  0  0  0
  -41.0723   58.6448   67.3556 C   0  0  0  0  0  0  0  0  0  0  0  0
  -34.8829   62.7993   66.0015 O   0  0  0  0  0  0  0  0  0  0  0  0
  -41.7060   57.2621   67.4971 C   0  0  0  0  0  0  0  0  0  0  0  0
  -33.1821   60.9883   67.6133 O   0  0  0  0  0  0  0  0  0  0  0  0
  -41.2535   56.4960   68.7487 C   0  0  0  0  0  0  0  0  0  0  0  0
  -31.5554   62.4291   66.2008 O   0  0  0  0  0  0  0  0  0  0  0  0
  -39.7404   56.2317   68.8576 C   0  0  0  0  0  0  0  0  0  0  0  0
  -35.2780   59.4877   68.5068 O   0  0  0  0  0  0  0  0  0  0  0  0
  -39.4124   55.4405   70.1467 C   0  0  0  0  0  0  0  0  0  0  0  0
  -36.9441   59.8674   66.0098 O   0  0  0  0  0  0  0  0  0  0  0  0
  -39.8290   56.1303   71.4704 C   0  0  0  0  0  0  0  0  0  0  0  0
  -35.2824   56.7380   67.1203 O   0  0  0  0  0  0  0  0  0  0  0  0
  -39.1763   57.5144   71.6962 C   0  0  0  0  0  0  0  0  0  0  0  0
  -39.5266   58.5479   70.6039 C   0  0  0  0  0  0  0  0  0  0  0  0
  -38.8679   59.9165   70.8144 C   0  0  0  0  0  0  0  0  0  0  0  0
  -31.3199   62.3771   68.6155 O   0  5  0  0  0  0  0  0  0  0  0  0
  -39.1923   60.9850   69.7725 C   0  0  0  0  0  0  0  0  0  0  0  0
  -33.1237   63.6323   67.5933 O   0  0  0  0  0  0  0  0  0  0  0  0
  -38.4916   62.3352   70.0216 C   0  0  0  0  0  0  0  0  0  0  0  0
  -38.8108   63.4370   68.9998 C   0  0  0  0  0  0  0  0  0  0  0  0
  -40.3075   63.7609   68.9900 C   0  0  0  0  0  0  0  0  0  0  0  0
  -40.7613   64.8264   68.0080 C   0  0  0  0  0  0  0  0  0  0  0  0
  -40.9921   59.0290   63.2983 C   0  0  0  0  0  0  0  0  0  0  0  0
  -40.4035   57.8670   64.0420 C   0  0  0  0  0  0  0  0  0  0  0  0
  -39.7820   56.9489   62.9893 C   0  0  0  0  0  0  0  0  0  0  0  0
  -39.1706   55.7225   63.6625 C   0  0  0  0  0  0  0  0  0  0  0  0
  -38.0891   55.9942   64.6799 C   0  0  0  0  0  0  0  0  0  0  0  0
  -37.6081   54.6483   65.2118 C   0  0  0  0  0  0  0  0  0  0  0  0
  -38.7315   53.8338   65.8672 C   0  0  0  0  0  0  0  0  0  0  0  0
  -38.2801   52.4745   66.4320 C   0  0  0  0  0  0  0  0  0  0  0  0
  -39.4378   51.6743   67.0683 C   0  0  0  0  0  0  0  0  0  0  0  0
  -40.5230   51.3763   66.0297 C   0  0  0  0  0  0  0  0  0  0  0  0
  -41.7251   50.6022   66.5569 C   0  0  0  0  0  0  0  0  0  0  0  0
  -42.7548   50.3257   65.4714 C   0  0  0  0  0  0  0  0  0  0  0  0
  -43.3487   51.5556   64.7808 C   0  0  0  0  0  0  0  0  0  0  0  0
  -44.0237   52.4164   65.8400 C   0  0  0  0  0  0  0  0  0  0  0  0
  -45.1519   51.8107   66.6618 C   0  0  0  0  0  0  0  0  0  0  0  0
  -46.3049   51.3488   65.7566 C   0  0  0  0  0  0  0  0  0  0  0  0
  -46.9334   52.4658   64.9031 C   0  0  0  0  0  0  0  0  0  0  0  0
  -45.9437   53.1216   63.9428 C   0  0  0  0  0  0  0  0  0  0  0  0
  -36.4503   61.1334   65.5086 C   0  0  2  0  0  0  0  0  0  0  0  0
  -35.3818   61.5997   66.5077 C   0  0  1  0  0  0  0  0  0  0  0  0
  -34.2046   60.6120   66.6632 C   0  0  2  0  0  0  0  0  0  0  0  0
  -34.7978   59.3281   67.1741 C   0  0  2  0  0  0  0  0  0  0  0  0
  -35.9120   58.8730   66.2490 C   0  0  1  0  0  0  0  0  0  0  0  0
  -36.3724   57.5915   66.9404 C   0  0  0  0  0  0  0  0  0  0  0  0
  -32.2989   62.3947   67.4949 S   0  0  0  0  0  0  0  0  0  0  0  0
  -40.8737   60.9998   63.1496 H   0  0  0  0  0  0  0  0  0  0  0  0
  -38.1357   61.6183   63.3320 H   0  0  0  0  0  0  0  0  0  0  0  0
  -39.2690   62.6030   64.3261 H   0  0  0  0  0  0  0  0  0  0  0  0
  -38.6677   59.8099   64.6092 H   0  0  0  0  0  0  0  0  0  0  0  0
  -38.8837   61.7234   66.7113 H   0  0  0  0  0  0  0  0  0  0  0  0
  -41.0317   61.2430   65.9299 H   0  0  0  0  0  0  0  0  0  0  0  0
  -41.1313   58.6032   65.3087 H   0  0  0  0  0  0  0  0  0  0  0  0
  -40.8092   59.1816   68.1968 H   0  0  0  0  0  0  0  0  0  0  0  0
  -35.6096   63.4332   65.8970 H   0  0  0  0  0  0  0  0  0  0  0  0
  -41.4471   56.6829   66.6355 H   0  0  0  0  0  0  0  0  0  0  0  0
  -42.7615   57.4118   67.5890 H   0  0  0  0  0  0  0  0  0  0  0  0
  -41.7539   55.5503   68.7544 H   0  0  0  0  0  0  0  0  0  0  0  0
  -41.5013   57.1223   69.5801 H   0  0  0  0  0  0  0  0  0  0  0  0
  -31.0119   61.6299   66.1188 H   0  0  0  0  0  0  0  0  0  0  0  0
  -39.2214   57.1671   68.8784 H   0  0  0  0  0  0  0  0  0  0  0  0
  -39.4314   55.6533   68.0121 H   0  0  0  0  0  0  0  0  0  0  0  0
  -34.5511   59.7783   69.0797 H   0  0  0  0  0  0  0  0  0  0  0  0
  -38.3549   55.2799   70.1761 H   0  0  0  0  0  0  0  0  0  0  0  0
  -39.9818   54.5362   70.0921 H   0  0  0  0  0  0  0  0  0  0  0  0
  -39.5520   55.4919   72.2832 H   0  0  0  0  0  0  0  0  0  0  0  0
  -40.8849   56.2936   71.4133 H   0  0  0  0  0  0  0  0  0  0  0  0
  -35.5774   55.9250   67.5595 H   0  0  0  0  0  0  0  0  0  0  0  0
  -38.1138   57.3885   71.7147 H   0  0  0  0  0  0  0  0  0  0  0  0
  -39.5569   57.8939   72.6214 H   0  0  0  0  0  0  0  0  0  0  0  0
  -40.5881   58.6821   70.5941 H   0  0  0  0  0  0  0  0  0  0  0  0
  -39.1547   58.1616   69.6779 H   0  0  0  0  0  0  0  0  0  0  0  0
  -37.8077   59.7724   70.8159 H   0  0  0  0  0  0  0  0  0  0  0  0
  -39.2619   60.2864   71.7379 H   0  0  0  0  0  0  0  0  0  0  0  0
  -40.2497   61.1488   69.7761 H   0  0  0  0  0  0  0  0  0  0  0  0
  -38.8357   60.6195   68.8322 H   0  0  0  0  0  0  0  0  0  0  0  0
  -33.7652   63.6520   66.8659 H   0  0  0  0  0  0  0  0  0  0  0  0
  -37.4349   62.1672   70.0077 H   0  0  0  0  0  0  0  0  0  0  0  0
  -38.8561   62.6893   70.9632 H   0  0  0  0  0  0  0  0  0  0  0  0
  -38.5184   63.1056   68.0253 H   0  0  0  0  0  0  0  0  0  0  0  0
  -38.2730   64.3208   69.2728 H   0  0  0  0  0  0  0  0  0  0  0  0
  -40.5762   64.0882   69.9726 H   0  0  0  0  0  0  0  0  0  0  0  0
  -40.7913   62.8598   68.6753 H   0  0  0  0  0  0  0  0  0  0  0  0
  -40.3118   65.7628   68.2648 H   0  0  0  0  0  0  0  0  0  0  0  0
  -41.8265   64.9189   68.0491 H   0  0  0  0  0  0  0  0  0  0  0  0
  -40.4654   64.5483   67.0180 H   0  0  0  0  0  0  0  0  0  0  0  0
  -41.1680   57.3474   64.5809 H   0  0  0  0  0  0  0  0  0  0  0  0
  -39.6724   58.1921   64.7524 H   0  0  0  0  0  0  0  0  0  0  0  0
  -39.0185   57.4809   62.4613 H   0  0  0  0  0  0  0  0  0  0  0  0
  -40.5422   56.6324   62.3061 H   0  0  0  0  0  0  0  0  0  0  0  0
  -38.7512   55.1041   62.8967 H   0  0  0  0  0  0  0  0  0  0  0  0
  -39.9698   55.2650   64.2074 H   0  0  0  0  0  0  0  0  0  0  0  0
  -38.4821   56.5840   65.4815 H   0  0  0  0  0  0  0  0  0  0  0  0
  -37.2797   56.5330   64.2333 H   0  0  0  0  0  0  0  0  0  0  0  0
  -36.8422   54.8215   65.9387 H   0  0  0  0  0  0  0  0  0  0  0  0
  -37.2435   54.0837   64.3792 H   0  0  0  0  0  0  0  0  0  0  0  0
  -39.4896   53.6569   65.1330 H   0  0  0  0  0  0  0  0  0  0  0  0
  -39.0839   54.4095   66.6974 H   0  0  0  0  0  0  0  0  0  0  0  0
  -37.5328   52.6460   67.1784 H   0  0  0  0  0  0  0  0  0  0  0  0
  -37.9011   51.8969   65.6149 H   0  0  0  0  0  0  0  0  0  0  0  0
  -39.8630   52.2459   67.8667 H   0  0  0  0  0  0  0  0  0  0  0  0
  -39.0528   50.7478   67.4399 H   0  0  0  0  0  0  0  0  0  0  0  0
  -40.0797   50.8043   65.2415 H   0  0  0  0  0  0  0  0  0  0  0  0
  -40.8970   52.3257   65.7077 H   0  0  0  0  0  0  0  0  0  0  0  0
  -42.1888   51.1738   67.3335 H   0  0  0  0  0  0  0  0  0  0  0  0
  -41.3732   49.6600   66.9221 H   0  0  0  0  0  0  0  0  0  0  0  0
  -43.5602   49.7791   65.9159 H   0  0  0  0  0  0  0  0  0  0  0  0
  -42.2314   49.7903   64.7070 H   0  0  0  0  0  0  0  0  0  0  0  0
  -44.0683   51.2489   64.0507 H   0  0  0  0  0  0  0  0  0  0  0  0
  -42.5780   52.1114   64.2888 H   0  0  0  0  0  0  0  0  0  0  0  0
  -44.4229   53.2748   65.3411 H   0  0  0  0  0  0  0  0  0  0  0  0
  -43.2507   52.6022   66.5560 H   0  0  0  0  0  0  0  0  0  0  0  0
  -45.5184   52.5451   67.3482 H   0  0  0  0  0  0  0  0  0  0  0  0
  -44.7715   50.9614   67.1899 H   0  0  0  0  0  0  0  0  0  0  0  0
  -47.0703   50.9315   66.3770 H   0  0  0  0  0  0  0  0  0  0  0  0
  -45.8887   50.6400   65.0715 H   0  0  0  0  0  0  0  0  0  0  0  0
  -47.3194   53.2179   65.5589 H   0  0  0  0  0  0  0  0  0  0  0  0
  -47.7013   52.0164   64.3087 H   0  0  0  0  0  0  0  0  0  0  0  0
  -45.1573   53.5840   64.5020 H   0  0  0  0  0  0  0  0  0  0  0  0
  -46.4500   53.8622   63.3597 H   0  0  0  0  0  0  0  0  0  0  0  0
  -45.5304   52.3780   63.2939 H   0  0  0  0  0  0  0  0  0  0  0  0
  -35.9925   61.0440   64.5457 H   0  0  0  0  0  0  0  0  0  0  0  0
  -35.8309   61.6875   67.4750 H   0  0  0  0  0  0  0  0  0  0  0  0
  -33.7257   60.5630   65.7076 H   0  0  0  0  0  0  0  0  0  0  0  0
  -34.0355   58.5774   67.1903 H   0  0  0  0  0  0  0  0  0  0  0  0
  -35.5992   58.7098   65.2389 H   0  0  0  0  0  0  0  0  0  0  0  0
  -36.7961   57.8333   67.8927 H   0  0  0  0  0  0  0  0  0  0  0  0
  -37.1076   57.1054   66.3338 H   0  0  0  0  0  0  0  0  0  0  0  0
  1  4  1  0  0  0  0
  1 31  1  0  0  0  0
  1 56  1  0  0  0  0
  2  3  1  0  0  0  0
  2  4  1  0  0  0  0
  2 57  1  0  0  0  0
  2 58  1  0  0  0  0
  3 49  1  0  0  0  0
  4  6  1  0  0  0  0
  4 59  1  1  0  0  0
  5  6  1  0  0  0  0
  5 60  1  0  0  0  0
  6  8  1  0  0  0  0
  6 61  1  6  0  0  0
  7 31  2  0  0  0  0
  8  9  2  0  0  0  0
  8 62  1  0  0  0  0
  9 11  1  0  0  0  0
  9 63  1  0  0  0  0
 10 50  1  0  0  0  0
 10 64  1  0  0  0  0
 11 13  1  0  0  0  0
 11 65  1  0  0  0  0
 11 66  1  0  0  0  0
 12 51  1  0  0  0  0
 12 55  1  0  0  0  0
 13 15  1  0  0  0  0
 13 67  1  0  0  0  0
 13 68  1  0  0  0  0
 14 55  1  0  0  0  0
 14 69  1  0  0  0  0
 15 17  1  0  0  0  0
 15 70  1  0  0  0  0
 15 71  1  0  0  0  0
 16 52  1  0  0  0  0
 16 72  1  0  0  0  0
 17 19  1  0  0  0  0
 17 73  1  0  0  0  0
 17 74  1  0  0  0  0
 18 49  1  0  0  0  0
 18 53  1  0  0  0  0
 19 21  1  0  0  0  0
 19 75  1  0  0  0  0
 19 76  1  0  0  0  0
 20 54  1  0  0  0  0
 20 77  1  0  0  0  0
 21 22  1  0  0  0  0
 21 78  1  0  0  0  0
 21 79  1  0  0  0  0
 22 23  1  0  0  0  0
 22 80  1  0  0  0  0
 22 81  1  0  0  0  0
 23 25  1  0  0  0  0
 23 82  1  0  0  0  0
 23 83  1  0  0  0  0
 24 55  1  0  0  0  0
 25 27  1  0  0  0  0
 25 84  1  0  0  0  0
 25 85  1  0  0  0  0
 26 55  1  0  0  0  0
 26 86  1  0  0  0  0
 27 28  1  0  0  0  0
 27 87  1  0  0  0  0
 27 88  1  0  0  0  0
 28 29  1  0  0  0  0
 28 89  1  0  0  0  0
 28 90  1  0  0  0  0
 29 30  1  0  0  0  0
 29 91  1  0  0  0  0
 29 92  1  0  0  0  0
 30 93  1  0  0  0  0
 30 94  1  0  0  0  0
 30 95  1  0  0  0  0
 31 32  1  0  0  0  0
 32 33  1  0  0  0  0
 32 96  1  0  0  0  0
 32 97  1  0  0  0  0
 33 34  1  0  0  0  0
 33 98  1  0  0  0  0
 33 99  1  0  0  0  0
 34 35  1  0  0  0  0
 34100  1  0  0  0  0
 34101  1  0  0  0  0
 35 36  1  0  0  0  0
 35102  1  0  0  0  0
 35103  1  0  0  0  0
 36 37  1  0  0  0  0
 36104  1  0  0  0  0
 36105  1  0  0  0  0
 37 38  1  0  0  0  0
 37106  1  0  0  0  0
 37107  1  0  0  0  0
 38 39  1  0  0  0  0
 38108  1  0  0  0  0
 38109  1  0  0  0  0
 39 40  1  0  0  0  0
 39110  1  0  0  0  0
 39111  1  0  0  0  0
 40 41  1  0  0  0  0
 40112  1  0  0  0  0
 40113  1  0  0  0  0
 41 42  1  0  0  0  0
 41114  1  0  0  0  0
 41115  1  0  0  0  0
 42 43  1  0  0  0  0
 42116  1  0  0  0  0
 42117  1  0  0  0  0
 43 44  1  0  0  0  0
 43118  1  0  0  0  0
 43119  1  0  0  0  0
 44 45  1  0  0  0  0
 44120  1  0  0  0  0
 44121  1  0  0  0  0
 45 46  1  0  0  0  0
 45122  1  0  0  0  0
 45123  1  0  0  0  0
 46 47  1  0  0  0  0
 46124  1  0  0  0  0
 46125  1  0  0  0  0
 47 48  1  0  0  0  0
 47126  1  0  0  0  0
 47127  1  0  0  0  0
 48128  1  0  0  0  0
 48129  1  0  0  0  0
 48130  1  0  0  0  0
 49 50  1  0  0  0  0
 49131  1  6  0  0  0
 50 51  1  0  0  0  0
 50132  1  1  0  0  0
 51 52  1  0  0  0  0
 51133  1  6  0  0  0
 52 53  1  0  0  0  0
 52134  1  1  0  0  0
 53 54  1  0  0  0  0
 53135  1  6  0  0  0
 54136  1  0  0  0  0
 54137  1  0  0  0  0
M  CHG  1  24  -1
M  END
$$$$
/media/chris/experiments/cd1a-new-docking/inputs/ligands/1onq_ligand.pdb
 OpenBabel06222310383D

137137  0  0  1  0  0  0  0  0999 V2000
  -40.4920   60.2280   63.6270 N   0  0  0  0  0  0  0  0  0  0  0  0
  -38.5950   61.7730   64.2860 C   0  0  0  0  0  0  0  0  0  0  0  0
  -37.5441   62.0867   65.2349 O   0  0  0  0  0  0  0  0  0  0  0  0
  -39.4590   60.5300   64.5980 C   0  0  1  0  0  0  0  0  0  0  0  0
  -40.7577   59.2290   66.0180 O   0  0  0  0  0  0  0  0  0  0  0  0
  -40.2280   60.5370   65.9080 C   0  0  2  0  0  0  0  0  0  0  0  0
  -40.2107   61.8855   62.1035 O   0  0  0  0  0  0  0  0  0  0  0  0
  -41.3266   61.6007   65.8452 C   0  0  0  0  0  0  0  0  0  0  0  0
  -42.6327   61.3127   65.9778 C   0  0  0  0  0  0  0  0  0  0  0  0
  -35.0677   62.0871   63.8049 O   0  0  0  0  0  0  0  0  0  0  0  0
  -43.6696   62.4318   65.9021 C   0  0  0  0  0  0  0  0  0  0  0  0
  -34.0199   64.5267   62.4933 O   0  0  0  0  0  0  0  0  0  0  0  0
  -44.5182   62.5800   67.1733 C   0  0  0  0  0  0  0  0  0  0  0  0
  -31.8452   65.6919   63.2869 O   0  0  0  0  0  0  0  0  0  0  0  0
  -43.7392   62.9094   68.4602 C   0  0  0  0  0  0  0  0  0  0  0  0
  -36.4318   65.8017   62.4860 O   0  0  0  0  0  0  0  0  0  0  0  0
  -44.6978   63.0157   69.6706 C   0  0  0  0  0  0  0  0  0  0  0  0
  -37.4137   64.5009   65.0354 O   0  0  0  0  0  0  0  0  0  0  0  0
  -45.8047   64.0931   69.5454 C   0  0  0  0  0  0  0  0  0  0  0  0
  -36.4467   68.0573   64.5825 O   0  0  0  0  0  0  0  0  0  0  0  0
  -46.7646   63.8793   68.3514 C   0  0  0  0  0  0  0  0  0  0  0  0
  -47.8511   64.9696   68.2295 C   0  0  0  0  0  0  0  0  0  0  0  0
  -48.7526   65.0842   69.4646 C   0  0  0  0  0  0  0  0  0  0  0  0
  -33.6225   67.0179   62.3011 O   0  5  0  0  0  0  0  0  0  0  0  0
  -49.8574   66.1362   69.3941 C   0  0  0  0  0  0  0  0  0  0  0  0
  -32.2187   65.6260   60.8989 O   0  0  0  0  0  0  0  0  0  0  0  0
  -49.3412   67.5723   69.1771 C   0  0  0  0  0  0  0  0  0  0  0  0
  -48.3841   68.0946   70.2593 C   0  0  0  0  0  0  0  0  0  0  0  0
  -49.0540   68.0863   71.6364 C   0  0  0  0  0  0  0  0  0  0  0  0
  -48.2182   68.5965   72.7969 C   0  0  0  0  0  0  0  0  0  0  0  0
  -40.7863   60.8910   62.5003 C   0  0  0  0  0  0  0  0  0  0  0  0
  -41.9161   60.3159   61.6986 C   0  0  0  0  0  0  0  0  0  0  0  0
  -42.9841   61.4063   61.6109 C   0  0  0  0  0  0  0  0  0  0  0  0
  -44.1866   60.8961   60.8206 C   0  0  0  0  0  0  0  0  0  0  0  0
  -45.3218   61.8736   60.6353 C   0  0  0  0  0  0  0  0  0  0  0  0
  -45.8142   62.2760   62.0215 C   0  0  0  0  0  0  0  0  0  0  0  0
  -46.3021   61.0788   62.8482 C   0  0  0  0  0  0  0  0  0  0  0  0
  -46.8234   61.4482   64.2491 C   0  0  0  0  0  0  0  0  0  0  0  0
  -48.0322   62.4087   64.2058 C   0  0  0  0  0  0  0  0  0  0  0  0
  -48.4973   62.7556   65.6230 C   0  0  0  0  0  0  0  0  0  0  0  0
  -47.4568   63.4532   66.4906 C   0  0  0  0  0  0  0  0  0  0  0  0
  -47.0114   64.7833   65.9010 C   0  0  0  0  0  0  0  0  0  0  0  0
  -45.9527   65.5495   66.6973 C   0  0  0  0  0  0  0  0  0  0  0  0
  -45.6536   66.8496   65.9630 C   0  0  0  0  0  0  0  0  0  0  0  0
  -45.1341   66.7775   64.5347 C   0  0  0  0  0  0  0  0  0  0  0  0
  -44.8762   68.1841   63.9718 C   0  0  0  0  0  0  0  0  0  0  0  0
  -44.3630   68.2068   62.5202 C   0  0  0  0  0  0  0  0  0  0  0  0
  -44.0998   69.6161   61.9946 C   0  0  0  0  0  0  0  0  0  0  0  0
  -36.6675   63.2597   65.0462 C   0  0  2  0  0  0  0  0  0  0  0  0
  -35.8119   63.2657   63.7712 C   0  0  1  0  0  0  0  0  0  0  0  0
  -34.8316   64.4561   63.6875 C   0  0  2  0  0  0  0  0  0  0  0  0
  -35.6781   65.6990   63.6916 C   0  0  2  0  0  0  0  0  0  0  0  0
  -36.5935   65.6931   64.9025 C   0  0  1  0  0  0  0  0  0  0  0  0
  -37.3535   67.0038   64.7114 C   0  0  0  0  0  0  0  0  0  0  0  0
  -32.8935   65.7229   62.2244 S   0  0  0  0  0  0  0  0  0  0  0  0
  -41.0464   59.4375   63.8192 H   0  0  0  0  0  0  0  0  0  0  0  0
  -38.1357   61.6183   63.3320 H   0  0  0  0  0  0  0  0  0  0  0  0
  -39.2690   62.6030   64.3261 H   0  0  0  0  0  0  0  0  0  0  0  0
  -38.6677   59.8099   64.6092 H   0  0  0  0  0  0  0  0  0  0  0  0
  -40.0308   58.5878   66.0547 H   0  0  0  0  0  0  0  0  0  0  0  0
  -39.6247   60.7776   66.7583 H   0  0  0  0  0  0  0  0  0  0  0  0
  -41.0520   62.5840   65.6941 H   0  0  0  0  0  0  0  0  0  0  0  0
  -42.9343   60.3376   66.1304 H   0  0  0  0  0  0  0  0  0  0  0  0
  -35.6681   61.3270   63.8576 H   0  0  0  0  0  0  0  0  0  0  0  0
  -44.3250   62.2290   65.0811 H   0  0  0  0  0  0  0  0  0  0  0  0
  -43.1300   63.3477   65.7801 H   0  0  0  0  0  0  0  0  0  0  0  0
  -45.0387   61.6585   67.3307 H   0  0  0  0  0  0  0  0  0  0  0  0
  -45.1618   63.4169   66.9991 H   0  0  0  0  0  0  0  0  0  0  0  0
  -32.2663   65.7541   64.1585 H   0  0  0  0  0  0  0  0  0  0  0  0
  -43.2298   63.8417   68.3330 H   0  0  0  0  0  0  0  0  0  0  0  0
  -43.0369   62.1239   68.6466 H   0  0  0  0  0  0  0  0  0  0  0  0
  -35.8283   65.8037   61.7266 H   0  0  0  0  0  0  0  0  0  0  0  0
  -44.1124   63.2422   70.5371 H   0  0  0  0  0  0  0  0  0  0  0  0
  -45.2051   62.0755   69.7300 H   0  0  0  0  0  0  0  0  0  0  0  0
  -45.3334   65.0468   69.4306 H   0  0  0  0  0  0  0  0  0  0  0  0
  -46.3986   64.0287   70.4331 H   0  0  0  0  0  0  0  0  0  0  0  0
  -36.9318   68.8885   64.4613 H   0  0  0  0  0  0  0  0  0  0  0  0
  -47.2477   62.9321   68.4710 H   0  0  0  0  0  0  0  0  0  0  0  0
  -46.1731   63.9245   67.4609 H   0  0  0  0  0  0  0  0  0  0  0  0
  -48.4650   64.7413   67.3835 H   0  0  0  0  0  0  0  0  0  0  0  0
  -47.3434   65.9058   68.1257 H   0  0  0  0  0  0  0  0  0  0  0  0
  -48.1305   65.3190   70.3029 H   0  0  0  0  0  0  0  0  0  0  0  0
  -49.2559   64.1431   69.5416 H   0  0  0  0  0  0  0  0  0  0  0  0
  -50.4057   66.1107   70.3126 H   0  0  0  0  0  0  0  0  0  0  0  0
  -50.4633   65.8931   68.5463 H   0  0  0  0  0  0  0  0  0  0  0  0
  -31.7406   64.7841   60.8403 H   0  0  0  0  0  0  0  0  0  0  0  0
  -50.1875   68.2261   69.1404 H   0  0  0  0  0  0  0  0  0  0  0  0
  -48.7775   67.5507   68.2679 H   0  0  0  0  0  0  0  0  0  0  0  0
  -48.0952   69.0959   70.0170 H   0  0  0  0  0  0  0  0  0  0  0  0
  -47.5273   67.4546   70.2937 H   0  0  0  0  0  0  0  0  0  0  0  0
  -49.3344   67.0774   71.8559 H   0  0  0  0  0  0  0  0  0  0  0  0
  -49.8755   68.7673   71.5568 H   0  0  0  0  0  0  0  0  0  0  0  0
  -47.3715   67.9570   72.9348 H   0  0  0  0  0  0  0  0  0  0  0  0
  -48.8105   68.6013   73.6880 H   0  0  0  0  0  0  0  0  0  0  0  0
  -47.8837   69.5907   72.5856 H   0  0  0  0  0  0  0  0  0  0  0  0
  -42.3116   59.4493   62.1859 H   0  0  0  0  0  0  0  0  0  0  0  0
  -41.5873   60.0167   60.7254 H   0  0  0  0  0  0  0  0  0  0  0  0
  -42.5751   62.2643   61.1196 H   0  0  0  0  0  0  0  0  0  0  0  0
  -43.2991   61.6700   62.5989 H   0  0  0  0  0  0  0  0  0  0  0  0
  -44.5733   60.0386   61.3306 H   0  0  0  0  0  0  0  0  0  0  0  0
  -43.8188   60.6925   59.8366 H   0  0  0  0  0  0  0  0  0  0  0  0
  -46.1154   61.4114   60.0862 H   0  0  0  0  0  0  0  0  0  0  0  0
  -44.9927   62.7328   60.0892 H   0  0  0  0  0  0  0  0  0  0  0  0
  -46.6233   62.9673   61.9099 H   0  0  0  0  0  0  0  0  0  0  0  0
  -44.9886   62.7135   62.5430 H   0  0  0  0  0  0  0  0  0  0  0  0
  -45.4864   60.3960   62.9633 H   0  0  0  0  0  0  0  0  0  0  0  0
  -47.1272   60.6539   62.3158 H   0  0  0  0  0  0  0  0  0  0  0  0
  -46.0325   61.9190   64.7946 H   0  0  0  0  0  0  0  0  0  0  0  0
  -47.1482   60.5439   64.7199 H   0  0  0  0  0  0  0  0  0  0  0  0
  -48.8354   61.9393   63.6773 H   0  0  0  0  0  0  0  0  0  0  0  0
  -47.7385   63.3099   63.7093 H   0  0  0  0  0  0  0  0  0  0  0  0
  -48.7805   61.8464   66.1110 H   0  0  0  0  0  0  0  0  0  0  0  0
  -49.3054   63.4478   65.5110 H   0  0  0  0  0  0  0  0  0  0  0  0
  -46.6030   62.8151   66.5842 H   0  0  0  0  0  0  0  0  0  0  0  0
  -47.9034   63.6504   67.4428 H   0  0  0  0  0  0  0  0  0  0  0  0
  -47.8748   65.4096   65.8171 H   0  0  0  0  0  0  0  0  0  0  0  0
  -46.5512   64.5441   64.9651 H   0  0  0  0  0  0  0  0  0  0  0  0
  -45.0612   64.9628   66.7728 H   0  0  0  0  0  0  0  0  0  0  0  0
  -46.3105   65.7564   67.6843 H   0  0  0  0  0  0  0  0  0  0  0  0
  -44.9209   67.3754   66.5388 H   0  0  0  0  0  0  0  0  0  0  0  0
  -46.6094   67.3214   65.8690 H   0  0  0  0  0  0  0  0  0  0  0  0
  -45.8595   66.2832   63.9229 H   0  0  0  0  0  0  0  0  0  0  0  0
  -44.2117   66.2352   64.5340 H   0  0  0  0  0  0  0  0  0  0  0  0
  -44.1474   68.6636   64.5914 H   0  0  0  0  0  0  0  0  0  0  0  0
  -45.8199   68.6885   63.9688 H   0  0  0  0  0  0  0  0  0  0  0  0
  -45.0954   67.7420   61.8937 H   0  0  0  0  0  0  0  0  0  0  0  0
  -43.4297   67.6838   62.5058 H   0  0  0  0  0  0  0  0  0  0  0  0
  -45.0135   70.1729   61.9937 H   0  0  0  0  0  0  0  0  0  0  0  0
  -43.7160   69.5590   60.9974 H   0  0  0  0  0  0  0  0  0  0  0  0
  -43.3854   70.1040   62.6243 H   0  0  0  0  0  0  0  0  0  0  0  0
  -36.0127   63.1808   65.8888 H   0  0  0  0  0  0  0  0  0  0  0  0
  -36.4595   63.3487   62.9234 H   0  0  0  0  0  0  0  0  0  0  0  0
  -34.1533   64.3446   64.5075 H   0  0  0  0  0  0  0  0  0  0  0  0
  -35.0370   66.5538   63.7488 H   0  0  0  0  0  0  0  0  0  0  0  0
  -36.0767   65.6460   65.8383 H   0  0  0  0  0  0  0  0  0  0  0  0
  -37.9544   66.9413   63.8283 H   0  0  0  0  0  0  0  0  0  0  0  0
  -37.9810   67.1774   65.5606 H   0  0  0  0  0  0  0  0  0  0  0  0
  1  4  1  0  0  0  0
  1 31  1  0  0  0  0
  1 56  1  0  0  0  0
  2  3  1  0  0  0  0
  2  4  1  0  0  0  0
  2 57  1  0  0  0  0
  2 58  1  0  0  0  0
  3 49  1  0  0  0  0
  4  6  1  0  0  0  0
  4 59  1  1  0  0  0
  5  6  1  0  0  0  0
  5 60  1  0  0  0  0
  6  8  1  0  0  0  0
  6 61  1  1  0  0  0
  7 31  2  0  0  0  0
  8  9  2  0  0  0  0
  8 62  1  0  0  0  0
  9 11  1  0  0  0  0
  9 63  1  0  0  0  0
 10 50  1  0  0  0  0
 10 64  1  0  0  0  0
 11 13  1  0  0  0  0
 11 65  1  0  0  0  0
 11 66  1  0  0  0  0
 12 51  1  0  0  0  0
 12 55  1  0  0  0  0
 13 15  1  0  0  0  0
 13 67  1  0  0  0  0
 13 68  1  0  0  0  0
 14 55  1  0  0  0  0
 14 69  1  0  0  0  0
 15 17  1  0  0  0  0
 15 70  1  0  0  0  0
 15 71  1  0  0  0  0
 16 52  1  0  0  0  0
 16 72  1  0  0  0  0
 17 19  1  0  0  0  0
 17 73  1  0  0  0  0
 17 74  1  0  0  0  0
 18 49  1  0  0  0  0
 18 53  1  0  0  0  0
 19 21  1  0  0  0  0
 19 75  1  0  0  0  0
 19 76  1  0  0  0  0
 20 54  1  0  0  0  0
 20 77  1  0  0  0  0
 21 22  1  0  0  0  0
 21 78  1  0  0  0  0
 21 79  1  0  0  0  0
 22 23  1  0  0  0  0
 22 80  1  0  0  0  0
 22 81  1  0  0  0  0
 23 25  1  0  0  0  0
 23 82  1  0  0  0  0
 23 83  1  0  0  0  0
 24 55  1  0  0  0  0
 25 27  1  0  0  0  0
 25 84  1  0  0  0  0
 25 85  1  0  0  0  0
 26 55  1  0  0  0  0
 26 86  1  0  0  0  0
 27 28  1  0  0  0  0
 27 87  1  0  0  0  0
 27 88  1  0  0  0  0
 28 29  1  0  0  0  0
 28 89  1  0  0  0  0
 28 90  1  0  0  0  0
 29 30  1  0  0  0  0
 29 91  1  0  0  0  0
 29 92  1  0  0  0  0
 30 93  1  0  0  0  0
 30 94  1  0  0  0  0
 30 95  1  0  0  0  0
 31 32  1  0  0  0  0
 32 33  1  0  0  0  0
 32 96  1  0  0  0  0
 32 97  1  0  0  0  0
 33 34  1  0  0  0  0
 33 98  1  0  0  0  0
 33 99  1  0  0  0  0
 34 35  1  0  0  0  0
 34100  1  0  0  0  0
 34101  1  0  0  0  0
 35 36  1  0  0  0  0
 35102  1  0  0  0  0
 35103  1  0  0  0  0
 36 37  1  0  0  0  0
 36104  1  0  0  0  0
 36105  1  0  0  0  0
 37 38  1  0  0  0  0
 37106  1  0  0  0  0
 37107  1  0  0  0  0
 38 39  1  0  0  0  0
 38108  1  0  0  0  0
 38109  1  0  0  0  0
 39 40  1  0  0  0  0
 39110  1  0  0  0  0
 39111  1  0  0  0  0
 40 41  1  0  0  0  0
 40112  1  0  0  0  0
 40113  1  0  0  0  0
 41 42  1  0  0  0  0
 41114  1  0  0  0  0
 41115  1  0  0  0  0
 42 43  1  0  0  0  0
 42116  1  0  0  0  0
 42117  1  0  0  0  0
 43 44  1  0  0  0  0
 43118  1  0  0  0  0
 43119  1  0  0  0  0
 44 45  1  0  0  0  0
 44120  1  0  0  0  0
 44121  1  0  0  0  0
 45 46  1  0  0  0  0
 45122  1  0  0  0  0
 45123  1  0  0  0  0
 46 47  1  0  0  0  0
 46124  1  0  0  0  0
 46125  1  0  0  0  0
 47 48  1  0  0  0  0
 47126  1  0  0  0  0
 47127  1  0  0  0  0
 48128  1  0  0  0  0
 48129  1  0  0  0  0
 48130  1  0  0  0  0
 49 50  1  0  0  0  0
 49131  1  1  0  0  0
 50 51  1  0  0  0  0
 50132  1  6  0  0  0
 51 52  1  0  0  0  0
 51133  1  1  0  0  0
 52 53  1  0  0  0  0
 52134  1  1  0  0  0
 53 54  1  0  0  0  0
 53135  1  1  0  0  0
 54136  1  0  0  0  0
 54137  1  0  0  0  0
M  CHG  1  24  -1
M  END
$$$$
/media/chris/experiments/cd1a-new-docking/inputs/ligands/1onq_ligand.pdb
 OpenBabel06222310383D

137137  0  0  1  0  0  0  0  0999 V2000
  -40.4920   60.2280   63.6270 N   0  0  0  0  0  0  0  0  0  0  0  0
  -38.5950   61.7730   64.2860 C   0  0  0  0  0  0  0  0  0  0  0  0
  -37.8612   61.7550   63.0352 O   0  0  0  0  0  0  0  0  0  0  0  0
  -39.4590   60.5300   64.5980 C   0  0  1  0  0  0  0  0  0  0  0  0
  -39.2569   60.8461   66.8904 O   0  0  0  0  0  0  0  0  0  0  0  0
  -40.2280   60.5370   65.9080 C   0  0  2  0  0  0  0  0  0  0  0  0
  -41.4675   58.3885   64.5282 O   0  0  0  0  0  0  0  0  0  0  0  0
  -40.8583   59.1606   66.1332 C   0  0  0  0  0  0  0  0  0  0  0  0
  -40.2351   58.1694   66.7929 C   0  0  0  0  0  0  0  0  0  0  0  0
  -40.4867   62.7491   62.4913 O   0  0  0  0  0  0  0  0  0  0  0  0
  -40.9315   56.8221   66.9754 C   0  0  0  0  0  0  0  0  0  0  0  0
  -41.3164   63.5659   59.7683 O   0  0  0  0  0  0  0  0  0  0  0  0
  -42.4629   56.9176   67.0394 C   0  0  0  0  0  0  0  0  0  0  0  0
  -41.4127   63.4310   57.1819 O   0  0  0  0  0  0  0  0  0  0  0  0
  -43.2060   55.5838   67.2399 C   0  0  0  0  0  0  0  0  0  0  0  0
  -38.7607   63.8137   58.8462 O   0  0  0  0  0  0  0  0  0  0  0  0
  -44.7372   55.8074   67.2701 C   0  0  0  0  0  0  0  0  0  0  0  0
  -37.6382   61.6364   60.6224 O   0  0  0  0  0  0  0  0  0  0  0  0
  -45.5883   54.5303   67.4849 C   0  0  0  0  0  0  0  0  0  0  0  0
  -36.3522   60.6658   58.1593 O   0  0  0  0  0  0  0  0  0  0  0  0
  -45.3831   53.4431   66.4038 C   0  0  0  0  0  0  0  0  0  0  0  0
  -43.9321   52.9218   66.3199 C   0  0  0  0  0  0  0  0  0  0  0  0
  -43.4335   52.2712   67.6158 C   0  0  0  0  0  0  0  0  0  0  0  0
  -43.0554   64.7618   58.3732 O   0  5  0  0  0  0  0  0  0  0  0  0
  -41.9976   51.7515   67.5967 C   0  0  0  0  0  0  0  0  0  0  0  0
  -43.2077   62.3429   58.3819 O   0  0  0  0  0  0  0  0  0  0  0  0
  -40.9409   52.8417   67.3305 C   0  0  0  0  0  0  0  0  0  0  0  0
  -40.8949   53.9757   68.3658 C   0  0  0  0  0  0  0  0  0  0  0  0
  -39.8273   55.0110   68.0003 C   0  0  0  0  0  0  0  0  0  0  0  0
  -39.6664   56.1807   68.9550 C   0  0  0  0  0  0  0  0  0  0  0  0
  -41.3839   59.2282   63.6532 C   0  0  0  0  0  0  0  0  0  0  0  0
  -42.3351   59.1918   62.4940 C   0  0  0  0  0  0  0  0  0  0  0  0
  -43.6356   58.5840   63.0197 C   0  0  0  0  0  0  0  0  0  0  0  0
  -44.6616   58.4928   61.8927 C   0  0  0  0  0  0  0  0  0  0  0  0
  -46.0090   57.9243   62.2666 C   0  0  0  0  0  0  0  0  0  0  0  0
  -46.8671   57.9055   61.0059 C   0  0  0  0  0  0  0  0  0  0  0  0
  -47.0542   59.3007   60.3950 C   0  0  0  0  0  0  0  0  0  0  0  0
  -47.9301   59.3242   59.1290 C   0  0  0  0  0  0  0  0  0  0  0  0
  -47.3657   58.4444   57.9919 C   0  0  0  0  0  0  0  0  0  0  0  0
  -47.2779   56.9810   58.4343 C   0  0  0  0  0  0  0  0  0  0  0  0
  -46.7159   56.0241   57.3900 C   0  0  0  0  0  0  0  0  0  0  0  0
  -45.2946   56.3837   56.9831 C   0  0  0  0  0  0  0  0  0  0  0  0
  -44.2504   56.3622   58.1018 C   0  0  0  0  0  0  0  0  0  0  0  0
  -42.9073   56.7630   57.5066 C   0  0  0  0  0  0  0  0  0  0  0  0
  -42.7729   58.1385   56.8702 C   0  0  0  0  0  0  0  0  0  0  0  0
  -43.0493   59.2486   57.8965 C   0  0  0  0  0  0  0  0  0  0  0  0
  -42.0910   59.2571   59.1017 C   0  0  0  0  0  0  0  0  0  0  0  0
  -40.6299   59.4654   58.7101 C   0  0  0  0  0  0  0  0  0  0  0  0
  -38.5606   61.6540   61.7388 C   0  0  2  0  0  0  0  0  0  0  0  0
  -39.5794   62.7613   61.4326 C   0  0  1  0  0  0  0  0  0  0  0  0
  -40.3623   62.5383   60.1202 C   0  0  2  0  0  0  0  0  0  0  0  0
  -39.3395   62.5224   59.0179 C   0  0  2  0  0  0  0  0  0  0  0  0
  -38.2716   61.4876   59.3230 C   0  0  1  0  0  0  0  0  0  0  0  0
  -37.3507   61.6405   58.1144 C   0  0  0  0  0  0  0  0  0  0  0  0
  -42.2679   63.4995   58.4036 S   0  0  0  0  0  0  0  0  0  0  0  0
  -40.5449   60.8326   62.8518 H   0  0  0  0  0  0  0  0  0  0  0  0
  -39.2437   62.6238   64.2698 H   0  0  0  0  0  0  0  0  0  0  0  0
  -37.8479   61.7974   65.0516 H   0  0  0  0  0  0  0  0  0  0  0  0
  -38.6677   59.8099   64.6092 H   0  0  0  0  0  0  0  0  0  0  0  0
  -38.8837   61.7234   66.7113 H   0  0  0  0  0  0  0  0  0  0  0  0
  -41.0317   61.2430   65.9299 H   0  0  0  0  0  0  0  0  0  0  0  0
  -41.8050   58.9857   65.7614 H   0  0  0  0  0  0  0  0  0  0  0  0
  -39.2882   58.3181   67.1754 H   0  0  0  0  0  0  0  0  0  0  0  0
  -40.0119   62.8880   63.3257 H   0  0  0  0  0  0  0  0  0  0  0  0
  -40.5829   56.3832   67.8869 H   0  0  0  0  0  0  0  0  0  0  0  0
  -40.6926   56.2299   66.1169 H   0  0  0  0  0  0  0  0  0  0  0  0
  -42.8042   57.3496   66.1220 H   0  0  0  0  0  0  0  0  0  0  0  0
  -42.6830   57.5076   67.9045 H   0  0  0  0  0  0  0  0  0  0  0  0
  -40.7932   64.1774   57.1785 H   0  0  0  0  0  0  0  0  0  0  0  0
  -42.8970   55.1458   68.1659 H   0  0  0  0  0  0  0  0  0  0  0  0
  -42.9703   54.9336   66.4235 H   0  0  0  0  0  0  0  0  0  0  0  0
  -39.4595   64.4581   58.6526 H   0  0  0  0  0  0  0  0  0  0  0  0
  -45.0261   56.2442   66.3371 H   0  0  0  0  0  0  0  0  0  0  0  0
  -44.9280   56.4359   68.1148 H   0  0  0  0  0  0  0  0  0  0  0  0
  -46.6207   54.8113   67.4867 H   0  0  0  0  0  0  0  0  0  0  0  0
  -45.2736   54.1034   68.4142 H   0  0  0  0  0  0  0  0  0  0  0  0
  -35.7688   60.7650   57.3907 H   0  0  0  0  0  0  0  0  0  0  0  0
  -45.6497   53.8563   65.4535 H   0  0  0  0  0  0  0  0  0  0  0  0
  -46.0004   52.6117   66.6734 H   0  0  0  0  0  0  0  0  0  0  0  0
  -43.2904   53.7457   66.0872 H   0  0  0  0  0  0  0  0  0  0  0  0
  -43.9158   52.1645   65.5641 H   0  0  0  0  0  0  0  0  0  0  0  0
  -44.0773   51.4453   67.8358 H   0  0  0  0  0  0  0  0  0  0  0  0
  -43.4487   53.0476   68.3518 H   0  0  0  0  0  0  0  0  0  0  0  0
  -41.9178   51.0106   66.8288 H   0  0  0  0  0  0  0  0  0  0  0  0
  -41.7976   51.3572   68.5711 H   0  0  0  0  0  0  0  0  0  0  0  0
  -42.7023   61.5152   58.4015 H   0  0  0  0  0  0  0  0  0  0  0  0
  -41.1463   53.2751   66.3740 H   0  0  0  0  0  0  0  0  0  0  0  0
  -39.9905   52.3529   67.3835 H   0  0  0  0  0  0  0  0  0  0  0  0
  -40.6675   53.5631   69.3265 H   0  0  0  0  0  0  0  0  0  0  0  0
  -41.8484   54.4609   68.3818 H   0  0  0  0  0  0  0  0  0  0  0  0
  -40.0748   55.4078   67.0379 H   0  0  0  0  0  0  0  0  0  0  0  0
  -38.8966   54.4844   68.0366 H   0  0  0  0  0  0  0  0  0  0  0  0
  -40.5683   56.7563   68.9690 H   0  0  0  0  0  0  0  0  0  0  0  0
  -38.8548   56.7975   68.6297 H   0  0  0  0  0  0  0  0  0  0  0  0
  -39.4628   55.8128   69.9388 H   0  0  0  0  0  0  0  0  0  0  0  0
  -41.9358   58.5868   61.7069 H   0  0  0  0  0  0  0  0  0  0  0  0
  -42.4985   60.1716   62.0963 H   0  0  0  0  0  0  0  0  0  0  0  0
  -44.0238   59.2007   63.8032 H   0  0  0  0  0  0  0  0  0  0  0  0
  -43.4379   57.6019   63.3954 H   0  0  0  0  0  0  0  0  0  0  0  0
  -44.2481   57.8748   61.1232 H   0  0  0  0  0  0  0  0  0  0  0  0
  -44.8487   59.5023   61.5915 H   0  0  0  0  0  0  0  0  0  0  0  0
  -46.4697   58.5379   63.0124 H   0  0  0  0  0  0  0  0  0  0  0  0
  -45.9031   56.9366   62.6640 H   0  0  0  0  0  0  0  0  0  0  0  0
  -47.8295   57.5083   61.2530 H   0  0  0  0  0  0  0  0  0  0  0  0
  -46.3631   57.3006   60.2813 H   0  0  0  0  0  0  0  0  0  0  0  0
  -46.0893   59.6883   60.1425 H   0  0  0  0  0  0  0  0  0  0  0  0
  -47.5600   59.8921   61.1294 H   0  0  0  0  0  0  0  0  0  0  0  0
  -47.9973   60.3331   58.7789 H   0  0  0  0  0  0  0  0  0  0  0  0
  -48.8890   58.9304   59.3943 H   0  0  0  0  0  0  0  0  0  0  0  0
  -46.3880   58.7920   57.7309 H   0  0  0  0  0  0  0  0  0  0  0  0
  -48.0201   58.5106   57.1480 H   0  0  0  0  0  0  0  0  0  0  0  0
  -48.2636   56.6519   58.6895 H   0  0  0  0  0  0  0  0  0  0  0  0
  -46.5954   56.9585   59.2580 H   0  0  0  0  0  0  0  0  0  0  0  0
  -47.3409   56.0562   56.5221 H   0  0  0  0  0  0  0  0  0  0  0  0
  -46.6953   55.0448   57.8206 H   0  0  0  0  0  0  0  0  0  0  0  0
  -45.3120   57.3709   56.5705 H   0  0  0  0  0  0  0  0  0  0  0  0
  -44.9920   55.6254   56.2915 H   0  0  0  0  0  0  0  0  0  0  0  0
  -44.1838   55.3780   58.5162 H   0  0  0  0  0  0  0  0  0  0  0  0
  -44.5279   57.0427   58.8795 H   0  0  0  0  0  0  0  0  0  0  0  0
  -42.6689   56.0422   56.7527 H   0  0  0  0  0  0  0  0  0  0  0  0
  -42.2497   56.8008   58.3499 H   0  0  0  0  0  0  0  0  0  0  0  0
  -43.4742   58.2224   56.0664 H   0  0  0  0  0  0  0  0  0  0  0  0
  -41.7725   58.2504   56.5075 H   0  0  0  0  0  0  0  0  0  0  0  0
  -44.0466   59.1237   58.2635 H   0  0  0  0  0  0  0  0  0  0  0  0
  -42.9046   60.1778   57.3861 H   0  0  0  0  0  0  0  0  0  0  0  0
  -42.1760   58.3193   59.6099 H   0  0  0  0  0  0  0  0  0  0  0  0
  -42.3725   60.0803   59.7247 H   0  0  0  0  0  0  0  0  0  0  0  0
  -40.3100   58.6588   58.0839 H   0  0  0  0  0  0  0  0  0  0  0  0
  -40.0248   59.4938   59.5921 H   0  0  0  0  0  0  0  0  0  0  0  0
  -40.5310   60.3894   58.1798 H   0  0  0  0  0  0  0  0  0  0  0  0
  -39.0913   60.7313   61.8483 H   0  0  0  0  0  0  0  0  0  0  0  0
  -39.0559   63.6873   61.3173 H   0  0  0  0  0  0  0  0  0  0  0  0
  -40.9244   61.6378   60.2552 H   0  0  0  0  0  0  0  0  0  0  0  0
  -39.8234   62.2578   58.1011 H   0  0  0  0  0  0  0  0  0  0  0  0
  -38.6490   60.4925   59.4336 H   0  0  0  0  0  0  0  0  0  0  0  0
  -37.9204   61.5253   57.2160 H   0  0  0  0  0  0  0  0  0  0  0  0
  -36.9005   62.6110   58.1315 H   0  0  0  0  0  0  0  0  0  0  0  0
  1  4  1  0  0  0  0
  1 31  1  0  0  0  0
  1 56  1  0  0  0  0
  2  3  1  0  0  0  0
  2  4  1  0  0  0  0
  2 57  1  0  0  0  0
  2 58  1  0  0  0  0
  3 49  1  0  0  0  0
  4  6  1  0  0  0  0
  4 59  1  1  0  0  0
  5  6  1  0  0  0  0
  5 60  1  0  0  0  0
  6  8  1  0  0  0  0
  6 61  1  6  0  0  0
  7 31  2  0  0  0  0
  8  9  2  0  0  0  0
  8 62  1  0  0  0  0
  9 11  1  0  0  0  0
  9 63  1  0  0  0  0
 10 50  1  0  0  0  0
 10 64  1  0  0  0  0
 11 13  1  0  0  0  0
 11 65  1  0  0  0  0
 11 66  1  0  0  0  0
 12 51  1  0  0  0  0
 12 55  1  0  0  0  0
 13 15  1  0  0  0  0
 13 67  1  0  0  0  0
 13 68  1  0  0  0  0
 14 55  1  0  0  0  0
 14 69  1  0  0  0  0
 15 17  1  0  0  0  0
 15 70  1  0  0  0  0
 15 71  1  0  0  0  0
 16 52  1  0  0  0  0
 16 72  1  0  0  0  0
 17 19  1  0  0  0  0
 17 73  1  0  0  0  0
 17 74  1  0  0  0  0
 18 49  1  0  0  0  0
 18 53  1  0  0  0  0
 19 21  1  0  0  0  0
 19 75  1  0  0  0  0
 19 76  1  0  0  0  0
 20 54  1  0  0  0  0
 20 77  1  0  0  0  0
 21 22  1  0  0  0  0
 21 78  1  0  0  0  0
 21 79  1  0  0  0  0
 22 23  1  0  0  0  0
 22 80  1  0  0  0  0
 22 81  1  0  0  0  0
 23 25  1  0  0  0  0
 23 82  1  0  0  0  0
 23 83  1  0  0  0  0
 24 55  1  0  0  0  0
 25 27  1  0  0  0  0
 25 84  1  0  0  0  0
 25 85  1  0  0  0  0
 26 55  1  0  0  0  0
 26 86  1  0  0  0  0
 27 28  1  0  0  0  0
 27 87  1  0  0  0  0
 27 88  1  0  0  0  0
 28 29  1  0  0  0  0
 28 89  1  0  0  0  0
 28 90  1  0  0  0  0
 29 30  1  0  0  0  0
 29 91  1  0  0  0  0
 29 92  1  0  0  0  0
 30 93  1  0  0  0  0
 30 94  1  0  0  0  0
 30 95  1  0  0  0  0
 31 32  1  0  0  0  0
 32 33  1  0  0  0  0
 32 96  1  0  0  0  0
 32 97  1  0  0  0  0
 33 34  1  0  0  0  0
 33 98  1  0  0  0  0
 33 99  1  0  0  0  0
 34 35  1  0  0  0  0
 34100  1  0  0  0  0
 34101  1  0  0  0  0
 35 36  1  0  0  0  0
 35102  1  0  0  0  0
 35103  1  0  0  0  0
 36 37  1  0  0  0  0
 36104  1  0  0  0  0
 36105  1  0  0  0  0
 37 38  1  0  0  0  0
 37106  1  0  0  0  0
 37107  1  0  0  0  0
 38 39  1  0  0  0  0
 38108  1  0  0  0  0
 38109  1  0  0  0  0
 39 40  1  0  0  0  0
 39110  1  0  0  0  0
 39111  1  0  0  0  0
 40 41  1  0  0  0  0
 40112  1  0  0  0  0
 40113  1  0  0  0  0
 41 42  1  0  0  0  0
 41114  1  0  0  0  0
 41115  1  0  0  0  0
 42 43  1  0  0  0  0
 42116  1  0  0  0  0
 42117  1  0  0  0  0
 43 44  1  0  0  0  0
 43118  1  0  0  0  0
 43119  1  0  0  0  0
 44 45  1  0  0  0  0
 44120  1  0  0  0  0
 44121  1  0  0  0  0
 45 46  1  0  0  0  0
 45122  1  0  0  0  0
 45123  1  0  0  0  0
 46 47  1  0  0  0  0
 46124  1  0  0  0  0
 46125  1  0  0  0  0
 47 48  1  0  0  0  0
 47126  1  0  0  0  0
 47127  1  0  0  0  0
 48128  1  0  0  0  0
 48129  1  0  0  0  0
 48130  1  0  0  0  0
 49 50  1  0  0  0  0
 49131  1  6  0  0  0
 50 51  1  0  0  0  0
 50132  1  6  0  0  0
 51 52  1  0  0  0  0
 51133  1  1  0  0  0
 52 53  1  0  0  0  0
 52134  1  6  0  0  0
 53 54  1  0  0  0  0
 53135  1  6  0  0  0
 54136  1  0  0  0  0
 54137  1  0  0  0  0
M  CHG  1  24  -1
M  END
$$$$
/media/chris/experiments/cd1a-new-docking/inputs/ligands/1onq_ligand.pdb
 OpenBabel06222310383D

137137  0  0  1  0  0  0  0  0999 V2000
  -40.4920   60.2280   63.6270 N   0  0  0  0  0  0  0  0  0  0  0  0
  -38.5950   61.7730   64.2860 C   0  0  0  0  0  0  0  0  0  0  0  0
  -37.8612   61.7550   63.0352 O   0  0  0  0  0  0  0  0  0  0  0  0
  -39.4590   60.5300   64.5980 C   0  0  1  0  0  0  0  0  0  0  0  0
  -39.2569   60.8461   66.8904 O   0  0  0  0  0  0  0  0  0  0  0  0
  -40.2280   60.5370   65.9080 C   0  0  2  0  0  0  0  0  0  0  0  0
  -42.2618   61.3924   64.4390 O   0  0  0  0  0  0  0  0  0  0  0  0
  -40.8583   59.1606   66.1332 C   0  0  0  0  0  0  0  0  0  0  0  0
  -40.5775   58.3927   67.1998 C   0  0  0  0  0  0  0  0  0  0  0  0
  -36.4617   63.4735   64.8422 O   0  0  0  0  0  0  0  0  0  0  0  0
  -41.2481   57.0288   67.3524 C   0  0  0  0  0  0  0  0  0  0  0  0
  -33.9514   64.8423   64.0706 O   0  0  0  0  0  0  0  0  0  0  0  0
  -40.9397   56.0528   66.2076 C   0  0  0  0  0  0  0  0  0  0  0  0
  -35.0622   66.3440   65.8673 O   0  0  0  0  0  0  0  0  0  0  0  0
  -39.4539   55.6946   66.0193 C   0  0  0  0  0  0  0  0  0  0  0  0
  -33.4515   63.1747   61.9701 O   0  0  0  0  0  0  0  0  0  0  0  0
  -38.8877   55.0144   67.2890 C   0  0  0  0  0  0  0  0  0  0  0  0
  -36.3692   62.6641   61.3521 O   0  0  0  0  0  0  0  0  0  0  0  0
  -37.3896   54.6242   67.2185 C   0  0  0  0  0  0  0  0  0  0  0  0
  -33.8767   62.4184   59.8301 O   0  0  0  0  0  0  0  0  0  0  0  0
  -37.0439   53.6427   66.0740 C   0  0  0  0  0  0  0  0  0  0  0  0
  -35.5514   53.2498   66.0271 C   0  0  0  0  0  0  0  0  0  0  0  0
  -35.2008   52.2902   64.8835 C   0  0  0  0  0  0  0  0  0  0  0  0
  -32.7880   65.5645   66.1981 O   0  5  0  0  0  0  0  0  0  0  0  0
  -33.7399   51.8534   64.7977 C   0  0  0  0  0  0  0  0  0  0  0  0
  -34.6528   64.0446   66.4927 O   0  0  0  0  0  0  0  0  0  0  0  0
  -33.2377   51.0999   66.0452 C   0  0  0  0  0  0  0  0  0  0  0  0
  -33.9810   49.7941   66.3648 C   0  0  0  0  0  0  0  0  0  0  0  0
  -33.8507   48.7915   65.2146 C   0  0  0  0  0  0  0  0  0  0  0  0
  -32.4420   48.3485   64.8614 C   0  0  0  0  0  0  0  0  0  0  0  0
  -41.7615   60.6565   63.6107 C   0  0  0  0  0  0  0  0  0  0  0  0
  -42.5847   60.1680   62.4559 C   0  0  0  0  0  0  0  0  0  0  0  0
  -42.6099   58.6428   62.5563 C   0  0  0  0  0  0  0  0  0  0  0  0
  -43.4180   58.0574   61.4007 C   0  0  0  0  0  0  0  0  0  0  0  0
  -43.5460   56.5535   61.3755 C   0  0  0  0  0  0  0  0  0  0  0  0
  -44.2507   56.1295   62.6599 C   0  0  0  0  0  0  0  0  0  0  0  0
  -44.4279   54.6088   62.7646 C   0  0  0  0  0  0  0  0  0  0  0  0
  -43.1073   53.8170   62.7655 C   0  0  0  0  0  0  0  0  0  0  0  0
  -42.1883   54.1836   63.9515 C   0  0  0  0  0  0  0  0  0  0  0  0
  -40.8853   53.3812   63.8930 C   0  0  0  0  0  0  0  0  0  0  0  0
  -41.0577   51.8676   63.9314 C   0  0  0  0  0  0  0  0  0  0  0  0
  -39.7257   51.1336   63.8874 C   0  0  0  0  0  0  0  0  0  0  0  0
  -38.8524   51.4008   62.6593 C   0  0  0  0  0  0  0  0  0  0  0  0
  -37.5825   50.5706   62.7888 C   0  0  0  0  0  0  0  0  0  0  0  0
  -37.7057   49.0558   62.8611 C   0  0  0  0  0  0  0  0  0  0  0  0
  -38.3647   48.4964   61.5904 C   0  0  0  0  0  0  0  0  0  0  0  0
  -37.5919   48.7851   60.2902 C   0  0  0  0  0  0  0  0  0  0  0  0
  -38.2792   48.2324   59.0437 C   0  0  0  0  0  0  0  0  0  0  0  0
  -36.9920   62.8817   62.6414 C   0  0  2  0  0  0  0  0  0  0  0  0
  -35.8536   63.2281   63.6117 C   0  0  1  0  0  0  0  0  0  0  0  0
  -35.0540   64.4857   63.2063 C   0  0  2  0  0  0  0  0  0  0  0  0
  -34.4510   64.1853   61.8619 C   0  0  2  0  0  0  0  0  0  0  0  0
  -35.5409   63.7659   60.8921 C   0  0  1  0  0  0  0  0  0  0  0  0
  -34.7309   63.5033   59.6245 C   0  0  0  0  0  0  0  0  0  0  0  0
  -34.1347   65.1878   65.6890 S   0  0  0  0  0  0  0  0  0  0  0  0
  -40.2280   59.6342   62.8875 H   0  0  0  0  0  0  0  0  0  0  0  0
  -39.2437   62.6238   64.2698 H   0  0  0  0  0  0  0  0  0  0  0  0
  -37.8479   61.7974   65.0516 H   0  0  0  0  0  0  0  0  0  0  0  0
  -38.6677   59.8099   64.6092 H   0  0  0  0  0  0  0  0  0  0  0  0
  -38.8837   61.7234   66.7113 H   0  0  0  0  0  0  0  0  0  0  0  0
  -41.0317   61.2430   65.9299 H   0  0  0  0  0  0  0  0  0  0  0  0
  -41.5295   58.8060   65.4340 H   0  0  0  0  0  0  0  0  0  0  0  0
  -39.9104   58.7238   67.9142 H   0  0  0  0  0  0  0  0  0  0  0  0
  -36.9694   62.6928   65.1133 H   0  0  0  0  0  0  0  0  0  0  0  0
  -42.3071   57.1766   67.3931 H   0  0  0  0  0  0  0  0  0  0  0  0
  -40.8602   56.5901   68.2479 H   0  0  0  0  0  0  0  0  0  0  0  0
  -41.2900   56.4923   65.2972 H   0  0  0  0  0  0  0  0  0  0  0  0
  -41.4307   55.1373   66.4638 H   0  0  0  0  0  0  0  0  0  0  0  0
  -34.7406   67.0992   65.3505 H   0  0  0  0  0  0  0  0  0  0  0  0
  -38.8996   56.5886   65.8233 H   0  0  0  0  0  0  0  0  0  0  0  0
  -39.3663   55.0146   65.1978 H   0  0  0  0  0  0  0  0  0  0  0  0
  -32.7664   63.4629   62.5935 H   0  0  0  0  0  0  0  0  0  0  0  0
  -39.4534   54.1238   67.4672 H   0  0  0  0  0  0  0  0  0  0  0  0
  -38.9687   55.7376   68.0735 H   0  0  0  0  0  0  0  0  0  0  0  0
  -37.1179   54.1665   68.1467 H   0  0  0  0  0  0  0  0  0  0  0  0
  -36.8456   55.5252   67.0261 H   0  0  0  0  0  0  0  0  0  0  0  0
  -33.3634   62.2536   59.0236 H   0  0  0  0  0  0  0  0  0  0  0  0
  -37.3019   54.1036   65.1435 H   0  0  0  0  0  0  0  0  0  0  0  0
  -37.5994   52.7455   66.2511 H   0  0  0  0  0  0  0  0  0  0  0  0
  -35.2973   52.7782   66.9533 H   0  0  0  0  0  0  0  0  0  0  0  0
  -34.9969   54.1496   65.8606 H   0  0  0  0  0  0  0  0  0  0  0  0
  -35.4523   52.7734   63.9626 H   0  0  0  0  0  0  0  0  0  0  0  0
  -35.7573   51.3970   65.0768 H   0  0  0  0  0  0  0  0  0  0  0  0
  -33.1349   52.7259   64.6651 H   0  0  0  0  0  0  0  0  0  0  0  0
  -33.6675   51.1735   63.9747 H   0  0  0  0  0  0  0  0  0  0  0  0
  -35.5310   63.7923   66.1673 H   0  0  0  0  0  0  0  0  0  0  0  0
  -33.3368   51.7519   66.8878 H   0  0  0  0  0  0  0  0  0  0  0  0
  -32.2258   50.8217   65.8362 H   0  0  0  0  0  0  0  0  0  0  0  0
  -35.0166   50.0112   66.5239 H   0  0  0  0  0  0  0  0  0  0  0  0
  -33.5487   49.3625   67.2433 H   0  0  0  0  0  0  0  0  0  0  0  0
  -34.2796   49.2391   64.3425 H   0  0  0  0  0  0  0  0  0  0  0  0
  -34.3509   47.9072   65.5504 H   0  0  0  0  0  0  0  0  0  0  0  0
  -31.8798   49.1903   64.5147 H   0  0  0  0  0  0  0  0  0  0  0  0
  -32.4839   47.6063   64.0919 H   0  0  0  0  0  0  0  0  0  0  0  0
  -31.9696   47.9368   65.7287 H   0  0  0  0  0  0  0  0  0  0  0  0
  -42.1401   60.4704   61.5308 H   0  0  0  0  0  0  0  0  0  0  0  0
  -43.5740   60.5745   62.4862 H   0  0  0  0  0  0  0  0  0  0  0  0
  -43.0591   58.3560   63.4841 H   0  0  0  0  0  0  0  0  0  0  0  0
  -41.6078   58.2708   62.5083 H   0  0  0  0  0  0  0  0  0  0  0  0
  -42.9502   58.3611   60.4876 H   0  0  0  0  0  0  0  0  0  0  0  0
  -44.4133   58.4287   61.5285 H   0  0  0  0  0  0  0  0  0  0  0  0
  -42.5756   56.1055   61.3268 H   0  0  0  0  0  0  0  0  0  0  0  0
  -44.1040   56.2381   60.5188 H   0  0  0  0  0  0  0  0  0  0  0  0
  -45.2165   56.5892   62.6881 H   0  0  0  0  0  0  0  0  0  0  0  0
  -43.6397   56.4407   63.4813 H   0  0  0  0  0  0  0  0  0  0  0  0
  -45.0146   54.2813   61.9320 H   0  0  0  0  0  0  0  0  0  0  0  0
  -44.9003   54.4188   63.7057 H   0  0  0  0  0  0  0  0  0  0  0  0
  -42.5861   54.0213   61.8537 H   0  0  0  0  0  0  0  0  0  0  0  0
  -43.3544   52.7802   62.8589 H   0  0  0  0  0  0  0  0  0  0  0  0
  -42.6944   53.9657   64.8687 H   0  0  0  0  0  0  0  0  0  0  0  0
  -41.9537   55.2261   63.8962 H   0  0  0  0  0  0  0  0  0  0  0  0
  -40.2815   53.6676   64.7286 H   0  0  0  0  0  0  0  0  0  0  0  0
  -40.4378   53.6069   62.9476 H   0  0  0  0  0  0  0  0  0  0  0  0
  -41.6445   51.5666   63.0888 H   0  0  0  0  0  0  0  0  0  0  0  0
  -41.5397   51.6163   64.8531 H   0  0  0  0  0  0  0  0  0  0  0  0
  -39.9292   50.0837   63.9221 H   0  0  0  0  0  0  0  0  0  0  0  0
  -39.1671   51.4993   64.7235 H   0  0  0  0  0  0  0  0  0  0  0  0
  -38.6025   52.4401   62.6118 H   0  0  0  0  0  0  0  0  0  0  0  0
  -39.3787   51.1345   61.7665 H   0  0  0  0  0  0  0  0  0  0  0  0
  -37.0871   50.8896   63.6820 H   0  0  0  0  0  0  0  0  0  0  0  0
  -37.0619   50.7461   61.8706 H   0  0  0  0  0  0  0  0  0  0  0  0
  -38.3024   48.7932   63.7096 H   0  0  0  0  0  0  0  0  0  0  0  0
  -36.7248   48.6375   62.9493 H   0  0  0  0  0  0  0  0  0  0  0  0
  -39.3400   48.9277   61.5022 H   0  0  0  0  0  0  0  0  0  0  0  0
  -38.3861   47.4325   61.7018 H   0  0  0  0  0  0  0  0  0  0  0  0
  -36.6207   48.3426   60.3670 H   0  0  0  0  0  0  0  0  0  0  0  0
  -37.5430   49.8483   60.1800 H   0  0  0  0  0  0  0  0  0  0  0  0
  -38.3472   47.1670   59.1167 H   0  0  0  0  0  0  0  0  0  0  0  0
  -37.7099   48.4948   58.1765 H   0  0  0  0  0  0  0  0  0  0  0  0
  -39.2620   48.6480   58.9644 H   0  0  0  0  0  0  0  0  0  0  0  0
  -37.6838   63.6979   62.6313 H   0  0  0  0  0  0  0  0  0  0  0  0
  -35.1546   62.4180   63.6243 H   0  0  0  0  0  0  0  0  0  0  0  0
  -35.7427   65.3038   63.2423 H   0  0  0  0  0  0  0  0  0  0  0  0
  -33.9800   65.0706   61.4887 H   0  0  0  0  0  0  0  0  0  0  0  0
  -36.3046   64.5020   60.7512 H   0  0  0  0  0  0  0  0  0  0  0  0
  -35.3964   63.2841   58.8158 H   0  0  0  0  0  0  0  0  0  0  0  0
  -34.1517   64.3711   59.3871 H   0  0  0  0  0  0  0  0  0  0  0  0
  1  4  1  0  0  0  0
  1 31  1  0  0  0  0
  1 56  1  0  0  0  0
  2  3  1  0  0  0  0
  2  4  1  0  0  0  0
  2 57  1  0  0  0  0
  2 58  1  0  0  0  0
  3 49  1  0  0  0  0
  4  6  1  0  0  0  0
  4 59  1  1  0  0  0
  5  6  1  0  0  0  0
  5 60  1  0  0  0  0
  6  8  1  0  0  0  0
  6 61  1  6  0  0  0
  7 31  2  0  0  0  0
  8  9  2  0  0  0  0
  8 62  1  0  0  0  0
  9 11  1  0  0  0  0
  9 63  1  0  0  0  0
 10 50  1  0  0  0  0
 10 64  1  0  0  0  0
 11 13  1  0  0  0  0
 11 65  1  0  0  0  0
 11 66  1  0  0  0  0
 12 51  1  0  0  0  0
 12 55  1  0  0  0  0
 13 15  1  0  0  0  0
 13 67  1  0  0  0  0
 13 68  1  0  0  0  0
 14 55  1  0  0  0  0
 14 69  1  0  0  0  0
 15 17  1  0  0  0  0
 15 70  1  0  0  0  0
 15 71  1  0  0  0  0
 16 52  1  0  0  0  0
 16 72  1  0  0  0  0
 17 19  1  0  0  0  0
 17 73  1  0  0  0  0
 17 74  1  0  0  0  0
 18 49  1  0  0  0  0
 18 53  1  0  0  0  0
 19 21  1  0  0  0  0
 19 75  1  0  0  0  0
 19 76  1  0  0  0  0
 20 54  1  0  0  0  0
 20 77  1  0  0  0  0
 21 22  1  0  0  0  0
 21 78  1  0  0  0  0
 21 79  1  0  0  0  0
 22 23  1  0  0  0  0
 22 80  1  0  0  0  0
 22 81  1  0  0  0  0
 23 25  1  0  0  0  0
 23 82  1  0  0  0  0
 23 83  1  0  0  0  0
 24 55  1  0  0  0  0
 25 27  1  0  0  0  0
 25 84  1  0  0  0  0
 25 85  1  0  0  0  0
 26 55  1  0  0  0  0
 26 86  1  0  0  0  0
 27 28  1  0  0  0  0
 27 87  1  0  0  0  0
 27 88  1  0  0  0  0
 28 29  1  0  0  0  0
 28 89  1  0  0  0  0
 28 90  1  0  0  0  0
 29 30  1  0  0  0  0
 29 91  1  0  0  0  0
 29 92  1  0  0  0  0
 30 93  1  0  0  0  0
 30 94  1  0  0  0  0
 30 95  1  0  0  0  0
 31 32  1  0  0  0  0
 32 33  1  0  0  0  0
 32 96  1  0  0  0  0
 32 97  1  0  0  0  0
 33 34  1  0  0  0  0
 33 98  1  0  0  0  0
 33 99  1  0  0  0  0
 34 35  1  0  0  0  0
 34100  1  0  0  0  0
 34101  1  0  0  0  0
 35 36  1  0  0  0  0
 35102  1  0  0  0  0
 35103  1  0  0  0  0
 36 37  1  0  0  0  0
 36104  1  0  0  0  0
 36105  1  0  0  0  0
 37 38  1  0  0  0  0
 37106  1  0  0  0  0
 37107  1  0  0  0  0
 38 39  1  0  0  0  0
 38108  1  0  0  0  0
 38109  1  0  0  0  0
 39 40  1  0  0  0  0
 39110  1  0  0  0  0
 39111  1  0  0  0  0
 40 41  1  0  0  0  0
 40112  1  0  0  0  0
 40113  1  0  0  0  0
 41 42  1  0  0  0  0
 41114  1  0  0  0  0
 41115  1  0  0  0  0
 42 43  1  0  0  0  0
 42116  1  0  0  0  0
 42117  1  0  0  0  0
 43 44  1  0  0  0  0
 43118  1  0  0  0  0
 43119  1  0  0  0  0
 44 45  1  0  0  0  0
 44120  1  0  0  0  0
 44121  1  0  0  0  0
 45 46  1  0  0  0  0
 45122  1  0  0  0  0
 45123  1  0  0  0  0
 46 47  1  0  0  0  0
 46124  1  0  0  0  0
 46125  1  0  0  0  0
 47 48  1  0  0  0  0
 47126  1  0  0  0  0
 47127  1  0  0  0  0
 48128  1  0  0  0  0
 48129  1  0  0  0  0
 48130  1  0  0  0  0
 49 50  1  0  0  0  0
 49131  1  6  0  0  0
 50 51  1  0  0  0  0
 50132  1  1  0  0  0
 51 52  1  0  0  0  0
 51133  1  6  0  0  0
 52 53  1  0  0  0  0
 52134  1  6  0  0  0
 53 54  1  0  0  0  0
 53135  1  6  0  0  0
 54136  1  0  0  0  0
 54137  1  0  0  0  0
M  CHG  1  24  -1
M  END
$$$$
/media/chris/experiments/cd1a-new-docking/inputs/ligands/1onq_ligand.pdb
 OpenBabel06222310383D

137137  0  0  1  0  0  0  0  0999 V2000
  -40.4920   60.2280   63.6270 N   0  0  0  0  0  0  0  0  0  0  0  0
  -38.5950   61.7730   64.2860 C   0  0  0  0  0  0  0  0  0  0  0  0
  -39.2927   63.0412   64.1953 O   0  0  0  0  0  0  0  0  0  0  0  0
  -39.4590   60.5300   64.5980 C   0  0  1  0  0  0  0  0  0  0  0  0
  -39.2569   60.8461   66.8904 O   0  0  0  0  0  0  0  0  0  0  0  0
  -40.2280   60.5370   65.9080 C   0  0  2  0  0  0  0  0  0  0  0  0
  -39.5856   61.0253   61.7060 O   0  0  0  0  0  0  0  0  0  0  0  0
  -40.8583   59.1606   66.1332 C   0  0  0  0  0  0  0  0  0  0  0  0
  -40.5775   58.3927   67.1998 C   0  0  0  0  0  0  0  0  0  0  0  0
  -36.9245   63.2334   62.6041 O   0  0  0  0  0  0  0  0  0  0  0  0
  -41.2481   57.0288   67.3524 C   0  0  0  0  0  0  0  0  0  0  0  0
  -36.2474   65.6923   61.0988 O   0  0  0  0  0  0  0  0  0  0  0  0
  -40.9397   56.0528   66.2076 C   0  0  0  0  0  0  0  0  0  0  0  0
  -34.5230   64.9669   59.3052 O   0  0  0  0  0  0  0  0  0  0  0  0
  -39.4539   55.6946   66.0193 C   0  0  0  0  0  0  0  0  0  0  0  0
  -38.7865   66.6864   61.1867 O   0  0  0  0  0  0  0  0  0  0  0  0
  -38.8877   55.0144   67.2890 C   0  0  0  0  0  0  0  0  0  0  0  0
  -39.4547   65.4386   63.8611 O   0  0  0  0  0  0  0  0  0  0  0  0
  -37.3896   54.6242   67.2185 C   0  0  0  0  0  0  0  0  0  0  0  0
  -40.5437   67.6756   62.3121 O   0  0  0  0  0  0  0  0  0  0  0  0
  -36.8549   53.9311   68.4938 C   0  0  0  0  0  0  0  0  0  0  0  0
  -35.3572   53.5639   68.4154 C   0  0  0  0  0  0  0  0  0  0  0  0
  -34.8268   52.8611   69.6708 C   0  0  0  0  0  0  0  0  0  0  0  0
  -35.7915   63.2771   60.4988 O   0  5  0  0  0  0  0  0  0  0  0  0
  -34.9494   53.6402   70.9787 C   0  0  0  0  0  0  0  0  0  0  0  0
  -33.9724   64.4403   61.5999 O   0  0  0  0  0  0  0  0  0  0  0  0
  -36.4002   53.9882   71.3662 C   0  0  0  0  0  0  0  0  0  0  0  0
  -36.5562   54.7871   72.6691 C   0  0  0  0  0  0  0  0  0  0  0  0
  -35.9701   54.0200   73.8579 C   0  0  0  0  0  0  0  0  0  0  0  0
  -36.0748   54.6943   75.2144 C   0  0  0  0  0  0  0  0  0  0  0  0
  -40.4890   60.4819   62.3113 C   0  0  0  0  0  0  0  0  0  0  0  0
  -41.7153   60.0341   61.5727 C   0  0  0  0  0  0  0  0  0  0  0  0
  -42.3284   61.2885   60.9500 C   0  0  0  0  0  0  0  0  0  0  0  0
  -42.6761   62.2966   62.0427 C   0  0  0  0  0  0  0  0  0  0  0  0
  -43.3087   63.5861   61.5787 C   0  0  0  0  0  0  0  0  0  0  0  0
  -44.6169   63.2321   60.8793 C   0  0  0  0  0  0  0  0  0  0  0  0
  -45.3545   64.4657   60.3415 C   0  0  0  0  0  0  0  0  0  0  0  0
  -44.5604   65.2716   59.2973 C   0  0  0  0  0  0  0  0  0  0  0  0
  -43.2136   65.7966   59.8413 C   0  0  0  0  0  0  0  0  0  0  0  0
  -42.4758   66.6035   58.7691 C   0  0  0  0  0  0  0  0  0  0  0  0
  -41.1215   67.1565   59.1961 C   0  0  0  0  0  0  0  0  0  0  0  0
  -40.1444   66.0560   59.5825 C   0  0  0  0  0  0  0  0  0  0  0  0
  -39.8005   65.0476   58.4838 C   0  0  0  0  0  0  0  0  0  0  0  0
  -39.1579   65.8035   57.3286 C   0  0  0  0  0  0  0  0  0  0  0  0
  -37.8644   66.5630   57.5837 C   0  0  0  0  0  0  0  0  0  0  0  0
  -36.7498   65.6110   58.0458 C   0  0  0  0  0  0  0  0  0  0  0  0
  -36.3881   64.5109   57.0308 C   0  0  0  0  0  0  0  0  0  0  0  0
  -35.2906   63.5710   57.5244 C   0  0  0  0  0  0  0  0  0  0  0  0
  -38.5707   64.2916   63.8868 C   0  0  2  0  0  0  0  0  0  0  0  0
  -37.8007   64.3171   62.5587 C   0  0  1  0  0  0  0  0  0  0  0  0
  -36.9714   65.6028   62.3469 C   0  0  2  0  0  0  0  0  0  0  0  0
  -37.9542   66.7410   62.3427 C   0  0  2  0  0  0  0  0  0  0  0  0
  -38.7875   66.7050   63.6110 C   0  0  1  0  0  0  0  0  0  0  0  0
  -39.7042   67.9085   63.4028 C   0  0  0  0  0  0  0  0  0  0  0  0
  -35.0951   64.5857   60.6304 S   0  0  0  0  0  0  0  0  0  0  0  0
  -41.2958   59.7807   63.9778 H   0  0  0  0  0  0  0  0  0  0  0  0
  -37.8608   61.8607   65.0594 H   0  0  0  0  0  0  0  0  0  0  0  0
  -38.1940   61.6005   63.3091 H   0  0  0  0  0  0  0  0  0  0  0  0
  -38.6677   59.8099   64.6092 H   0  0  0  0  0  0  0  0  0  0  0  0
  -38.8837   61.7234   66.7113 H   0  0  0  0  0  0  0  0  0  0  0  0
  -41.0317   61.2430   65.9299 H   0  0  0  0  0  0  0  0  0  0  0  0
  -41.5295   58.8060   65.4340 H   0  0  0  0  0  0  0  0  0  0  0  0
  -39.9104   58.7238   67.9142 H   0  0  0  0  0  0  0  0  0  0  0  0
  -37.4286   62.4154   62.7369 H   0  0  0  0  0  0  0  0  0  0  0  0
  -42.3071   57.1766   67.3931 H   0  0  0  0  0  0  0  0  0  0  0  0
  -40.8602   56.5901   68.2479 H   0  0  0  0  0  0  0  0  0  0  0  0
  -41.2900   56.4923   65.2972 H   0  0  0  0  0  0  0  0  0  0  0  0
  -41.4307   55.1373   66.4638 H   0  0  0  0  0  0  0  0  0  0  0  0
  -35.2403   65.0663   58.6599 H   0  0  0  0  0  0  0  0  0  0  0  0
  -38.8996   56.5886   65.8233 H   0  0  0  0  0  0  0  0  0  0  0  0
  -39.3663   55.0146   65.1978 H   0  0  0  0  0  0  0  0  0  0  0  0
  -38.2346   66.7105   60.3894 H   0  0  0  0  0  0  0  0  0  0  0  0
  -39.4534   54.1238   67.4672 H   0  0  0  0  0  0  0  0  0  0  0  0
  -38.9687   55.7376   68.0735 H   0  0  0  0  0  0  0  0  0  0  0  0
  -36.8182   55.5140   67.0554 H   0  0  0  0  0  0  0  0  0  0  0  0
  -37.2928   53.9177   66.4207 H   0  0  0  0  0  0  0  0  0  0  0  0
  -41.1248   68.4413   62.1820 H   0  0  0  0  0  0  0  0  0  0  0  0
  -37.4156   53.0335   68.6515 H   0  0  0  0  0  0  0  0  0  0  0  0
  -36.9659   54.6266   69.2993 H   0  0  0  0  0  0  0  0  0  0  0  0
  -34.7963   54.4634   68.2696 H   0  0  0  0  0  0  0  0  0  0  0  0
  -35.2465   52.8767   67.6027 H   0  0  0  0  0  0  0  0  0  0  0  0
  -33.7902   52.6481   69.5130 H   0  0  0  0  0  0  0  0  0  0  0  0
  -35.4395   51.9927   69.7948 H   0  0  0  0  0  0  0  0  0  0  0  0
  -34.3992   54.5526   70.8799 H   0  0  0  0  0  0  0  0  0  0  0  0
  -34.5646   53.0094   71.7526 H   0  0  0  0  0  0  0  0  0  0  0  0
  -33.5125   65.2894   61.6918 H   0  0  0  0  0  0  0  0  0  0  0  0
  -36.9430   53.0723   71.4727 H   0  0  0  0  0  0  0  0  0  0  0  0
  -36.7728   54.6181   70.5857 H   0  0  0  0  0  0  0  0  0  0  0  0
  -37.5959   54.9665   72.8470 H   0  0  0  0  0  0  0  0  0  0  0  0
  -36.0278   55.7118   72.5668 H   0  0  0  0  0  0  0  0  0  0  0  0
  -34.9327   53.8517   73.6573 H   0  0  0  0  0  0  0  0  0  0  0  0
  -36.5564   53.1285   73.9378 H   0  0  0  0  0  0  0  0  0  0  0  0
  -35.5070   55.6012   75.2066 H   0  0  0  0  0  0  0  0  0  0  0  0
  -35.6911   54.0397   75.9687 H   0  0  0  0  0  0  0  0  0  0  0  0
  -37.1002   54.9174   75.4236 H   0  0  0  0  0  0  0  0  0  0  0  0
  -42.4091   59.5800   62.2489 H   0  0  0  0  0  0  0  0  0  0  0  0
  -41.4732   59.3089   60.8240 H   0  0  0  0  0  0  0  0  0  0  0  0
  -43.2176   61.0218   60.4180 H   0  0  0  0  0  0  0  0  0  0  0  0
  -41.6218   61.7286   60.2778 H   0  0  0  0  0  0  0  0  0  0  0  0
  -41.7723   62.5432   62.5598 H   0  0  0  0  0  0  0  0  0  0  0  0
  -43.4135   61.8173   62.6522 H   0  0  0  0  0  0  0  0  0  0  0  0
  -42.6548   64.0887   60.8970 H   0  0  0  0  0  0  0  0  0  0  0  0
  -43.4904   64.2358   62.4093 H   0  0  0  0  0  0  0  0  0  0  0  0
  -45.2535   62.7303   61.5778 H   0  0  0  0  0  0  0  0  0  0  0  0
  -44.3776   62.6090   60.0430 H   0  0  0  0  0  0  0  0  0  0  0  0
  -45.5748   65.1107   61.1663 H   0  0  0  0  0  0  0  0  0  0  0  0
  -46.2339   64.1070   59.8487 H   0  0  0  0  0  0  0  0  0  0  0  0
  -45.1529   66.1073   58.9882 H   0  0  0  0  0  0  0  0  0  0  0  0
  -44.3432   64.6144   58.4814 H   0  0  0  0  0  0  0  0  0  0  0  0
  -42.6063   64.9665   60.1365 H   0  0  0  0  0  0  0  0  0  0  0  0
  -43.4052   66.4325   60.6802 H   0  0  0  0  0  0  0  0  0  0  0  0
  -43.0972   67.4281   58.4883 H   0  0  0  0  0  0  0  0  0  0  0  0
  -42.2812   65.9245   57.9654 H   0  0  0  0  0  0  0  0  0  0  0  0
  -41.2631   67.8020   60.0376 H   0  0  0  0  0  0  0  0  0  0  0  0
  -40.7065   67.6852   58.3635 H   0  0  0  0  0  0  0  0  0  0  0  0
  -40.5685   65.5148   60.4024 H   0  0  0  0  0  0  0  0  0  0  0  0
  -39.2263   66.5540   59.8146 H   0  0  0  0  0  0  0  0  0  0  0  0
  -40.6919   64.5609   58.1470 H   0  0  0  0  0  0  0  0  0  0  0  0
  -39.1273   64.3061   58.8603 H   0  0  0  0  0  0  0  0  0  0  0  0
  -39.8769   66.5143   56.9783 H   0  0  0  0  0  0  0  0  0  0  0  0
  -38.8771   65.0352   56.6388 H   0  0  0  0  0  0  0  0  0  0  0  0
  -38.0338   67.2980   58.3426 H   0  0  0  0  0  0  0  0  0  0  0  0
  -37.5575   67.0305   56.6715 H   0  0  0  0  0  0  0  0  0  0  0  0
  -37.0681   65.1385   58.9515 H   0  0  0  0  0  0  0  0  0  0  0  0
  -35.8717   66.2091   58.1721 H   0  0  0  0  0  0  0  0  0  0  0  0
  -36.0544   64.9783   56.1280 H   0  0  0  0  0  0  0  0  0  0  0  0
  -37.2666   63.9196   56.8779 H   0  0  0  0  0  0  0  0  0  0  0  0
  -34.3919   64.1278   57.6896 H   0  0  0  0  0  0  0  0  0  0  0  0
  -35.1115   62.8146   56.7891 H   0  0  0  0  0  0  0  0  0  0  0  0
  -35.5993   63.1121   58.4403 H   0  0  0  0  0  0  0  0  0  0  0  0
  -37.8613   64.3371   64.6865 H   0  0  0  0  0  0  0  0  0  0  0  0
  -38.5037   64.2763   61.7531 H   0  0  0  0  0  0  0  0  0  0  0  0
  -36.2362   65.6172   63.1242 H   0  0  0  0  0  0  0  0  0  0  0  0
  -37.4139   67.6641   62.3117 H   0  0  0  0  0  0  0  0  0  0  0  0
  -38.2128   66.7722   64.5111 H   0  0  0  0  0  0  0  0  0  0  0  0
  -40.2958   68.0614   64.2812 H   0  0  0  0  0  0  0  0  0  0  0  0
  -39.1105   68.7786   63.2144 H   0  0  0  0  0  0  0  0  0  0  0  0
  1  4  1  0  0  0  0
  1 31  1  0  0  0  0
  1 56  1  0  0  0  0
  2  3  1  0  0  0  0
  2  4  1  0  0  0  0
  2 57  1  0  0  0  0
  2 58  1  0  0  0  0
  3 49  1  0  0  0  0
  4  6  1  0  0  0  0
  4 59  1  1  0  0  0
  5  6  1  0  0  0  0
  5 60  1  0  0  0  0
  6  8  1  0  0  0  0
  6 61  1  6  0  0  0
  7 31  2  0  0  0  0
  8  9  2  0  0  0  0
  8 62  1  0  0  0  0
  9 11  1  0  0  0  0
  9 63  1  0  0  0  0
 10 50  1  0  0  0  0
 10 64  1  0  0  0  0
 11 13  1  0  0  0  0
 11 65  1  0  0  0  0
 11 66  1  0  0  0  0
 12 51  1  0  0  0  0
 12 55  1  0  0  0  0
 13 15  1  0  0  0  0
 13 67  1  0  0  0  0
 13 68  1  0  0  0  0
 14 55  1  0  0  0  0
 14 69  1  0  0  0  0
 15 17  1  0  0  0  0
 15 70  1  0  0  0  0
 15 71  1  0  0  0  0
 16 52  1  0  0  0  0
 16 72  1  0  0  0  0
 17 19  1  0  0  0  0
 17 73  1  0  0  0  0
 17 74  1  0  0  0  0
 18 49  1  0  0  0  0
 18 53  1  0  0  0  0
 19 21  1  0  0  0  0
 19 75  1  0  0  0  0
 19 76  1  0  0  0  0
 20 54  1  0  0  0  0
 20 77  1  0  0  0  0
 21 22  1  0  0  0  0
 21 78  1  0  0  0  0
 21 79  1  0  0  0  0
 22 23  1  0  0  0  0
 22 80  1  0  0  0  0
 22 81  1  0  0  0  0
 23 25  1  0  0  0  0
 23 82  1  0  0  0  0
 23 83  1  0  0  0  0
 24 55  1  0  0  0  0
 25 27  1  0  0  0  0
 25 84  1  0  0  0  0
 25 85  1  0  0  0  0
 26 55  1  0  0  0  0
 26 86  1  0  0  0  0
 27 28  1  0  0  0  0
 27 87  1  0  0  0  0
 27 88  1  0  0  0  0
 28 29  1  0  0  0  0
 28 89  1  0  0  0  0
 28 90  1  0  0  0  0
 29 30  1  0  0  0  0
 29 91  1  0  0  0  0
 29 92  1  0  0  0  0
 30 93  1  0  0  0  0
 30 94  1  0  0  0  0
 30 95  1  0  0  0  0
 31 32  1  0  0  0  0
 32 33  1  0  0  0  0
 32 96  1  0  0  0  0
 32 97  1  0  0  0  0
 33 34  1  0  0  0  0
 33 98  1  0  0  0  0
 33 99  1  0  0  0  0
 34 35  1  0  0  0  0
 34100  1  0  0  0  0
 34101  1  0  0  0  0
 35 36  1  0  0  0  0
 35102  1  0  0  0  0
 35103  1  0  0  0  0
 36 37  1  0  0  0  0
 36104  1  0  0  0  0
 36105  1  0  0  0  0
 37 38  1  0  0  0  0
 37106  1  0  0  0  0
 37107  1  0  0  0  0
 38 39  1  0  0  0  0
 38108  1  0  0  0  0
 38109  1  0  0  0  0
 39 40  1  0  0  0  0
 39110  1  0  0  0  0
 39111  1  0  0  0  0
 40 41  1  0  0  0  0
 40112  1  0  0  0  0
 40113  1  0  0  0  0
 41 42  1  0  0  0  0
 41114  1  0  0  0  0
 41115  1  0  0  0  0
 42 43  1  0  0  0  0
 42116  1  0  0  0  0
 42117  1  0  0  0  0
 43 44  1  0  0  0  0
 43118  1  0  0  0  0
 43119  1  0  0  0  0
 44 45  1  0  0  0  0
 44120  1  0  0  0  0
 44121  1  0  0  0  0
 45 46  1  0  0  0  0
 45122  1  0  0  0  0
 45123  1  0  0  0  0
 46 47  1  0  0  0  0
 46124  1  0  0  0  0
 46125  1  0  0  0  0
 47 48  1  0  0  0  0
 47126  1  0  0  0  0
 47127  1  0  0  0  0
 48128  1  0  0  0  0
 48129  1  0  0  0  0
 48130  1  0  0  0  0
 49 50  1  0  0  0  0
 49131  1  1  0  0  0
 50 51  1  0  0  0  0
 50132  1  6  0  0  0
 51 52  1  0  0  0  0
 51133  1  1  0  0  0
 52 53  1  0  0  0  0
 52134  1  6  0  0  0
 53 54  1  0  0  0  0
 53135  1  1  0  0  0
 54136  1  0  0  0  0
 54137  1  0  0  0  0
M  CHG  1  24  -1
M  END
$$$$
/media/chris/experiments/cd1a-new-docking/inputs/ligands/1onq_ligand.pdb
 OpenBabel06222310383D

137137  0  0  1  0  0  0  0  0999 V2000
  -40.4920   60.2280   63.6270 N   0  0  0  0  0  0  0  0  0  0  0  0
  -38.5950   61.7730   64.2860 C   0  0  0  0  0  0  0  0  0  0  0  0
  -37.5441   62.0867   65.2349 O   0  0  0  0  0  0  0  0  0  0  0  0
  -39.4590   60.5300   64.5980 C   0  0  1  0  0  0  0  0  0  0  0  0
  -40.7577   59.2290   66.0180 O   0  0  0  0  0  0  0  0  0  0  0  0
  -40.2280   60.5370   65.9080 C   0  0  2  0  0  0  0  0  0  0  0  0
  -39.2820   59.8772   61.7401 O   0  0  0  0  0  0  0  0  0  0  0  0
  -41.3266   61.6007   65.8452 C   0  0  0  0  0  0  0  0  0  0  0  0
  -41.3921   62.6366   66.6990 C   0  0  0  0  0  0  0  0  0  0  0  0
  -35.0677   62.0871   63.8049 O   0  0  0  0  0  0  0  0  0  0  0  0
  -42.5217   63.6569   66.5713 C   0  0  0  0  0  0  0  0  0  0  0  0
  -34.0199   64.5267   62.4933 O   0  0  0  0  0  0  0  0  0  0  0  0
  -42.1870   64.8436   65.6560 C   0  0  0  0  0  0  0  0  0  0  0  0
  -31.8452   65.6919   63.2869 O   0  0  0  0  0  0  0  0  0  0  0  0
  -40.9647   65.6825   66.0724 C   0  0  0  0  0  0  0  0  0  0  0  0
  -36.4318   65.8017   62.4860 O   0  0  0  0  0  0  0  0  0  0  0  0
  -41.1624   66.2759   67.4881 C   0  0  0  0  0  0  0  0  0  0  0  0
  -37.4137   64.5009   65.0354 O   0  0  0  0  0  0  0  0  0  0  0  0
  -39.9966   67.1563   68.0054 C   0  0  0  0  0  0  0  0  0  0  0  0
  -36.4467   68.0573   64.5825 O   0  0  0  0  0  0  0  0  0  0  0  0
  -39.7103   68.4031   67.1358 C   0  0  0  0  0  0  0  0  0  0  0  0
  -38.5355   69.2608   67.6538 C   0  0  0  0  0  0  0  0  0  0  0  0
  -38.7394   69.7922   69.0777 C   0  0  0  0  0  0  0  0  0  0  0  0
  -33.6225   67.0179   62.3011 O   0  5  0  0  0  0  0  0  0  0  0  0
  -39.9668   70.6746   69.2956 C   0  0  0  0  0  0  0  0  0  0  0  0
  -32.2187   65.6260   60.8989 O   0  0  0  0  0  0  0  0  0  0  0  0
  -39.9895   71.9426   68.4196 C   0  0  0  0  0  0  0  0  0  0  0  0
  -38.7970   72.8920   68.6107 C   0  0  0  0  0  0  0  0  0  0  0  0
  -38.9250   74.1239   67.7101 C   0  0  0  0  0  0  0  0  0  0  0  0
  -39.0006   73.8632   66.2161 C   0  0  0  0  0  0  0  0  0  0  0  0
  -40.3447   59.9361   62.3275 C   0  0  0  0  0  0  0  0  0  0  0  0
  -41.6199   59.6610   61.5872 C   0  0  0  0  0  0  0  0  0  0  0  0
  -41.7052   60.7009   60.4698 C   0  0  0  0  0  0  0  0  0  0  0  0
  -42.9913   60.5037   59.6710 C   0  0  0  0  0  0  0  0  0  0  0  0
  -43.2076   61.4525   58.5171 C   0  0  0  0  0  0  0  0  0  0  0  0
  -42.0528   61.2600   57.5396 C   0  0  0  0  0  0  0  0  0  0  0  0
  -41.9802   59.8324   56.9814 C   0  0  0  0  0  0  0  0  0  0  0  0
  -40.8154   59.5947   56.0030 C   0  0  0  0  0  0  0  0  0  0  0  0
  -40.8692   60.5217   54.7688 C   0  0  0  0  0  0  0  0  0  0  0  0
  -39.7001   60.2308   53.8235 C   0  0  0  0  0  0  0  0  0  0  0  0
  -38.3160   60.4069   54.4363 C   0  0  0  0  0  0  0  0  0  0  0  0
  -38.0868   59.4794   55.6205 C   0  0  0  0  0  0  0  0  0  0  0  0
  -36.7267   59.5977   56.3121 C   0  0  0  0  0  0  0  0  0  0  0  0
  -36.6819   58.5865   57.4497 C   0  0  0  0  0  0  0  0  0  0  0  0
  -37.7243   58.6842   58.5538 C   0  0  0  0  0  0  0  0  0  0  0  0
  -37.5053   57.5941   59.6148 C   0  0  0  0  0  0  0  0  0  0  0  0
  -36.1424   57.6619   60.3281 C   0  0  0  0  0  0  0  0  0  0  0  0
  -35.9210   58.9697   61.0845 C   0  0  0  0  0  0  0  0  0  0  0  0
  -36.6675   63.2597   65.0462 C   0  0  2  0  0  0  0  0  0  0  0  0
  -35.8119   63.2657   63.7712 C   0  0  1  0  0  0  0  0  0  0  0  0
  -34.8316   64.4561   63.6875 C   0  0  2  0  0  0  0  0  0  0  0  0
  -35.6781   65.6990   63.6916 C   0  0  2  0  0  0  0  0  0  0  0  0
  -36.5935   65.6931   64.9025 C   0  0  1  0  0  0  0  0  0  0  0  0
  -37.3535   67.0038   64.7114 C   0  0  0  0  0  0  0  0  0  0  0  0
  -32.8935   65.7229   62.2244 S   0  0  0  0  0  0  0  0  0  0  0  0
  -41.4169   60.2387   63.9642 H   0  0  0  0  0  0  0  0  0  0  0  0
  -38.1357   61.6183   63.3320 H   0  0  0  0  0  0  0  0  0  0  0  0
  -39.2690   62.6030   64.3261 H   0  0  0  0  0  0  0  0  0  0  0  0
  -38.6677   59.8099   64.6092 H   0  0  0  0  0  0  0  0  0  0  0  0
  -40.0308   58.5878   66.0547 H   0  0  0  0  0  0  0  0  0  0  0  0
  -39.6247   60.7776   66.7583 H   0  0  0  0  0  0  0  0  0  0  0  0
  -42.0502   61.5188   65.1139 H   0  0  0  0  0  0  0  0  0  0  0  0
  -40.6808   62.7424   67.4391 H   0  0  0  0  0  0  0  0  0  0  0  0
  -35.6681   61.3270   63.8576 H   0  0  0  0  0  0  0  0  0  0  0  0
  -42.7452   64.0361   67.5466 H   0  0  0  0  0  0  0  0  0  0  0  0
  -43.3521   63.1475   66.1287 H   0  0  0  0  0  0  0  0  0  0  0  0
  -43.0382   65.4915   65.6328 H   0  0  0  0  0  0  0  0  0  0  0  0
  -41.9397   64.4189   64.7055 H   0  0  0  0  0  0  0  0  0  0  0  0
  -32.2663   65.7541   64.1585 H   0  0  0  0  0  0  0  0  0  0  0  0
  -40.8323   66.4811   65.3727 H   0  0  0  0  0  0  0  0  0  0  0  0
  -40.1018   65.0499   66.0830 H   0  0  0  0  0  0  0  0  0  0  0  0
  -35.8283   65.8037   61.7266 H   0  0  0  0  0  0  0  0  0  0  0  0
  -41.2918   65.4634   68.1722 H   0  0  0  0  0  0  0  0  0  0  0  0
  -42.0138   66.9206   67.4227 H   0  0  0  0  0  0  0  0  0  0  0  0
  -39.1107   66.5569   68.0346 H   0  0  0  0  0  0  0  0  0  0  0  0
  -40.2864   67.5145   68.9711 H   0  0  0  0  0  0  0  0  0  0  0  0
  -36.9318   68.8885   64.4613 H   0  0  0  0  0  0  0  0  0  0  0  0
  -40.5905   69.0113   67.1162 H   0  0  0  0  0  0  0  0  0  0  0  0
  -39.4373   68.0515   66.1628 H   0  0  0  0  0  0  0  0  0  0  0  0
  -38.4116   70.0958   66.9964 H   0  0  0  0  0  0  0  0  0  0  0  0
  -37.6734   68.6275   67.6775 H   0  0  0  0  0  0  0  0  0  0  0  0
  -37.8743   70.3647   69.3400 H   0  0  0  0  0  0  0  0  0  0  0  0
  -38.8949   68.9273   69.6880 H   0  0  0  0  0  0  0  0  0  0  0  0
  -39.9878   70.9744   70.3225 H   0  0  0  0  0  0  0  0  0  0  0  0
  -40.8206   70.0917   69.0196 H   0  0  0  0  0  0  0  0  0  0  0  0
  -31.7406   64.7841   60.8403 H   0  0  0  0  0  0  0  0  0  0  0  0
  -40.8838   72.4850   68.6456 H   0  0  0  0  0  0  0  0  0  0  0  0
  -39.9394   71.6038   67.4059 H   0  0  0  0  0  0  0  0  0  0  0  0
  -37.8939   72.3726   68.3666 H   0  0  0  0  0  0  0  0  0  0  0  0
  -38.7798   73.2160   69.6303 H   0  0  0  0  0  0  0  0  0  0  0  0
  -38.0743   74.7478   67.8890 H   0  0  0  0  0  0  0  0  0  0  0  0
  -39.8631   74.5688   67.9688 H   0  0  0  0  0  0  0  0  0  0  0  0
  -38.0871   73.4145   65.8857 H   0  0  0  0  0  0  0  0  0  0  0  0
  -39.1508   74.7882   65.6998 H   0  0  0  0  0  0  0  0  0  0  0  0
  -39.8171   73.2030   66.0102 H   0  0  0  0  0  0  0  0  0  0  0  0
  -42.4578   59.7563   62.2459 H   0  0  0  0  0  0  0  0  0  0  0  0
  -41.6317   58.6665   61.1925 H   0  0  0  0  0  0  0  0  0  0  0  0
  -40.8632   60.5914   59.8187 H   0  0  0  0  0  0  0  0  0  0  0  0
  -41.7056   61.6804   60.9005 H   0  0  0  0  0  0  0  0  0  0  0  0
  -43.8151   60.6151   60.3447 H   0  0  0  0  0  0  0  0  0  0  0  0
  -42.9114   59.5309   59.2326 H   0  0  0  0  0  0  0  0  0  0  0  0
  -43.2208   62.4618   58.8720 H   0  0  0  0  0  0  0  0  0  0  0  0
  -44.1432   61.2538   58.0374 H   0  0  0  0  0  0  0  0  0  0  0  0
  -41.1357   61.4762   58.0466 H   0  0  0  0  0  0  0  0  0  0  0  0
  -42.2147   61.9215   56.7143 H   0  0  0  0  0  0  0  0  0  0  0  0
  -42.8963   59.6257   56.4687 H   0  0  0  0  0  0  0  0  0  0  0  0
  -41.8166   59.1840   57.8168 H   0  0  0  0  0  0  0  0  0  0  0  0
  -40.8518   58.5788   55.6689 H   0  0  0  0  0  0  0  0  0  0  0  0
  -39.9071   59.8090   56.5265 H   0  0  0  0  0  0  0  0  0  0  0  0
  -40.8151   61.5404   55.0917 H   0  0  0  0  0  0  0  0  0  0  0  0
  -41.7865   60.3468   54.2463 H   0  0  0  0  0  0  0  0  0  0  0  0
  -39.7785   60.8918   52.9857 H   0  0  0  0  0  0  0  0  0  0  0  0
  -39.7802   59.1972   53.5588 H   0  0  0  0  0  0  0  0  0  0  0  0
  -38.2124   61.4192   54.7670 H   0  0  0  0  0  0  0  0  0  0  0  0
  -37.5926   60.1649   53.6860 H   0  0  0  0  0  0  0  0  0  0  0  0
  -38.1907   58.4728   55.2728 H   0  0  0  0  0  0  0  0  0  0  0  0
  -38.8098   59.7658   56.3553 H   0  0  0  0  0  0  0  0  0  0  0  0
  -36.6031   60.5866   56.7014 H   0  0  0  0  0  0  0  0  0  0  0  0
  -35.9390   59.4040   55.6142 H   0  0  0  0  0  0  0  0  0  0  0  0
  -35.7219   58.6763   57.9137 H   0  0  0  0  0  0  0  0  0  0  0  0
  -36.8923   57.6509   56.9750 H   0  0  0  0  0  0  0  0  0  0  0  0
  -38.6984   58.5666   58.1269 H   0  0  0  0  0  0  0  0  0  0  0  0
  -37.6346   59.6411   59.0241 H   0  0  0  0  0  0  0  0  0  0  0  0
  -37.5847   56.6406   59.1356 H   0  0  0  0  0  0  0  0  0  0  0  0
  -38.2505   57.7476   60.3671 H   0  0  0  0  0  0  0  0  0  0  0  0
  -35.3699   57.5585   59.5951 H   0  0  0  0  0  0  0  0  0  0  0  0
  -36.1224   56.8715   61.0491 H   0  0  0  0  0  0  0  0  0  0  0  0
  -35.9344   59.7874   60.3946 H   0  0  0  0  0  0  0  0  0  0  0  0
  -34.9741   58.9381   61.5819 H   0  0  0  0  0  0  0  0  0  0  0  0
  -36.6993   59.0999   61.8071 H   0  0  0  0  0  0  0  0  0  0  0  0
  -36.0127   63.1808   65.8888 H   0  0  0  0  0  0  0  0  0  0  0  0
  -36.4595   63.3487   62.9234 H   0  0  0  0  0  0  0  0  0  0  0  0
  -34.1533   64.3446   64.5075 H   0  0  0  0  0  0  0  0  0  0  0  0
  -35.0370   66.5538   63.7488 H   0  0  0  0  0  0  0  0  0  0  0  0
  -36.0767   65.6460   65.8383 H   0  0  0  0  0  0  0  0  0  0  0  0
  -37.9544   66.9413   63.8283 H   0  0  0  0  0  0  0  0  0  0  0  0
  -37.9810   67.1774   65.5606 H   0  0  0  0  0  0  0  0  0  0  0  0
  1  4  1  0  0  0  0
  1 31  1  0  0  0  0
  1 56  1  0  0  0  0
  2  3  1  0  0  0  0
  2  4  1  0  0  0  0
  2 57  1  0  0  0  0
  2 58  1  0  0  0  0
  3 49  1  0  0  0  0
  4  6  1  0  0  0  0
  4 59  1  1  0  0  0
  5  6  1  0  0  0  0
  5 60  1  0  0  0  0
  6  8  1  0  0  0  0
  6 61  1  1  0  0  0
  7 31  2  0  0  0  0
  8  9  2  0  0  0  0
  8 62  1  0  0  0  0
  9 11  1  0  0  0  0
  9 63  1  0  0  0  0
 10 50  1  0  0  0  0
 10 64  1  0  0  0  0
 11 13  1  0  0  0  0
 11 65  1  0  0  0  0
 11 66  1  0  0  0  0
 12 51  1  0  0  0  0
 12 55  1  0  0  0  0
 13 15  1  0  0  0  0
 13 67  1  0  0  0  0
 13 68  1  0  0  0  0
 14 55  1  0  0  0  0
 14 69  1  0  0  0  0
 15 17  1  0  0  0  0
 15 70  1  0  0  0  0
 15 71  1  0  0  0  0
 16 52  1  0  0  0  0
 16 72  1  0  0  0  0
 17 19  1  0  0  0  0
 17 73  1  0  0  0  0
 17 74  1  0  0  0  0
 18 49  1  0  0  0  0
 18 53  1  0  0  0  0
 19 21  1  0  0  0  0
 19 75  1  0  0  0  0
 19 76  1  0  0  0  0
 20 54  1  0  0  0  0
 20 77  1  0  0  0  0
 21 22  1  0  0  0  0
 21 78  1  0  0  0  0
 21 79  1  0  0  0  0
 22 23  1  0  0  0  0
 22 80  1  0  0  0  0
 22 81  1  0  0  0  0
 23 25  1  0  0  0  0
 23 82  1  0  0  0  0
 23 83  1  0  0  0  0
 24 55  1  0  0  0  0
 25 27  1  0  0  0  0
 25 84  1  0  0  0  0
 25 85  1  0  0  0  0
 26 55  1  0  0  0  0
 26 86  1  0  0  0  0
 27 28  1  0  0  0  0
 27 87  1  0  0  0  0
 27 88  1  0  0  0  0
 28 29  1  0  0  0  0
 28 89  1  0  0  0  0
 28 90  1  0  0  0  0
 29 30  1  0  0  0  0
 29 91  1  0  0  0  0
 29 92  1  0  0  0  0
 30 93  1  0  0  0  0
 30 94  1  0  0  0  0
 30 95  1  0  0  0  0
 31 32  1  0  0  0  0
 32 33  1  0  0  0  0
 32 96  1  0  0  0  0
 32 97  1  0  0  0  0
 33 34  1  0  0  0  0
 33 98  1  0  0  0  0
 33 99  1  0  0  0  0
 34 35  1  0  0  0  0
 34100  1  0  0  0  0
 34101  1  0  0  0  0
 35 36  1  0  0  0  0
 35102  1  0  0  0  0
 35103  1  0  0  0  0
 36 37  1  0  0  0  0
 36104  1  0  0  0  0
 36105  1  0  0  0  0
 37 38  1  0  0  0  0
 37106  1  0  0  0  0
 37107  1  0  0  0  0
 38 39  1  0  0  0  0
 38108  1  0  0  0  0
 38109  1  0  0  0  0
 39 40  1  0  0  0  0
 39110  1  0  0  0  0
 39111  1  0  0  0  0
 40 41  1  0  0  0  0
 40112  1  0  0  0  0
 40113  1  0  0  0  0
 41 42  1  0  0  0  0
 41114  1  0  0  0  0
 41115  1  0  0  0  0
 42 43  1  0  0  0  0
 42116  1  0  0  0  0
 42117  1  0  0  0  0
 43 44  1  0  0  0  0
 43118  1  0  0  0  0
 43119  1  0  0  0  0
 44 45  1  0  0  0  0
 44120  1  0  0  0  0
 44121  1  0  0  0  0
 45 46  1  0  0  0  0
 45122  1  0  0  0  0
 45123  1  0  0  0  0
 46 47  1  0  0  0  0
 46124  1  0  0  0  0
 46125  1  0  0  0  0
 47 48  1  0  0  0  0
 47126  1  0  0  0  0
 47127  1  0  0  0  0
 48128  1  0  0  0  0
 48129  1  0  0  0  0
 48130  1  0  0  0  0
 49 50  1  0  0  0  0
 49131  1  1  0  0  0
 50 51  1  0  0  0  0
 50132  1  6  0  0  0
 51 52  1  0  0  0  0
 51133  1  1  0  0  0
 52 53  1  0  0  0  0
 52134  1  1  0  0  0
 53 54  1  0  0  0  0
 53135  1  1  0  0  0
 54136  1  0  0  0  0
 54137  1  0  0  0  0
M  CHG  1  24  -1
M  END
$$$$
/media/chris/experiments/cd1a-new-docking/inputs/ligands/1onq_ligand.pdb
 OpenBabel06222310383D

137137  0  0  1  0  0  0  0  0999 V2000
  -40.4920   60.2280   63.6270 N   0  0  0  0  0  0  0  0  0  0  0  0
  -38.5950   61.7730   64.2860 C   0  0  0  0  0  0  0  0  0  0  0  0
  -37.5441   62.0867   65.2349 O   0  0  0  0  0  0  0  0  0  0  0  0
  -39.4590   60.5300   64.5980 C   0  0  1  0  0  0  0  0  0  0  0  0
  -40.7577   59.2290   66.0180 O   0  0  0  0  0  0  0  0  0  0  0  0
  -40.2280   60.5370   65.9080 C   0  0  2  0  0  0  0  0  0  0  0  0
  -41.4675   58.3885   64.5282 O   0  0  0  0  0  0  0  0  0  0  0  0
  -41.3266   61.6007   65.8452 C   0  0  0  0  0  0  0  0  0  0  0  0
  -42.3197   61.5746   64.9400 C   0  0  0  0  0  0  0  0  0  0  0  0
  -38.2938   64.5178   63.9293 O   0  0  0  0  0  0  0  0  0  0  0  0
  -43.3792   62.6750   64.9418 C   0  0  0  0  0  0  0  0  0  0  0  0
  -37.0206   67.1074   64.5954 O   0  0  0  0  0  0  0  0  0  0  0  0
  -43.9635   62.9777   63.5543 C   0  0  0  0  0  0  0  0  0  0  0  0
  -39.4381   66.6435   63.7846 O   0  0  0  0  0  0  0  0  0  0  0  0
  -42.9490   63.4311   62.4883 C   0  0  0  0  0  0  0  0  0  0  0  0
  -36.0508   66.2424   66.9942 O   0  0  0  0  0  0  0  0  0  0  0  0
  -43.6580   63.7216   61.1436 C   0  0  0  0  0  0  0  0  0  0  0  0
  -35.6795   63.3761   66.0987 O   0  0  0  0  0  0  0  0  0  0  0  0
  -44.7282   64.8416   61.1883 C   0  0  0  0  0  0  0  0  0  0  0  0
  -33.0018   65.8439   66.8253 O   0  0  0  0  0  0  0  0  0  0  0  0
  -44.1790   66.2263   61.6052 C   0  0  0  0  0  0  0  0  0  0  0  0
  -43.0966   66.7744   60.6501 C   0  0  0  0  0  0  0  0  0  0  0  0
  -42.5369   68.1392   61.0689 C   0  0  0  0  0  0  0  0  0  0  0  0
  -37.7256   67.2310   62.1688 O   0  5  0  0  0  0  0  0  0  0  0  0
  -41.8518   68.1940   62.4327 C   0  0  0  0  0  0  0  0  0  0  0  0
  -38.6691   68.9297   63.6175 O   0  0  0  0  0  0  0  0  0  0  0  0
  -42.7639   67.7906   63.6080 C   0  0  0  0  0  0  0  0  0  0  0  0
  -42.1088   67.8518   64.9961 C   0  0  0  0  0  0  0  0  0  0  0  0
  -43.0911   67.4167   66.0874 C   0  0  0  0  0  0  0  0  0  0  0  0
  -42.5723   67.4474   67.5141 C   0  0  0  0  0  0  0  0  0  0  0  0
  -41.3839   59.2282   63.6532 C   0  0  0  0  0  0  0  0  0  0  0  0
  -42.3351   59.1918   62.4940 C   0  0  0  0  0  0  0  0  0  0  0  0
  -43.2627   58.0001   62.7320 C   0  0  0  0  0  0  0  0  0  0  0  0
  -44.2595   57.8773   61.5821 C   0  0  0  0  0  0  0  0  0  0  0  0
  -45.2569   56.7491   61.6863 C   0  0  0  0  0  0  0  0  0  0  0  0
  -44.4706   55.4444   61.7605 C   0  0  0  0  0  0  0  0  0  0  0  0
  -43.5748   55.2213   60.5347 C   0  0  0  0  0  0  0  0  0  0  0  0
  -42.7774   53.9046   60.5656 C   0  0  0  0  0  0  0  0  0  0  0  0
  -41.8742   53.7204   59.3263 C   0  0  0  0  0  0  0  0  0  0  0  0
  -41.1197   52.3899   59.4010 C   0  0  0  0  0  0  0  0  0  0  0  0
  -42.0032   51.1491   59.4459 C   0  0  0  0  0  0  0  0  0  0  0  0
  -41.1914   49.8654   59.5366 C   0  0  0  0  0  0  0  0  0  0  0  0
  -41.9956   48.5638   59.5699 C   0  0  0  0  0  0  0  0  0  0  0  0
  -42.9183   48.6054   60.7805 C   0  0  0  0  0  0  0  0  0  0  0  0
  -42.3008   48.7530   62.1633 C   0  0  0  0  0  0  0  0  0  0  0  0
  -41.3358   47.5944   62.4611 C   0  0  0  0  0  0  0  0  0  0  0  0
  -41.9818   46.1974   62.4148 C   0  0  0  0  0  0  0  0  0  0  0  0
  -43.1291   46.0293   63.4082 C   0  0  0  0  0  0  0  0  0  0  0  0
  -36.6675   63.2597   65.0462 C   0  0  2  0  0  0  0  0  0  0  0  0
  -37.3701   64.6228   64.9685 C   0  0  1  0  0  0  0  0  0  0  0  0
  -36.4160   65.7955   64.6529 C   0  0  2  0  0  0  0  0  0  0  0  0
  -35.4210   65.8428   65.7794 C   0  0  2  0  0  0  0  0  0  0  0  0
  -34.7568   64.4868   65.9355 C   0  0  1  0  0  0  0  0  0  0  0  0
  -33.8159   64.7462   67.1101 C   0  0  0  0  0  0  0  0  0  0  0  0
  -38.2433   67.5036   63.5371 S   0  0  0  0  0  0  0  0  0  0  0  0
  -40.5449   60.8326   62.8518 H   0  0  0  0  0  0  0  0  0  0  0  0
  -38.1357   61.6183   63.3320 H   0  0  0  0  0  0  0  0  0  0  0  0
  -39.2690   62.6030   64.3261 H   0  0  0  0  0  0  0  0  0  0  0  0
  -38.6677   59.8099   64.6092 H   0  0  0  0  0  0  0  0  0  0  0  0
  -40.0308   58.5878   66.0547 H   0  0  0  0  0  0  0  0  0  0  0  0
  -39.6247   60.7776   66.7583 H   0  0  0  0  0  0  0  0  0  0  0  0
  -41.3038   62.3732   66.5291 H   0  0  0  0  0  0  0  0  0  0  0  0
  -42.3663   60.8129   64.2453 H   0  0  0  0  0  0  0  0  0  0  0  0
  -38.9026   63.7849   64.1107 H   0  0  0  0  0  0  0  0  0  0  0  0
  -42.9345   63.5705   65.3229 H   0  0  0  0  0  0  0  0  0  0  0  0
  -44.1877   62.3270   65.5504 H   0  0  0  0  0  0  0  0  0  0  0  0
  -44.6920   63.7534   63.6662 H   0  0  0  0  0  0  0  0  0  0  0  0
  -44.3669   62.0525   63.1989 H   0  0  0  0  0  0  0  0  0  0  0  0
  -39.1800   65.7097   63.7362 H   0  0  0  0  0  0  0  0  0  0  0  0
  -42.2238   62.6579   62.3428 H   0  0  0  0  0  0  0  0  0  0  0  0
  -42.4738   64.3282   62.8265 H   0  0  0  0  0  0  0  0  0  0  0  0
  -36.4678   67.1097   66.8721 H   0  0  0  0  0  0  0  0  0  0  0  0
  -44.1357   62.8205   60.8203 H   0  0  0  0  0  0  0  0  0  0  0  0
  -42.8964   64.0663   60.4757 H   0  0  0  0  0  0  0  0  0  0  0  0
  -45.4844   64.5555   61.8891 H   0  0  0  0  0  0  0  0  0  0  0  0
  -45.1050   64.9471   60.1924 H   0  0  0  0  0  0  0  0  0  0  0  0
  -32.4053   66.0066   67.5727 H   0  0  0  0  0  0  0  0  0  0  0  0
  -43.7551   66.1414   62.5839 H   0  0  0  0  0  0  0  0  0  0  0  0
  -45.0001   66.9117   61.5756 H   0  0  0  0  0  0  0  0  0  0  0  0
  -43.5247   66.8701   59.6741 H   0  0  0  0  0  0  0  0  0  0  0  0
  -42.2809   66.0823   60.6727 H   0  0  0  0  0  0  0  0  0  0  0  0
  -43.3493   68.8354   61.0828 H   0  0  0  0  0  0  0  0  0  0  0  0
  -41.7743   68.3688   60.3544 H   0  0  0  0  0  0  0  0  0  0  0  0
  -41.5117   69.1949   62.5986 H   0  0  0  0  0  0  0  0  0  0  0  0
  -41.0499   67.4861   62.4055 H   0  0  0  0  0  0  0  0  0  0  0  0
  -39.0082   69.1162   64.5069 H   0  0  0  0  0  0  0  0  0  0  0  0
  -43.0934   66.7863   63.4415 H   0  0  0  0  0  0  0  0  0  0  0  0
  -43.5603   68.5050   63.6241 H   0  0  0  0  0  0  0  0  0  0  0  0
  -41.7929   68.8556   65.1899 H   0  0  0  0  0  0  0  0  0  0  0  0
  -41.2712   67.1860   65.0069 H   0  0  0  0  0  0  0  0  0  0  0  0
  -43.3930   66.4130   65.8723 H   0  0  0  0  0  0  0  0  0  0  0  0
  -43.8845   68.1340   66.0580 H   0  0  0  0  0  0  0  0  0  0  0  0
  -41.7695   66.7475   67.6168 H   0  0  0  0  0  0  0  0  0  0  0  0
  -43.3622   67.1853   68.1866 H   0  0  0  0  0  0  0  0  0  0  0  0
  -42.2196   68.4310   67.7443 H   0  0  0  0  0  0  0  0  0  0  0  0
  -41.7970   59.0644   61.5780 H   0  0  0  0  0  0  0  0  0  0  0  0
  -42.8886   60.1044   62.4185 H   0  0  0  0  0  0  0  0  0  0  0  0
  -43.7952   58.1431   63.6490 H   0  0  0  0  0  0  0  0  0  0  0  0
  -42.6784   57.1055   62.7877 H   0  0  0  0  0  0  0  0  0  0  0  0
  -43.7020   57.7386   60.6794 H   0  0  0  0  0  0  0  0  0  0  0  0
  -44.8388   58.7766   61.6062 H   0  0  0  0  0  0  0  0  0  0  0  0
  -45.8927   56.7435   60.8258 H   0  0  0  0  0  0  0  0  0  0  0  0
  -45.8700   56.8684   62.5550 H   0  0  0  0  0  0  0  0  0  0  0  0
  -45.1627   54.6314   61.8311 H   0  0  0  0  0  0  0  0  0  0  0  0
  -43.8348   55.4990   62.6194 H   0  0  0  0  0  0  0  0  0  0  0  0
  -42.8800   56.0328   60.4749 H   0  0  0  0  0  0  0  0  0  0  0  0
  -44.2240   55.1673   59.6858 H   0  0  0  0  0  0  0  0  0  0  0  0
  -43.4677   53.0882   60.6094 H   0  0  0  0  0  0  0  0  0  0  0  0
  -42.1412   53.9343   61.4254 H   0  0  0  0  0  0  0  0  0  0  0  0
  -41.1679   54.5231   59.2838 H   0  0  0  0  0  0  0  0  0  0  0  0
  -42.4878   53.7198   58.4498 H   0  0  0  0  0  0  0  0  0  0  0  0
  -40.5164   52.3998   60.2847 H   0  0  0  0  0  0  0  0  0  0  0  0
  -40.5502   52.3185   58.4980 H   0  0  0  0  0  0  0  0  0  0  0  0
  -42.5981   51.1180   58.5571 H   0  0  0  0  0  0  0  0  0  0  0  0
  -42.6134   51.2132   60.3225 H   0  0  0  0  0  0  0  0  0  0  0  0
  -40.6055   49.9111   60.4308 H   0  0  0  0  0  0  0  0  0  0  0  0
  -40.6144   49.8250   58.6364 H   0  0  0  0  0  0  0  0  0  0  0  0
  -41.3308   47.7292   59.6496 H   0  0  0  0  0  0  0  0  0  0  0  0
  -42.5684   48.4601   58.6720 H   0  0  0  0  0  0  0  0  0  0  0  0
  -43.4787   47.6939   60.7812 H   0  0  0  0  0  0  0  0  0  0  0  0
  -43.4803   49.5064   60.6488 H   0  0  0  0  0  0  0  0  0  0  0  0
  -43.0803   48.7565   62.8963 H   0  0  0  0  0  0  0  0  0  0  0  0
  -41.7521   49.6710   62.1959 H   0  0  0  0  0  0  0  0  0  0  0  0
  -40.9283   47.7419   63.4394 H   0  0  0  0  0  0  0  0  0  0  0  0
  -40.5928   47.6118   61.6913 H   0  0  0  0  0  0  0  0  0  0  0  0
  -41.2307   45.4684   62.6369 H   0  0  0  0  0  0  0  0  0  0  0  0
  -42.3904   46.0695   61.4342 H   0  0  0  0  0  0  0  0  0  0  0  0
  -42.7587   46.1507   64.4047 H   0  0  0  0  0  0  0  0  0  0  0  0
  -43.5528   45.0525   63.3018 H   0  0  0  0  0  0  0  0  0  0  0  0
  -43.8797   46.7668   63.2144 H   0  0  0  0  0  0  0  0  0  0  0  0
  -36.2294   63.0536   64.0919 H   0  0  0  0  0  0  0  0  0  0  0  0
  -37.8075   64.8385   65.9209 H   0  0  0  0  0  0  0  0  0  0  0  0
  -36.0169   65.6040   63.6787 H   0  0  0  0  0  0  0  0  0  0  0  0
  -34.6703   66.5692   65.5474 H   0  0  0  0  0  0  0  0  0  0  0  0
  -34.2432   64.1505   65.0592 H   0  0  0  0  0  0  0  0  0  0  0  0
  -34.3913   64.9482   67.9892 H   0  0  0  0  0  0  0  0  0  0  0  0
  -33.2043   63.8833   67.2723 H   0  0  0  0  0  0  0  0  0  0  0  0
  1  4  1  0  0  0  0
  1 31  1  0  0  0  0
  1 56  1  0  0  0  0
  2  3  1  0  0  0  0
  2  4  1  0  0  0  0
  2 57  1  0  0  0  0
  2 58  1  0  0  0  0
  3 49  1  0  0  0  0
  4  6  1  0  0  0  0
  4 59  1  1  0  0  0
  5  6  1  0  0  0  0
  5 60  1  0  0  0  0
  6  8  1  0  0  0  0
  6 61  1  1  0  0  0
  7 31  2  0  0  0  0
  8  9  2  0  0  0  0
  8 62  1  0  0  0  0
  9 11  1  0  0  0  0
  9 63  1  0  0  0  0
 10 50  1  0  0  0  0
 10 64  1  0  0  0  0
 11 13  1  0  0  0  0
 11 65  1  0  0  0  0
 11 66  1  0  0  0  0
 12 51  1  0  0  0  0
 12 55  1  0  0  0  0
 13 15  1  0  0  0  0
 13 67  1  0  0  0  0
 13 68  1  0  0  0  0
 14 55  1  0  0  0  0
 14 69  1  0  0  0  0
 15 17  1  0  0  0  0
 15 70  1  0  0  0  0
 15 71  1  0  0  0  0
 16 52  1  0  0  0  0
 16 72  1  0  0  0  0
 17 19  1  0  0  0  0
 17 73  1  0  0  0  0
 17 74  1  0  0  0  0
 18 49  1  0  0  0  0
 18 53  1  0  0  0  0
 19 21  1  0  0  0  0
 19 75  1  0  0  0  0
 19 76  1  0  0  0  0
 20 54  1  0  0  0  0
 20 77  1  0  0  0  0
 21 22  1  0  0  0  0
 21 78  1  0  0  0  0
 21 79  1  0  0  0  0
 22 23  1  0  0  0  0
 22 80  1  0  0  0  0
 22 81  1  0  0  0  0
 23 25  1  0  0  0  0
 23 82  1  0  0  0  0
 23 83  1  0  0  0  0
 24 55  1  0  0  0  0
 25 27  1  0  0  0  0
 25 84  1  0  0  0  0
 25 85  1  0  0  0  0
 26 55  1  0  0  0  0
 26 86  1  0  0  0  0
 27 28  1  0  0  0  0
 27 87  1  0  0  0  0
 27 88  1  0  0  0  0
 28 29  1  0  0  0  0
 28 89  1  0  0  0  0
 28 90  1  0  0  0  0
 29 30  1  0  0  0  0
 29 91  1  0  0  0  0
 29 92  1  0  0  0  0
 30 93  1  0  0  0  0
 30 94  1  0  0  0  0
 30 95  1  0  0  0  0
 31 32  1  0  0  0  0
 32 33  1  0  0  0  0
 32 96  1  0  0  0  0
 32 97  1  0  0  0  0
 33 34  1  0  0  0  0
 33 98  1  0  0  0  0
 33 99  1  0  0  0  0
 34 35  1  0  0  0  0
 34100  1  0  0  0  0
 34101  1  0  0  0  0
 35 36  1  0  0  0  0
 35102  1  0  0  0  0
 35103  1  0  0  0  0
 36 37  1  0  0  0  0
 36104  1  0  0  0  0
 36105  1  0  0  0  0
 37 38  1  0  0  0  0
 37106  1  0  0  0  0
 37107  1  0  0  0  0
 38 39  1  0  0  0  0
 38108  1  0  0  0  0
 38109  1  0  0  0  0
 39 40  1  0  0  0  0
 39110  1  0  0  0  0
 39111  1  0  0  0  0
 40 41  1  0  0  0  0
 40112  1  0  0  0  0
 40113  1  0  0  0  0
 41 42  1  0  0  0  0
 41114  1  0  0  0  0
 41115  1  0  0  0  0
 42 43  1  0  0  0  0
 42116  1  0  0  0  0
 42117  1  0  0  0  0
 43 44  1  0  0  0  0
 43118  1  0  0  0  0
 43119  1  0  0  0  0
 44 45  1  0  0  0  0
 44120  1  0  0  0  0
 44121  1  0  0  0  0
 45 46  1  0  0  0  0
 45122  1  0  0  0  0
 45123  1  0  0  0  0
 46 47  1  0  0  0  0
 46124  1  0  0  0  0
 46125  1  0  0  0  0
 47 48  1  0  0  0  0
 47126  1  0  0  0  0
 47127  1  0  0  0  0
 48128  1  0  0  0  0
 48129  1  0  0  0  0
 48130  1  0  0  0  0
 49 50  1  0  0  0  0
 49131  1  6  0  0  0
 50 51  1  0  0  0  0
 50132  1  1  0  0  0
 51 52  1  0  0  0  0
 51133  1  6  0  0  0
 52 53  1  0  0  0  0
 52134  1  6  0  0  0
 53 54  1  0  0  0  0
 53135  1  6  0  0  0
 54136  1  0  0  0  0
 54137  1  0  0  0  0
M  CHG  1  24  -1
M  END
$$$$
/media/chris/experiments/cd1a-new-docking/inputs/ligands/1onq_ligand.pdb
 OpenBabel06222310383D

137137  0  0  1  0  0  0  0  0999 V2000
  -40.4920   60.2280   63.6270 N   0  0  0  0  0  0  0  0  0  0  0  0
  -38.5950   61.7730   64.2860 C   0  0  0  0  0  0  0  0  0  0  0  0
  -37.5441   62.0867   65.2349 O   0  0  0  0  0  0  0  0  0  0  0  0
  -39.4590   60.5300   64.5980 C   0  0  1  0  0  0  0  0  0  0  0  0
  -40.7577   59.2290   66.0180 O   0  0  0  0  0  0  0  0  0  0  0  0
  -40.2280   60.5370   65.9080 C   0  0  2  0  0  0  0  0  0  0  0  0
  -41.4675   58.3885   64.5282 O   0  0  0  0  0  0  0  0  0  0  0  0
  -41.3266   61.6007   65.8452 C   0  0  0  0  0  0  0  0  0  0  0  0
  -42.4907   61.4906   66.5078 C   0  0  0  0  0  0  0  0  0  0  0  0
  -34.8829   62.7993   66.0015 O   0  0  0  0  0  0  0  0  0  0  0  0
  -43.5385   62.5962   66.3929 C   0  0  0  0  0  0  0  0  0  0  0  0
  -33.1821   60.9883   67.6133 O   0  0  0  0  0  0  0  0  0  0  0  0
  -44.9849   62.0984   66.5283 C   0  0  0  0  0  0  0  0  0  0  0  0
  -32.2232   58.7100   68.3924 O   0  0  0  0  0  0  0  0  0  0  0  0
  -45.4280   61.0481   65.4931 C   0  0  0  0  0  0  0  0  0  0  0  0
  -35.2780   59.4877   68.5068 O   0  0  0  0  0  0  0  0  0  0  0  0
  -45.3000   61.6062   64.0552 C   0  0  0  0  0  0  0  0  0  0  0  0
  -36.9441   59.8674   66.0098 O   0  0  0  0  0  0  0  0  0  0  0  0
  -46.1315   62.8809   63.7636 C   0  0  0  0  0  0  0  0  0  0  0  0
  -35.2824   56.7380   67.1203 O   0  0  0  0  0  0  0  0  0  0  0  0
  -47.6544   62.7047   63.9698 C   0  0  0  0  0  0  0  0  0  0  0  0
  -48.4711   63.9777   63.6590 C   0  0  0  0  0  0  0  0  0  0  0  0
  -49.9797   63.8128   63.8785 C   0  0  0  0  0  0  0  0  0  0  0  0
  -31.0687   60.7605   68.9854 O   0  5  0  0  0  0  0  0  0  0  0  0
  -50.8406   65.0361   63.5705 C   0  0  0  0  0  0  0  0  0  0  0  0
  -30.9418   59.9004   66.7230 O   0  0  0  0  0  0  0  0  0  0  0  0
  -52.3458   64.8220   63.8242 C   0  0  0  0  0  0  0  0  0  0  0  0
  -52.9912   63.6865   63.0154 C   0  0  0  0  0  0  0  0  0  0  0  0
  -52.3373   62.3402   63.3394 C   0  0  0  0  0  0  0  0  0  0  0  0
  -52.8733   61.1320   62.5921 C   0  0  0  0  0  0  0  0  0  0  0  0
  -41.3839   59.2282   63.6532 C   0  0  0  0  0  0  0  0  0  0  0  0
  -42.3351   59.1918   62.4940 C   0  0  0  0  0  0  0  0  0  0  0  0
  -43.7400   59.3243   63.0820 C   0  0  0  0  0  0  0  0  0  0  0  0
  -44.7795   59.2788   61.9647 C   0  0  0  0  0  0  0  0  0  0  0  0
  -44.6611   60.3467   60.9045 C   0  0  0  0  0  0  0  0  0  0  0  0
  -45.7933   60.1320   59.9056 C   0  0  0  0  0  0  0  0  0  0  0  0
  -45.7453   58.7486   59.2432 C   0  0  0  0  0  0  0  0  0  0  0  0
  -46.8639   58.5009   58.2147 C   0  0  0  0  0  0  0  0  0  0  0  0
  -48.2778   58.6213   58.8246 C   0  0  0  0  0  0  0  0  0  0  0  0
  -48.5055   60.0275   59.3866 C   0  0  0  0  0  0  0  0  0  0  0  0
  -49.8685   60.2519   60.0300 C   0  0  0  0  0  0  0  0  0  0  0  0
  -50.0342   61.6719   60.5510 C   0  0  0  0  0  0  0  0  0  0  0  0
  -49.9322   62.7860   59.5067 C   0  0  0  0  0  0  0  0  0  0  0  0
  -51.0355   62.5765   58.4783 C   0  0  0  0  0  0  0  0  0  0  0  0
  -52.4833   62.6072   58.9453 C   0  0  0  0  0  0  0  0  0  0  0  0
  -53.4449   62.3601   57.7721 C   0  0  0  0  0  0  0  0  0  0  0  0
  -54.9368   62.3909   58.1519 C   0  0  0  0  0  0  0  0  0  0  0  0
  -55.3859   63.7320   58.7274 C   0  0  0  0  0  0  0  0  0  0  0  0
  -36.4503   61.1334   65.5086 C   0  0  2  0  0  0  0  0  0  0  0  0
  -35.3818   61.5997   66.5077 C   0  0  1  0  0  0  0  0  0  0  0  0
  -34.2046   60.6120   66.6632 C   0  0  2  0  0  0  0  0  0  0  0  0
  -34.7978   59.3281   67.1741 C   0  0  2  0  0  0  0  0  0  0  0  0
  -35.9120   58.8730   66.2490 C   0  0  1  0  0  0  0  0  0  0  0  0
  -36.3724   57.5915   66.9404 C   0  0  0  0  0  0  0  0  0  0  0  0
  -31.8278   60.0664   67.9100 S   0  0  0  0  0  0  0  0  0  0  0  0
  -40.5449   60.8326   62.8518 H   0  0  0  0  0  0  0  0  0  0  0  0
  -38.1357   61.6183   63.3320 H   0  0  0  0  0  0  0  0  0  0  0  0
  -39.2690   62.6030   64.3261 H   0  0  0  0  0  0  0  0  0  0  0  0
  -38.6677   59.8099   64.6092 H   0  0  0  0  0  0  0  0  0  0  0  0
  -40.0308   58.5878   66.0547 H   0  0  0  0  0  0  0  0  0  0  0  0
  -39.6247   60.7776   66.7583 H   0  0  0  0  0  0  0  0  0  0  0  0
  -41.1662   62.4408   65.2677 H   0  0  0  0  0  0  0  0  0  0  0  0
  -42.6763   60.6610   67.0928 H   0  0  0  0  0  0  0  0  0  0  0  0
  -35.6096   63.4332   65.8970 H   0  0  0  0  0  0  0  0  0  0  0  0
  -43.4313   63.0640   65.4366 H   0  0  0  0  0  0  0  0  0  0  0  0
  -43.3657   63.2735   67.2030 H   0  0  0  0  0  0  0  0  0  0  0  0
  -45.6338   62.9443   66.4373 H   0  0  0  0  0  0  0  0  0  0  0  0
  -45.0385   61.6116   67.4797 H   0  0  0  0  0  0  0  0  0  0  0  0
  -32.8013   58.7979   69.1663 H   0  0  0  0  0  0  0  0  0  0  0  0
  -46.4482   60.7829   65.6769 H   0  0  0  0  0  0  0  0  0  0  0  0
  -44.7975   60.1885   65.5849 H   0  0  0  0  0  0  0  0  0  0  0  0
  -34.5511   59.7783   69.0797 H   0  0  0  0  0  0  0  0  0  0  0  0
  -45.6154   60.8428   63.3749 H   0  0  0  0  0  0  0  0  0  0  0  0
  -44.2746   61.8881   63.9372 H   0  0  0  0  0  0  0  0  0  0  0  0
  -45.9614   63.1674   62.7468 H   0  0  0  0  0  0  0  0  0  0  0  0
  -45.8103   63.6245   64.4627 H   0  0  0  0  0  0  0  0  0  0  0  0
  -35.5774   55.9250   67.5595 H   0  0  0  0  0  0  0  0  0  0  0  0
  -47.8284   62.4317   64.9897 H   0  0  0  0  0  0  0  0  0  0  0  0
  -47.9786   61.9488   63.2855 H   0  0  0  0  0  0  0  0  0  0  0  0
  -48.3059   64.2433   62.6357 H   0  0  0  0  0  0  0  0  0  0  0  0
  -48.1380   64.7355   64.3371 H   0  0  0  0  0  0  0  0  0  0  0  0
  -50.1344   63.5542   64.9052 H   0  0  0  0  0  0  0  0  0  0  0  0
  -50.2907   63.0601   63.1846 H   0  0  0  0  0  0  0  0  0  0  0  0
  -50.7058   65.2918   62.5403 H   0  0  0  0  0  0  0  0  0  0  0  0
  -50.5221   65.8140   64.2326 H   0  0  0  0  0  0  0  0  0  0  0  0
  -31.4291   59.4484   66.0165 H   0  0  0  0  0  0  0  0  0  0  0  0
  -52.8549   65.7315   63.5819 H   0  0  0  0  0  0  0  0  0  0  0  0
  -52.4364   64.5420   64.8529 H   0  0  0  0  0  0  0  0  0  0  0  0
  -52.8737   63.8901   61.9715 H   0  0  0  0  0  0  0  0  0  0  0  0
  -54.0283   63.6320   63.2728 H   0  0  0  0  0  0  0  0  0  0  0  0
  -52.4662   62.1592   64.3861 H   0  0  0  0  0  0  0  0  0  0  0  0
  -51.3179   62.4373   63.0288 H   0  0  0  0  0  0  0  0  0  0  0  0
  -53.8979   60.9744   62.8572 H   0  0  0  0  0  0  0  0  0  0  0  0
  -52.3001   60.2673   62.8542 H   0  0  0  0  0  0  0  0  0  0  0  0
  -52.7997   61.3028   61.5384 H   0  0  0  0  0  0  0  0  0  0  0  0
  -42.2406   58.2653   61.9671 H   0  0  0  0  0  0  0  0  0  0  0  0
  -42.1300   59.9798   61.7998 H   0  0  0  0  0  0  0  0  0  0  0  0
  -43.8199   60.2556   63.6028 H   0  0  0  0  0  0  0  0  0  0  0  0
  -43.9156   58.5142   63.7587 H   0  0  0  0  0  0  0  0  0  0  0  0
  -45.7465   59.3695   62.4137 H   0  0  0  0  0  0  0  0  0  0  0  0
  -44.6165   58.3507   61.4577 H   0  0  0  0  0  0  0  0  0  0  0  0
  -43.7165   60.2653   60.4085 H   0  0  0  0  0  0  0  0  0  0  0  0
  -44.7263   61.3206   61.3430 H   0  0  0  0  0  0  0  0  0  0  0  0
  -45.7231   60.8792   59.1429 H   0  0  0  0  0  0  0  0  0  0  0  0
  -46.7158   60.2006   60.4435 H   0  0  0  0  0  0  0  0  0  0  0  0
  -45.8246   58.0066   60.0101 H   0  0  0  0  0  0  0  0  0  0  0  0
  -44.8197   58.6960   58.7089 H   0  0  0  0  0  0  0  0  0  0  0  0
  -46.7475   57.5156   57.8141 H   0  0  0  0  0  0  0  0  0  0  0  0
  -46.7758   59.2514   57.4571 H   0  0  0  0  0  0  0  0  0  0  0  0
  -48.3821   57.9063   59.6138 H   0  0  0  0  0  0  0  0  0  0  0  0
  -49.0007   58.4354   58.0580 H   0  0  0  0  0  0  0  0  0  0  0  0
  -48.3984   60.7269   58.5839 H   0  0  0  0  0  0  0  0  0  0  0  0
  -47.7828   60.1588   60.1646 H   0  0  0  0  0  0  0  0  0  0  0  0
  -49.9797   59.5704   60.8474 H   0  0  0  0  0  0  0  0  0  0  0  0
  -50.6150   60.0888   59.2810 H   0  0  0  0  0  0  0  0  0  0  0  0
  -49.2752   61.8416   61.2858 H   0  0  0  0  0  0  0  0  0  0  0  0
  -51.0326   61.7245   60.9323 H   0  0  0  0  0  0  0  0  0  0  0  0
  -48.9769   62.7459   59.0264 H   0  0  0  0  0  0  0  0  0  0  0  0
  -50.0399   63.7422   59.9747 H   0  0  0  0  0  0  0  0  0  0  0  0
  -50.8696   61.6200   58.0284 H   0  0  0  0  0  0  0  0  0  0  0  0
  -50.9526   63.4246   57.8311 H   0  0  0  0  0  0  0  0  0  0  0  0
  -52.6927   63.5650   59.3738 H   0  0  0  0  0  0  0  0  0  0  0  0
  -52.6243   61.8335   59.6709 H   0  0  0  0  0  0  0  0  0  0  0  0
  -53.2255   61.3986   57.3570 H   0  0  0  0  0  0  0  0  0  0  0  0
  -53.2908   63.1603   57.0787 H   0  0  0  0  0  0  0  0  0  0  0  0
  -55.1170   61.6303   58.8826 H   0  0  0  0  0  0  0  0  0  0  0  0
  -55.4957   62.2281   57.2541 H   0  0  0  0  0  0  0  0  0  0  0  0
  -54.8471   63.9312   59.6301 H   0  0  0  0  0  0  0  0  0  0  0  0
  -56.4343   63.6964   58.9383 H   0  0  0  0  0  0  0  0  0  0  0  0
  -55.1911   64.5082   58.0171 H   0  0  0  0  0  0  0  0  0  0  0  0
  -35.9925   61.0440   64.5457 H   0  0  0  0  0  0  0  0  0  0  0  0
  -35.8309   61.6875   67.4750 H   0  0  0  0  0  0  0  0  0  0  0  0
  -33.7257   60.5630   65.7076 H   0  0  0  0  0  0  0  0  0  0  0  0
  -34.0355   58.5774   67.1903 H   0  0  0  0  0  0  0  0  0  0  0  0
  -35.5992   58.7098   65.2389 H   0  0  0  0  0  0  0  0  0  0  0  0
  -36.7961   57.8333   67.8927 H   0  0  0  0  0  0  0  0  0  0  0  0
  -37.1076   57.1054   66.3338 H   0  0  0  0  0  0  0  0  0  0  0  0
  1  4  1  0  0  0  0
  1 31  1  0  0  0  0
  1 56  1  0  0  0  0
  2  3  1  0  0  0  0
  2  4  1  0  0  0  0
  2 57  1  0  0  0  0
  2 58  1  0  0  0  0
  3 49  1  0  0  0  0
  4  6  1  0  0  0  0
  4 59  1  1  0  0  0
  5  6  1  0  0  0  0
  5 60  1  0  0  0  0
  6  8  1  0  0  0  0
  6 61  1  1  0  0  0
  7 31  2  0  0  0  0
  8  9  2  0  0  0  0
  8 62  1  0  0  0  0
  9 11  1  0  0  0  0
  9 63  1  0  0  0  0
 10 50  1  0  0  0  0
 10 64  1  0  0  0  0
 11 13  1  0  0  0  0
 11 65  1  0  0  0  0
 11 66  1  0  0  0  0
 12 51  1  0  0  0  0
 12 55  1  0  0  0  0
 13 15  1  0  0  0  0
 13 67  1  0  0  0  0
 13 68  1  0  0  0  0
 14 55  1  0  0  0  0
 14 69  1  0  0  0  0
 15 17  1  0  0  0  0
 15 70  1  0  0  0  0
 15 71  1  0  0  0  0
 16 52  1  0  0  0  0
 16 72  1  0  0  0  0
 17 19  1  0  0  0  0
 17 73  1  0  0  0  0
 17 74  1  0  0  0  0
 18 49  1  0  0  0  0
 18 53  1  0  0  0  0
 19 21  1  0  0  0  0
 19 75  1  0  0  0  0
 19 76  1  0  0  0  0
 20 54  1  0  0  0  0
 20 77  1  0  0  0  0
 21 22  1  0  0  0  0
 21 78  1  0  0  0  0
 21 79  1  0  0  0  0
 22 23  1  0  0  0  0
 22 80  1  0  0  0  0
 22 81  1  0  0  0  0
 23 25  1  0  0  0  0
 23 82  1  0  0  0  0
 23 83  1  0  0  0  0
 24 55  1  0  0  0  0
 25 27  1  0  0  0  0
 25 84  1  0  0  0  0
 25 85  1  0  0  0  0
 26 55  1  0  0  0  0
 26 86  1  0  0  0  0
 27 28  1  0  0  0  0
 27 87  1  0  0  0  0
 27 88  1  0  0  0  0
 28 29  1  0  0  0  0
 28 89  1  0  0  0  0
 28 90  1  0  0  0  0
 29 30  1  0  0  0  0
 29 91  1  0  0  0  0
 29 92  1  0  0  0  0
 30 93  1  0  0  0  0
 30 94  1  0  0  0  0
 30 95  1  0  0  0  0
 31 32  1  0  0  0  0
 32 33  1  0  0  0  0
 32 96  1  0  0  0  0
 32 97  1  0  0  0  0
 33 34  1  0  0  0  0
 33 98  1  0  0  0  0
 33 99  1  0  0  0  0
 34 35  1  0  0  0  0
 34100  1  0  0  0  0
 34101  1  0  0  0  0
 35 36  1  0  0  0  0
 35102  1  0  0  0  0
 35103  1  0  0  0  0
 36 37  1  0  0  0  0
 36104  1  0  0  0  0
 36105  1  0  0  0  0
 37 38  1  0  0  0  0
 37106  1  0  0  0  0
 37107  1  0  0  0  0
 38 39  1  0  0  0  0
 38108  1  0  0  0  0
 38109  1  0  0  0  0
 39 40  1  0  0  0  0
 39110  1  0  0  0  0
 39111  1  0  0  0  0
 40 41  1  0  0  0  0
 40112  1  0  0  0  0
 40113  1  0  0  0  0
 41 42  1  0  0  0  0
 41114  1  0  0  0  0
 41115  1  0  0  0  0
 42 43  1  0  0  0  0
 42116  1  0  0  0  0
 42117  1  0  0  0  0
 43 44  1  0  0  0  0
 43118  1  0  0  0  0
 43119  1  0  0  0  0
 44 45  1  0  0  0  0
 44120  1  0  0  0  0
 44121  1  0  0  0  0
 45 46  1  0  0  0  0
 45122  1  0  0  0  0
 45123  1  0  0  0  0
 46 47  1  0  0  0  0
 46124  1  0  0  0  0
 46125  1  0  0  0  0
 47 48  1  0  0  0  0
 47126  1  0  0  0  0
 47127  1  0  0  0  0
 48128  1  0  0  0  0
 48129  1  0  0  0  0
 48130  1  0  0  0  0
 49 50  1  0  0  0  0
 49131  1  6  0  0  0
 50 51  1  0  0  0  0
 50132  1  1  0  0  0
 51 52  1  0  0  0  0
 51133  1  6  0  0  0
 52 53  1  0  0  0  0
 52134  1  1  0  0  0
 53 54  1  0  0  0  0
 53135  1  6  0  0  0
 54136  1  0  0  0  0
 54137  1  0  0  0  0
M  CHG  1  24  -1
M  END
$$$$
/media/chris/experiments/cd1a-new-docking/inputs/ligands/1onq_ligand.pdb
 OpenBabel06222310383D

137137  0  0  1  0  0  0  0  0999 V2000
  -40.4920   60.2280   63.6270 N   0  0  0  0  0  0  0  0  0  0  0  0
  -38.5950   61.7730   64.2860 C   0  0  0  0  0  0  0  0  0  0  0  0
  -37.8612   61.7550   63.0352 O   0  0  0  0  0  0  0  0  0  0  0  0
  -39.4590   60.5300   64.5980 C   0  0  1  0  0  0  0  0  0  0  0  0
  -41.2116   61.5409   65.7392 O   0  0  0  0  0  0  0  0  0  0  0  0
  -40.2280   60.5370   65.9080 C   0  0  2  0  0  0  0  0  0  0  0  0
  -40.9980   62.2858   62.8166 O   0  0  0  0  0  0  0  0  0  0  0  0
  -39.2689   60.8567   67.0571 C   0  0  0  0  0  0  0  0  0  0  0  0
  -39.0539   60.0187   68.0855 C   0  0  0  0  0  0  0  0  0  0  0  0
  -36.4617   63.4735   64.8422 O   0  0  0  0  0  0  0  0  0  0  0  0
  -38.0807   60.4114   69.1956 C   0  0  0  0  0  0  0  0  0  0  0  0
  -33.9514   64.8423   64.0706 O   0  0  0  0  0  0  0  0  0  0  0  0
  -37.3725   59.2176   69.8525 C   0  0  0  0  0  0  0  0  0  0  0  0
  -31.9283   66.2529   64.8673 O   0  0  0  0  0  0  0  0  0  0  0  0
  -38.2951   58.1745   70.5097 C   0  0  0  0  0  0  0  0  0  0  0  0
  -33.4515   63.1747   61.9701 O   0  0  0  0  0  0  0  0  0  0  0  0
  -39.2489   57.5484   69.4639 C   0  0  0  0  0  0  0  0  0  0  0  0
  -36.3692   62.6641   61.3521 O   0  0  0  0  0  0  0  0  0  0  0  0
  -40.2385   56.4929   70.0190 C   0  0  0  0  0  0  0  0  0  0  0  0
  -33.8767   62.4184   59.8301 O   0  0  0  0  0  0  0  0  0  0  0  0
  -41.2043   57.0362   71.0983 C   0  0  0  0  0  0  0  0  0  0  0  0
  -42.1123   58.1793   70.5955 C   0  0  0  0  0  0  0  0  0  0  0  0
  -43.0266   57.7760   69.4325 C   0  0  0  0  0  0  0  0  0  0  0  0
  -33.8632   67.3659   63.9151 O   0  5  0  0  0  0  0  0  0  0  0  0
  -44.0178   56.6496   69.7172 C   0  0  0  0  0  0  0  0  0  0  0  0
  -32.3123   66.1772   62.4813 O   0  0  0  0  0  0  0  0  0  0  0  0
  -44.8999   56.2722   68.5108 C   0  0  0  0  0  0  0  0  0  0  0  0
  -45.9198   55.1531   68.7699 C   0  0  0  0  0  0  0  0  0  0  0  0
  -45.2208   53.8624   69.2066 C   0  0  0  0  0  0  0  0  0  0  0  0
  -46.1177   52.6680   69.4797 C   0  0  0  0  0  0  0  0  0  0  0  0
  -41.1606   61.0813   62.8393 C   0  0  0  0  0  0  0  0  0  0  0  0
  -42.1710   60.4499   61.9282 C   0  0  0  0  0  0  0  0  0  0  0  0
  -42.7946   61.5868   61.1184 C   0  0  0  0  0  0  0  0  0  0  0  0
  -41.7183   62.2950   60.2992 C   0  0  0  0  0  0  0  0  0  0  0  0
  -42.1837   63.4575   59.4563 C   0  0  0  0  0  0  0  0  0  0  0  0
  -40.9686   64.0041   58.7141 C   0  0  0  0  0  0  0  0  0  0  0  0
  -39.8570   64.4744   59.6618 C   0  0  0  0  0  0  0  0  0  0  0  0
  -40.2856   65.5868   60.6362 C   0  0  0  0  0  0  0  0  0  0  0  0
  -39.1391   66.0480   61.5627 C   0  0  0  0  0  0  0  0  0  0  0  0
  -39.6246   67.1401   62.5200 C   0  0  0  0  0  0  0  0  0  0  0  0
  -40.7560   66.7242   63.4524 C   0  0  0  0  0  0  0  0  0  0  0  0
  -40.3599   65.5705   64.3619 C   0  0  0  0  0  0  0  0  0  0  0  0
  -39.1834   65.8328   65.3049 C   0  0  0  0  0  0  0  0  0  0  0  0
  -38.9300   64.5671   66.1128 C   0  0  0  0  0  0  0  0  0  0  0  0
  -37.8116   64.5721   67.1444 C   0  0  0  0  0  0  0  0  0  0  0  0
  -37.7000   63.2067   67.8410 C   0  0  0  0  0  0  0  0  0  0  0  0
  -36.6009   63.1264   68.9165 C   0  0  0  0  0  0  0  0  0  0  0  0
  -35.2031   63.4156   68.3744 C   0  0  0  0  0  0  0  0  0  0  0  0
  -36.9920   62.8817   62.6414 C   0  0  2  0  0  0  0  0  0  0  0  0
  -35.8536   63.2281   63.6117 C   0  0  1  0  0  0  0  0  0  0  0  0
  -35.0540   64.4857   63.2063 C   0  0  2  0  0  0  0  0  0  0  0  0
  -34.4510   64.1853   61.8619 C   0  0  2  0  0  0  0  0  0  0  0  0
  -35.5409   63.7659   60.8921 C   0  0  1  0  0  0  0  0  0  0  0  0
  -34.7309   63.5033   59.6245 C   0  0  0  0  0  0  0  0  0  0  0  0
  -32.9820   66.1711   63.8128 S   0  0  0  0  0  0  0  0  0  0  0  0
  -40.7322   59.2777   63.5347 H   0  0  0  0  0  0  0  0  0  0  0  0
  -39.2437   62.6238   64.2698 H   0  0  0  0  0  0  0  0  0  0  0  0
  -37.8479   61.7974   65.0516 H   0  0  0  0  0  0  0  0  0  0  0  0
  -38.6677   59.8099   64.6092 H   0  0  0  0  0  0  0  0  0  0  0  0
  -41.7964   61.3001   65.0038 H   0  0  0  0  0  0  0  0  0  0  0  0
  -40.6791   59.5963   66.1457 H   0  0  0  0  0  0  0  0  0  0  0  0
  -38.7644   61.7568   67.0415 H   0  0  0  0  0  0  0  0  0  0  0  0
  -39.5451   59.1120   68.1252 H   0  0  0  0  0  0  0  0  0  0  0  0
  -36.9694   62.6928   65.1133 H   0  0  0  0  0  0  0  0  0  0  0  0
  -38.6259   60.9373   69.9513 H   0  0  0  0  0  0  0  0  0  0  0  0
  -37.3204   61.0137   68.7437 H   0  0  0  0  0  0  0  0  0  0  0  0
  -36.7167   59.5988   70.6072 H   0  0  0  0  0  0  0  0  0  0  0  0
  -36.8690   58.7044   69.0600 H   0  0  0  0  0  0  0  0  0  0  0  0
  -32.3461   66.2501   65.7427 H   0  0  0  0  0  0  0  0  0  0  0  0
  -38.8749   58.6502   71.2729 H   0  0  0  0  0  0  0  0  0  0  0  0
  -37.6906   57.3985   70.9307 H   0  0  0  0  0  0  0  0  0  0  0  0
  -32.7664   63.4629   62.5935 H   0  0  0  0  0  0  0  0  0  0  0  0
  -38.6513   57.0778   68.7113 H   0  0  0  0  0  0  0  0  0  0  0  0
  -39.8502   58.3520   69.0930 H   0  0  0  0  0  0  0  0  0  0  0  0
  -39.6711   55.6936   70.4480 H   0  0  0  0  0  0  0  0  0  0  0  0
  -40.8440   56.1758   69.1958 H   0  0  0  0  0  0  0  0  0  0  0  0
  -33.3634   62.2536   59.0236 H   0  0  0  0  0  0  0  0  0  0  0  0
  -40.6233   57.4016   71.9192 H   0  0  0  0  0  0  0  0  0  0  0  0
  -41.8452   56.2276   71.3818 H   0  0  0  0  0  0  0  0  0  0  0  0
  -41.4899   58.9870   70.2712 H   0  0  0  0  0  0  0  0  0  0  0  0
  -42.7478   58.4548   71.4111 H   0  0  0  0  0  0  0  0  0  0  0  0
  -42.4040   57.4660   68.6194 H   0  0  0  0  0  0  0  0  0  0  0  0
  -43.6240   58.6388   69.2236 H   0  0  0  0  0  0  0  0  0  0  0  0
  -44.6568   56.9579   70.5182 H   0  0  0  0  0  0  0  0  0  0  0  0
  -43.4401   55.7828   69.9621 H   0  0  0  0  0  0  0  0  0  0  0  0
  -31.7354   65.4010   62.4060 H   0  0  0  0  0  0  0  0  0  0  0  0
  -44.2565   55.9561   67.7164 H   0  0  0  0  0  0  0  0  0  0  0  0
  -45.4714   57.1459   68.2764 H   0  0  0  0  0  0  0  0  0  0  0  0
  -46.4698   54.9661   67.8713 H   0  0  0  0  0  0  0  0  0  0  0  0
  -46.5771   55.4663   69.5540 H   0  0  0  0  0  0  0  0  0  0  0  0
  -44.6779   54.0738   70.1041 H   0  0  0  0  0  0  0  0  0  0  0  0
  -44.6099   53.5752   68.3764 H   0  0  0  0  0  0  0  0  0  0  0  0
  -46.7616   52.8870   70.3058 H   0  0  0  0  0  0  0  0  0  0  0  0
  -45.5149   51.8154   69.7136 H   0  0  0  0  0  0  0  0  0  0  0  0
  -46.7086   52.4599   68.6123 H   0  0  0  0  0  0  0  0  0  0  0  0
  -42.9228   59.9482   62.5008 H   0  0  0  0  0  0  0  0  0  0  0  0
  -41.7149   59.7236   61.2883 H   0  0  0  0  0  0  0  0  0  0  0  0
  -43.2511   62.2880   61.7854 H   0  0  0  0  0  0  0  0  0  0  0  0
  -43.5318   61.1834   60.4562 H   0  0  0  0  0  0  0  0  0  0  0  0
  -41.2770   61.5725   59.6448 H   0  0  0  0  0  0  0  0  0  0  0  0
  -41.0399   62.7115   61.0143 H   0  0  0  0  0  0  0  0  0  0  0  0
  -42.6014   64.2180   60.0824 H   0  0  0  0  0  0  0  0  0  0  0  0
  -42.9365   63.1424   58.7643 H   0  0  0  0  0  0  0  0  0  0  0  0
  -41.2792   64.8331   58.1130 H   0  0  0  0  0  0  0  0  0  0  0  0
  -40.5702   63.2099   58.1180 H   0  0  0  0  0  0  0  0  0  0  0  0
  -39.0448   64.8416   59.0699 H   0  0  0  0  0  0  0  0  0  0  0  0
  -39.5860   63.6297   60.2601 H   0  0  0  0  0  0  0  0  0  0  0  0
  -41.0876   65.2198   61.2420 H   0  0  0  0  0  0  0  0  0  0  0  0
  -40.5839   66.4305   60.0496 H   0  0  0  0  0  0  0  0  0  0  0  0
  -38.3388   66.4337   60.9663 H   0  0  0  0  0  0  0  0  0  0  0  0
  -38.8026   65.2106   62.1375 H   0  0  0  0  0  0  0  0  0  0  0  0
  -39.9652   67.9678   61.9337 H   0  0  0  0  0  0  0  0  0  0  0  0
  -38.7920   67.3781   63.1485 H   0  0  0  0  0  0  0  0  0  0  0  0
  -41.5960   66.4239   62.8615 H   0  0  0  0  0  0  0  0  0  0  0  0
  -40.9943   67.5630   64.0724 H   0  0  0  0  0  0  0  0  0  0  0  0
  -40.1025   64.7378   63.7412 H   0  0  0  0  0  0  0  0  0  0  0  0
  -41.2049   65.3997   64.9956 H   0  0  0  0  0  0  0  0  0  0  0  0
  -39.4207   66.6417   65.9639 H   0  0  0  0  0  0  0  0  0  0  0  0
  -38.3107   66.0938   64.7435 H   0  0  0  0  0  0  0  0  0  0  0  0
  -38.7115   63.7861   65.4148 H   0  0  0  0  0  0  0  0  0  0  0  0
  -39.8201   64.4467   66.6942 H   0  0  0  0  0  0  0  0  0  0  0  0
  -38.0154   65.3238   67.8781 H   0  0  0  0  0  0  0  0  0  0  0  0
  -36.8877   64.7771   66.6452 H   0  0  0  0  0  0  0  0  0  0  0  0
  -37.4930   62.4673   67.0958 H   0  0  0  0  0  0  0  0  0  0  0  0
  -38.6304   63.0448   68.3441 H   0  0  0  0  0  0  0  0  0  0  0  0
  -36.6061   62.1414   69.3345 H   0  0  0  0  0  0  0  0  0  0  0  0
  -36.8184   63.8761   69.6484 H   0  0  0  0  0  0  0  0  0  0  0  0
  -34.9483   62.6839   67.6364 H   0  0  0  0  0  0  0  0  0  0  0  0
  -34.4947   63.3760   69.1753 H   0  0  0  0  0  0  0  0  0  0  0  0
  -35.1867   64.3895   67.9315 H   0  0  0  0  0  0  0  0  0  0  0  0
  -37.6838   63.6979   62.6313 H   0  0  0  0  0  0  0  0  0  0  0  0
  -35.1546   62.4180   63.6243 H   0  0  0  0  0  0  0  0  0  0  0  0
  -35.7427   65.3038   63.2423 H   0  0  0  0  0  0  0  0  0  0  0  0
  -33.9800   65.0706   61.4887 H   0  0  0  0  0  0  0  0  0  0  0  0
  -36.3046   64.5020   60.7512 H   0  0  0  0  0  0  0  0  0  0  0  0
  -35.3964   63.2841   58.8158 H   0  0  0  0  0  0  0  0  0  0  0  0
  -34.1517   64.3711   59.3871 H   0  0  0  0  0  0  0  0  0  0  0  0
  1  4  1  0  0  0  0
  1 31  1  0  0  0  0
  1 56  1  0  0  0  0
  2  3  1  0  0  0  0
  2  4  1  0  0  0  0
  2 57  1  0  0  0  0
  2 58  1  0  0  0  0
  3 49  1  0  0  0  0
  4  6  1  0  0  0  0
  4 59  1  1  0  0  0
  5  6  1  0  0  0  0
  5 60  1  0  0  0  0
  6  8  1  0  0  0  0
  6 61  1  1  0  0  0
  7 31  2  0  0  0  0
  8  9  2  0  0  0  0
  8 62  1  0  0  0  0
  9 11  1  0  0  0  0
  9 63  1  0  0  0  0
 10 50  1  0  0  0  0
 10 64  1  0  0  0  0
 11 13  1  0  0  0  0
 11 65  1  0  0  0  0
 11 66  1  0  0  0  0
 12 51  1  0  0  0  0
 12 55  1  0  0  0  0
 13 15  1  0  0  0  0
 13 67  1  0  0  0  0
 13 68  1  0  0  0  0
 14 55  1  0  0  0  0
 14 69  1  0  0  0  0
 15 17  1  0  0  0  0
 15 70  1  0  0  0  0
 15 71  1  0  0  0  0
 16 52  1  0  0  0  0
 16 72  1  0  0  0  0
 17 19  1  0  0  0  0
 17 73  1  0  0  0  0
 17 74  1  0  0  0  0
 18 49  1  0  0  0  0
 18 53  1  0  0  0  0
 19 21  1  0  0  0  0
 19 75  1  0  0  0  0
 19 76  1  0  0  0  0
 20 54  1  0  0  0  0
 20 77  1  0  0  0  0
 21 22  1  0  0  0  0
 21 78  1  0  0  0  0
 21 79  1  0  0  0  0
 22 23  1  0  0  0  0
 22 80  1  0  0  0  0
 22 81  1  0  0  0  0
 23 25  1  0  0  0  0
 23 82  1  0  0  0  0
 23 83  1  0  0  0  0
 24 55  1  0  0  0  0
 25 27  1  0  0  0  0
 25 84  1  0  0  0  0
 25 85  1  0  0  0  0
 26 55  1  0  0  0  0
 26 86  1  0  0  0  0
 27 28  1  0  0  0  0
 27 87  1  0  0  0  0
 27 88  1  0  0  0  0
 28 29  1  0  0  0  0
 28 89  1  0  0  0  0
 28 90  1  0  0  0  0
 29 30  1  0  0  0  0
 29 91  1  0  0  0  0
 29 92  1  0  0  0  0
 30 93  1  0  0  0  0
 30 94  1  0  0  0  0
 30 95  1  0  0  0  0
 31 32  1  0  0  0  0
 32 33  1  0  0  0  0
 32 96  1  0  0  0  0
 32 97  1  0  0  0  0
 33 34  1  0  0  0  0
 33 98  1  0  0  0  0
 33 99  1  0  0  0  0
 34 35  1  0  0  0  0
 34100  1  0  0  0  0
 34101  1  0  0  0  0
 35 36  1  0  0  0  0
 35102  1  0  0  0  0
 35103  1  0  0  0  0
 36 37  1  0  0  0  0
 36104  1  0  0  0  0
 36105  1  0  0  0  0
 37 38  1  0  0  0  0
 37106  1  0  0  0  0
 37107  1  0  0  0  0
 38 39  1  0  0  0  0
 38108  1  0  0  0  0
 38109  1  0  0  0  0
 39 40  1  0  0  0  0
 39110  1  0  0  0  0
 39111  1  0  0  0  0
 40 41  1  0  0  0  0
 40112  1  0  0  0  0
 40113  1  0  0  0  0
 41 42  1  0  0  0  0
 41114  1  0  0  0  0
 41115  1  0  0  0  0
 42 43  1  0  0  0  0
 42116  1  0  0  0  0
 42117  1  0  0  0  0
 43 44  1  0  0  0  0
 43118  1  0  0  0  0
 43119  1  0  0  0  0
 44 45  1  0  0  0  0
 44120  1  0  0  0  0
 44121  1  0  0  0  0
 45 46  1  0  0  0  0
 45122  1  0  0  0  0
 45123  1  0  0  0  0
 46 47  1  0  0  0  0
 46124  1  0  0  0  0
 46125  1  0  0  0  0
 47 48  1  0  0  0  0
 47126  1  0  0  0  0
 47127  1  0  0  0  0
 48128  1  0  0  0  0
 48129  1  0  0  0  0
 48130  1  0  0  0  0
 49 50  1  0  0  0  0
 49131  1  6  0  0  0
 50 51  1  0  0  0  0
 50132  1  1  0  0  0
 51 52  1  0  0  0  0
 51133  1  6  0  0  0
 52 53  1  0  0  0  0
 52134  1  6  0  0  0
 53 54  1  0  0  0  0
 53135  1  6  0  0  0
 54136  1  0  0  0  0
 54137  1  0  0  0  0
M  CHG  1  24  -1
M  END
$$$$
/media/chris/experiments/cd1a-new-docking/inputs/ligands/1onq_ligand.pdb
 OpenBabel06222310383D

137137  0  0  1  0  0  0  0  0999 V2000
  -40.4920   60.2280   63.6270 N   0  0  0  0  0  0  0  0  0  0  0  0
  -38.5950   61.7730   64.2860 C   0  0  0  0  0  0  0  0  0  0  0  0
  -37.5441   62.0867   65.2349 O   0  0  0  0  0  0  0  0  0  0  0  0
  -39.4590   60.5300   64.5980 C   0  0  1  0  0  0  0  0  0  0  0  0
  -41.2116   61.5409   65.7392 O   0  0  0  0  0  0  0  0  0  0  0  0
  -40.2280   60.5370   65.9080 C   0  0  2  0  0  0  0  0  0  0  0  0
  -41.8540   58.8360   62.4630 O   0  0  0  0  0  0  0  0  0  0  0  0
  -39.2689   60.8567   67.0571 C   0  0  0  0  0  0  0  0  0  0  0  0
  -39.6528   61.4987   68.1737 C   0  0  0  0  0  0  0  0  0  0  0  0
  -36.3260   63.5957   67.3365 O   0  0  0  0  0  0  0  0  0  0  0  0
  -38.6341   61.7818   69.2762 C   0  0  0  0  0  0  0  0  0  0  0  0
  -33.7882   65.0685   66.9357 O   0  0  0  0  0  0  0  0  0  0  0  0
  -37.9747   60.5202   69.8522 C   0  0  0  0  0  0  0  0  0  0  0  0
  -32.0570   66.4929   65.6354 O   0  0  0  0  0  0  0  0  0  0  0  0
  -38.9353   59.4930   70.4793 C   0  0  0  0  0  0  0  0  0  0  0  0
  -33.0907   63.6620   64.7045 O   0  0  0  0  0  0  0  0  0  0  0  0
  -38.1537   58.2796   71.0378 C   0  0  0  0  0  0  0  0  0  0  0  0
  -35.9395   63.1998   63.7956 O   0  0  0  0  0  0  0  0  0  0  0  0
  -37.3061   57.5032   69.9984 C   0  0  0  0  0  0  0  0  0  0  0  0
  -33.4262   65.4161   62.1957 O   0  0  0  0  0  0  0  0  0  0  0  0
  -36.2052   58.3508   69.3186 C   0  0  0  0  0  0  0  0  0  0  0  0
  -35.1645   58.9193   70.3075 C   0  0  0  0  0  0  0  0  0  0  0  0
  -34.3946   57.8421   71.0810 C   0  0  0  0  0  0  0  0  0  0  0  0
  -31.8719   66.2910   68.0467 O   0  5  0  0  0  0  0  0  0  0  0  0
  -33.3623   58.3467   72.0871 C   0  0  0  0  0  0  0  0  0  0  0  0
  -33.5831   67.7019   67.0691 O   0  0  0  0  0  0  0  0  0  0  0  0
  -32.6057   57.2239   72.8240 C   0  0  0  0  0  0  0  0  0  0  0  0
  -31.5716   57.6990   73.8558 C   0  0  0  0  0  0  0  0  0  0  0  0
  -32.2369   58.5233   74.9618 C   0  0  0  0  0  0  0  0  0  0  0  0
  -31.3195   59.0697   76.0413 C   0  0  0  0  0  0  0  0  0  0  0  0
  -40.9921   59.0290   63.2983 C   0  0  0  0  0  0  0  0  0  0  0  0
  -40.4035   57.8670   64.0420 C   0  0  0  0  0  0  0  0  0  0  0  0
  -39.7820   56.9489   62.9893 C   0  0  0  0  0  0  0  0  0  0  0  0
  -39.1706   55.7225   63.6625 C   0  0  0  0  0  0  0  0  0  0  0  0
  -38.0891   55.9942   64.6799 C   0  0  0  0  0  0  0  0  0  0  0  0
  -37.6081   54.6483   65.2118 C   0  0  0  0  0  0  0  0  0  0  0  0
  -38.7315   53.8338   65.8672 C   0  0  0  0  0  0  0  0  0  0  0  0
  -39.4083   54.5353   67.0590 C   0  0  0  0  0  0  0  0  0  0  0  0
  -40.5213   53.6814   67.7051 C   0  0  0  0  0  0  0  0  0  0  0  0
  -41.1703   54.4328   68.8710 C   0  0  0  0  0  0  0  0  0  0  0  0
  -42.2749   53.6717   69.5939 C   0  0  0  0  0  0  0  0  0  0  0  0
  -42.8869   54.4809   70.7278 C   0  0  0  0  0  0  0  0  0  0  0  0
  -43.9961   53.7889   71.5235 C   0  0  0  0  0  0  0  0  0  0  0  0
  -43.4133   52.5342   72.1597 C   0  0  0  0  0  0  0  0  0  0  0  0
  -42.2599   52.6824   73.1409 C   0  0  0  0  0  0  0  0  0  0  0  0
  -41.7999   51.3108   73.6600 C   0  0  0  0  0  0  0  0  0  0  0  0
  -42.8924   50.5031   74.3845 C   0  0  0  0  0  0  0  0  0  0  0  0
  -43.4664   51.2214   75.6035 C   0  0  0  0  0  0  0  0  0  0  0  0
  -36.6675   63.2597   65.0462 C   0  0  2  0  0  0  0  0  0  0  0  0
  -35.6170   63.5011   66.1397 C   0  0  1  0  0  0  0  0  0  0  0  0
  -34.8113   64.8049   65.9489 C   0  0  2  0  0  0  0  0  0  0  0  0
  -34.0971   64.6690   64.6325 C   0  0  2  0  0  0  0  0  0  0  0  0
  -35.0980   64.3555   63.5351 C   0  0  1  0  0  0  0  0  0  0  0  0
  -34.1843   64.2500   62.3160 C   0  0  0  0  0  0  0  0  0  0  0  0
  -32.8264   66.4273   66.9131 S   0  0  0  0  0  0  0  0  0  0  0  0
  -40.8737   60.9998   63.1496 H   0  0  0  0  0  0  0  0  0  0  0  0
  -38.1357   61.6183   63.3320 H   0  0  0  0  0  0  0  0  0  0  0  0
  -39.2690   62.6030   64.3261 H   0  0  0  0  0  0  0  0  0  0  0  0
  -38.6677   59.8099   64.6092 H   0  0  0  0  0  0  0  0  0  0  0  0
  -41.7964   61.3001   65.0038 H   0  0  0  0  0  0  0  0  0  0  0  0
  -40.6791   59.5963   66.1457 H   0  0  0  0  0  0  0  0  0  0  0  0
  -38.2825   60.5660   66.9706 H   0  0  0  0  0  0  0  0  0  0  0  0
  -40.6335   61.7997   68.2859 H   0  0  0  0  0  0  0  0  0  0  0  0
  -36.8391   62.7839   67.4733 H   0  0  0  0  0  0  0  0  0  0  0  0
  -39.1327   62.2947   70.0720 H   0  0  0  0  0  0  0  0  0  0  0  0
  -37.8540   62.3669   68.8358 H   0  0  0  0  0  0  0  0  0  0  0  0
  -37.2819   60.8269   70.6078 H   0  0  0  0  0  0  0  0  0  0  0  0
  -37.5180   60.0240   69.0214 H   0  0  0  0  0  0  0  0  0  0  0  0
  -31.5570   65.6703   65.5164 H   0  0  0  0  0  0  0  0  0  0  0  0
  -39.6227   59.1541   69.7326 H   0  0  0  0  0  0  0  0  0  0  0  0
  -39.4615   59.9622   71.2842 H   0  0  0  0  0  0  0  0  0  0  0  0
  -32.4632   63.8819   65.4108 H   0  0  0  0  0  0  0  0  0  0  0  0
  -38.8606   57.5983   71.4633 H   0  0  0  0  0  0  0  0  0  0  0  0
  -37.4596   58.6764   71.7489 H   0  0  0  0  0  0  0  0  0  0  0  0
  -37.9626   57.1338   69.2385 H   0  0  0  0  0  0  0  0  0  0  0  0
  -36.8071   56.7207   70.5310 H   0  0  0  0  0  0  0  0  0  0  0  0
  -32.8469   65.3466   61.4208 H   0  0  0  0  0  0  0  0  0  0  0  0
  -36.6727   59.1691   68.8119 H   0  0  0  0  0  0  0  0  0  0  0  0
  -35.6800   57.7037   68.6476 H   0  0  0  0  0  0  0  0  0  0  0  0
  -35.6740   59.5421   71.0128 H   0  0  0  0  0  0  0  0  0  0  0  0
  -34.4463   59.4606   69.7279 H   0  0  0  0  0  0  0  0  0  0  0  0
  -33.8838   57.2295   70.3678 H   0  0  0  0  0  0  0  0  0  0  0  0
  -35.1298   57.3225   71.6593 H   0  0  0  0  0  0  0  0  0  0  0  0
  -33.8671   58.9466   72.8153 H   0  0  0  0  0  0  0  0  0  0  0  0
  -32.6333   58.8995   71.5324 H   0  0  0  0  0  0  0  0  0  0  0  0
  -34.2082   67.7988   66.3338 H   0  0  0  0  0  0  0  0  0  0  0  0
  -32.0956   56.6331   72.0921 H   0  0  0  0  0  0  0  0  0  0  0  0
  -33.3448   56.6795   73.3738 H   0  0  0  0  0  0  0  0  0  0  0  0
  -30.8379   58.3023   73.3633 H   0  0  0  0  0  0  0  0  0  0  0  0
  -31.1142   56.8397   74.3000 H   0  0  0  0  0  0  0  0  0  0  0  0
  -32.9654   57.9010   75.4380 H   0  0  0  0  0  0  0  0  0  0  0  0
  -32.6417   59.3834   74.4707 H   0  0  0  0  0  0  0  0  0  0  0  0
  -30.8760   58.2569   76.5775 H   0  0  0  0  0  0  0  0  0  0  0  0
  -31.8856   59.6761   76.7171 H   0  0  0  0  0  0  0  0  0  0  0  0
  -30.5504   59.6611   75.5900 H   0  0  0  0  0  0  0  0  0  0  0  0
  -41.1680   57.3474   64.5809 H   0  0  0  0  0  0  0  0  0  0  0  0
  -39.6724   58.1921   64.7524 H   0  0  0  0  0  0  0  0  0  0  0  0
  -39.0185   57.4809   62.4613 H   0  0  0  0  0  0  0  0  0  0  0  0
  -40.5422   56.6324   62.3061 H   0  0  0  0  0  0  0  0  0  0  0  0
  -38.7512   55.1041   62.8967 H   0  0  0  0  0  0  0  0  0  0  0  0
  -39.9698   55.2650   64.2074 H   0  0  0  0  0  0  0  0  0  0  0  0
  -38.4821   56.5840   65.4815 H   0  0  0  0  0  0  0  0  0  0  0  0
  -37.2797   56.5330   64.2333 H   0  0  0  0  0  0  0  0  0  0  0  0
  -36.8422   54.8215   65.9387 H   0  0  0  0  0  0  0  0  0  0  0  0
  -37.2435   54.0837   64.3792 H   0  0  0  0  0  0  0  0  0  0  0  0
  -38.3179   52.9095   66.2128 H   0  0  0  0  0  0  0  0  0  0  0  0
  -39.4869   53.6976   65.1217 H   0  0  0  0  0  0  0  0  0  0  0  0
  -39.8378   55.4533   66.7160 H   0  0  0  0  0  0  0  0  0  0  0  0
  -38.6574   54.7008   67.8031 H   0  0  0  0  0  0  0  0  0  0  0  0
  -40.0979   52.7682   68.0678 H   0  0  0  0  0  0  0  0  0  0  0  0
  -41.2697   53.4762   66.9684 H   0  0  0  0  0  0  0  0  0  0  0  0
  -41.5882   55.3408   68.4890 H   0  0  0  0  0  0  0  0  0  0  0  0
  -40.3958   54.5915   69.5921 H   0  0  0  0  0  0  0  0  0  0  0  0
  -41.8642   52.7698   69.9974 H   0  0  0  0  0  0  0  0  0  0  0  0
  -43.0487   53.4653   68.8842 H   0  0  0  0  0  0  0  0  0  0  0  0
  -43.2951   55.3763   70.3077 H   0  0  0  0  0  0  0  0  0  0  0  0
  -42.0924   54.6468   71.4250 H   0  0  0  0  0  0  0  0  0  0  0  0
  -44.7997   53.5234   70.8689 H   0  0  0  0  0  0  0  0  0  0  0  0
  -44.3734   54.4456   72.2794 H   0  0  0  0  0  0  0  0  0  0  0  0
  -43.0711   51.9068   71.3634 H   0  0  0  0  0  0  0  0  0  0  0  0
  -44.2141   52.1484   72.7554 H   0  0  0  0  0  0  0  0  0  0  0  0
  -42.5789   53.2808   73.9685 H   0  0  0  0  0  0  0  0  0  0  0  0
  -41.4399   53.1486   72.6358 H   0  0  0  0  0  0  0  0  0  0  0  0
  -40.9909   51.4661   74.3428 H   0  0  0  0  0  0  0  0  0  0  0  0
  -41.5183   50.7391   72.8005 H   0  0  0  0  0  0  0  0  0  0  0  0
  -42.4709   49.5734   74.7054 H   0  0  0  0  0  0  0  0  0  0  0  0
  -43.6957   50.3637   73.6914 H   0  0  0  0  0  0  0  0  0  0  0  0
  -42.6900   51.3796   76.3226 H   0  0  0  0  0  0  0  0  0  0  0  0
  -44.2393   50.6231   76.0389 H   0  0  0  0  0  0  0  0  0  0  0  0
  -43.8721   52.1649   75.3033 H   0  0  0  0  0  0  0  0  0  0  0  0
  -37.3714   64.0651   65.0741 H   0  0  0  0  0  0  0  0  0  0  0  0
  -34.9062   62.7017   66.1156 H   0  0  0  0  0  0  0  0  0  0  0  0
  -35.5159   65.6067   66.0228 H   0  0  0  0  0  0  0  0  0  0  0  0
  -33.6145   65.5961   64.4038 H   0  0  0  0  0  0  0  0  0  0  0  0
  -35.8616   65.0958   63.4182 H   0  0  0  0  0  0  0  0  0  0  0  0
  -33.5307   63.4109   62.4325 H   0  0  0  0  0  0  0  0  0  0  0  0
  -34.7797   64.1214   61.4363 H   0  0  0  0  0  0  0  0  0  0  0  0
  1  4  1  0  0  0  0
  1 31  1  0  0  0  0
  1 56  1  0  0  0  0
  2  3  1  0  0  0  0
  2  4  1  0  0  0  0
  2 57  1  0  0  0  0
  2 58  1  0  0  0  0
  3 49  1  0  0  0  0
  4  6  1  0  0  0  0
  4 59  1  1  0  0  0
  5  6  1  0  0  0  0
  5 60  1  0  0  0  0
  6  8  1  0  0  0  0
  6 61  1  1  0  0  0
  7 31  2  0  0  0  0
  8  9  2  0  0  0  0
  8 62  1  0  0  0  0
  9 11  1  0  0  0  0
  9 63  1  0  0  0  0
 10 50  1  0  0  0  0
 10 64  1  0  0  0  0
 11 13  1  0  0  0  0
 11 65  1  0  0  0  0
 11 66  1  0  0  0  0
 12 51  1  0  0  0  0
 12 55  1  0  0  0  0
 13 15  1  0  0  0  0
 13 67  1  0  0  0  0
 13 68  1  0  0  0  0
 14 55  1  0  0  0  0
 14 69  1  0  0  0  0
 15 17  1  0  0  0  0
 15 70  1  0  0  0  0
 15 71  1  0  0  0  0
 16 52  1  0  0  0  0
 16 72  1  0  0  0  0
 17 19  1  0  0  0  0
 17 73  1  0  0  0  0
 17 74  1  0  0  0  0
 18 49  1  0  0  0  0
 18 53  1  0  0  0  0
 19 21  1  0  0  0  0
 19 75  1  0  0  0  0
 19 76  1  0  0  0  0
 20 54  1  0  0  0  0
 20 77  1  0  0  0  0
 21 22  1  0  0  0  0
 21 78  1  0  0  0  0
 21 79  1  0  0  0  0
 22 23  1  0  0  0  0
 22 80  1  0  0  0  0
 22 81  1  0  0  0  0
 23 25  1  0  0  0  0
 23 82  1  0  0  0  0
 23 83  1  0  0  0  0
 24 55  1  0  0  0  0
 25 27  1  0  0  0  0
 25 84  1  0  0  0  0
 25 85  1  0  0  0  0
 26 55  1  0  0  0  0
 26 86  1  0  0  0  0
 27 28  1  0  0  0  0
 27 87  1  0  0  0  0
 27 88  1  0  0  0  0
 28 29  1  0  0  0  0
 28 89  1  0  0  0  0
 28 90  1  0  0  0  0
 29 30  1  0  0  0  0
 29 91  1  0  0  0  0
 29 92  1  0  0  0  0
 30 93  1  0  0  0  0
 30 94  1  0  0  0  0
 30 95  1  0  0  0  0
 31 32  1  0  0  0  0
 32 33  1  0  0  0  0
 32 96  1  0  0  0  0
 32 97  1  0  0  0  0
 33 34  1  0  0  0  0
 33 98  1  0  0  0  0
 33 99  1  0  0  0  0
 34 35  1  0  0  0  0
 34100  1  0  0  0  0
 34101  1  0  0  0  0
 35 36  1  0  0  0  0
 35102  1  0  0  0  0
 35103  1  0  0  0  0
 36 37  1  0  0  0  0
 36104  1  0  0  0  0
 36105  1  0  0  0  0
 37 38  1  0  0  0  0
 37106  1  0  0  0  0
 37107  1  0  0  0  0
 38 39  1  0  0  0  0
 38108  1  0  0  0  0
 38109  1  0  0  0  0
 39 40  1  0  0  0  0
 39110  1  0  0  0  0
 39111  1  0  0  0  0
 40 41  1  0  0  0  0
 40112  1  0  0  0  0
 40113  1  0  0  0  0
 41 42  1  0  0  0  0
 41114  1  0  0  0  0
 41115  1  0  0  0  0
 42 43  1  0  0  0  0
 42116  1  0  0  0  0
 42117  1  0  0  0  0
 43 44  1  0  0  0  0
 43118  1  0  0  0  0
 43119  1  0  0  0  0
 44 45  1  0  0  0  0
 44120  1  0  0  0  0
 44121  1  0  0  0  0
 45 46  1  0  0  0  0
 45122  1  0  0  0  0
 45123  1  0  0  0  0
 46 47  1  0  0  0  0
 46124  1  0  0  0  0
 46125  1  0  0  0  0
 47 48  1  0  0  0  0
 47126  1  0  0  0  0
 47127  1  0  0  0  0
 48128  1  0  0  0  0
 48129  1  0  0  0  0
 48130  1  0  0  0  0
 49 50  1  0  0  0  0
 49131  1  6  0  0  0
 50 51  1  0  0  0  0
 50132  1  1  0  0  0
 51 52  1  0  0  0  0
 51133  1  6  0  0  0
 52 53  1  0  0  0  0
 52134  1  6  0  0  0
 53 54  1  0  0  0  0
 53135  1  6  0  0  0
 54136  1  0  0  0  0
 54137  1  0  0  0  0
M  CHG  1  24  -1
M  END
$$$$
/media/chris/experiments/cd1a-new-docking/inputs/ligands/1onq_ligand.pdb
 OpenBabel06222310383D

137137  0  0  1  0  0  0  0  0999 V2000
  -40.4920   60.2280   63.6270 N   0  0  0  0  0  0  0  0  0  0  0  0
  -38.5950   61.7730   64.2860 C   0  0  0  0  0  0  0  0  0  0  0  0
  -37.5441   62.0867   65.2349 O   0  0  0  0  0  0  0  0  0  0  0  0
  -39.4590   60.5300   64.5980 C   0  0  1  0  0  0  0  0  0  0  0  0
  -39.2569   60.8461   66.8904 O   0  0  0  0  0  0  0  0  0  0  0  0
  -40.2280   60.5370   65.9080 C   0  0  2  0  0  0  0  0  0  0  0  0
  -40.2107   61.8855   62.1035 O   0  0  0  0  0  0  0  0  0  0  0  0
  -40.8583   59.1606   66.1332 C   0  0  0  0  0  0  0  0  0  0  0  0
  -42.0897   58.8399   65.7007 C   0  0  0  0  0  0  0  0  0  0  0  0
  -36.4945   60.1938   63.3661 O   0  0  0  0  0  0  0  0  0  0  0  0
  -42.6490   57.4435   65.9661 C   0  0  0  0  0  0  0  0  0  0  0  0
  -33.7032   59.2181   63.5295 O   0  0  0  0  0  0  0  0  0  0  0  0
  -44.1767   57.4042   66.1175 C   0  0  0  0  0  0  0  0  0  0  0  0
  -35.0608   57.3179   62.4054 O   0  0  0  0  0  0  0  0  0  0  0  0
  -44.7562   58.2662   67.2543 C   0  0  0  0  0  0  0  0  0  0  0  0
  -32.8610   61.2829   65.1011 O   0  0  0  0  0  0  0  0  0  0  0  0
  -46.2966   58.1299   67.3164 C   0  0  0  0  0  0  0  0  0  0  0  0
  -35.5214   61.6397   66.4977 O   0  0  0  0  0  0  0  0  0  0  0  0
  -46.9915   58.9708   68.4171 C   0  0  0  0  0  0  0  0  0  0  0  0
  -32.7574   62.3815   67.1297 O   0  0  0  0  0  0  0  0  0  0  0  0
  -48.5284   58.8022   68.4674 C   0  0  0  0  0  0  0  0  0  0  0  0
  -48.9817   57.3543   68.7539 C   0  0  0  0  0  0  0  0  0  0  0  0
  -48.4930   56.8091   70.1012 C   0  0  0  0  0  0  0  0  0  0  0  0
  -33.1081   58.2202   61.2820 O   0  5  0  0  0  0  0  0  0  0  0  0
  -48.9603   57.5676   71.3417 C   0  0  0  0  0  0  0  0  0  0  0  0
  -35.1721   59.4890   61.3470 O   0  0  0  0  0  0  0  0  0  0  0  0
  -50.4914   57.5970   71.5176 C   0  0  0  0  0  0  0  0  0  0  0  0
  -51.1596   56.2220   71.6688 C   0  0  0  0  0  0  0  0  0  0  0  0
  -52.6771   56.3617   71.8194 C   0  0  0  0  0  0  0  0  0  0  0  0
  -53.4598   55.0724   71.9944 C   0  0  0  0  0  0  0  0  0  0  0  0
  -40.7863   60.8910   62.5003 C   0  0  0  0  0  0  0  0  0  0  0  0
  -41.9161   60.3159   61.6986 C   0  0  0  0  0  0  0  0  0  0  0  0
  -41.3379   59.9587   60.3293 C   0  0  0  0  0  0  0  0  0  0  0  0
  -40.7643   61.2072   59.6634 C   0  0  0  0  0  0  0  0  0  0  0  0
  -40.1695   61.0126   58.2898 C   0  0  0  0  0  0  0  0  0  0  0  0
  -39.0415   59.9940   58.4162 C   0  0  0  0  0  0  0  0  0  0  0  0
  -37.9427   60.4436   59.3885 C   0  0  0  0  0  0  0  0  0  0  0  0
  -36.7770   59.4477   59.5295 C   0  0  0  0  0  0  0  0  0  0  0  0
  -37.2313   58.0584   60.0286 C   0  0  0  0  0  0  0  0  0  0  0  0
  -38.2251   57.4305   59.0472 C   0  0  0  0  0  0  0  0  0  0  0  0
  -38.7529   56.0596   59.4524 C   0  0  0  0  0  0  0  0  0  0  0  0
  -39.4999   56.0971   60.7775 C   0  0  0  0  0  0  0  0  0  0  0  0
  -40.0528   54.7593   61.2743 C   0  0  0  0  0  0  0  0  0  0  0  0
  -38.8831   53.8042   61.4699 C   0  0  0  0  0  0  0  0  0  0  0  0
  -37.7973   54.1759   62.4690 C   0  0  0  0  0  0  0  0  0  0  0  0
  -36.6992   53.1015   62.5126 C   0  0  0  0  0  0  0  0  0  0  0  0
  -37.1949   51.6973   62.9042 C   0  0  0  0  0  0  0  0  0  0  0  0
  -37.8555   51.6519   64.2801 C   0  0  0  0  0  0  0  0  0  0  0  0
  -36.4503   61.1334   65.5086 C   0  0  2  0  0  0  0  0  0  0  0  0
  -35.6003   60.7152   64.3002 C   0  0  1  0  0  0  0  0  0  0  0  0
  -34.5510   59.6298   64.6257 C   0  0  2  0  0  0  0  0  0  0  0  0
  -33.6366   60.2256   65.6603 C   0  0  2  0  0  0  0  0  0  0  0  0
  -34.4510   60.7194   66.8423 C   0  0  1  0  0  0  0  0  0  0  0  0
  -33.3571   61.2824   67.7470 C   0  0  0  0  0  0  0  0  0  0  0  0
  -34.2917   58.5643   62.1159 S   0  0  0  0  0  0  0  0  0  0  0  0
  -41.0464   59.4375   63.8192 H   0  0  0  0  0  0  0  0  0  0  0  0
  -38.1357   61.6183   63.3320 H   0  0  0  0  0  0  0  0  0  0  0  0
  -39.2690   62.6030   64.3261 H   0  0  0  0  0  0  0  0  0  0  0  0
  -38.6677   59.8099   64.6092 H   0  0  0  0  0  0  0  0  0  0  0  0
  -38.8837   61.7234   66.7113 H   0  0  0  0  0  0  0  0  0  0  0  0
  -41.0317   61.2430   65.9299 H   0  0  0  0  0  0  0  0  0  0  0  0
  -40.3128   58.4462   66.6402 H   0  0  0  0  0  0  0  0  0  0  0  0
  -42.6561   59.5355   65.1904 H   0  0  0  0  0  0  0  0  0  0  0  0
  -37.1623   60.8630   63.1492 H   0  0  0  0  0  0  0  0  0  0  0  0
  -42.2112   57.0710   66.8686 H   0  0  0  0  0  0  0  0  0  0  0  0
  -42.4056   56.8440   65.1139 H   0  0  0  0  0  0  0  0  0  0  0  0
  -44.4636   56.3888   66.2955 H   0  0  0  0  0  0  0  0  0  0  0  0
  -44.5708   57.8131   65.2107 H   0  0  0  0  0  0  0  0  0  0  0  0
  -34.5028   56.7027   62.9064 H   0  0  0  0  0  0  0  0  0  0  0  0
  -44.5013   59.2911   67.0823 H   0  0  0  0  0  0  0  0  0  0  0  0
  -44.3444   57.9310   68.1832 H   0  0  0  0  0  0  0  0  0  0  0  0
  -32.3496   60.9459   64.3489 H   0  0  0  0  0  0  0  0  0  0  0  0
  -46.5308   57.1003   67.4896 H   0  0  0  0  0  0  0  0  0  0  0  0
  -46.6647   58.5018   66.3830 H   0  0  0  0  0  0  0  0  0  0  0  0
  -46.7727   60.0030   68.2393 H   0  0  0  0  0  0  0  0  0  0  0  0
  -46.6129   58.6227   69.3553 H   0  0  0  0  0  0  0  0  0  0  0  0
  -32.0631   62.7372   67.7062 H   0  0  0  0  0  0  0  0  0  0  0  0
  -48.9329   59.1030   67.5236 H   0  0  0  0  0  0  0  0  0  0  0  0
  -48.8845   59.4083   69.2741 H   0  0  0  0  0  0  0  0  0  0  0  0
  -48.6044   56.7225   67.9772 H   0  0  0  0  0  0  0  0  0  0  0  0
  -50.0511   57.3635   68.7903 H   0  0  0  0  0  0  0  0  0  0  0  0
  -47.4232   56.8251   70.0918 H   0  0  0  0  0  0  0  0  0  0  0  0
  -48.9166   55.8302   70.1861 H   0  0  0  0  0  0  0  0  0  0  0  0
  -48.6100   58.5762   71.2714 H   0  0  0  0  0  0  0  0  0  0  0  0
  -48.5607   57.0513   72.1895 H   0  0  0  0  0  0  0  0  0  0  0  0
  -35.9469   59.7186   61.8836 H   0  0  0  0  0  0  0  0  0  0  0  0
  -50.9137   58.0776   70.6600 H   0  0  0  0  0  0  0  0  0  0  0  0
  -50.6747   58.1183   72.4338 H   0  0  0  0  0  0  0  0  0  0  0  0
  -50.7654   55.7351   72.5363 H   0  0  0  0  0  0  0  0  0  0  0  0
  -50.9563   55.6462   70.7902 H   0  0  0  0  0  0  0  0  0  0  0  0
  -53.0476   56.8510   70.9429 H   0  0  0  0  0  0  0  0  0  0  0  0
  -52.8235   56.9086   72.7274 H   0  0  0  0  0  0  0  0  0  0  0  0
  -53.3573   54.4708   71.1155 H   0  0  0  0  0  0  0  0  0  0  0  0
  -54.4932   55.3011   72.1516 H   0  0  0  0  0  0  0  0  0  0  0  0
  -53.0805   54.5368   72.8395 H   0  0  0  0  0  0  0  0  0  0  0  0
  -42.6990   61.0375   61.5926 H   0  0  0  0  0  0  0  0  0  0  0  0
  -42.3333   59.4557   62.1792 H   0  0  0  0  0  0  0  0  0  0  0  0
  -42.1122   59.5521   59.7127 H   0  0  0  0  0  0  0  0  0  0  0  0
  -40.5577   59.2372   60.4545 H   0  0  0  0  0  0  0  0  0  0  0  0
  -39.9966   61.5941   60.3005 H   0  0  0  0  0  0  0  0  0  0  0  0
  -41.5950   61.8675   59.5263 H   0  0  0  0  0  0  0  0  0  0  0  0
  -39.7834   61.9413   57.9245 H   0  0  0  0  0  0  0  0  0  0  0  0
  -40.9137   60.6662   57.6035 H   0  0  0  0  0  0  0  0  0  0  0  0
  -38.6045   59.8459   57.4508 H   0  0  0  0  0  0  0  0  0  0  0  0
  -39.4644   59.0902   58.8024 H   0  0  0  0  0  0  0  0  0  0  0  0
  -38.3845   60.5815   60.3532 H   0  0  0  0  0  0  0  0  0  0  0  0
  -37.5291   61.3457   58.9885 H   0  0  0  0  0  0  0  0  0  0  0  0
  -36.0696   59.8463   60.2262 H   0  0  0  0  0  0  0  0  0  0  0  0
  -36.3479   59.3157   58.5582 H   0  0  0  0  0  0  0  0  0  0  0  0
  -37.7005   58.1644   60.9843 H   0  0  0  0  0  0  0  0  0  0  0  0
  -36.3742   57.4225   60.1050 H   0  0  0  0  0  0  0  0  0  0  0  0
  -37.7382   57.3316   58.0996 H   0  0  0  0  0  0  0  0  0  0  0  0
  -39.0736   58.0820   59.0235 H   0  0  0  0  0  0  0  0  0  0  0  0
  -37.9267   55.3855   59.5421 H   0  0  0  0  0  0  0  0  0  0  0  0
  -39.4400   55.7372   58.6982 H   0  0  0  0  0  0  0  0  0  0  0  0
  -40.3232   56.7720   60.6701 H   0  0  0  0  0  0  0  0  0  0  0  0
  -38.7779   56.3995   61.5070 H   0  0  0  0  0  0  0  0  0  0  0  0
  -40.7318   54.3572   60.5517 H   0  0  0  0  0  0  0  0  0  0  0  0
  -40.5769   54.8958   62.1971 H   0  0  0  0  0  0  0  0  0  0  0  0
  -38.4088   53.6875   60.5179 H   0  0  0  0  0  0  0  0  0  0  0  0
  -39.3306   52.9261   61.8864 H   0  0  0  0  0  0  0  0  0  0  0  0
  -38.2337   54.2702   63.4414 H   0  0  0  0  0  0  0  0  0  0  0  0
  -37.3565   55.1023   62.1650 H   0  0  0  0  0  0  0  0  0  0  0  0
  -35.9616   53.4064   63.2254 H   0  0  0  0  0  0  0  0  0  0  0  0
  -36.3122   53.0213   61.5183 H   0  0  0  0  0  0  0  0  0  0  0  0
  -36.3582   51.0303   62.9070 H   0  0  0  0  0  0  0  0  0  0  0  0
  -37.9360   51.4115   62.1873 H   0  0  0  0  0  0  0  0  0  0  0  0
  -37.1429   51.9327   65.0273 H   0  0  0  0  0  0  0  0  0  0  0  0
  -38.2048   50.6596   64.4755 H   0  0  0  0  0  0  0  0  0  0  0  0
  -38.6816   52.3316   64.3017 H   0  0  0  0  0  0  0  0  0  0  0  0
  -36.9895   60.2753   65.8521 H   0  0  0  0  0  0  0  0  0  0  0  0
  -35.0542   61.5674   63.9530 H   0  0  0  0  0  0  0  0  0  0  0  0
  -35.1001   58.7616   64.9253 H   0  0  0  0  0  0  0  0  0  0  0  0
  -32.9599   59.4697   66.0001 H   0  0  0  0  0  0  0  0  0  0  0  0
  -35.0320   59.9577   67.3189 H   0  0  0  0  0  0  0  0  0  0  0  0
  -33.7873   61.5879   68.6779 H   0  0  0  0  0  0  0  0  0  0  0  0
  -32.6191   60.5280   67.9235 H   0  0  0  0  0  0  0  0  0  0  0  0
  1  4  1  0  0  0  0
  1 31  1  0  0  0  0
  1 56  1  0  0  0  0
  2  3  1  0  0  0  0
  2  4  1  0  0  0  0
  2 57  1  0  0  0  0
  2 58  1  0  0  0  0
  3 49  1  0  0  0  0
  4  6  1  0  0  0  0
  4 59  1  1  0  0  0
  5  6  1  0  0  0  0
  5 60  1  0  0  0  0
  6  8  1  0  0  0  0
  6 61  1  6  0  0  0
  7 31  2  0  0  0  0
  8  9  2  0  0  0  0
  8 62  1  0  0  0  0
  9 11  1  0  0  0  0
  9 63  1  0  0  0  0
 10 50  1  0  0  0  0
 10 64  1  0  0  0  0
 11 13  1  0  0  0  0
 11 65  1  0  0  0  0
 11 66  1  0  0  0  0
 12 51  1  0  0  0  0
 12 55  1  0  0  0  0
 13 15  1  0  0  0  0
 13 67  1  0  0  0  0
 13 68  1  0  0  0  0
 14 55  1  0  0  0  0
 14 69  1  0  0  0  0
 15 17  1  0  0  0  0
 15 70  1  0  0  0  0
 15 71  1  0  0  0  0
 16 52  1  0  0  0  0
 16 72  1  0  0  0  0
 17 19  1  0  0  0  0
 17 73  1  0  0  0  0
 17 74  1  0  0  0  0
 18 49  1  0  0  0  0
 18 53  1  0  0  0  0
 19 21  1  0  0  0  0
 19 75  1  0  0  0  0
 19 76  1  0  0  0  0
 20 54  1  0  0  0  0
 20 77  1  0  0  0  0
 21 22  1  0  0  0  0
 21 78  1  0  0  0  0
 21 79  1  0  0  0  0
 22 23  1  0  0  0  0
 22 80  1  0  0  0  0
 22 81  1  0  0  0  0
 23 25  1  0  0  0  0
 23 82  1  0  0  0  0
 23 83  1  0  0  0  0
 24 55  1  0  0  0  0
 25 27  1  0  0  0  0
 25 84  1  0  0  0  0
 25 85  1  0  0  0  0
 26 55  1  0  0  0  0
 26 86  1  0  0  0  0
 27 28  1  0  0  0  0
 27 87  1  0  0  0  0
 27 88  1  0  0  0  0
 28 29  1  0  0  0  0
 28 89  1  0  0  0  0
 28 90  1  0  0  0  0
 29 30  1  0  0  0  0
 29 91  1  0  0  0  0
 29 92  1  0  0  0  0
 30 93  1  0  0  0  0
 30 94  1  0  0  0  0
 30 95  1  0  0  0  0
 31 32  1  0  0  0  0
 32 33  1  0  0  0  0
 32 96  1  0  0  0  0
 32 97  1  0  0  0  0
 33 34  1  0  0  0  0
 33 98  1  0  0  0  0
 33 99  1  0  0  0  0
 34 35  1  0  0  0  0
 34100  1  0  0  0  0
 34101  1  0  0  0  0
 35 36  1  0  0  0  0
 35102  1  0  0  0  0
 35103  1  0  0  0  0
 36 37  1  0  0  0  0
 36104  1  0  0  0  0
 36105  1  0  0  0  0
 37 38  1  0  0  0  0
 37106  1  0  0  0  0
 37107  1  0  0  0  0
 38 39  1  0  0  0  0
 38108  1  0  0  0  0
 38109  1  0  0  0  0
 39 40  1  0  0  0  0
 39110  1  0  0  0  0
 39111  1  0  0  0  0
 40 41  1  0  0  0  0
 40112  1  0  0  0  0
 40113  1  0  0  0  0
 41 42  1  0  0  0  0
 41114  1  0  0  0  0
 41115  1  0  0  0  0
 42 43  1  0  0  0  0
 42116  1  0  0  0  0
 42117  1  0  0  0  0
 43 44  1  0  0  0  0
 43118  1  0  0  0  0
 43119  1  0  0  0  0
 44 45  1  0  0  0  0
 44120  1  0  0  0  0
 44121  1  0  0  0  0
 45 46  1  0  0  0  0
 45122  1  0  0  0  0
 45123  1  0  0  0  0
 46 47  1  0  0  0  0
 46124  1  0  0  0  0
 46125  1  0  0  0  0
 47 48  1  0  0  0  0
 47126  1  0  0  0  0
 47127  1  0  0  0  0
 48128  1  0  0  0  0
 48129  1  0  0  0  0
 48130  1  0  0  0  0
 49 50  1  0  0  0  0
 49131  1  1  0  0  0
 50 51  1  0  0  0  0
 50132  1  6  0  0  0
 51 52  1  0  0  0  0
 51133  1  1  0  0  0
 52 53  1  0  0  0  0
 52134  1  1  0  0  0
 53 54  1  0  0  0  0
 53135  1  1  0  0  0
 54136  1  0  0  0  0
 54137  1  0  0  0  0
M  CHG  1  24  -1
M  END
$$$$
/media/chris/experiments/cd1a-new-docking/inputs/ligands/1onq_ligand.pdb
 OpenBabel06222310383D

137137  0  0  1  0  0  0  0  0999 V2000
  -40.4920   60.2280   63.6270 N   0  0  0  0  0  0  0  0  0  0  0  0
  -38.5950   61.7730   64.2860 C   0  0  0  0  0  0  0  0  0  0  0  0
  -37.8612   61.7550   63.0352 O   0  0  0  0  0  0  0  0  0  0  0  0
  -39.4590   60.5300   64.5980 C   0  0  1  0  0  0  0  0  0  0  0  0
  -40.7577   59.2290   66.0180 O   0  0  0  0  0  0  0  0  0  0  0  0
  -40.2280   60.5370   65.9080 C   0  0  2  0  0  0  0  0  0  0  0  0
  -39.9037   58.1474   62.9395 O   0  0  0  0  0  0  0  0  0  0  0  0
  -41.3266   61.6007   65.8452 C   0  0  0  0  0  0  0  0  0  0  0  0
  -42.3197   61.5746   64.9400 C   0  0  0  0  0  0  0  0  0  0  0  0
  -38.5114   59.3151   61.6931 O   0  0  0  0  0  0  0  0  0  0  0  0
  -43.3792   62.6750   64.9418 C   0  0  0  0  0  0  0  0  0  0  0  0
  -40.8174   59.1130   59.8460 O   0  0  0  0  0  0  0  0  0  0  0  0
  -43.1731   63.7347   66.0340 C   0  0  0  0  0  0  0  0  0  0  0  0
  -40.5161   58.6869   57.3074 O   0  0  0  0  0  0  0  0  0  0  0  0
  -44.2286   64.8548   66.0835 C   0  0  0  0  0  0  0  0  0  0  0  0
  -42.0413   61.3535   60.8079 O   0  0  0  0  0  0  0  0  0  0  0  0
  -45.6366   64.2712   66.3524 C   0  0  0  0  0  0  0  0  0  0  0  0
  -39.4615   62.7663   61.5181 O   0  0  0  0  0  0  0  0  0  0  0  0
  -46.7846   65.3108   66.4062 C   0  0  0  0  0  0  0  0  0  0  0  0
  -42.2107   63.6474   61.0128 O   0  0  0  0  0  0  0  0  0  0  0  0
  -46.6069   66.3948   67.4953 C   0  0  0  0  0  0  0  0  0  0  0  0
  -45.3320   67.2472   67.3160 C   0  0  0  0  0  0  0  0  0  0  0  0
  -45.2883   68.0227   65.9940 C   0  0  0  0  0  0  0  0  0  0  0  0
  -42.4100   59.9891   58.0862 O   0  5  0  0  0  0  0  0  0  0  0  0
  -46.4116   69.0331   65.7708 C   0  0  0  0  0  0  0  0  0  0  0  0
  -42.3873   57.5819   58.3675 O   0  0  0  0  0  0  0  0  0  0  0  0
  -47.8232   68.4142   65.7913 C   0  0  0  0  0  0  0  0  0  0  0  0
  -48.9749   69.4025   65.5528 C   0  0  0  0  0  0  0  0  0  0  0  0
  -48.9792   70.5080   66.6124 C   0  0  0  0  0  0  0  0  0  0  0  0
  -50.0821   71.5458   66.5010 C   0  0  0  0  0  0  0  0  0  0  0  0
  -40.6403   59.1136   62.8978 C   0  0  0  0  0  0  0  0  0  0  0  0
  -41.8271   59.1049   61.9807 C   0  0  0  0  0  0  0  0  0  0  0  0
  -41.8145   57.7522   61.2685 C   0  0  0  0  0  0  0  0  0  0  0  0
  -41.9317   56.6238   62.2902 C   0  0  0  0  0  0  0  0  0  0  0  0
  -41.9163   55.2207   61.7336 C   0  0  0  0  0  0  0  0  0  0  0  0
  -42.0609   54.2578   62.9074 C   0  0  0  0  0  0  0  0  0  0  0  0
  -42.0420   52.7861   62.4728 C   0  0  0  0  0  0  0  0  0  0  0  0
  -43.1568   52.4054   61.4814 C   0  0  0  0  0  0  0  0  0  0  0  0
  -43.1190   50.9148   61.0789 C   0  0  0  0  0  0  0  0  0  0  0  0
  -41.7783   50.5655   60.4265 C   0  0  0  0  0  0  0  0  0  0  0  0
  -41.6394   49.1171   59.9736 C   0  0  0  0  0  0  0  0  0  0  0  0
  -40.2800   48.8348   59.3511 C   0  0  0  0  0  0  0  0  0  0  0  0
  -39.0676   49.0545   60.2588 C   0  0  0  0  0  0  0  0  0  0  0  0
  -37.8109   48.7398   59.4585 C   0  0  0  0  0  0  0  0  0  0  0  0
  -36.4587   48.8659   60.1445 C   0  0  0  0  0  0  0  0  0  0  0  0
  -36.2337   50.2971   60.6573 C   0  0  0  0  0  0  0  0  0  0  0  0
  -34.8781   50.5206   61.3527 C   0  0  0  0  0  0  0  0  0  0  0  0
  -34.6674   49.6211   62.5685 C   0  0  0  0  0  0  0  0  0  0  0  0
  -38.5606   61.6540   61.7388 C   0  0  2  0  0  0  0  0  0  0  0  0
  -39.3915   60.3820   61.5166 C   0  0  1  0  0  0  0  0  0  0  0  0
  -40.0015   60.2787   60.1015 C   0  0  2  0  0  0  0  0  0  0  0  0
  -40.9103   61.4669   59.9477 C   0  0  2  0  0  0  0  0  0  0  0  0
  -40.1398   62.7433   60.2332 C   0  0  1  0  0  0  0  0  0  0  0  0
  -41.2247   63.7999   60.0363 C   0  0  0  0  0  0  0  0  0  0  0  0
  -41.5470   58.8129   58.3798 S   0  0  0  0  0  0  0  0  0  0  0  0
  -41.1688   60.9288   63.4857 H   0  0  0  0  0  0  0  0  0  0  0  0
  -39.2437   62.6238   64.2698 H   0  0  0  0  0  0  0  0  0  0  0  0
  -37.8479   61.7974   65.0516 H   0  0  0  0  0  0  0  0  0  0  0  0
  -38.6677   59.8099   64.6092 H   0  0  0  0  0  0  0  0  0  0  0  0
  -40.0308   58.5878   66.0547 H   0  0  0  0  0  0  0  0  0  0  0  0
  -39.6247   60.7776   66.7583 H   0  0  0  0  0  0  0  0  0  0  0  0
  -41.3038   62.3732   66.5291 H   0  0  0  0  0  0  0  0  0  0  0  0
  -42.3663   60.8129   64.2453 H   0  0  0  0  0  0  0  0  0  0  0  0
  -38.1178   59.3636   62.5783 H   0  0  0  0  0  0  0  0  0  0  0  0
  -44.3367   62.2206   65.0895 H   0  0  0  0  0  0  0  0  0  0  0  0
  -43.3050   63.1795   64.0012 H   0  0  0  0  0  0  0  0  0  0  0  0
  -42.2178   64.1896   65.8748 H   0  0  0  0  0  0  0  0  0  0  0  0
  -43.2553   63.2143   66.9653 H   0  0  0  0  0  0  0  0  0  0  0  0
  -39.9585   59.4805   57.3000 H   0  0  0  0  0  0  0  0  0  0  0  0
  -44.2360   65.3716   65.1466 H   0  0  0  0  0  0  0  0  0  0  0  0
  -43.9784   65.5271   66.8775 H   0  0  0  0  0  0  0  0  0  0  0  0
  -42.5180   60.5326   60.6086 H   0  0  0  0  0  0  0  0  0  0  0  0
  -45.6088   63.7603   67.2922 H   0  0  0  0  0  0  0  0  0  0  0  0
  -45.8552   63.6313   65.5232 H   0  0  0  0  0  0  0  0  0  0  0  0
  -47.7000   64.7905   66.5966 H   0  0  0  0  0  0  0  0  0  0  0  0
  -46.7847   65.8181   65.4642 H   0  0  0  0  0  0  0  0  0  0  0  0
  -42.8984   64.3195   60.8856 H   0  0  0  0  0  0  0  0  0  0  0  0
  -46.5598   65.9118   68.4489 H   0  0  0  0  0  0  0  0  0  0  0  0
  -47.4423   67.0588   67.4167 H   0  0  0  0  0  0  0  0  0  0  0  0
  -44.4831   66.5970   67.3542 H   0  0  0  0  0  0  0  0  0  0  0  0
  -45.3278   67.9719   68.1033 H   0  0  0  0  0  0  0  0  0  0  0  0
  -45.3254   67.3110   65.1959 H   0  0  0  0  0  0  0  0  0  0  0  0
  -44.3866   68.5979   66.0275 H   0  0  0  0  0  0  0  0  0  0  0  0
  -46.2618   69.4983   64.8190 H   0  0  0  0  0  0  0  0  0  0  0  0
  -46.3670   69.7304   66.5812 H   0  0  0  0  0  0  0  0  0  0  0  0
  -41.8322   56.8096   58.5582 H   0  0  0  0  0  0  0  0  0  0  0  0
  -47.9709   67.9587   66.7482 H   0  0  0  0  0  0  0  0  0  0  0  0
  -47.8546   67.7201   64.9776 H   0  0  0  0  0  0  0  0  0  0  0  0
  -49.9041   68.8736   65.5955 H   0  0  0  0  0  0  0  0  0  0  0  0
  -48.8433   69.8530   64.5912 H   0  0  0  0  0  0  0  0  0  0  0  0
  -48.0422   71.0210   66.5514 H   0  0  0  0  0  0  0  0  0  0  0  0
  -49.1515   70.0090   67.5431 H   0  0  0  0  0  0  0  0  0  0  0  0
  -49.9707   72.0876   65.5850 H   0  0  0  0  0  0  0  0  0  0  0  0
  -50.0186   72.2237   67.3264 H   0  0  0  0  0  0  0  0  0  0  0  0
  -51.0340   71.0573   66.5130 H   0  0  0  0  0  0  0  0  0  0  0  0
  -41.7493   59.8990   61.2677 H   0  0  0  0  0  0  0  0  0  0  0  0
  -42.7376   59.2479   62.5242 H   0  0  0  0  0  0  0  0  0  0  0  0
  -40.8983   57.6457   60.7262 H   0  0  0  0  0  0  0  0  0  0  0  0
  -42.6433   57.7027   60.5934 H   0  0  0  0  0  0  0  0  0  0  0  0
  -42.8525   56.7557   62.8190 H   0  0  0  0  0  0  0  0  0  0  0  0
  -41.0585   56.6995   62.9039 H   0  0  0  0  0  0  0  0  0  0  0  0
  -40.9924   55.0400   61.2251 H   0  0  0  0  0  0  0  0  0  0  0  0
  -42.7153   55.0846   61.0351 H   0  0  0  0  0  0  0  0  0  0  0  0
  -42.9891   54.4569   63.4010 H   0  0  0  0  0  0  0  0  0  0  0  0
  -41.2253   54.4132   63.5574 H   0  0  0  0  0  0  0  0  0  0  0  0
  -42.1476   52.1772   63.3463 H   0  0  0  0  0  0  0  0  0  0  0  0
  -41.1131   52.6275   61.9660 H   0  0  0  0  0  0  0  0  0  0  0  0
  -43.0469   53.0004   60.5989 H   0  0  0  0  0  0  0  0  0  0  0  0
  -44.0934   52.5834   61.9672 H   0  0  0  0  0  0  0  0  0  0  0  0
  -43.9094   50.7179   60.3850 H   0  0  0  0  0  0  0  0  0  0  0  0
  -43.2403   50.3173   61.9582 H   0  0  0  0  0  0  0  0  0  0  0  0
  -41.0021   50.7675   61.1348 H   0  0  0  0  0  0  0  0  0  0  0  0
  -41.7124   51.1628   59.5412 H   0  0  0  0  0  0  0  0  0  0  0  0
  -42.3993   48.9085   59.2498 H   0  0  0  0  0  0  0  0  0  0  0  0
  -41.7401   48.4930   60.8369 H   0  0  0  0  0  0  0  0  0  0  0  0
  -40.1712   49.4731   58.4993 H   0  0  0  0  0  0  0  0  0  0  0  0
  -40.2807   47.7904   59.1186 H   0  0  0  0  0  0  0  0  0  0  0  0
  -39.1283   48.4059   61.1077 H   0  0  0  0  0  0  0  0  0  0  0  0
  -39.0424   50.0672   60.6033 H   0  0  0  0  0  0  0  0  0  0  0  0
  -37.7999   49.3998   58.6164 H   0  0  0  0  0  0  0  0  0  0  0  0
  -37.8958   47.6957   59.2402 H   0  0  0  0  0  0  0  0  0  0  0  0
  -35.6871   48.6191   59.4455 H   0  0  0  0  0  0  0  0  0  0  0  0
  -36.4357   48.1968   60.9792 H   0  0  0  0  0  0  0  0  0  0  0  0
  -37.0100   50.5275   61.3567 H   0  0  0  0  0  0  0  0  0  0  0  0
  -36.2430   50.9335   59.7972 H   0  0  0  0  0  0  0  0  0  0  0  0
  -34.8240   51.5406   61.6714 H   0  0  0  0  0  0  0  0  0  0  0  0
  -34.1144   50.2787   60.6434 H   0  0  0  0  0  0  0  0  0  0  0  0
  -35.4153   49.8340   63.3036 H   0  0  0  0  0  0  0  0  0  0  0  0
  -33.6979   49.8030   62.9830 H   0  0  0  0  0  0  0  0  0  0  0  0
  -34.7415   48.5960   62.2709 H   0  0  0  0  0  0  0  0  0  0  0  0
  -37.7424   61.6445   61.0494 H   0  0  0  0  0  0  0  0  0  0  0  0
  -40.2149   60.3859   62.1999 H   0  0  0  0  0  0  0  0  0  0  0  0
  -39.1765   60.2247   59.4222 H   0  0  0  0  0  0  0  0  0  0  0  0
  -41.2692   61.4994   58.9402 H   0  0  0  0  0  0  0  0  0  0  0  0
  -39.2944   62.8932   59.5947 H   0  0  0  0  0  0  0  0  0  0  0  0
  -40.7911   64.7747   60.1175 H   0  0  0  0  0  0  0  0  0  0  0  0
  -41.6634   63.6821   59.0675 H   0  0  0  0  0  0  0  0  0  0  0  0
  1  4  1  0  0  0  0
  1 31  1  0  0  0  0
  1 56  1  0  0  0  0
  2  3  1  0  0  0  0
  2  4  1  0  0  0  0
  2 57  1  0  0  0  0
  2 58  1  0  0  0  0
  3 49  1  0  0  0  0
  4  6  1  0  0  0  0
  4 59  1  1  0  0  0
  5  6  1  0  0  0  0
  5 60  1  0  0  0  0
  6  8  1  0  0  0  0
  6 61  1  1  0  0  0
  7 31  2  0  0  0  0
  8  9  2  0  0  0  0
  8 62  1  0  0  0  0
  9 11  1  0  0  0  0
  9 63  1  0  0  0  0
 10 50  1  0  0  0  0
 10 64  1  0  0  0  0
 11 13  1  0  0  0  0
 11 65  1  0  0  0  0
 11 66  1  0  0  0  0
 12 51  1  0  0  0  0
 12 55  1  0  0  0  0
 13 15  1  0  0  0  0
 13 67  1  0  0  0  0
 13 68  1  0  0  0  0
 14 55  1  0  0  0  0
 14 69  1  0  0  0  0
 15 17  1  0  0  0  0
 15 70  1  0  0  0  0
 15 71  1  0  0  0  0
 16 52  1  0  0  0  0
 16 72  1  0  0  0  0
 17 19  1  0  0  0  0
 17 73  1  0  0  0  0
 17 74  1  0  0  0  0
 18 49  1  0  0  0  0
 18 53  1  0  0  0  0
 19 21  1  0  0  0  0
 19 75  1  0  0  0  0
 19 76  1  0  0  0  0
 20 54  1  0  0  0  0
 20 77  1  0  0  0  0
 21 22  1  0  0  0  0
 21 78  1  0  0  0  0
 21 79  1  0  0  0  0
 22 23  1  0  0  0  0
 22 80  1  0  0  0  0
 22 81  1  0  0  0  0
 23 25  1  0  0  0  0
 23 82  1  0  0  0  0
 23 83  1  0  0  0  0
 24 55  1  0  0  0  0
 25 27  1  0  0  0  0
 25 84  1  0  0  0  0
 25 85  1  0  0  0  0
 26 55  1  0  0  0  0
 26 86  1  0  0  0  0
 27 28  1  0  0  0  0
 27 87  1  0  0  0  0
 27 88  1  0  0  0  0
 28 29  1  0  0  0  0
 28 89  1  0  0  0  0
 28 90  1  0  0  0  0
 29 30  1  0  0  0  0
 29 91  1  0  0  0  0
 29 92  1  0  0  0  0
 30 93  1  0  0  0  0
 30 94  1  0  0  0  0
 30 95  1  0  0  0  0
 31 32  1  0  0  0  0
 32 33  1  0  0  0  0
 32 96  1  0  0  0  0
 32 97  1  0  0  0  0
 33 34  1  0  0  0  0
 33 98  1  0  0  0  0
 33 99  1  0  0  0  0
 34 35  1  0  0  0  0
 34100  1  0  0  0  0
 34101  1  0  0  0  0
 35 36  1  0  0  0  0
 35102  1  0  0  0  0
 35103  1  0  0  0  0
 36 37  1  0  0  0  0
 36104  1  0  0  0  0
 36105  1  0  0  0  0
 37 38  1  0  0  0  0
 37106  1  0  0  0  0
 37107  1  0  0  0  0
 38 39  1  0  0  0  0
 38108  1  0  0  0  0
 38109  1  0  0  0  0
 39 40  1  0  0  0  0
 39110  1  0  0  0  0
 39111  1  0  0  0  0
 40 41  1  0  0  0  0
 40112  1  0  0  0  0
 40113  1  0  0  0  0
 41 42  1  0  0  0  0
 41114  1  0  0  0  0
 41115  1  0  0  0  0
 42 43  1  0  0  0  0
 42116  1  0  0  0  0
 42117  1  0  0  0  0
 43 44  1  0  0  0  0
 43118  1  0  0  0  0
 43119  1  0  0  0  0
 44 45  1  0  0  0  0
 44120  1  0  0  0  0
 44121  1  0  0  0  0
 45 46  1  0  0  0  0
 45122  1  0  0  0  0
 45123  1  0  0  0  0
 46 47  1  0  0  0  0
 46124  1  0  0  0  0
 46125  1  0  0  0  0
 47 48  1  0  0  0  0
 47126  1  0  0  0  0
 47127  1  0  0  0  0
 48128  1  0  0  0  0
 48129  1  0  0  0  0
 48130  1  0  0  0  0
 49 50  1  0  0  0  0
 49131  1  6  0  0  0
 50 51  1  0  0  0  0
 50132  1  1  0  0  0
 51 52  1  0  0  0  0
 51133  1  6  0  0  0
 52 53  1  0  0  0  0
 52134  1  6  0  0  0
 53 54  1  0  0  0  0
 53135  1  6  0  0  0
 54136  1  0  0  0  0
 54137  1  0  0  0  0
M  CHG  1  24  -1
M  END
$$$$
/media/chris/experiments/cd1a-new-docking/inputs/ligands/1onq_ligand.pdb
 OpenBabel06222310383D

137137  0  0  1  0  0  0  0  0999 V2000
  -40.4920   60.2280   63.6270 N   0  0  0  0  0  0  0  0  0  0  0  0
  -38.5950   61.7730   64.2860 C   0  0  0  0  0  0  0  0  0  0  0  0
  -39.2927   63.0412   64.1953 O   0  0  0  0  0  0  0  0  0  0  0  0
  -39.4590   60.5300   64.5980 C   0  0  1  0  0  0  0  0  0  0  0  0
  -39.2569   60.8461   66.8904 O   0  0  0  0  0  0  0  0  0  0  0  0
  -40.2280   60.5370   65.9080 C   0  0  2  0  0  0  0  0  0  0  0  0
  -42.2618   61.3924   64.4390 O   0  0  0  0  0  0  0  0  0  0  0  0
  -40.8583   59.1606   66.1332 C   0  0  0  0  0  0  0  0  0  0  0  0
  -42.0897   58.8399   65.7007 C   0  0  0  0  0  0  0  0  0  0  0  0
  -41.5274   64.7916   64.5408 O   0  0  0  0  0  0  0  0  0  0  0  0
  -42.6490   57.4435   65.9661 C   0  0  0  0  0  0  0  0  0  0  0  0
  -42.9129   66.0321   62.2361 O   0  0  0  0  0  0  0  0  0  0  0  0
  -41.5751   56.3488   66.0477 C   0  0  0  0  0  0  0  0  0  0  0  0
  -44.2310   68.0419   63.2060 O   0  0  0  0  0  0  0  0  0  0  0  0
  -40.5271   56.5251   67.1621 C   0  0  0  0  0  0  0  0  0  0  0  0
  -40.8460   65.6061   60.5071 O   0  0  0  0  0  0  0  0  0  0  0  0
  -41.2018   56.5289   68.5550 C   0  0  0  0  0  0  0  0  0  0  0  0
  -39.9128   63.0603   61.8500 O   0  0  0  0  0  0  0  0  0  0  0  0
  -40.2403   56.7179   69.7555 C   0  0  0  0  0  0  0  0  0  0  0  0
  -39.8506   61.9640   59.1193 O   0  0  0  0  0  0  0  0  0  0  0  0
  -40.9390   56.7005   71.1355 C   0  0  0  0  0  0  0  0  0  0  0  0
  -39.9708   56.9071   72.3205 C   0  0  0  0  0  0  0  0  0  0  0  0
  -38.8657   55.8476   72.4073 C   0  0  0  0  0  0  0  0  0  0  0  0
  -42.5271   66.9638   64.5564 O   0  5  0  0  0  0  0  0  0  0  0  0
  -37.9258   55.7580   71.2069 C   0  0  0  0  0  0  0  0  0  0  0  0
  -44.6695   65.8854   64.2078 O   0  0  0  0  0  0  0  0  0  0  0  0
  -37.1387   57.0542   70.9302 C   0  0  0  0  0  0  0  0  0  0  0  0
  -36.1963   57.0018   69.7182 C   0  0  0  0  0  0  0  0  0  0  0  0
  -35.1505   55.8953   69.8821 C   0  0  0  0  0  0  0  0  0  0  0  0
  -34.1425   55.7467   68.7562 C   0  0  0  0  0  0  0  0  0  0  0  0
  -41.7615   60.6565   63.6107 C   0  0  0  0  0  0  0  0  0  0  0  0
  -42.5847   60.1680   62.4559 C   0  0  0  0  0  0  0  0  0  0  0  0
  -42.6099   58.6428   62.5563 C   0  0  0  0  0  0  0  0  0  0  0  0
  -41.1870   58.0925   62.4955 C   0  0  0  0  0  0  0  0  0  0  0  0
  -40.4007   58.4226   61.2500 C   0  0  0  0  0  0  0  0  0  0  0  0
  -39.0290   57.7696   61.3844 C   0  0  0  0  0  0  0  0  0  0  0  0
  -38.1197   58.0469   60.1798 C   0  0  0  0  0  0  0  0  0  0  0  0
  -37.8194   59.5385   59.9446 C   0  0  0  0  0  0  0  0  0  0  0  0
  -37.0961   60.2008   61.1378 C   0  0  0  0  0  0  0  0  0  0  0  0
  -36.8385   61.6841   60.8573 C   0  0  0  0  0  0  0  0  0  0  0  0
  -36.1116   62.4336   61.9673 C   0  0  0  0  0  0  0  0  0  0  0  0
  -34.7325   61.8550   62.2473 C   0  0  0  0  0  0  0  0  0  0  0  0
  -34.6950   60.3854   62.6726 C   0  0  0  0  0  0  0  0  0  0  0  0
  -33.2433   59.9992   62.9220 C   0  0  0  0  0  0  0  0  0  0  0  0
  -32.9308   58.5712   63.3444 C   0  0  0  0  0  0  0  0  0  0  0  0
  -31.4216   58.3807   63.5642 C   0  0  0  0  0  0  0  0  0  0  0  0
  -30.8182   59.2762   64.6619 C   0  0  0  0  0  0  0  0  0  0  0  0
  -31.4299   59.0374   66.0404 C   0  0  0  0  0  0  0  0  0  0  0  0
  -40.3719   63.2523   63.2102 C   0  0  2  0  0  0  0  0  0  0  0  0
  -41.0541   64.6276   63.2396 C   0  0  1  0  0  0  0  0  0  0  0  0
  -42.2500   64.7478   62.2697 C   0  0  2  0  0  0  0  0  0  0  0  0
  -41.6957   64.5273   60.8893 C   0  0  2  0  0  0  0  0  0  0  0  0
  -40.9480   63.2071   60.8409 C   0  0  1  0  0  0  0  0  0  0  0  0
  -40.4693   63.1856   59.3909 C   0  0  0  0  0  0  0  0  0  0  0  0
  -43.6188   66.7305   63.5725 S   0  0  0  0  0  0  0  0  0  0  0  0
  -40.2280   59.6342   62.8875 H   0  0  0  0  0  0  0  0  0  0  0  0
  -37.8608   61.8607   65.0594 H   0  0  0  0  0  0  0  0  0  0  0  0
  -38.1940   61.6005   63.3091 H   0  0  0  0  0  0  0  0  0  0  0  0
  -38.6677   59.8099   64.6092 H   0  0  0  0  0  0  0  0  0  0  0  0
  -38.8837   61.7234   66.7113 H   0  0  0  0  0  0  0  0  0  0  0  0
  -41.0317   61.2430   65.9299 H   0  0  0  0  0  0  0  0  0  0  0  0
  -40.3128   58.4462   66.6402 H   0  0  0  0  0  0  0  0  0  0  0  0
  -42.6561   59.5355   65.1904 H   0  0  0  0  0  0  0  0  0  0  0  0
  -40.7886   64.7191   65.1651 H   0  0  0  0  0  0  0  0  0  0  0  0
  -43.3242   57.1948   65.1742 H   0  0  0  0  0  0  0  0  0  0  0  0
  -43.1310   57.4779   66.9208 H   0  0  0  0  0  0  0  0  0  0  0  0
  -41.0584   56.3244   65.1111 H   0  0  0  0  0  0  0  0  0  0  0  0
  -42.0974   55.4438   66.2782 H   0  0  0  0  0  0  0  0  0  0  0  0
  -43.5608   68.6066   62.7902 H   0  0  0  0  0  0  0  0  0  0  0  0
  -40.0145   57.4531   67.0180 H   0  0  0  0  0  0  0  0  0  0  0  0
  -39.8377   55.7080   67.1171 H   0  0  0  0  0  0  0  0  0  0  0  0
  -41.3431   66.4383   60.5450 H   0  0  0  0  0  0  0  0  0  0  0  0
  -41.7073   55.5941   68.6801 H   0  0  0  0  0  0  0  0  0  0  0  0
  -41.8570   57.3748   68.5643 H   0  0  0  0  0  0  0  0  0  0  0  0
  -39.7433   57.6587   69.6427 H   0  0  0  0  0  0  0  0  0  0  0  0
  -39.5646   55.8883   69.7422 H   0  0  0  0  0  0  0  0  0  0  0  0
  -39.5475   61.9528   58.1979 H   0  0  0  0  0  0  0  0  0  0  0  0
  -41.4252   55.7551   71.2567 H   0  0  0  0  0  0  0  0  0  0  0  0
  -41.6296   57.5176   71.1481 H   0  0  0  0  0  0  0  0  0  0  0  0
  -40.5372   56.8793   73.2279 H   0  0  0  0  0  0  0  0  0  0  0  0
  -39.4881   57.8498   72.1684 H   0  0  0  0  0  0  0  0  0  0  0  0
  -39.3358   54.8938   72.5265 H   0  0  0  0  0  0  0  0  0  0  0  0
  -38.2510   56.1401   73.2328 H   0  0  0  0  0  0  0  0  0  0  0  0
  -38.5082   55.5262   70.3398 H   0  0  0  0  0  0  0  0  0  0  0  0
  -37.2052   55.0001   71.4333 H   0  0  0  0  0  0  0  0  0  0  0  0
  -45.3857   65.7282   63.5728 H   0  0  0  0  0  0  0  0  0  0  0  0
  -36.5513   57.2759   71.7967 H   0  0  0  0  0  0  0  0  0  0  0  0
  -37.8695   57.8028   70.7057 H   0  0  0  0  0  0  0  0  0  0  0  0
  -35.6971   57.9434   69.6224 H   0  0  0  0  0  0  0  0  0  0  0  0
  -36.7773   56.7943   68.8439 H   0  0  0  0  0  0  0  0  0  0  0  0
  -35.6720   54.9659   69.9769 H   0  0  0  0  0  0  0  0  0  0  0  0
  -34.5771   56.1714   70.7423 H   0  0  0  0  0  0  0  0  0  0  0  0
  -34.6510   55.4690   67.8567 H   0  0  0  0  0  0  0  0  0  0  0  0
  -33.4311   54.9896   69.0121 H   0  0  0  0  0  0  0  0  0  0  0  0
  -33.6352   56.6769   68.6066 H   0  0  0  0  0  0  0  0  0  0  0  0
  -42.1401   60.4704   61.5308 H   0  0  0  0  0  0  0  0  0  0  0  0
  -43.5740   60.5745   62.4862 H   0  0  0  0  0  0  0  0  0  0  0  0
  -43.1794   58.2434   61.7432 H   0  0  0  0  0  0  0  0  0  0  0  0
  -43.0571   58.3590   63.4860 H   0  0  0  0  0  0  0  0  0  0  0  0
  -41.2449   57.0269   62.5728 H   0  0  0  0  0  0  0  0  0  0  0  0
  -40.6620   58.5630   63.3004 H   0  0  0  0  0  0  0  0  0  0  0  0
  -40.2925   59.4830   61.1571 H   0  0  0  0  0  0  0  0  0  0  0  0
  -40.9060   58.0599   60.3793 H   0  0  0  0  0  0  0  0  0  0  0  0
  -39.1612   56.7118   61.4771 H   0  0  0  0  0  0  0  0  0  0  0  0
  -38.5561   58.1868   62.2488 H   0  0  0  0  0  0  0  0  0  0  0  0
  -38.5957   57.6584   59.3038 H   0  0  0  0  0  0  0  0  0  0  0  0
  -37.1825   57.5740   60.3873 H   0  0  0  0  0  0  0  0  0  0  0  0
  -38.7439   60.0510   59.7785 H   0  0  0  0  0  0  0  0  0  0  0  0
  -37.1694   59.6057   59.0973 H   0  0  0  0  0  0  0  0  0  0  0  0
  -36.1612   59.7064   61.3004 H   0  0  0  0  0  0  0  0  0  0  0  0
  -37.7157   60.1169   62.0060 H   0  0  0  0  0  0  0  0  0  0  0  0
  -37.7833   62.1607   60.6988 H   0  0  0  0  0  0  0  0  0  0  0  0
  -36.1957   61.7192   60.0027 H   0  0  0  0  0  0  0  0  0  0  0  0
  -36.6967   62.3767   62.8613 H   0  0  0  0  0  0  0  0  0  0  0  0
  -35.9830   63.4468   61.6484 H   0  0  0  0  0  0  0  0  0  0  0  0
  -34.2875   62.4336   63.0297 H   0  0  0  0  0  0  0  0  0  0  0  0
  -34.2067   61.8994   61.3165 H   0  0  0  0  0  0  0  0  0  0  0  0
  -35.1045   59.7731   61.8965 H   0  0  0  0  0  0  0  0  0  0  0  0
  -35.2733   60.2429   63.5615 H   0  0  0  0  0  0  0  0  0  0  0  0
  -32.8735   60.6437   63.6919 H   0  0  0  0  0  0  0  0  0  0  0  0
  -32.7800   60.0942   61.9622 H   0  0  0  0  0  0  0  0  0  0  0  0
  -33.2606   57.8997   62.5794 H   0  0  0  0  0  0  0  0  0  0  0  0
  -33.4379   58.3687   64.2645 H   0  0  0  0  0  0  0  0  0  0  0  0
  -30.9200   58.5961   62.6440 H   0  0  0  0  0  0  0  0  0  0  0  0
  -31.2865   57.3698   63.8878 H   0  0  0  0  0  0  0  0  0  0  0  0
  -30.9783   60.2991   64.3919 H   0  0  0  0  0  0  0  0  0  0  0  0
  -29.7779   59.0356   64.7309 H   0  0  0  0  0  0  0  0  0  0  0  0
  -32.4744   59.2680   66.0119 H   0  0  0  0  0  0  0  0  0  0  0  0
  -30.9456   59.6648   66.7592 H   0  0  0  0  0  0  0  0  0  0  0  0
  -31.2986   58.0119   66.3161 H   0  0  0  0  0  0  0  0  0  0  0  0
  -41.0884   62.5164   63.5101 H   0  0  0  0  0  0  0  0  0  0  0  0
  -40.3450   65.3693   62.9365 H   0  0  0  0  0  0  0  0  0  0  0  0
  -42.9797   64.0400   62.6037 H   0  0  0  0  0  0  0  0  0  0  0  0
  -42.5072   64.4892   60.1929 H   0  0  0  0  0  0  0  0  0  0  0  0
  -41.5483   62.3577   61.0920 H   0  0  0  0  0  0  0  0  0  0  0  0
  -41.3070   63.3133   58.7375 H   0  0  0  0  0  0  0  0  0  0  0  0
  -39.7695   63.9801   59.2362 H   0  0  0  0  0  0  0  0  0  0  0  0
  1  4  1  0  0  0  0
  1 31  1  0  0  0  0
  1 56  1  0  0  0  0
  2  3  1  0  0  0  0
  2  4  1  0  0  0  0
  2 57  1  0  0  0  0
  2 58  1  0  0  0  0
  3 49  1  0  0  0  0
  4  6  1  0  0  0  0
  4 59  1  1  0  0  0
  5  6  1  0  0  0  0
  5 60  1  0  0  0  0
  6  8  1  0  0  0  0
  6 61  1  6  0  0  0
  7 31  2  0  0  0  0
  8  9  2  0  0  0  0
  8 62  1  0  0  0  0
  9 11  1  0  0  0  0
  9 63  1  0  0  0  0
 10 50  1  0  0  0  0
 10 64  1  0  0  0  0
 11 13  1  0  0  0  0
 11 65  1  0  0  0  0
 11 66  1  0  0  0  0
 12 51  1  0  0  0  0
 12 55  1  0  0  0  0
 13 15  1  0  0  0  0
 13 67  1  0  0  0  0
 13 68  1  0  0  0  0
 14 55  1  0  0  0  0
 14 69  1  0  0  0  0
 15 17  1  0  0  0  0
 15 70  1  0  0  0  0
 15 71  1  0  0  0  0
 16 52  1  0  0  0  0
 16 72  1  0  0  0  0
 17 19  1  0  0  0  0
 17 73  1  0  0  0  0
 17 74  1  0  0  0  0
 18 49  1  0  0  0  0
 18 53  1  0  0  0  0
 19 21  1  0  0  0  0
 19 75  1  0  0  0  0
 19 76  1  0  0  0  0
 20 54  1  0  0  0  0
 20 77  1  0  0  0  0
 21 22  1  0  0  0  0
 21 78  1  0  0  0  0
 21 79  1  0  0  0  0
 22 23  1  0  0  0  0
 22 80  1  0  0  0  0
 22 81  1  0  0  0  0
 23 25  1  0  0  0  0
 23 82  1  0  0  0  0
 23 83  1  0  0  0  0
 24 55  1  0  0  0  0
 25 27  1  0  0  0  0
 25 84  1  0  0  0  0
 25 85  1  0  0  0  0
 26 55  1  0  0  0  0
 26 86  1  0  0  0  0
 27 28  1  0  0  0  0
 27 87  1  0  0  0  0
 27 88  1  0  0  0  0
 28 29  1  0  0  0  0
 28 89  1  0  0  0  0
 28 90  1  0  0  0  0
 29 30  1  0  0  0  0
 29 91  1  0  0  0  0
 29 92  1  0  0  0  0
 30 93  1  0  0  0  0
 30 94  1  0  0  0  0
 30 95  1  0  0  0  0
 31 32  1  0  0  0  0
 32 33  1  0  0  0  0
 32 96  1  0  0  0  0
 32 97  1  0  0  0  0
 33 34  1  0  0  0  0
 33 98  1  0  0  0  0
 33 99  1  0  0  0  0
 34 35  1  0  0  0  0
 34100  1  0  0  0  0
 34101  1  0  0  0  0
 35 36  1  0  0  0  0
 35102  1  0  0  0  0
 35103  1  0  0  0  0
 36 37  1  0  0  0  0
 36104  1  0  0  0  0
 36105  1  0  0  0  0
 37 38  1  0  0  0  0
 37106  1  0  0  0  0
 37107  1  0  0  0  0
 38 39  1  0  0  0  0
 38108  1  0  0  0  0
 38109  1  0  0  0  0
 39 40  1  0  0  0  0
 39110  1  0  0  0  0
 39111  1  0  0  0  0
 40 41  1  0  0  0  0
 40112  1  0  0  0  0
 40113  1  0  0  0  0
 41 42  1  0  0  0  0
 41114  1  0  0  0  0
 41115  1  0  0  0  0
 42 43  1  0  0  0  0
 42116  1  0  0  0  0
 42117  1  0  0  0  0
 43 44  1  0  0  0  0
 43118  1  0  0  0  0
 43119  1  0  0  0  0
 44 45  1  0  0  0  0
 44120  1  0  0  0  0
 44121  1  0  0  0  0
 45 46  1  0  0  0  0
 45122  1  0  0  0  0
 45123  1  0  0  0  0
 46 47  1  0  0  0  0
 46124  1  0  0  0  0
 46125  1  0  0  0  0
 47 48  1  0  0  0  0
 47126  1  0  0  0  0
 47127  1  0  0  0  0
 48128  1  0  0  0  0
 48129  1  0  0  0  0
 48130  1  0  0  0  0
 49 50  1  0  0  0  0
 49131  1  1  0  0  0
 50 51  1  0  0  0  0
 50132  1  6  0  0  0
 51 52  1  0  0  0  0
 51133  1  1  0  0  0
 52 53  1  0  0  0  0
 52134  1  6  0  0  0
 53 54  1  0  0  0  0
 53135  1  1  0  0  0
 54136  1  0  0  0  0
 54137  1  0  0  0  0
M  CHG  1  24  -1
M  END
$$$$
/media/chris/experiments/cd1a-new-docking/inputs/ligands/1onq_ligand.pdb
 OpenBabel06222310383D

137137  0  0  1  0  0  0  0  0999 V2000
  -40.4920   60.2280   63.6270 N   0  0  0  0  0  0  0  0  0  0  0  0
  -38.5950   61.7730   64.2860 C   0  0  0  0  0  0  0  0  0  0  0  0
  -37.5441   62.0867   65.2349 O   0  0  0  0  0  0  0  0  0  0  0  0
  -39.4590   60.5300   64.5980 C   0  0  1  0  0  0  0  0  0  0  0  0
  -41.2116   61.5409   65.7392 O   0  0  0  0  0  0  0  0  0  0  0  0
  -40.2280   60.5370   65.9080 C   0  0  2  0  0  0  0  0  0  0  0  0
  -40.9980   62.2858   62.8166 O   0  0  0  0  0  0  0  0  0  0  0  0
  -39.2689   60.8567   67.0571 C   0  0  0  0  0  0  0  0  0  0  0  0
  -39.0539   60.0187   68.0855 C   0  0  0  0  0  0  0  0  0  0  0  0
  -38.2938   64.5178   63.9293 O   0  0  0  0  0  0  0  0  0  0  0  0
  -38.0807   60.4114   69.1956 C   0  0  0  0  0  0  0  0  0  0  0  0
  -37.0206   67.1074   64.5954 O   0  0  0  0  0  0  0  0  0  0  0  0
  -37.9260   59.3472   70.2919 C   0  0  0  0  0  0  0  0  0  0  0  0
  -35.5491   68.3969   62.8957 O   0  0  0  0  0  0  0  0  0  0  0  0
  -37.3921   57.9808   69.8238 C   0  0  0  0  0  0  0  0  0  0  0  0
  -36.0508   66.2424   66.9942 O   0  0  0  0  0  0  0  0  0  0  0  0
  -35.9813   58.1254   69.2040 C   0  0  0  0  0  0  0  0  0  0  0  0
  -35.6795   63.3761   66.0987 O   0  0  0  0  0  0  0  0  0  0  0  0
  -35.3503   56.8102   68.6809 C   0  0  0  0  0  0  0  0  0  0  0  0
  -33.0018   65.8439   66.8253 O   0  0  0  0  0  0  0  0  0  0  0  0
  -36.1612   56.1215   67.5581 C   0  0  0  0  0  0  0  0  0  0  0  0
  -36.3268   56.9915   66.2933 C   0  0  0  0  0  0  0  0  0  0  0  0
  -34.9991   57.3725   65.6274 C   0  0  0  0  0  0  0  0  0  0  0  0
  -35.0811   68.5856   65.2694 O   0  5  0  0  0  0  0  0  0  0  0  0
  -34.1372   56.2116   65.1357 C   0  0  0  0  0  0  0  0  0  0  0  0
  -36.9848   69.7361   64.3068 O   0  0  0  0  0  0  0  0  0  0  0  0
  -34.8189   55.3347   64.0669 C   0  0  0  0  0  0  0  0  0  0  0  0
  -33.9837   54.1476   63.5638 C   0  0  0  0  0  0  0  0  0  0  0  0
  -34.7426   53.3545   62.4960 C   0  0  0  0  0  0  0  0  0  0  0  0
  -34.0324   52.1401   61.9248 C   0  0  0  0  0  0  0  0  0  0  0  0
  -41.1606   61.0813   62.8393 C   0  0  0  0  0  0  0  0  0  0  0  0
  -42.1710   60.4499   61.9282 C   0  0  0  0  0  0  0  0  0  0  0  0
  -42.7946   61.5868   61.1184 C   0  0  0  0  0  0  0  0  0  0  0  0
  -41.7183   62.2950   60.2992 C   0  0  0  0  0  0  0  0  0  0  0  0
  -42.1837   63.4575   59.4563 C   0  0  0  0  0  0  0  0  0  0  0  0
  -43.2349   62.9308   58.4851 C   0  0  0  0  0  0  0  0  0  0  0  0
  -42.6955   61.8222   57.5713 C   0  0  0  0  0  0  0  0  0  0  0  0
  -43.7244   61.2766   56.5642 C   0  0  0  0  0  0  0  0  0  0  0  0
  -43.1540   60.1515   55.6730 C   0  0  0  0  0  0  0  0  0  0  0  0
  -44.2119   59.6595   54.6811 C   0  0  0  0  0  0  0  0  0  0  0  0
  -45.4826   59.1065   55.3150 C   0  0  0  0  0  0  0  0  0  0  0  0
  -46.2066   60.1459   56.1580 C   0  0  0  0  0  0  0  0  0  0  0  0
  -47.4882   59.6748   56.8492 C   0  0  0  0  0  0  0  0  0  0  0  0
  -48.0709   60.8499   57.6227 C   0  0  0  0  0  0  0  0  0  0  0  0
  -47.2245   61.5014   58.7064 C   0  0  0  0  0  0  0  0  0  0  0  0
  -47.9871   62.6519   59.3824 C   0  0  0  0  0  0  0  0  0  0  0  0
  -47.1966   63.3816   60.4840 C   0  0  0  0  0  0  0  0  0  0  0  0
  -46.7619   62.4638   61.6243 C   0  0  0  0  0  0  0  0  0  0  0  0
  -36.6675   63.2597   65.0462 C   0  0  2  0  0  0  0  0  0  0  0  0
  -37.3701   64.6228   64.9685 C   0  0  1  0  0  0  0  0  0  0  0  0
  -36.4160   65.7955   64.6529 C   0  0  2  0  0  0  0  0  0  0  0  0
  -35.4210   65.8428   65.7794 C   0  0  2  0  0  0  0  0  0  0  0  0
  -34.7568   64.4868   65.9355 C   0  0  1  0  0  0  0  0  0  0  0  0
  -33.8159   64.7462   67.1101 C   0  0  0  0  0  0  0  0  0  0  0  0
  -36.1639   68.4933   64.2527 S   0  0  0  0  0  0  0  0  0  0  0  0
  -40.7322   59.2777   63.5347 H   0  0  0  0  0  0  0  0  0  0  0  0
  -38.1357   61.6183   63.3320 H   0  0  0  0  0  0  0  0  0  0  0  0
  -39.2690   62.6030   64.3261 H   0  0  0  0  0  0  0  0  0  0  0  0
  -38.6677   59.8099   64.6092 H   0  0  0  0  0  0  0  0  0  0  0  0
  -41.7964   61.3001   65.0038 H   0  0  0  0  0  0  0  0  0  0  0  0
  -40.6791   59.5963   66.1457 H   0  0  0  0  0  0  0  0  0  0  0  0
  -38.7644   61.7568   67.0415 H   0  0  0  0  0  0  0  0  0  0  0  0
  -39.5451   59.1120   68.1252 H   0  0  0  0  0  0  0  0  0  0  0  0
  -38.9026   63.7849   64.1107 H   0  0  0  0  0  0  0  0  0  0  0  0
  -38.4335   61.3139   69.6494 H   0  0  0  0  0  0  0  0  0  0  0  0
  -37.1201   60.5296   68.7394 H   0  0  0  0  0  0  0  0  0  0  0  0
  -38.8867   59.1904   70.7360 H   0  0  0  0  0  0  0  0  0  0  0  0
  -37.1926   59.7308   70.9700 H   0  0  0  0  0  0  0  0  0  0  0  0
  -35.0098   67.5924   62.8415 H   0  0  0  0  0  0  0  0  0  0  0  0
  -38.0578   57.5766   69.0901 H   0  0  0  0  0  0  0  0  0  0  0  0
  -37.3300   57.3286   70.6698 H   0  0  0  0  0  0  0  0  0  0  0  0
  -36.4678   67.1097   66.8721 H   0  0  0  0  0  0  0  0  0  0  0  0
  -35.3314   58.5293   69.9520 H   0  0  0  0  0  0  0  0  0  0  0  0
  -36.0968   58.7588   68.3494 H   0  0  0  0  0  0  0  0  0  0  0  0
  -35.2669   56.1284   69.5013 H   0  0  0  0  0  0  0  0  0  0  0  0
  -34.4015   57.0701   68.2602 H   0  0  0  0  0  0  0  0  0  0  0  0
  -32.4053   66.0066   67.5727 H   0  0  0  0  0  0  0  0  0  0  0  0
  -37.1339   55.8877   67.9377 H   0  0  0  0  0  0  0  0  0  0  0  0
  -35.6168   55.2470   67.2686 H   0  0  0  0  0  0  0  0  0  0  0  0
  -36.8376   57.8910   66.5668 H   0  0  0  0  0  0  0  0  0  0  0  0
  -36.8761   56.4089   65.5834 H   0  0  0  0  0  0  0  0  0  0  0  0
  -34.4244   57.9283   66.3384 H   0  0  0  0  0  0  0  0  0  0  0  0
  -35.2653   57.9247   64.7504 H   0  0  0  0  0  0  0  0  0  0  0  0
  -33.8955   55.5929   65.9746 H   0  0  0  0  0  0  0  0  0  0  0  0
  -33.2706   56.6410   64.6779 H   0  0  0  0  0  0  0  0  0  0  0  0
  -37.6937   69.6843   63.6467 H   0  0  0  0  0  0  0  0  0  0  0  0
  -35.0499   55.9563   63.2271 H   0  0  0  0  0  0  0  0  0  0  0  0
  -35.6823   54.9120   64.5366 H   0  0  0  0  0  0  0  0  0  0  0  0
  -33.7621   53.5018   64.3876 H   0  0  0  0  0  0  0  0  0  0  0  0
  -33.0815   54.5256   63.1300 H   0  0  0  0  0  0  0  0  0  0  0  0
  -34.9535   54.0198   61.6849 H   0  0  0  0  0  0  0  0  0  0  0  0
  -35.6100   52.9699   62.9907 H   0  0  0  0  0  0  0  0  0  0  0  0
  -33.1473   52.4533   61.4115 H   0  0  0  0  0  0  0  0  0  0  0  0
  -34.6822   51.6361   61.2403 H   0  0  0  0  0  0  0  0  0  0  0  0
  -33.7671   51.4753   62.7201 H   0  0  0  0  0  0  0  0  0  0  0  0
  -42.9228   59.9482   62.5008 H   0  0  0  0  0  0  0  0  0  0  0  0
  -41.7149   59.7236   61.2883 H   0  0  0  0  0  0  0  0  0  0  0  0
  -43.2511   62.2880   61.7854 H   0  0  0  0  0  0  0  0  0  0  0  0
  -43.5318   61.1834   60.4562 H   0  0  0  0  0  0  0  0  0  0  0  0
  -41.2770   61.5725   59.6448 H   0  0  0  0  0  0  0  0  0  0  0  0
  -41.0399   62.7115   61.0143 H   0  0  0  0  0  0  0  0  0  0  0  0
  -41.3582   63.8680   58.9132 H   0  0  0  0  0  0  0  0  0  0  0  0
  -42.5950   64.2285   60.0737 H   0  0  0  0  0  0  0  0  0  0  0  0
  -43.5744   63.7419   57.8753 H   0  0  0  0  0  0  0  0  0  0  0  0
  -44.0301   62.5121   59.0659 H   0  0  0  0  0  0  0  0  0  0  0  0
  -42.3659   61.0112   58.1865 H   0  0  0  0  0  0  0  0  0  0  0  0
  -41.9038   62.2559   56.9969 H   0  0  0  0  0  0  0  0  0  0  0  0
  -44.0462   62.0803   55.9354 H   0  0  0  0  0  0  0  0  0  0  0  0
  -44.5351   60.8617   57.1259 H   0  0  0  0  0  0  0  0  0  0  0  0
  -42.8458   59.3349   56.2920 H   0  0  0  0  0  0  0  0  0  0  0  0
  -42.3197   60.5361   55.1243 H   0  0  0  0  0  0  0  0  0  0  0  0
  -43.7741   58.8855   54.0860 H   0  0  0  0  0  0  0  0  0  0  0  0
  -44.5098   60.5158   54.1130 H   0  0  0  0  0  0  0  0  0  0  0  0
  -45.2230   58.2772   55.9393 H   0  0  0  0  0  0  0  0  0  0  0  0
  -46.1403   58.8099   54.5248 H   0  0  0  0  0  0  0  0  0  0  0  0
  -46.4615   60.9656   55.5192 H   0  0  0  0  0  0  0  0  0  0  0  0
  -45.5299   60.3995   56.9470 H   0  0  0  0  0  0  0  0  0  0  0  0
  -47.2634   58.8739   57.5222 H   0  0  0  0  0  0  0  0  0  0  0  0
  -48.1922   59.3244   56.1236 H   0  0  0  0  0  0  0  0  0  0  0  0
  -48.9699   60.5053   58.0896 H   0  0  0  0  0  0  0  0  0  0  0  0
  -48.1848   61.6166   56.8850 H   0  0  0  0  0  0  0  0  0  0  0  0
  -46.3283   61.8863   58.2664 H   0  0  0  0  0  0  0  0  0  0  0  0
  -46.9918   60.7648   59.4467 H   0  0  0  0  0  0  0  0  0  0  0  0
  -48.8776   62.2511   59.8197 H   0  0  0  0  0  0  0  0  0  0  0  0
  -48.1847   63.3757   58.6195 H   0  0  0  0  0  0  0  0  0  0  0  0
  -47.8138   64.1566   60.8883 H   0  0  0  0  0  0  0  0  0  0  0  0
  -46.3072   63.7688   60.0323 H   0  0  0  0  0  0  0  0  0  0  0  0
  -47.6273   62.0553   62.1029 H   0  0  0  0  0  0  0  0  0  0  0  0
  -46.1921   63.0242   62.3357 H   0  0  0  0  0  0  0  0  0  0  0  0
  -46.1619   61.6689   61.2333 H   0  0  0  0  0  0  0  0  0  0  0  0
  -36.2294   63.0536   64.0919 H   0  0  0  0  0  0  0  0  0  0  0  0
  -37.8075   64.8385   65.9209 H   0  0  0  0  0  0  0  0  0  0  0  0
  -36.0169   65.6040   63.6787 H   0  0  0  0  0  0  0  0  0  0  0  0
  -34.6703   66.5692   65.5474 H   0  0  0  0  0  0  0  0  0  0  0  0
  -34.2432   64.1505   65.0592 H   0  0  0  0  0  0  0  0  0  0  0  0
  -34.3913   64.9482   67.9892 H   0  0  0  0  0  0  0  0  0  0  0  0
  -33.2043   63.8833   67.2723 H   0  0  0  0  0  0  0  0  0  0  0  0
  1  4  1  0  0  0  0
  1 31  1  0  0  0  0
  1 56  1  0  0  0  0
  2  3  1  0  0  0  0
  2  4  1  0  0  0  0
  2 57  1  0  0  0  0
  2 58  1  0  0  0  0
  3 49  1  0  0  0  0
  4  6  1  0  0  0  0
  4 59  1  1  0  0  0
  5  6  1  0  0  0  0
  5 60  1  0  0  0  0
  6  8  1  0  0  0  0
  6 61  1  1  0  0  0
  7 31  2  0  0  0  0
  8  9  2  0  0  0  0
  8 62  1  0  0  0  0
  9 11  1  0  0  0  0
  9 63  1  0  0  0  0
 10 50  1  0  0  0  0
 10 64  1  0  0  0  0
 11 13  1  0  0  0  0
 11 65  1  0  0  0  0
 11 66  1  0  0  0  0
 12 51  1  0  0  0  0
 12 55  1  0  0  0  0
 13 15  1  0  0  0  0
 13 67  1  0  0  0  0
 13 68  1  0  0  0  0
 14 55  1  0  0  0  0
 14 69  1  0  0  0  0
 15 17  1  0  0  0  0
 15 70  1  0  0  0  0
 15 71  1  0  0  0  0
 16 52  1  0  0  0  0
 16 72  1  0  0  0  0
 17 19  1  0  0  0  0
 17 73  1  0  0  0  0
 17 74  1  0  0  0  0
 18 49  1  0  0  0  0
 18 53  1  0  0  0  0
 19 21  1  0  0  0  0
 19 75  1  0  0  0  0
 19 76  1  0  0  0  0
 20 54  1  0  0  0  0
 20 77  1  0  0  0  0
 21 22  1  0  0  0  0
 21 78  1  0  0  0  0
 21 79  1  0  0  0  0
 22 23  1  0  0  0  0
 22 80  1  0  0  0  0
 22 81  1  0  0  0  0
 23 25  1  0  0  0  0
 23 82  1  0  0  0  0
 23 83  1  0  0  0  0
 24 55  1  0  0  0  0
 25 27  1  0  0  0  0
 25 84  1  0  0  0  0
 25 85  1  0  0  0  0
 26 55  1  0  0  0  0
 26 86  1  0  0  0  0
 27 28  1  0  0  0  0
 27 87  1  0  0  0  0
 27 88  1  0  0  0  0
 28 29  1  0  0  0  0
 28 89  1  0  0  0  0
 28 90  1  0  0  0  0
 29 30  1  0  0  0  0
 29 91  1  0  0  0  0
 29 92  1  0  0  0  0
 30 93  1  0  0  0  0
 30 94  1  0  0  0  0
 30 95  1  0  0  0  0
 31 32  1  0  0  0  0
 32 33  1  0  0  0  0
 32 96  1  0  0  0  0
 32 97  1  0  0  0  0
 33 34  1  0  0  0  0
 33 98  1  0  0  0  0
 33 99  1  0  0  0  0
 34 35  1  0  0  0  0
 34100  1  0  0  0  0
 34101  1  0  0  0  0
 35 36  1  0  0  0  0
 35102  1  0  0  0  0
 35103  1  0  0  0  0
 36 37  1  0  0  0  0
 36104  1  0  0  0  0
 36105  1  0  0  0  0
 37 38  1  0  0  0  0
 37106  1  0  0  0  0
 37107  1  0  0  0  0
 38 39  1  0  0  0  0
 38108  1  0  0  0  0
 38109  1  0  0  0  0
 39 40  1  0  0  0  0
 39110  1  0  0  0  0
 39111  1  0  0  0  0
 40 41  1  0  0  0  0
 40112  1  0  0  0  0
 40113  1  0  0  0  0
 41 42  1  0  0  0  0
 41114  1  0  0  0  0
 41115  1  0  0  0  0
 42 43  1  0  0  0  0
 42116  1  0  0  0  0
 42117  1  0  0  0  0
 43 44  1  0  0  0  0
 43118  1  0  0  0  0
 43119  1  0  0  0  0
 44 45  1  0  0  0  0
 44120  1  0  0  0  0
 44121  1  0  0  0  0
 45 46  1  0  0  0  0
 45122  1  0  0  0  0
 45123  1  0  0  0  0
 46 47  1  0  0  0  0
 46124  1  0  0  0  0
 46125  1  0  0  0  0
 47 48  1  0  0  0  0
 47126  1  0  0  0  0
 47127  1  0  0  0  0
 48128  1  0  0  0  0
 48129  1  0  0  0  0
 48130  1  0  0  0  0
 49 50  1  0  0  0  0
 49131  1  6  0  0  0
 50 51  1  0  0  0  0
 50132  1  1  0  0  0
 51 52  1  0  0  0  0
 51133  1  6  0  0  0
 52 53  1  0  0  0  0
 52134  1  6  0  0  0
 53 54  1  0  0  0  0
 53135  1  6  0  0  0
 54136  1  0  0  0  0
 54137  1  0  0  0  0
M  CHG  1  24  -1
M  END
$$$$
/media/chris/experiments/cd1a-new-docking/inputs/ligands/1onq_ligand.pdb
 OpenBabel06222310383D

137137  0  0  1  0  0  0  0  0999 V2000
  -40.4920   60.2280   63.6270 N   0  0  0  0  0  0  0  0  0  0  0  0
  -38.5950   61.7730   64.2860 C   0  0  0  0  0  0  0  0  0  0  0  0
  -37.5441   62.0867   65.2349 O   0  0  0  0  0  0  0  0  0  0  0  0
  -39.4590   60.5300   64.5980 C   0  0  1  0  0  0  0  0  0  0  0  0
  -41.2116   61.5409   65.7392 O   0  0  0  0  0  0  0  0  0  0  0  0
  -40.2280   60.5370   65.9080 C   0  0  2  0  0  0  0  0  0  0  0  0
  -40.9980   62.2858   62.8166 O   0  0  0  0  0  0  0  0  0  0  0  0
  -39.2689   60.8567   67.0571 C   0  0  0  0  0  0  0  0  0  0  0  0
  -39.4395   60.3873   68.3048 C   0  0  0  0  0  0  0  0  0  0  0  0
  -38.2938   64.5178   63.9293 O   0  0  0  0  0  0  0  0  0  0  0  0
  -38.4375   60.7530   69.3983 C   0  0  0  0  0  0  0  0  0  0  0  0
  -37.0206   67.1074   64.5954 O   0  0  0  0  0  0  0  0  0  0  0  0
  -38.7542   60.1296   70.7655 C   0  0  0  0  0  0  0  0  0  0  0  0
  -35.5491   68.3969   62.8957 O   0  0  0  0  0  0  0  0  0  0  0  0
  -38.7741   58.5904   70.8077 C   0  0  0  0  0  0  0  0  0  0  0  0
  -36.0508   66.2424   66.9942 O   0  0  0  0  0  0  0  0  0  0  0  0
  -37.3934   58.0123   70.4141 C   0  0  0  0  0  0  0  0  0  0  0  0
  -35.6795   63.3761   66.0987 O   0  0  0  0  0  0  0  0  0  0  0  0
  -37.3018   56.4654   70.4056 C   0  0  0  0  0  0  0  0  0  0  0  0
  -34.5625   65.0109   68.2596 O   0  0  0  0  0  0  0  0  0  0  0  0
  -38.2689   55.7790   69.4125 C   0  0  0  0  0  0  0  0  0  0  0  0
  -38.0306   56.1807   67.9408 C   0  0  0  0  0  0  0  0  0  0  0  0
  -36.6326   55.8236   67.4217 C   0  0  0  0  0  0  0  0  0  0  0  0
  -35.0811   68.5856   65.2694 O   0  5  0  0  0  0  0  0  0  0  0  0
  -36.2697   54.3402   67.4363 C   0  0  0  0  0  0  0  0  0  0  0  0
  -36.9848   69.7361   64.3068 O   0  0  0  0  0  0  0  0  0  0  0  0
  -37.1933   53.4614   66.5698 C   0  0  0  0  0  0  0  0  0  0  0  0
  -38.6800   53.4954   66.9552 C   0  0  0  0  0  0  0  0  0  0  0  0
  -39.5045   52.5784   66.0472 C   0  0  0  0  0  0  0  0  0  0  0  0
  -40.9989   52.5324   66.3119 C   0  0  0  0  0  0  0  0  0  0  0  0
  -41.1606   61.0813   62.8393 C   0  0  0  0  0  0  0  0  0  0  0  0
  -42.1710   60.4499   61.9282 C   0  0  0  0  0  0  0  0  0  0  0  0
  -42.7946   61.5868   61.1184 C   0  0  0  0  0  0  0  0  0  0  0  0
  -43.4490   62.5977   62.0570 C   0  0  0  0  0  0  0  0  0  0  0  0
  -44.1249   63.7750   61.3970 C   0  0  0  0  0  0  0  0  0  0  0  0
  -44.6912   64.6603   62.5022 C   0  0  0  0  0  0  0  0  0  0  0  0
  -45.4245   65.8932   61.9571 C   0  0  0  0  0  0  0  0  0  0  0  0
  -45.9959   66.8211   63.0447 C   0  0  0  0  0  0  0  0  0  0  0  0
  -47.0082   66.1100   63.9695 C   0  0  0  0  0  0  0  0  0  0  0  0
  -46.3429   64.9400   64.6999 C   0  0  0  0  0  0  0  0  0  0  0  0
  -47.2599   64.1551   65.6301 C   0  0  0  0  0  0  0  0  0  0  0  0
  -48.4303   63.5246   64.8899 C   0  0  0  0  0  0  0  0  0  0  0  0
  -48.0683   62.5186   63.7949 C   0  0  0  0  0  0  0  0  0  0  0  0
  -47.3010   61.3712   64.4378 C   0  0  0  0  0  0  0  0  0  0  0  0
  -47.9892   60.5474   65.5162 C   0  0  0  0  0  0  0  0  0  0  0  0
  -47.0533   59.4529   66.0532 C   0  0  0  0  0  0  0  0  0  0  0  0
  -47.6757   58.5572   67.1400 C   0  0  0  0  0  0  0  0  0  0  0  0
  -48.1343   59.3331   68.3726 C   0  0  0  0  0  0  0  0  0  0  0  0
  -36.6675   63.2597   65.0462 C   0  0  2  0  0  0  0  0  0  0  0  0
  -37.3701   64.6228   64.9685 C   0  0  1  0  0  0  0  0  0  0  0  0
  -36.4160   65.7955   64.6529 C   0  0  2  0  0  0  0  0  0  0  0  0
  -35.4210   65.8428   65.7794 C   0  0  2  0  0  0  0  0  0  0  0  0
  -34.7568   64.4868   65.9355 C   0  0  1  0  0  0  0  0  0  0  0  0
  -33.8159   64.7462   67.1101 C   0  0  0  0  0  0  0  0  0  0  0  0
  -36.1639   68.4933   64.2527 S   0  0  0  0  0  0  0  0  0  0  0  0
  -40.7322   59.2777   63.5347 H   0  0  0  0  0  0  0  0  0  0  0  0
  -38.1357   61.6183   63.3320 H   0  0  0  0  0  0  0  0  0  0  0  0
  -39.2690   62.6030   64.3261 H   0  0  0  0  0  0  0  0  0  0  0  0
  -38.6677   59.8099   64.6092 H   0  0  0  0  0  0  0  0  0  0  0  0
  -41.7964   61.3001   65.0038 H   0  0  0  0  0  0  0  0  0  0  0  0
  -40.6791   59.5963   66.1457 H   0  0  0  0  0  0  0  0  0  0  0  0
  -38.4541   61.4602   66.8650 H   0  0  0  0  0  0  0  0  0  0  0  0
  -40.2455   59.7813   68.5237 H   0  0  0  0  0  0  0  0  0  0  0  0
  -38.9026   63.7849   64.1107 H   0  0  0  0  0  0  0  0  0  0  0  0
  -38.4305   61.8175   69.5067 H   0  0  0  0  0  0  0  0  0  0  0  0
  -37.4882   60.3653   69.0923 H   0  0  0  0  0  0  0  0  0  0  0  0
  -39.7181   60.4795   71.0712 H   0  0  0  0  0  0  0  0  0  0  0  0
  -37.9584   60.4295   71.4148 H   0  0  0  0  0  0  0  0  0  0  0  0
  -35.0098   67.5924   62.8415 H   0  0  0  0  0  0  0  0  0  0  0  0
  -39.5134   58.2302   70.1231 H   0  0  0  0  0  0  0  0  0  0  0  0
  -39.0057   58.2775   71.8043 H   0  0  0  0  0  0  0  0  0  0  0  0
  -36.4678   67.1097   66.8721 H   0  0  0  0  0  0  0  0  0  0  0  0
  -36.6695   58.3826   71.1096 H   0  0  0  0  0  0  0  0  0  0  0  0
  -37.2180   58.3249   69.4059 H   0  0  0  0  0  0  0  0  0  0  0  0
  -37.5241   56.1105   71.3903 H   0  0  0  0  0  0  0  0  0  0  0  0
  -36.3098   56.2176   70.0902 H   0  0  0  0  0  0  0  0  0  0  0  0
  -33.9627   65.1753   69.0040 H   0  0  0  0  0  0  0  0  0  0  0  0
  -39.2710   56.0446   69.6778 H   0  0  0  0  0  0  0  0  0  0  0  0
  -38.0954   54.7255   69.4826 H   0  0  0  0  0  0  0  0  0  0  0  0
  -38.1627   57.2390   67.8542 H   0  0  0  0  0  0  0  0  0  0  0  0
  -38.7329   55.6311   67.3496 H   0  0  0  0  0  0  0  0  0  0  0  0
  -35.9173   56.3413   68.0260 H   0  0  0  0  0  0  0  0  0  0  0  0
  -36.6264   56.1111   66.3910 H   0  0  0  0  0  0  0  0  0  0  0  0
  -36.3226   53.9906   68.4462 H   0  0  0  0  0  0  0  0  0  0  0  0
  -35.2861   54.2576   67.0232 H   0  0  0  0  0  0  0  0  0  0  0  0
  -37.6937   69.6843   63.6467 H   0  0  0  0  0  0  0  0  0  0  0  0
  -36.8546   52.4493   66.6467 H   0  0  0  0  0  0  0  0  0  0  0  0
  -37.1348   53.8579   65.5777 H   0  0  0  0  0  0  0  0  0  0  0  0
  -39.0426   54.4978   66.8620 H   0  0  0  0  0  0  0  0  0  0  0  0
  -38.7781   53.1530   67.9642 H   0  0  0  0  0  0  0  0  0  0  0  0
  -39.1238   51.5844   66.1563 H   0  0  0  0  0  0  0  0  0  0  0  0
  -39.4026   52.9865   65.0633 H   0  0  0  0  0  0  0  0  0  0  0  0
  -41.1760   52.1310   67.2879 H   0  0  0  0  0  0  0  0  0  0  0  0
  -41.4719   51.9119   65.5798 H   0  0  0  0  0  0  0  0  0  0  0  0
  -41.4019   53.5220   66.2548 H   0  0  0  0  0  0  0  0  0  0  0  0
  -42.9228   59.9482   62.5008 H   0  0  0  0  0  0  0  0  0  0  0  0
  -41.7149   59.7236   61.2883 H   0  0  0  0  0  0  0  0  0  0  0  0
  -43.5344   61.1866   60.4570 H   0  0  0  0  0  0  0  0  0  0  0  0
  -42.0294   62.0764   60.5530 H   0  0  0  0  0  0  0  0  0  0  0  0
  -42.6900   62.9789   62.7077 H   0  0  0  0  0  0  0  0  0  0  0  0
  -44.2283   62.0624   62.5582 H   0  0  0  0  0  0  0  0  0  0  0  0
  -44.9155   63.4331   60.7623 H   0  0  0  0  0  0  0  0  0  0  0  0
  -43.4270   64.3217   60.7979 H   0  0  0  0  0  0  0  0  0  0  0  0
  -43.8849   64.9890   63.1242 H   0  0  0  0  0  0  0  0  0  0  0  0
  -45.4021   64.0778   63.0501 H   0  0  0  0  0  0  0  0  0  0  0  0
  -46.2342   65.5576   61.3433 H   0  0  0  0  0  0  0  0  0  0  0  0
  -44.7015   66.4653   61.4141 H   0  0  0  0  0  0  0  0  0  0  0  0
  -46.4877   67.6434   62.5683 H   0  0  0  0  0  0  0  0  0  0  0  0
  -45.1775   67.1452   63.6530 H   0  0  0  0  0  0  0  0  0  0  0  0
  -47.8219   65.7402   63.3815 H   0  0  0  0  0  0  0  0  0  0  0  0
  -47.3639   66.8116   64.6950 H   0  0  0  0  0  0  0  0  0  0  0  0
  -45.5341   65.3293   65.2823 H   0  0  0  0  0  0  0  0  0  0  0  0
  -46.0291   64.2540   63.9412 H   0  0  0  0  0  0  0  0  0  0  0  0
  -47.6425   64.8190   66.3769 H   0  0  0  0  0  0  0  0  0  0  0  0
  -46.6850   63.3654   66.0668 H   0  0  0  0  0  0  0  0  0  0  0  0
  -48.9939   64.3131   64.4367 H   0  0  0  0  0  0  0  0  0  0  0  0
  -48.9706   62.9673   65.6264 H   0  0  0  0  0  0  0  0  0  0  0  0
  -47.4581   62.9927   63.0548 H   0  0  0  0  0  0  0  0  0  0  0  0
  -48.9554   62.1513   63.3226 H   0  0  0  0  0  0  0  0  0  0  0  0
  -46.4181   61.7884   64.8752 H   0  0  0  0  0  0  0  0  0  0  0  0
  -47.1501   60.6778   63.6370 H   0  0  0  0  0  0  0  0  0  0  0  0
  -48.8629   60.0888   65.1023 H   0  0  0  0  0  0  0  0  0  0  0  0
  -48.2543   61.1965   66.3245 H   0  0  0  0  0  0  0  0  0  0  0  0
  -46.1873   59.9267   66.4661 H   0  0  0  0  0  0  0  0  0  0  0  0
  -46.8261   58.8139   65.2256 H   0  0  0  0  0  0  0  0  0  0  0  0
  -46.9463   57.8361   67.4446 H   0  0  0  0  0  0  0  0  0  0  0  0
  -48.5431   58.0980   66.7138 H   0  0  0  0  0  0  0  0  0  0  0  0
  -47.2912   59.8087   68.8287 H   0  0  0  0  0  0  0  0  0  0  0  0
  -48.5847   58.6592   69.0711 H   0  0  0  0  0  0  0  0  0  0  0  0
  -48.8482   60.0752   68.0817 H   0  0  0  0  0  0  0  0  0  0  0  0
  -36.2294   63.0536   64.0919 H   0  0  0  0  0  0  0  0  0  0  0  0
  -37.8075   64.8385   65.9209 H   0  0  0  0  0  0  0  0  0  0  0  0
  -36.0169   65.6040   63.6787 H   0  0  0  0  0  0  0  0  0  0  0  0
  -34.6703   66.5692   65.5474 H   0  0  0  0  0  0  0  0  0  0  0  0
  -34.2432   64.1505   65.0592 H   0  0  0  0  0  0  0  0  0  0  0  0
  -33.2045   63.8834   67.2736 H   0  0  0  0  0  0  0  0  0  0  0  0
  -33.1949   65.5888   66.8881 H   0  0  0  0  0  0  0  0  0  0  0  0
  1  4  1  0  0  0  0
  1 31  1  0  0  0  0
  1 56  1  0  0  0  0
  2  3  1  0  0  0  0
  2  4  1  0  0  0  0
  2 57  1  0  0  0  0
  2 58  1  0  0  0  0
  3 49  1  0  0  0  0
  4  6  1  0  0  0  0
  4 59  1  1  0  0  0
  5  6  1  0  0  0  0
  5 60  1  0  0  0  0
  6  8  1  0  0  0  0
  6 61  1  1  0  0  0
  7 31  2  0  0  0  0
  8  9  2  0  0  0  0
  8 62  1  0  0  0  0
  9 11  1  0  0  0  0
  9 63  1  0  0  0  0
 10 50  1  0  0  0  0
 10 64  1  0  0  0  0
 11 13  1  0  0  0  0
 11 65  1  0  0  0  0
 11 66  1  0  0  0  0
 12 51  1  0  0  0  0
 12 55  1  0  0  0  0
 13 15  1  0  0  0  0
 13 67  1  0  0  0  0
 13 68  1  0  0  0  0
 14 55  1  0  0  0  0
 14 69  1  0  0  0  0
 15 17  1  0  0  0  0
 15 70  1  0  0  0  0
 15 71  1  0  0  0  0
 16 52  1  0  0  0  0
 16 72  1  0  0  0  0
 17 19  1  0  0  0  0
 17 73  1  0  0  0  0
 17 74  1  0  0  0  0
 18 49  1  0  0  0  0
 18 53  1  0  0  0  0
 19 21  1  0  0  0  0
 19 75  1  0  0  0  0
 19 76  1  0  0  0  0
 20 54  1  0  0  0  0
 20 77  1  0  0  0  0
 21 22  1  0  0  0  0
 21 78  1  0  0  0  0
 21 79  1  0  0  0  0
 22 23  1  0  0  0  0
 22 80  1  0  0  0  0
 22 81  1  0  0  0  0
 23 25  1  0  0  0  0
 23 82  1  0  0  0  0
 23 83  1  0  0  0  0
 24 55  1  0  0  0  0
 25 27  1  0  0  0  0
 25 84  1  0  0  0  0
 25 85  1  0  0  0  0
 26 55  1  0  0  0  0
 26 86  1  0  0  0  0
 27 28  1  0  0  0  0
 27 87  1  0  0  0  0
 27 88  1  0  0  0  0
 28 29  1  0  0  0  0
 28 89  1  0  0  0  0
 28 90  1  0  0  0  0
 29 30  1  0  0  0  0
 29 91  1  0  0  0  0
 29 92  1  0  0  0  0
 30 93  1  0  0  0  0
 30 94  1  0  0  0  0
 30 95  1  0  0  0  0
 31 32  1  0  0  0  0
 32 33  1  0  0  0  0
 32 96  1  0  0  0  0
 32 97  1  0  0  0  0
 33 34  1  0  0  0  0
 33 98  1  0  0  0  0
 33 99  1  0  0  0  0
 34 35  1  0  0  0  0
 34100  1  0  0  0  0
 34101  1  0  0  0  0
 35 36  1  0  0  0  0
 35102  1  0  0  0  0
 35103  1  0  0  0  0
 36 37  1  0  0  0  0
 36104  1  0  0  0  0
 36105  1  0  0  0  0
 37 38  1  0  0  0  0
 37106  1  0  0  0  0
 37107  1  0  0  0  0
 38 39  1  0  0  0  0
 38108  1  0  0  0  0
 38109  1  0  0  0  0
 39 40  1  0  0  0  0
 39110  1  0  0  0  0
 39111  1  0  0  0  0
 40 41  1  0  0  0  0
 40112  1  0  0  0  0
 40113  1  0  0  0  0
 41 42  1  0  0  0  0
 41114  1  0  0  0  0
 41115  1  0  0  0  0
 42 43  1  0  0  0  0
 42116  1  0  0  0  0
 42117  1  0  0  0  0
 43 44  1  0  0  0  0
 43118  1  0  0  0  0
 43119  1  0  0  0  0
 44 45  1  0  0  0  0
 44120  1  0  0  0  0
 44121  1  0  0  0  0
 45 46  1  0  0  0  0
 45122  1  0  0  0  0
 45123  1  0  0  0  0
 46 47  1  0  0  0  0
 46124  1  0  0  0  0
 46125  1  0  0  0  0
 47 48  1  0  0  0  0
 47126  1  0  0  0  0
 47127  1  0  0  0  0
 48128  1  0  0  0  0
 48129  1  0  0  0  0
 48130  1  0  0  0  0
 49 50  1  0  0  0  0
 49131  1  6  0  0  0
 50 51  1  0  0  0  0
 50132  1  1  0  0  0
 51 52  1  0  0  0  0
 51133  1  6  0  0  0
 52 53  1  0  0  0  0
 52134  1  6  0  0  0
 53 54  1  0  0  0  0
 53135  1  6  0  0  0
 54136  1  0  0  0  0
 54137  1  0  0  0  0
M  CHG  1  24  -1
M  END
$$$$
/media/chris/experiments/cd1a-new-docking/inputs/ligands/1onq_ligand.pdb
 OpenBabel06222310383D

137137  0  0  1  0  0  0  0  0999 V2000
  -40.4920   60.2280   63.6270 N   0  0  0  0  0  0  0  0  0  0  0  0
  -38.5950   61.7730   64.2860 C   0  0  0  0  0  0  0  0  0  0  0  0
  -37.8612   61.7550   63.0352 O   0  0  0  0  0  0  0  0  0  0  0  0
  -39.4590   60.5300   64.5980 C   0  0  1  0  0  0  0  0  0  0  0  0
  -39.2569   60.8461   66.8904 O   0  0  0  0  0  0  0  0  0  0  0  0
  -40.2280   60.5370   65.9080 C   0  0  2  0  0  0  0  0  0  0  0  0
  -41.3945   60.2146   61.5455 O   0  0  0  0  0  0  0  0  0  0  0  0
  -40.8583   59.1606   66.1332 C   0  0  0  0  0  0  0  0  0  0  0  0
  -42.0897   58.8399   65.7007 C   0  0  0  0  0  0  0  0  0  0  0  0
  -35.0763   61.8852   63.6713 O   0  0  0  0  0  0  0  0  0  0  0  0
  -42.6490   57.4435   65.9661 C   0  0  0  0  0  0  0  0  0  0  0  0
  -33.4668   59.4465   64.1535 O   0  0  0  0  0  0  0  0  0  0  0  0
  -41.8027   56.3106   65.3673 C   0  0  0  0  0  0  0  0  0  0  0  0
  -31.2016   58.4787   64.9591 O   0  0  0  0  0  0  0  0  0  0  0  0
  -42.3390   54.8854   65.5963 C   0  0  0  0  0  0  0  0  0  0  0  0
  -35.6387   57.8611   64.6143 O   0  0  0  0  0  0  0  0  0  0  0  0
  -41.3944   53.8350   64.9640 C   0  0  0  0  0  0  0  0  0  0  0  0
  -37.4637   59.3802   62.7389 O   0  0  0  0  0  0  0  0  0  0  0  0
  -41.8460   52.3607   65.1190 C   0  0  0  0  0  0  0  0  0  0  0  0
  -38.1836   56.7154   61.7172 O   0  0  0  0  0  0  0  0  0  0  0  0
  -42.0034   51.8974   66.5864 C   0  0  0  0  0  0  0  0  0  0  0  0
  -40.7047   52.0138   67.4134 C   0  0  0  0  0  0  0  0  0  0  0  0
  -40.8516   51.5395   68.8642 C   0  0  0  0  0  0  0  0  0  0  0  0
  -31.5793   58.8261   62.5872 O   0  5  0  0  0  0  0  0  0  0  0  0
  -41.8945   52.2704   69.7071 C   0  0  0  0  0  0  0  0  0  0  0  0
  -32.6385   56.9705   63.7315 O   0  0  0  0  0  0  0  0  0  0  0  0
  -41.9893   51.7665   71.1608 C   0  0  0  0  0  0  0  0  0  0  0  0
  -42.3447   50.2801   71.3166 C   0  0  0  0  0  0  0  0  0  0  0  0
  -42.4305   49.8872   72.7943 C   0  0  0  0  0  0  0  0  0  0  0  0
  -43.4710   50.6147   73.6270 C   0  0  0  0  0  0  0  0  0  0  0  0
  -40.4890   60.4819   62.3113 C   0  0  0  0  0  0  0  0  0  0  0  0
  -39.2530   61.1566   61.7948 C   0  0  0  0  0  0  0  0  0  0  0  0
  -39.4673   61.3649   60.2955 C   0  0  0  0  0  0  0  0  0  0  0  0
  -38.2406   62.0353   59.6815 C   0  0  0  0  0  0  0  0  0  0  0  0
  -38.3125   62.3217   58.2013 C   0  0  0  0  0  0  0  0  0  0  0  0
  -38.5226   60.9922   57.4843 C   0  0  0  0  0  0  0  0  0  0  0  0
  -37.3944   59.9878   57.7550 C   0  0  0  0  0  0  0  0  0  0  0  0
  -35.9978   60.4755   57.3282 C   0  0  0  0  0  0  0  0  0  0  0  0
  -34.8896   59.4343   57.5988 C   0  0  0  0  0  0  0  0  0  0  0  0
  -35.1583   58.1444   56.8184 C   0  0  0  0  0  0  0  0  0  0  0  0
  -34.1306   57.0387   57.0265 C   0  0  0  0  0  0  0  0  0  0  0  0
  -34.0477   56.5935   58.4790 C   0  0  0  0  0  0  0  0  0  0  0  0
  -35.3329   56.0190   59.0793 C   0  0  0  0  0  0  0  0  0  0  0  0
  -35.7234   54.7858   58.2758 C   0  0  0  0  0  0  0  0  0  0  0  0
  -36.9872   54.0326   58.6640 C   0  0  0  0  0  0  0  0  0  0  0  0
  -38.2244   54.9369   58.5460 C   0  0  0  0  0  0  0  0  0  0  0  0
  -38.4867   55.4784   57.1286 C   0  0  0  0  0  0  0  0  0  0  0  0
  -38.7275   54.3788   56.0969 C   0  0  0  0  0  0  0  0  0  0  0  0
  -36.8691   60.7008   62.7449 C   0  0  2  0  0  0  0  0  0  0  0  0
  -35.6676   60.6228   63.6978 C   0  0  1  0  0  0  0  0  0  0  0  0
  -34.6077   59.5817   63.2759 C   0  0  2  0  0  0  0  0  0  0  0  0
  -35.3019   58.2478   63.2843 C   0  0  2  0  0  0  0  0  0  0  0  0
  -36.5404   58.3078   62.4087 C   0  0  1  0  0  0  0  0  0  0  0  0
  -37.0870   56.8902   62.5633 C   0  0  0  0  0  0  0  0  0  0  0  0
  -32.2113   58.3924   63.8628 S   0  0  0  0  0  0  0  0  0  0  0  0
  -41.2958   59.7807   63.9778 H   0  0  0  0  0  0  0  0  0  0  0  0
  -39.2437   62.6238   64.2698 H   0  0  0  0  0  0  0  0  0  0  0  0
  -37.8479   61.7974   65.0516 H   0  0  0  0  0  0  0  0  0  0  0  0
  -38.6677   59.8099   64.6092 H   0  0  0  0  0  0  0  0  0  0  0  0
  -38.8837   61.7234   66.7113 H   0  0  0  0  0  0  0  0  0  0  0  0
  -41.0317   61.2430   65.9299 H   0  0  0  0  0  0  0  0  0  0  0  0
  -40.3128   58.4462   66.6402 H   0  0  0  0  0  0  0  0  0  0  0  0
  -42.6561   59.5355   65.1904 H   0  0  0  0  0  0  0  0  0  0  0  0
  -35.7286   62.5534   63.9341 H   0  0  0  0  0  0  0  0  0  0  0  0
  -43.6315   57.3885   65.5458 H   0  0  0  0  0  0  0  0  0  0  0  0
  -42.6481   57.3047   67.0271 H   0  0  0  0  0  0  0  0  0  0  0  0
  -40.8249   56.3674   65.7982 H   0  0  0  0  0  0  0  0  0  0  0  0
  -41.8189   56.4623   64.3082 H   0  0  0  0  0  0  0  0  0  0  0  0
  -30.9111   59.3987   65.0595 H   0  0  0  0  0  0  0  0  0  0  0  0
  -43.3079   54.7993   65.1506 H   0  0  0  0  0  0  0  0  0  0  0  0
  -42.3962   54.7055   66.6495 H   0  0  0  0  0  0  0  0  0  0  0  0
  -34.8342   57.8293   65.1553 H   0  0  0  0  0  0  0  0  0  0  0  0
  -40.4330   53.9363   65.4225 H   0  0  0  0  0  0  0  0  0  0  0  0
  -41.3909   54.0346   63.9128 H   0  0  0  0  0  0  0  0  0  0  0  0
  -41.1182   51.7352   64.6457 H   0  0  0  0  0  0  0  0  0  0  0  0
  -42.8130   52.2859   64.6672 H   0  0  0  0  0  0  0  0  0  0  0  0
  -38.5288   55.8145   61.8173 H   0  0  0  0  0  0  0  0  0  0  0  0
  -42.3140   50.8735   66.5865 H   0  0  0  0  0  0  0  0  0  0  0  0
  -42.7254   52.5414   67.0433 H   0  0  0  0  0  0  0  0  0  0  0  0
  -40.4013   53.0398   67.4228 H   0  0  0  0  0  0  0  0  0  0  0  0
  -39.9807   51.3774   66.9488 H   0  0  0  0  0  0  0  0  0  0  0  0
  -39.9025   51.6568   69.3443 H   0  0  0  0  0  0  0  0  0  0  0  0
  -41.1901   50.5263   68.8028 H   0  0  0  0  0  0  0  0  0  0  0  0
  -42.8506   52.1438   69.2439 H   0  0  0  0  0  0  0  0  0  0  0  0
  -41.5923   53.2958   69.7536 H   0  0  0  0  0  0  0  0  0  0  0  0
  -33.0518   56.6794   64.5593 H   0  0  0  0  0  0  0  0  0  0  0  0
  -42.7405   52.3407   71.6617 H   0  0  0  0  0  0  0  0  0  0  0  0
  -41.0116   51.8832   71.5795 H   0  0  0  0  0  0  0  0  0  0  0  0
  -41.5909   49.6885   70.8406 H   0  0  0  0  0  0  0  0  0  0  0  0
  -43.2985   50.1088   70.8629 H   0  0  0  0  0  0  0  0  0  0  0  0
  -41.4734   50.0711   73.2360 H   0  0  0  0  0  0  0  0  0  0  0  0
  -42.7305   48.8602   72.7983 H   0  0  0  0  0  0  0  0  0  0  0  0
  -43.2315   51.6568   73.6663 H   0  0  0  0  0  0  0  0  0  0  0  0
  -43.4787   50.2130   74.6187 H   0  0  0  0  0  0  0  0  0  0  0  0
  -44.4361   50.4870   73.1830 H   0  0  0  0  0  0  0  0  0  0  0  0
  -38.3962   60.5381   61.9635 H   0  0  0  0  0  0  0  0  0  0  0  0
  -39.0822   62.0872   62.2945 H   0  0  0  0  0  0  0  0  0  0  0  0
  -40.3246   61.9866   60.1430 H   0  0  0  0  0  0  0  0  0  0  0  0
  -39.6201   60.4151   59.8271 H   0  0  0  0  0  0  0  0  0  0  0  0
  -37.3995   61.3959   59.8505 H   0  0  0  0  0  0  0  0  0  0  0  0
  -38.1674   62.9914   60.1564 H   0  0  0  0  0  0  0  0  0  0  0  0
  -37.4000   62.7735   57.8723 H   0  0  0  0  0  0  0  0  0  0  0  0
  -39.1159   62.9953   57.9873 H   0  0  0  0  0  0  0  0  0  0  0  0
  -38.5722   61.1754   56.4312 H   0  0  0  0  0  0  0  0  0  0  0  0
  -39.4309   60.5653   57.8552 H   0  0  0  0  0  0  0  0  0  0  0  0
  -37.6126   59.0865   57.2211 H   0  0  0  0  0  0  0  0  0  0  0  0
  -37.3589   59.8442   58.8147 H   0  0  0  0  0  0  0  0  0  0  0  0
  -35.7673   61.3684   57.8708 H   0  0  0  0  0  0  0  0  0  0  0  0
  -36.0263   60.6475   56.2725 H   0  0  0  0  0  0  0  0  0  0  0  0
  -34.8632   59.2129   58.6453 H   0  0  0  0  0  0  0  0  0  0  0  0
  -33.9513   59.8395   57.2819 H   0  0  0  0  0  0  0  0  0  0  0  0
  -35.1798   58.3855   55.7762 H   0  0  0  0  0  0  0  0  0  0  0  0
  -36.0875   57.7613   57.1856 H   0  0  0  0  0  0  0  0  0  0  0  0
  -33.1705   57.3996   56.7218 H   0  0  0  0  0  0  0  0  0  0  0  0
  -34.4343   56.1952   56.4423 H   0  0  0  0  0  0  0  0  0  0  0  0
  -33.7631   57.4419   59.0657 H   0  0  0  0  0  0  0  0  0  0  0  0
  -33.3387   55.7922   58.4950 H   0  0  0  0  0  0  0  0  0  0  0  0
  -36.1145   56.7479   59.0269 H   0  0  0  0  0  0  0  0  0  0  0  0
  -35.1771   55.7577   60.1051 H   0  0  0  0  0  0  0  0  0  0  0  0
  -34.9102   54.0939   58.3452 H   0  0  0  0  0  0  0  0  0  0  0  0
  -35.9375   55.1681   57.2996 H   0  0  0  0  0  0  0  0  0  0  0  0
  -36.8964   53.6939   59.6748 H   0  0  0  0  0  0  0  0  0  0  0  0
  -37.1070   53.2021   58.0001 H   0  0  0  0  0  0  0  0  0  0  0  0
  -38.0927   55.7708   59.2033 H   0  0  0  0  0  0  0  0  0  0  0  0
  -39.0690   54.3318   58.8017 H   0  0  0  0  0  0  0  0  0  0  0  0
  -37.6372   56.0520   56.8216 H   0  0  0  0  0  0  0  0  0  0  0  0
  -39.3771   56.0699   57.1751 H   0  0  0  0  0  0  0  0  0  0  0  0
  -37.8554   53.7634   56.0213 H   0  0  0  0  0  0  0  0  0  0  0  0
  -38.9348   54.8218   55.1452 H   0  0  0  0  0  0  0  0  0  0  0  0
  -39.5609   53.7806   56.4010 H   0  0  0  0  0  0  0  0  0  0  0  0
  -36.5129   60.9958   61.7800 H   0  0  0  0  0  0  0  0  0  0  0  0
  -36.0149   60.3239   64.6648 H   0  0  0  0  0  0  0  0  0  0  0  0
  -34.2252   59.9085   62.3316 H   0  0  0  0  0  0  0  0  0  0  0  0
  -34.6362   57.5092   62.8890 H   0  0  0  0  0  0  0  0  0  0  0  0
  -36.3408   58.5664   61.3898 H   0  0  0  0  0  0  0  0  0  0  0  0
  -36.3242   56.1847   62.3077 H   0  0  0  0  0  0  0  0  0  0  0  0
  -37.3927   56.7362   63.5771 H   0  0  0  0  0  0  0  0  0  0  0  0
  1  4  1  0  0  0  0
  1 31  1  0  0  0  0
  1 56  1  0  0  0  0
  2  3  1  0  0  0  0
  2  4  1  0  0  0  0
  2 57  1  0  0  0  0
  2 58  1  0  0  0  0
  3 49  1  0  0  0  0
  4  6  1  0  0  0  0
  4 59  1  1  0  0  0
  5  6  1  0  0  0  0
  5 60  1  0  0  0  0
  6  8  1  0  0  0  0
  6 61  1  6  0  0  0
  7 31  2  0  0  0  0
  8  9  2  0  0  0  0
  8 62  1  0  0  0  0
  9 11  1  0  0  0  0
  9 63  1  0  0  0  0
 10 50  1  0  0  0  0
 10 64  1  0  0  0  0
 11 13  1  0  0  0  0
 11 65  1  0  0  0  0
 11 66  1  0  0  0  0
 12 51  1  0  0  0  0
 12 55  1  0  0  0  0
 13 15  1  0  0  0  0
 13 67  1  0  0  0  0
 13 68  1  0  0  0  0
 14 55  1  0  0  0  0
 14 69  1  0  0  0  0
 15 17  1  0  0  0  0
 15 70  1  0  0  0  0
 15 71  1  0  0  0  0
 16 52  1  0  0  0  0
 16 72  1  0  0  0  0
 17 19  1  0  0  0  0
 17 73  1  0  0  0  0
 17 74  1  0  0  0  0
 18 49  1  0  0  0  0
 18 53  1  0  0  0  0
 19 21  1  0  0  0  0
 19 75  1  0  0  0  0
 19 76  1  0  0  0  0
 20 54  1  0  0  0  0
 20 77  1  0  0  0  0
 21 22  1  0  0  0  0
 21 78  1  0  0  0  0
 21 79  1  0  0  0  0
 22 23  1  0  0  0  0
 22 80  1  0  0  0  0
 22 81  1  0  0  0  0
 23 25  1  0  0  0  0
 23 82  1  0  0  0  0
 23 83  1  0  0  0  0
 24 55  1  0  0  0  0
 25 27  1  0  0  0  0
 25 84  1  0  0  0  0
 25 85  1  0  0  0  0
 26 55  1  0  0  0  0
 26 86  1  0  0  0  0
 27 28  1  0  0  0  0
 27 87  1  0  0  0  0
 27 88  1  0  0  0  0
 28 29  1  0  0  0  0
 28 89  1  0  0  0  0
 28 90  1  0  0  0  0
 29 30  1  0  0  0  0
 29 91  1  0  0  0  0
 29 92  1  0  0  0  0
 30 93  1  0  0  0  0
 30 94  1  0  0  0  0
 30 95  1  0  0  0  0
 31 32  1  0  0  0  0
 32 33  1  0  0  0  0
 32 96  1  0  0  0  0
 32 97  1  0  0  0  0
 33 34  1  0  0  0  0
 33 98  1  0  0  0  0
 33 99  1  0  0  0  0
 34 35  1  0  0  0  0
 34100  1  0  0  0  0
 34101  1  0  0  0  0
 35 36  1  0  0  0  0
 35102  1  0  0  0  0
 35103  1  0  0  0  0
 36 37  1  0  0  0  0
 36104  1  0  0  0  0
 36105  1  0  0  0  0
 37 38  1  0  0  0  0
 37106  1  0  0  0  0
 37107  1  0  0  0  0
 38 39  1  0  0  0  0
 38108  1  0  0  0  0
 38109  1  0  0  0  0
 39 40  1  0  0  0  0
 39110  1  0  0  0  0
 39111  1  0  0  0  0
 40 41  1  0  0  0  0
 40112  1  0  0  0  0
 40113  1  0  0  0  0
 41 42  1  0  0  0  0
 41114  1  0  0  0  0
 41115  1  0  0  0  0
 42 43  1  0  0  0  0
 42116  1  0  0  0  0
 42117  1  0  0  0  0
 43 44  1  0  0  0  0
 43118  1  0  0  0  0
 43119  1  0  0  0  0
 44 45  1  0  0  0  0
 44120  1  0  0  0  0
 44121  1  0  0  0  0
 45 46  1  0  0  0  0
 45122  1  0  0  0  0
 45123  1  0  0  0  0
 46 47  1  0  0  0  0
 46124  1  0  0  0  0
 46125  1  0  0  0  0
 47 48  1  0  0  0  0
 47126  1  0  0  0  0
 47127  1  0  0  0  0
 48128  1  0  0  0  0
 48129  1  0  0  0  0
 48130  1  0  0  0  0
 49 50  1  0  0  0  0
 49131  1  6  0  0  0
 50 51  1  0  0  0  0
 50132  1  1  0  0  0
 51 52  1  0  0  0  0
 51133  1  6  0  0  0
 52 53  1  0  0  0  0
 52134  1  6  0  0  0
 53 54  1  0  0  0  0
 53135  1  6  0  0  0
 54136  1  0  0  0  0
 54137  1  0  0  0  0
M  CHG  1  24  -1
M  END
$$$$
/media/chris/experiments/cd1a-new-docking/inputs/ligands/1onq_ligand.pdb
 OpenBabel06222310383D

137137  0  0  1  0  0  0  0  0999 V2000
  -40.4920   60.2280   63.6270 N   0  0  0  0  0  0  0  0  0  0  0  0
  -38.5950   61.7730   64.2860 C   0  0  0  0  0  0  0  0  0  0  0  0
  -37.8612   61.7550   63.0352 O   0  0  0  0  0  0  0  0  0  0  0  0
  -39.4590   60.5300   64.5980 C   0  0  1  0  0  0  0  0  0  0  0  0
  -39.2569   60.8461   66.8904 O   0  0  0  0  0  0  0  0  0  0  0  0
  -40.2280   60.5370   65.9080 C   0  0  2  0  0  0  0  0  0  0  0  0
  -39.5856   61.0253   61.7060 O   0  0  0  0  0  0  0  0  0  0  0  0
  -40.8583   59.1606   66.1332 C   0  0  0  0  0  0  0  0  0  0  0  0
  -42.0897   58.8399   65.7007 C   0  0  0  0  0  0  0  0  0  0  0  0
  -35.0763   61.8852   63.6713 O   0  0  0  0  0  0  0  0  0  0  0  0
  -42.6490   57.4435   65.9661 C   0  0  0  0  0  0  0  0  0  0  0  0
  -33.4668   59.4465   64.1535 O   0  0  0  0  0  0  0  0  0  0  0  0
  -41.8027   56.3106   65.3673 C   0  0  0  0  0  0  0  0  0  0  0  0
  -32.7211   56.9912   63.7896 O   0  0  0  0  0  0  0  0  0  0  0  0
  -42.3390   54.8854   65.5963 C   0  0  0  0  0  0  0  0  0  0  0  0
  -35.6387   57.8611   64.6143 O   0  0  0  0  0  0  0  0  0  0  0  0
  -41.3944   53.8350   64.9640 C   0  0  0  0  0  0  0  0  0  0  0  0
  -37.4637   59.3802   62.7389 O   0  0  0  0  0  0  0  0  0  0  0  0
  -41.8460   52.3607   65.1190 C   0  0  0  0  0  0  0  0  0  0  0  0
  -38.1836   56.7154   61.7172 O   0  0  0  0  0  0  0  0  0  0  0  0
  -42.0034   51.8974   66.5864 C   0  0  0  0  0  0  0  0  0  0  0  0
  -40.7047   52.0138   67.4134 C   0  0  0  0  0  0  0  0  0  0  0  0
  -40.8516   51.5395   68.8642 C   0  0  0  0  0  0  0  0  0  0  0  0
  -31.2818   58.5097   65.0191 O   0  5  0  0  0  0  0  0  0  0  0  0
  -41.2512   50.0780   69.0556 C   0  0  0  0  0  0  0  0  0  0  0  0
  -31.4609   58.6830   62.6082 O   0  0  0  0  0  0  0  0  0  0  0  0
  -40.2444   49.0713   68.4649 C   0  0  0  0  0  0  0  0  0  0  0  0
  -39.9940   49.2050   66.9551 C   0  0  0  0  0  0  0  0  0  0  0  0
  -41.2925   49.0225   66.1641 C   0  0  0  0  0  0  0  0  0  0  0  0
  -41.1809   49.1147   64.6526 C   0  0  0  0  0  0  0  0  0  0  0  0
  -40.4890   60.4819   62.3113 C   0  0  0  0  0  0  0  0  0  0  0  0
  -41.7153   60.0341   61.5727 C   0  0  0  0  0  0  0  0  0  0  0  0
  -41.4400   58.6060   61.1017 C   0  0  0  0  0  0  0  0  0  0  0  0
  -42.6389   58.0744   60.3198 C   0  0  0  0  0  0  0  0  0  0  0  0
  -42.5197   56.6615   59.8022 C   0  0  0  0  0  0  0  0  0  0  0  0
  -41.3048   56.6088   58.8818 C   0  0  0  0  0  0  0  0  0  0  0  0
  -41.4158   57.5781   57.6972 C   0  0  0  0  0  0  0  0  0  0  0  0
  -42.6361   57.3320   56.7913 C   0  0  0  0  0  0  0  0  0  0  0  0
  -42.7076   58.3131   55.6006 C   0  0  0  0  0  0  0  0  0  0  0  0
  -41.4689   58.1737   54.7110 C   0  0  0  0  0  0  0  0  0  0  0  0
  -41.4282   59.1113   53.5104 C   0  0  0  0  0  0  0  0  0  0  0  0
  -40.1819   58.9086   52.6616 C   0  0  0  0  0  0  0  0  0  0  0  0
  -40.0066   57.5175   52.0482 C   0  0  0  0  0  0  0  0  0  0  0  0
  -41.1945   57.2472   51.1347 C   0  0  0  0  0  0  0  0  0  0  0  0
  -41.2681   55.9114   50.4099 C   0  0  0  0  0  0  0  0  0  0  0  0
  -41.3195   54.7454   51.4099 C   0  0  0  0  0  0  0  0  0  0  0  0
  -42.5346   54.7682   52.3555 C   0  0  0  0  0  0  0  0  0  0  0  0
  -43.8719   54.6915   51.6225 C   0  0  0  0  0  0  0  0  0  0  0  0
  -36.8691   60.7008   62.7449 C   0  0  2  0  0  0  0  0  0  0  0  0
  -35.6676   60.6228   63.6978 C   0  0  1  0  0  0  0  0  0  0  0  0
  -34.6077   59.5817   63.2759 C   0  0  2  0  0  0  0  0  0  0  0  0
  -35.3019   58.2478   63.2843 C   0  0  2  0  0  0  0  0  0  0  0  0
  -36.5404   58.3078   62.4087 C   0  0  1  0  0  0  0  0  0  0  0  0
  -37.0870   56.8902   62.5633 C   0  0  0  0  0  0  0  0  0  0  0  0
  -32.2113   58.3924   63.8628 S   0  0  0  0  0  0  0  0  0  0  0  0
  -41.2958   59.7807   63.9778 H   0  0  0  0  0  0  0  0  0  0  0  0
  -39.2437   62.6238   64.2698 H   0  0  0  0  0  0  0  0  0  0  0  0
  -37.8479   61.7974   65.0516 H   0  0  0  0  0  0  0  0  0  0  0  0
  -38.6677   59.8099   64.6092 H   0  0  0  0  0  0  0  0  0  0  0  0
  -38.8837   61.7234   66.7113 H   0  0  0  0  0  0  0  0  0  0  0  0
  -41.0317   61.2430   65.9299 H   0  0  0  0  0  0  0  0  0  0  0  0
  -40.3128   58.4462   66.6402 H   0  0  0  0  0  0  0  0  0  0  0  0
  -42.6561   59.5355   65.1904 H   0  0  0  0  0  0  0  0  0  0  0  0
  -35.7286   62.5534   63.9341 H   0  0  0  0  0  0  0  0  0  0  0  0
  -43.6315   57.3885   65.5458 H   0  0  0  0  0  0  0  0  0  0  0  0
  -42.6481   57.3047   67.0271 H   0  0  0  0  0  0  0  0  0  0  0  0
  -40.8249   56.3674   65.7982 H   0  0  0  0  0  0  0  0  0  0  0  0
  -41.8189   56.4623   64.3082 H   0  0  0  0  0  0  0  0  0  0  0  0
  -33.2132   56.7835   64.5993 H   0  0  0  0  0  0  0  0  0  0  0  0
  -43.3079   54.7993   65.1506 H   0  0  0  0  0  0  0  0  0  0  0  0
  -42.3962   54.7055   66.6495 H   0  0  0  0  0  0  0  0  0  0  0  0
  -34.8342   57.8293   65.1553 H   0  0  0  0  0  0  0  0  0  0  0  0
  -40.4330   53.9363   65.4225 H   0  0  0  0  0  0  0  0  0  0  0  0
  -41.3909   54.0346   63.9128 H   0  0  0  0  0  0  0  0  0  0  0  0
  -41.1182   51.7352   64.6457 H   0  0  0  0  0  0  0  0  0  0  0  0
  -42.8130   52.2859   64.6672 H   0  0  0  0  0  0  0  0  0  0  0  0
  -38.5288   55.8145   61.8173 H   0  0  0  0  0  0  0  0  0  0  0  0
  -42.3140   50.8735   66.5865 H   0  0  0  0  0  0  0  0  0  0  0  0
  -42.7254   52.5414   67.0433 H   0  0  0  0  0  0  0  0  0  0  0  0
  -40.4013   53.0398   67.4228 H   0  0  0  0  0  0  0  0  0  0  0  0
  -39.9807   51.3774   66.9488 H   0  0  0  0  0  0  0  0  0  0  0  0
  -41.5977   52.1466   69.3328 H   0  0  0  0  0  0  0  0  0  0  0  0
  -39.8770   51.6302   69.2965 H   0  0  0  0  0  0  0  0  0  0  0  0
  -42.1986   49.9234   68.5828 H   0  0  0  0  0  0  0  0  0  0  0  0
  -41.2840   49.9011   70.1103 H   0  0  0  0  0  0  0  0  0  0  0  0
  -32.0597   58.6087   61.8487 H   0  0  0  0  0  0  0  0  0  0  0  0
  -40.6138   48.0849   68.6530 H   0  0  0  0  0  0  0  0  0  0  0  0
  -39.3076   49.2752   68.9401 H   0  0  0  0  0  0  0  0  0  0  0  0
  -39.2907   48.4587   66.6498 H   0  0  0  0  0  0  0  0  0  0  0  0
  -39.6107   50.1846   66.7590 H   0  0  0  0  0  0  0  0  0  0  0  0
  -41.9789   49.7773   66.4865 H   0  0  0  0  0  0  0  0  0  0  0  0
  -41.6092   48.0204   66.3651 H   0  0  0  0  0  0  0  0  0  0  0  0
  -40.8654   50.0995   64.3777 H   0  0  0  0  0  0  0  0  0  0  0  0
  -42.1339   48.9094   64.2114 H   0  0  0  0  0  0  0  0  0  0  0  0
  -40.4649   48.4003   64.3036 H   0  0  0  0  0  0  0  0  0  0  0  0
  -41.8948   60.6723   60.7328 H   0  0  0  0  0  0  0  0  0  0  0  0
  -42.5815   60.0750   62.1995 H   0  0  0  0  0  0  0  0  0  0  0  0
  -41.2654   57.9799   61.9517 H   0  0  0  0  0  0  0  0  0  0  0  0
  -40.5783   58.6050   60.4674 H   0  0  0  0  0  0  0  0  0  0  0  0
  -42.7929   58.7187   59.4795 H   0  0  0  0  0  0  0  0  0  0  0  0
  -43.4518   58.0584   61.0154 H   0  0  0  0  0  0  0  0  0  0  0  0
  -43.4019   56.3968   59.2575 H   0  0  0  0  0  0  0  0  0  0  0  0
  -42.4072   55.9724   60.6130 H   0  0  0  0  0  0  0  0  0  0  0  0
  -41.2065   55.6135   58.5015 H   0  0  0  0  0  0  0  0  0  0  0  0
  -40.4508   56.8990   59.4575 H   0  0  0  0  0  0  0  0  0  0  0  0
  -40.5317   57.4829   57.1021 H   0  0  0  0  0  0  0  0  0  0  0  0
  -41.5337   58.5574   58.1118 H   0  0  0  0  0  0  0  0  0  0  0  0
  -43.5244   57.4414   57.3777 H   0  0  0  0  0  0  0  0  0  0  0  0
  -42.5439   56.3447   56.3891 H   0  0  0  0  0  0  0  0  0  0  0  0
  -42.7618   59.3146   55.9732 H   0  0  0  0  0  0  0  0  0  0  0  0
  -43.5766   58.0864   55.0190 H   0  0  0  0  0  0  0  0  0  0  0  0
  -41.4328   57.1679   54.3478 H   0  0  0  0  0  0  0  0  0  0  0  0
  -40.6309   58.4354   55.3228 H   0  0  0  0  0  0  0  0  0  0  0  0
  -41.4444   60.1217   53.8622 H   0  0  0  0  0  0  0  0  0  0  0  0
  -42.2795   58.8969   52.8986 H   0  0  0  0  0  0  0  0  0  0  0  0
  -39.3301   59.1039   53.2790 H   0  0  0  0  0  0  0  0  0  0  0  0
  -40.2851   59.5781   51.8333 H   0  0  0  0  0  0  0  0  0  0  0  0
  -39.9713   56.7814   52.8240 H   0  0  0  0  0  0  0  0  0  0  0  0
  -39.0941   57.4714   51.4913 H   0  0  0  0  0  0  0  0  0  0  0  0
  -41.1974   58.0123   50.3867 H   0  0  0  0  0  0  0  0  0  0  0  0
  -42.0343   57.2304   51.7976 H   0  0  0  0  0  0  0  0  0  0  0  0
  -40.4037   55.8021   49.7888 H   0  0  0  0  0  0  0  0  0  0  0  0
  -42.1593   55.8929   49.8180 H   0  0  0  0  0  0  0  0  0  0  0  0
  -40.4315   54.7769   52.0060 H   0  0  0  0  0  0  0  0  0  0  0  0
  -41.4024   53.8503   50.8295 H   0  0  0  0  0  0  0  0  0  0  0  0
  -42.5084   55.6767   52.9202 H   0  0  0  0  0  0  0  0  0  0  0  0
  -42.4658   53.9027   52.9808 H   0  0  0  0  0  0  0  0  0  0  0  0
  -43.9782   55.5437   50.9843 H   0  0  0  0  0  0  0  0  0  0  0  0
  -44.6693   54.6785   52.3358 H   0  0  0  0  0  0  0  0  0  0  0  0
  -43.9053   53.7986   51.0339 H   0  0  0  0  0  0  0  0  0  0  0  0
  -36.5129   60.9958   61.7800 H   0  0  0  0  0  0  0  0  0  0  0  0
  -36.0149   60.3239   64.6648 H   0  0  0  0  0  0  0  0  0  0  0  0
  -34.2252   59.9085   62.3316 H   0  0  0  0  0  0  0  0  0  0  0  0
  -34.6362   57.5092   62.8890 H   0  0  0  0  0  0  0  0  0  0  0  0
  -36.3408   58.5664   61.3898 H   0  0  0  0  0  0  0  0  0  0  0  0
  -36.3242   56.1847   62.3077 H   0  0  0  0  0  0  0  0  0  0  0  0
  -37.3927   56.7362   63.5771 H   0  0  0  0  0  0  0  0  0  0  0  0
  1  4  1  0  0  0  0
  1 31  1  0  0  0  0
  1 56  1  0  0  0  0
  2  3  1  0  0  0  0
  2  4  1  0  0  0  0
  2 57  1  0  0  0  0
  2 58  1  0  0  0  0
  3 49  1  0  0  0  0
  4  6  1  0  0  0  0
  4 59  1  1  0  0  0
  5  6  1  0  0  0  0
  5 60  1  0  0  0  0
  6  8  1  0  0  0  0
  6 61  1  6  0  0  0
  7 31  2  0  0  0  0
  8  9  2  0  0  0  0
  8 62  1  0  0  0  0
  9 11  1  0  0  0  0
  9 63  1  0  0  0  0
 10 50  1  0  0  0  0
 10 64  1  0  0  0  0
 11 13  1  0  0  0  0
 11 65  1  0  0  0  0
 11 66  1  0  0  0  0
 12 51  1  0  0  0  0
 12 55  1  0  0  0  0
 13 15  1  0  0  0  0
 13 67  1  0  0  0  0
 13 68  1  0  0  0  0
 14 55  1  0  0  0  0
 14 69  1  0  0  0  0
 15 17  1  0  0  0  0
 15 70  1  0  0  0  0
 15 71  1  0  0  0  0
 16 52  1  0  0  0  0
 16 72  1  0  0  0  0
 17 19  1  0  0  0  0
 17 73  1  0  0  0  0
 17 74  1  0  0  0  0
 18 49  1  0  0  0  0
 18 53  1  0  0  0  0
 19 21  1  0  0  0  0
 19 75  1  0  0  0  0
 19 76  1  0  0  0  0
 20 54  1  0  0  0  0
 20 77  1  0  0  0  0
 21 22  1  0  0  0  0
 21 78  1  0  0  0  0
 21 79  1  0  0  0  0
 22 23  1  0  0  0  0
 22 80  1  0  0  0  0
 22 81  1  0  0  0  0
 23 25  1  0  0  0  0
 23 82  1  0  0  0  0
 23 83  1  0  0  0  0
 24 55  1  0  0  0  0
 25 27  1  0  0  0  0
 25 84  1  0  0  0  0
 25 85  1  0  0  0  0
 26 55  1  0  0  0  0
 26 86  1  0  0  0  0
 27 28  1  0  0  0  0
 27 87  1  0  0  0  0
 27 88  1  0  0  0  0
 28 29  1  0  0  0  0
 28 89  1  0  0  0  0
 28 90  1  0  0  0  0
 29 30  1  0  0  0  0
 29 91  1  0  0  0  0
 29 92  1  0  0  0  0
 30 93  1  0  0  0  0
 30 94  1  0  0  0  0
 30 95  1  0  0  0  0
 31 32  1  0  0  0  0
 32 33  1  0  0  0  0
 32 96  1  0  0  0  0
 32 97  1  0  0  0  0
 33 34  1  0  0  0  0
 33 98  1  0  0  0  0
 33 99  1  0  0  0  0
 34 35  1  0  0  0  0
 34100  1  0  0  0  0
 34101  1  0  0  0  0
 35 36  1  0  0  0  0
 35102  1  0  0  0  0
 35103  1  0  0  0  0
 36 37  1  0  0  0  0
 36104  1  0  0  0  0
 36105  1  0  0  0  0
 37 38  1  0  0  0  0
 37106  1  0  0  0  0
 37107  1  0  0  0  0
 38 39  1  0  0  0  0
 38108  1  0  0  0  0
 38109  1  0  0  0  0
 39 40  1  0  0  0  0
 39110  1  0  0  0  0
 39111  1  0  0  0  0
 40 41  1  0  0  0  0
 40112  1  0  0  0  0
 40113  1  0  0  0  0
 41 42  1  0  0  0  0
 41114  1  0  0  0  0
 41115  1  0  0  0  0
 42 43  1  0  0  0  0
 42116  1  0  0  0  0
 42117  1  0  0  0  0
 43 44  1  0  0  0  0
 43118  1  0  0  0  0
 43119  1  0  0  0  0
 44 45  1  0  0  0  0
 44120  1  0  0  0  0
 44121  1  0  0  0  0
 45 46  1  0  0  0  0
 45122  1  0  0  0  0
 45123  1  0  0  0  0
 46 47  1  0  0  0  0
 46124  1  0  0  0  0
 46125  1  0  0  0  0
 47 48  1  0  0  0  0
 47126  1  0  0  0  0
 47127  1  0  0  0  0
 48128  1  0  0  0  0
 48129  1  0  0  0  0
 48130  1  0  0  0  0
 49 50  1  0  0  0  0
 49131  1  6  0  0  0
 50 51  1  0  0  0  0
 50132  1  1  0  0  0
 51 52  1  0  0  0  0
 51133  1  6  0  0  0
 52 53  1  0  0  0  0
 52134  1  6  0  0  0
 53 54  1  0  0  0  0
 53135  1  6  0  0  0
 54136  1  0  0  0  0
 54137  1  0  0  0  0
M  CHG  1  24  -1
M  END
$$$$
/media/chris/experiments/cd1a-new-docking/inputs/ligands/1onq_ligand.pdb
 OpenBabel06222310383D

137137  0  0  1  0  0  0  0  0999 V2000
  -40.4920   60.2280   63.6270 N   0  0  0  0  0  0  0  0  0  0  0  0
  -38.5950   61.7730   64.2860 C   0  0  0  0  0  0  0  0  0  0  0  0
  -37.5441   62.0867   65.2349 O   0  0  0  0  0  0  0  0  0  0  0  0
  -39.4590   60.5300   64.5980 C   0  0  1  0  0  0  0  0  0  0  0  0
  -40.7577   59.2290   66.0180 O   0  0  0  0  0  0  0  0  0  0  0  0
  -40.2280   60.5370   65.9080 C   0  0  2  0  0  0  0  0  0  0  0  0
  -41.8540   58.8360   62.4630 O   0  0  0  0  0  0  0  0  0  0  0  0
  -41.3266   61.6007   65.8452 C   0  0  0  0  0  0  0  0  0  0  0  0
  -42.3197   61.5746   64.9400 C   0  0  0  0  0  0  0  0  0  0  0  0
  -36.3260   63.5957   67.3365 O   0  0  0  0  0  0  0  0  0  0  0  0
  -43.3792   62.6750   64.9418 C   0  0  0  0  0  0  0  0  0  0  0  0
  -33.7882   65.0685   66.9357 O   0  0  0  0  0  0  0  0  0  0  0  0
  -43.9635   62.9777   63.5543 C   0  0  0  0  0  0  0  0  0  0  0  0
  -35.0671   66.3399   68.7971 O   0  0  0  0  0  0  0  0  0  0  0  0
  -42.9490   63.4311   62.4883 C   0  0  0  0  0  0  0  0  0  0  0  0
  -33.0907   63.6620   64.7045 O   0  0  0  0  0  0  0  0  0  0  0  0
  -43.6580   63.7216   61.1436 C   0  0  0  0  0  0  0  0  0  0  0  0
  -35.9395   63.1998   63.7956 O   0  0  0  0  0  0  0  0  0  0  0  0
  -44.4276   62.5250   60.5293 C   0  0  0  0  0  0  0  0  0  0  0  0
  -33.3291   63.1566   62.4639 O   0  0  0  0  0  0  0  0  0  0  0  0
  -43.5460   61.2883   60.2359 C   0  0  0  0  0  0  0  0  0  0  0  0
  -42.3884   61.5739   59.2548 C   0  0  0  0  0  0  0  0  0  0  0  0
  -41.5219   60.3466   58.9477 C   0  0  0  0  0  0  0  0  0  0  0  0
  -32.8125   65.5484   69.2201 O   0  5  0  0  0  0  0  0  0  0  0  0
  -40.3501   60.5735   57.9949 C   0  0  0  0  0  0  0  0  0  0  0  0
  -34.6660   63.9871   69.1841 O   0  0  0  0  0  0  0  0  0  0  0  0
  -39.5230   59.3051   57.7069 C   0  0  0  0  0  0  0  0  0  0  0  0
  -38.3261   59.5038   56.7646 C   0  0  0  0  0  0  0  0  0  0  0  0
  -38.7812   60.0339   55.4019 C   0  0  0  0  0  0  0  0  0  0  0  0
  -37.6928   60.2593   54.3674 C   0  0  0  0  0  0  0  0  0  0  0  0
  -40.9921   59.0290   63.2983 C   0  0  0  0  0  0  0  0  0  0  0  0
  -40.4035   57.8670   64.0420 C   0  0  0  0  0  0  0  0  0  0  0  0
  -39.7820   56.9489   62.9893 C   0  0  0  0  0  0  0  0  0  0  0  0
  -39.1706   55.7225   63.6625 C   0  0  0  0  0  0  0  0  0  0  0  0
  -38.0891   55.9942   64.6799 C   0  0  0  0  0  0  0  0  0  0  0  0
  -37.6081   54.6483   65.2118 C   0  0  0  0  0  0  0  0  0  0  0  0
  -38.7315   53.8338   65.8672 C   0  0  0  0  0  0  0  0  0  0  0  0
  -38.2801   52.4745   66.4320 C   0  0  0  0  0  0  0  0  0  0  0  0
  -39.4378   51.6743   67.0683 C   0  0  0  0  0  0  0  0  0  0  0  0
  -40.5230   51.3763   66.0297 C   0  0  0  0  0  0  0  0  0  0  0  0
  -41.7251   50.6022   66.5569 C   0  0  0  0  0  0  0  0  0  0  0  0
  -42.7548   50.3257   65.4714 C   0  0  0  0  0  0  0  0  0  0  0  0
  -44.0077   49.5658   65.9129 C   0  0  0  0  0  0  0  0  0  0  0  0
  -43.5732   48.2216   66.4813 C   0  0  0  0  0  0  0  0  0  0  0  0
  -42.7973   47.2674   65.5853 C   0  0  0  0  0  0  0  0  0  0  0  0
  -43.6109   46.9049   64.3329 C   0  0  0  0  0  0  0  0  0  0  0  0
  -44.9649   46.2318   64.6237 C   0  0  0  0  0  0  0  0  0  0  0  0
  -45.9105   47.1065   65.4437 C   0  0  0  0  0  0  0  0  0  0  0  0
  -36.6675   63.2597   65.0462 C   0  0  2  0  0  0  0  0  0  0  0  0
  -35.6170   63.5011   66.1397 C   0  0  1  0  0  0  0  0  0  0  0  0
  -34.8113   64.8049   65.9489 C   0  0  2  0  0  0  0  0  0  0  0  0
  -34.0971   64.6690   64.6325 C   0  0  2  0  0  0  0  0  0  0  0  0
  -35.0980   64.3555   63.5351 C   0  0  1  0  0  0  0  0  0  0  0  0
  -34.1843   64.2500   62.3160 C   0  0  0  0  0  0  0  0  0  0  0  0
  -34.1068   65.2212   68.5628 S   0  0  0  0  0  0  0  0  0  0  0  0
  -40.8737   60.9998   63.1496 H   0  0  0  0  0  0  0  0  0  0  0  0
  -38.1357   61.6183   63.3320 H   0  0  0  0  0  0  0  0  0  0  0  0
  -39.2690   62.6030   64.3261 H   0  0  0  0  0  0  0  0  0  0  0  0
  -38.6677   59.8099   64.6092 H   0  0  0  0  0  0  0  0  0  0  0  0
  -40.0308   58.5878   66.0547 H   0  0  0  0  0  0  0  0  0  0  0  0
  -39.6247   60.7776   66.7583 H   0  0  0  0  0  0  0  0  0  0  0  0
  -41.3038   62.3732   66.5291 H   0  0  0  0  0  0  0  0  0  0  0  0
  -42.3663   60.8129   64.2453 H   0  0  0  0  0  0  0  0  0  0  0  0
  -36.8391   62.7839   67.4733 H   0  0  0  0  0  0  0  0  0  0  0  0
  -42.9345   63.5705   65.3229 H   0  0  0  0  0  0  0  0  0  0  0  0
  -44.1877   62.3270   65.5504 H   0  0  0  0  0  0  0  0  0  0  0  0
  -44.6920   63.7534   63.6662 H   0  0  0  0  0  0  0  0  0  0  0  0
  -44.3669   62.0525   63.1989 H   0  0  0  0  0  0  0  0  0  0  0  0
  -34.7195   67.1532   68.3990 H   0  0  0  0  0  0  0  0  0  0  0  0
  -42.2238   62.6579   62.3428 H   0  0  0  0  0  0  0  0  0  0  0  0
  -42.4738   64.3282   62.8265 H   0  0  0  0  0  0  0  0  0  0  0  0
  -32.4632   63.8819   65.4108 H   0  0  0  0  0  0  0  0  0  0  0  0
  -42.9157   64.0341   60.4392 H   0  0  0  0  0  0  0  0  0  0  0  0
  -44.3930   64.4707   61.3522 H   0  0  0  0  0  0  0  0  0  0  0  0
  -44.8706   62.8471   59.6101 H   0  0  0  0  0  0  0  0  0  0  0  0
  -45.1531   62.2207   61.2545 H   0  0  0  0  0  0  0  0  0  0  0  0
  -32.7500   63.0918   61.6884 H   0  0  0  0  0  0  0  0  0  0  0  0
  -44.1650   60.5235   59.8155 H   0  0  0  0  0  0  0  0  0  0  0  0
  -43.1047   60.9899   61.1639 H   0  0  0  0  0  0  0  0  0  0  0  0
  -41.7632   62.3302   59.6813 H   0  0  0  0  0  0  0  0  0  0  0  0
  -42.8312   61.8824   58.3309 H   0  0  0  0  0  0  0  0  0  0  0  0
  -42.1546   59.5994   58.5159 H   0  0  0  0  0  0  0  0  0  0  0  0
  -41.0828   60.0636   59.8815 H   0  0  0  0  0  0  0  0  0  0  0  0
  -39.7021   61.3071   58.4270 H   0  0  0  0  0  0  0  0  0  0  0  0
  -40.7664   60.8907   57.0616 H   0  0  0  0  0  0  0  0  0  0  0  0
  -35.5105   63.7664   68.7611 H   0  0  0  0  0  0  0  0  0  0  0  0
  -40.1736   58.5786   57.2667 H   0  0  0  0  0  0  0  0  0  0  0  0
  -39.1130   58.9986   58.6466 H   0  0  0  0  0  0  0  0  0  0  0  0
  -37.8298   58.5659   56.6271 H   0  0  0  0  0  0  0  0  0  0  0  0
  -37.6622   60.2190   57.2037 H   0  0  0  0  0  0  0  0  0  0  0  0
  -39.2743   60.9694   55.5647 H   0  0  0  0  0  0  0  0  0  0  0  0
  -39.4071   59.2681   54.9937 H   0  0  0  0  0  0  0  0  0  0  0  0
  -37.0243   61.0199   54.7130 H   0  0  0  0  0  0  0  0  0  0  0  0
  -38.1369   60.5674   53.4439 H   0  0  0  0  0  0  0  0  0  0  0  0
  -37.1504   59.3494   54.2163 H   0  0  0  0  0  0  0  0  0  0  0  0
  -41.1680   57.3474   64.5809 H   0  0  0  0  0  0  0  0  0  0  0  0
  -39.6724   58.1921   64.7524 H   0  0  0  0  0  0  0  0  0  0  0  0
  -39.0185   57.4809   62.4613 H   0  0  0  0  0  0  0  0  0  0  0  0
  -40.5422   56.6324   62.3061 H   0  0  0  0  0  0  0  0  0  0  0  0
  -38.7512   55.1041   62.8967 H   0  0  0  0  0  0  0  0  0  0  0  0
  -39.9698   55.2650   64.2074 H   0  0  0  0  0  0  0  0  0  0  0  0
  -38.4821   56.5840   65.4815 H   0  0  0  0  0  0  0  0  0  0  0  0
  -37.2797   56.5330   64.2333 H   0  0  0  0  0  0  0  0  0  0  0  0
  -36.8422   54.8215   65.9387 H   0  0  0  0  0  0  0  0  0  0  0  0
  -37.2435   54.0837   64.3792 H   0  0  0  0  0  0  0  0  0  0  0  0
  -39.4896   53.6569   65.1330 H   0  0  0  0  0  0  0  0  0  0  0  0
  -39.0839   54.4095   66.6974 H   0  0  0  0  0  0  0  0  0  0  0  0
  -37.5328   52.6460   67.1784 H   0  0  0  0  0  0  0  0  0  0  0  0
  -37.9011   51.8969   65.6149 H   0  0  0  0  0  0  0  0  0  0  0  0
  -39.8630   52.2459   67.8667 H   0  0  0  0  0  0  0  0  0  0  0  0
  -39.0528   50.7478   67.4399 H   0  0  0  0  0  0  0  0  0  0  0  0
  -40.0797   50.8043   65.2415 H   0  0  0  0  0  0  0  0  0  0  0  0
  -40.8970   52.3257   65.7077 H   0  0  0  0  0  0  0  0  0  0  0  0
  -42.1888   51.1738   67.3335 H   0  0  0  0  0  0  0  0  0  0  0  0
  -41.3732   49.6600   66.9221 H   0  0  0  0  0  0  0  0  0  0  0  0
  -42.2768   49.7517   64.7053 H   0  0  0  0  0  0  0  0  0  0  0  0
  -43.0988   51.2862   65.1489 H   0  0  0  0  0  0  0  0  0  0  0  0
  -44.6531   49.4125   65.0733 H   0  0  0  0  0  0  0  0  0  0  0  0
  -44.5381   50.1264   66.6541 H   0  0  0  0  0  0  0  0  0  0  0  0
  -44.4596   47.7100   66.7936 H   0  0  0  0  0  0  0  0  0  0  0  0
  -42.8778   48.4777   67.2531 H   0  0  0  0  0  0  0  0  0  0  0  0
  -42.5789   46.3737   66.1317 H   0  0  0  0  0  0  0  0  0  0  0  0
  -41.8925   47.7484   65.2772 H   0  0  0  0  0  0  0  0  0  0  0  0
  -43.0263   46.2359   63.7367 H   0  0  0  0  0  0  0  0  0  0  0  0
  -43.8299   47.8264   63.8350 H   0  0  0  0  0  0  0  0  0  0  0  0
  -44.7848   45.3264   65.1648 H   0  0  0  0  0  0  0  0  0  0  0  0
  -45.4379   46.0509   63.6811 H   0  0  0  0  0  0  0  0  0  0  0  0
  -45.4708   47.3101   66.3977 H   0  0  0  0  0  0  0  0  0  0  0  0
  -46.8402   46.5950   65.5813 H   0  0  0  0  0  0  0  0  0  0  0  0
  -46.0831   48.0272   64.9266 H   0  0  0  0  0  0  0  0  0  0  0  0
  -37.3714   64.0651   65.0741 H   0  0  0  0  0  0  0  0  0  0  0  0
  -34.9062   62.7017   66.1156 H   0  0  0  0  0  0  0  0  0  0  0  0
  -35.5159   65.6067   66.0228 H   0  0  0  0  0  0  0  0  0  0  0  0
  -33.6145   65.5961   64.4038 H   0  0  0  0  0  0  0  0  0  0  0  0
  -35.8616   65.0958   63.4182 H   0  0  0  0  0  0  0  0  0  0  0  0
  -34.7788   64.1205   61.4358 H   0  0  0  0  0  0  0  0  0  0  0  0
  -33.6044   65.1450   62.2285 H   0  0  0  0  0  0  0  0  0  0  0  0
  1  4  1  0  0  0  0
  1 31  1  0  0  0  0
  1 56  1  0  0  0  0
  2  3  1  0  0  0  0
  2  4  1  0  0  0  0
  2 57  1  0  0  0  0
  2 58  1  0  0  0  0
  3 49  1  0  0  0  0
  4  6  1  0  0  0  0
  4 59  1  1  0  0  0
  5  6  1  0  0  0  0
  5 60  1  0  0  0  0
  6  8  1  0  0  0  0
  6 61  1  1  0  0  0
  7 31  2  0  0  0  0
  8  9  2  0  0  0  0
  8 62  1  0  0  0  0
  9 11  1  0  0  0  0
  9 63  1  0  0  0  0
 10 50  1  0  0  0  0
 10 64  1  0  0  0  0
 11 13  1  0  0  0  0
 11 65  1  0  0  0  0
 11 66  1  0  0  0  0
 12 51  1  0  0  0  0
 12 55  1  0  0  0  0
 13 15  1  0  0  0  0
 13 67  1  0  0  0  0
 13 68  1  0  0  0  0
 14 55  1  0  0  0  0
 14 69  1  0  0  0  0
 15 17  1  0  0  0  0
 15 70  1  0  0  0  0
 15 71  1  0  0  0  0
 16 52  1  0  0  0  0
 16 72  1  0  0  0  0
 17 19  1  0  0  0  0
 17 73  1  0  0  0  0
 17 74  1  0  0  0  0
 18 49  1  0  0  0  0
 18 53  1  0  0  0  0
 19 21  1  0  0  0  0
 19 75  1  0  0  0  0
 19 76  1  0  0  0  0
 20 54  1  0  0  0  0
 20 77  1  0  0  0  0
 21 22  1  0  0  0  0
 21 78  1  0  0  0  0
 21 79  1  0  0  0  0
 22 23  1  0  0  0  0
 22 80  1  0  0  0  0
 22 81  1  0  0  0  0
 23 25  1  0  0  0  0
 23 82  1  0  0  0  0
 23 83  1  0  0  0  0
 24 55  1  0  0  0  0
 25 27  1  0  0  0  0
 25 84  1  0  0  0  0
 25 85  1  0  0  0  0
 26 55  1  0  0  0  0
 26 86  1  0  0  0  0
 27 28  1  0  0  0  0
 27 87  1  0  0  0  0
 27 88  1  0  0  0  0
 28 29  1  0  0  0  0
 28 89  1  0  0  0  0
 28 90  1  0  0  0  0
 29 30  1  0  0  0  0
 29 91  1  0  0  0  0
 29 92  1  0  0  0  0
 30 93  1  0  0  0  0
 30 94  1  0  0  0  0
 30 95  1  0  0  0  0
 31 32  1  0  0  0  0
 32 33  1  0  0  0  0
 32 96  1  0  0  0  0
 32 97  1  0  0  0  0
 33 34  1  0  0  0  0
 33 98  1  0  0  0  0
 33 99  1  0  0  0  0
 34 35  1  0  0  0  0
 34100  1  0  0  0  0
 34101  1  0  0  0  0
 35 36  1  0  0  0  0
 35102  1  0  0  0  0
 35103  1  0  0  0  0
 36 37  1  0  0  0  0
 36104  1  0  0  0  0
 36105  1  0  0  0  0
 37 38  1  0  0  0  0
 37106  1  0  0  0  0
 37107  1  0  0  0  0
 38 39  1  0  0  0  0
 38108  1  0  0  0  0
 38109  1  0  0  0  0
 39 40  1  0  0  0  0
 39110  1  0  0  0  0
 39111  1  0  0  0  0
 40 41  1  0  0  0  0
 40112  1  0  0  0  0
 40113  1  0  0  0  0
 41 42  1  0  0  0  0
 41114  1  0  0  0  0
 41115  1  0  0  0  0
 42 43  1  0  0  0  0
 42116  1  0  0  0  0
 42117  1  0  0  0  0
 43 44  1  0  0  0  0
 43118  1  0  0  0  0
 43119  1  0  0  0  0
 44 45  1  0  0  0  0
 44120  1  0  0  0  0
 44121  1  0  0  0  0
 45 46  1  0  0  0  0
 45122  1  0  0  0  0
 45123  1  0  0  0  0
 46 47  1  0  0  0  0
 46124  1  0  0  0  0
 46125  1  0  0  0  0
 47 48  1  0  0  0  0
 47126  1  0  0  0  0
 47127  1  0  0  0  0
 48128  1  0  0  0  0
 48129  1  0  0  0  0
 48130  1  0  0  0  0
 49 50  1  0  0  0  0
 49131  1  6  0  0  0
 50 51  1  0  0  0  0
 50132  1  1  0  0  0
 51 52  1  0  0  0  0
 51133  1  6  0  0  0
 52 53  1  0  0  0  0
 52134  1  6  0  0  0
 53 54  1  0  0  0  0
 53135  1  6  0  0  0
 54136  1  0  0  0  0
 54137  1  0  0  0  0
M  CHG  1  24  -1
M  END
$$$$
/media/chris/experiments/cd1a-new-docking/inputs/ligands/1onq_ligand.pdb
 OpenBabel06222310383D

137137  0  0  1  0  0  0  0  0999 V2000
  -40.4920   60.2280   63.6270 N   0  0  0  0  0  0  0  0  0  0  0  0
  -38.5950   61.7730   64.2860 C   0  0  0  0  0  0  0  0  0  0  0  0
  -37.5441   62.0867   65.2349 O   0  0  0  0  0  0  0  0  0  0  0  0
  -39.4590   60.5300   64.5980 C   0  0  1  0  0  0  0  0  0  0  0  0
  -39.2569   60.8461   66.8904 O   0  0  0  0  0  0  0  0  0  0  0  0
  -40.2280   60.5370   65.9080 C   0  0  2  0  0  0  0  0  0  0  0  0
  -41.8540   58.8360   62.4630 O   0  0  0  0  0  0  0  0  0  0  0  0
  -40.8583   59.1606   66.1332 C   0  0  0  0  0  0  0  0  0  0  0  0
  -41.0723   58.6448   67.3556 C   0  0  0  0  0  0  0  0  0  0  0  0
  -34.8829   62.7993   66.0015 O   0  0  0  0  0  0  0  0  0  0  0  0
  -41.7060   57.2621   67.4971 C   0  0  0  0  0  0  0  0  0  0  0  0
  -33.1821   60.9883   67.6133 O   0  0  0  0  0  0  0  0  0  0  0  0
  -43.0995   57.1490   66.8618 C   0  0  0  0  0  0  0  0  0  0  0  0
  -32.2232   58.7100   68.3924 O   0  0  0  0  0  0  0  0  0  0  0  0
  -44.1652   58.1121   67.4166 C   0  0  0  0  0  0  0  0  0  0  0  0
  -35.2780   59.4877   68.5068 O   0  0  0  0  0  0  0  0  0  0  0  0
  -45.5255   57.8908   66.7124 C   0  0  0  0  0  0  0  0  0  0  0  0
  -36.9441   59.8674   66.0098 O   0  0  0  0  0  0  0  0  0  0  0  0
  -46.6726   58.8213   67.1814 C   0  0  0  0  0  0  0  0  0  0  0  0
  -35.2824   56.7380   67.1203 O   0  0  0  0  0  0  0  0  0  0  0  0
  -46.3987   60.3271   66.9567 C   0  0  0  0  0  0  0  0  0  0  0  0
  -46.1890   60.7020   65.4737 C   0  0  0  0  0  0  0  0  0  0  0  0
  -47.3985   60.3963   64.5822 C   0  0  0  0  0  0  0  0  0  0  0  0
  -31.0687   60.7605   68.9854 O   0  5  0  0  0  0  0  0  0  0  0  0
  -48.6956   61.1190   64.9395 C   0  0  0  0  0  0  0  0  0  0  0  0
  -30.9418   59.9004   66.7230 O   0  0  0  0  0  0  0  0  0  0  0  0
  -49.8831   60.7632   64.0234 C   0  0  0  0  0  0  0  0  0  0  0  0
  -51.1991   61.4870   64.3464 C   0  0  0  0  0  0  0  0  0  0  0  0
  -51.0379   63.0045   64.2182 C   0  0  0  0  0  0  0  0  0  0  0  0
  -52.2657   63.8424   64.5280 C   0  0  0  0  0  0  0  0  0  0  0  0
  -40.9921   59.0290   63.2983 C   0  0  0  0  0  0  0  0  0  0  0  0
  -40.4035   57.8670   64.0420 C   0  0  0  0  0  0  0  0  0  0  0  0
  -39.7820   56.9489   62.9893 C   0  0  0  0  0  0  0  0  0  0  0  0
  -39.1706   55.7225   63.6625 C   0  0  0  0  0  0  0  0  0  0  0  0
  -38.0891   55.9942   64.6799 C   0  0  0  0  0  0  0  0  0  0  0  0
  -37.6081   54.6483   65.2118 C   0  0  0  0  0  0  0  0  0  0  0  0
  -38.7315   53.8338   65.8672 C   0  0  0  0  0  0  0  0  0  0  0  0
  -38.2801   52.4745   66.4320 C   0  0  0  0  0  0  0  0  0  0  0  0
  -37.6694   51.5501   65.3559 C   0  0  0  0  0  0  0  0  0  0  0  0
  -36.4298   52.1955   64.7299 C   0  0  0  0  0  0  0  0  0  0  0  0
  -35.7553   51.3724   63.6392 C   0  0  0  0  0  0  0  0  0  0  0  0
  -34.5232   52.0630   63.0734 C   0  0  0  0  0  0  0  0  0  0  0  0
  -33.7881   51.3163   61.9579 C   0  0  0  0  0  0  0  0  0  0  0  0
  -33.3431   49.9657   62.5026 C   0  0  0  0  0  0  0  0  0  0  0  0
  -32.4170   49.9352   63.7094 C   0  0  0  0  0  0  0  0  0  0  0  0
  -32.0675   48.4899   64.0980 C   0  0  0  0  0  0  0  0  0  0  0  0
  -33.2821   47.6128   64.4537 C   0  0  0  0  0  0  0  0  0  0  0  0
  -34.0980   48.1568   65.6241 C   0  0  0  0  0  0  0  0  0  0  0  0
  -36.4503   61.1334   65.5086 C   0  0  2  0  0  0  0  0  0  0  0  0
  -35.3818   61.5997   66.5077 C   0  0  1  0  0  0  0  0  0  0  0  0
  -34.2046   60.6120   66.6632 C   0  0  2  0  0  0  0  0  0  0  0  0
  -34.7978   59.3281   67.1741 C   0  0  2  0  0  0  0  0  0  0  0  0
  -35.9120   58.8730   66.2490 C   0  0  1  0  0  0  0  0  0  0  0  0
  -36.3724   57.5915   66.9404 C   0  0  0  0  0  0  0  0  0  0  0  0
  -31.8278   60.0664   67.9100 S   0  0  0  0  0  0  0  0  0  0  0  0
  -40.8737   60.9998   63.1496 H   0  0  0  0  0  0  0  0  0  0  0  0
  -38.1357   61.6183   63.3320 H   0  0  0  0  0  0  0  0  0  0  0  0
  -39.2690   62.6030   64.3261 H   0  0  0  0  0  0  0  0  0  0  0  0
  -38.6677   59.8099   64.6092 H   0  0  0  0  0  0  0  0  0  0  0  0
  -38.8837   61.7234   66.7113 H   0  0  0  0  0  0  0  0  0  0  0  0
  -41.0317   61.2430   65.9299 H   0  0  0  0  0  0  0  0  0  0  0  0
  -41.1313   58.6032   65.3087 H   0  0  0  0  0  0  0  0  0  0  0  0
  -40.8092   59.1816   68.1968 H   0  0  0  0  0  0  0  0  0  0  0  0
  -35.6096   63.4332   65.8970 H   0  0  0  0  0  0  0  0  0  0  0  0
  -41.7914   57.0356   68.5393 H   0  0  0  0  0  0  0  0  0  0  0  0
  -41.0711   56.5746   66.9783 H   0  0  0  0  0  0  0  0  0  0  0  0
  -43.4495   56.1491   67.0123 H   0  0  0  0  0  0  0  0  0  0  0  0
  -42.9738   57.4137   65.8327 H   0  0  0  0  0  0  0  0  0  0  0  0
  -32.8013   58.7979   69.1663 H   0  0  0  0  0  0  0  0  0  0  0  0
  -43.8458   59.1203   67.2538 H   0  0  0  0  0  0  0  0  0  0  0  0
  -44.2859   57.9243   68.4631 H   0  0  0  0  0  0  0  0  0  0  0  0
  -34.5511   59.7783   69.0797 H   0  0  0  0  0  0  0  0  0  0  0  0
  -45.8277   56.8794   66.8875 H   0  0  0  0  0  0  0  0  0  0  0  0
  -45.3644   58.1171   65.6791 H   0  0  0  0  0  0  0  0  0  0  0  0
  -46.8284   58.6609   68.2278 H   0  0  0  0  0  0  0  0  0  0  0  0
  -47.5305   58.5733   66.5920 H   0  0  0  0  0  0  0  0  0  0  0  0
  -35.5774   55.9250   67.5595 H   0  0  0  0  0  0  0  0  0  0  0  0
  -45.5178   60.5957   67.5015 H   0  0  0  0  0  0  0  0  0  0  0  0
  -47.2639   60.8576   67.2955 H   0  0  0  0  0  0  0  0  0  0  0  0
  -45.3487   60.1534   65.1023 H   0  0  0  0  0  0  0  0  0  0  0  0
  -46.0345   61.7602   65.4381 H   0  0  0  0  0  0  0  0  0  0  0  0
  -47.5855   59.3441   64.6342 H   0  0  0  0  0  0  0  0  0  0  0  0
  -47.1330   60.7472   63.6068 H   0  0  0  0  0  0  0  0  0  0  0  0
  -48.5231   62.1729   64.8730 H   0  0  0  0  0  0  0  0  0  0  0  0
  -48.9621   60.8073   65.9277 H   0  0  0  0  0  0  0  0  0  0  0  0
  -31.4291   59.4484   66.0165 H   0  0  0  0  0  0  0  0  0  0  0  0
  -50.0570   59.7103   64.1009 H   0  0  0  0  0  0  0  0  0  0  0  0
  -49.6043   61.0795   63.0400 H   0  0  0  0  0  0  0  0  0  0  0  0
  -51.4920   61.2498   65.3479 H   0  0  0  0  0  0  0  0  0  0  0  0
  -51.9450   61.1639   63.6507 H   0  0  0  0  0  0  0  0  0  0  0  0
  -50.7445   63.2167   63.2113 H   0  0  0  0  0  0  0  0  0  0  0  0
  -50.3139   63.2768   64.9575 H   0  0  0  0  0  0  0  0  0  0  0  0
  -53.0373   63.6195   63.8210 H   0  0  0  0  0  0  0  0  0  0  0  0
  -52.0139   64.8805   64.4657 H   0  0  0  0  0  0  0  0  0  0  0  0
  -52.6109   63.6178   65.5155 H   0  0  0  0  0  0  0  0  0  0  0  0
  -41.1680   57.3474   64.5809 H   0  0  0  0  0  0  0  0  0  0  0  0
  -39.6724   58.1921   64.7524 H   0  0  0  0  0  0  0  0  0  0  0  0
  -39.0185   57.4809   62.4613 H   0  0  0  0  0  0  0  0  0  0  0  0
  -40.5422   56.6324   62.3061 H   0  0  0  0  0  0  0  0  0  0  0  0
  -38.7512   55.1041   62.8967 H   0  0  0  0  0  0  0  0  0  0  0  0
  -39.9698   55.2650   64.2074 H   0  0  0  0  0  0  0  0  0  0  0  0
  -38.4821   56.5840   65.4815 H   0  0  0  0  0  0  0  0  0  0  0  0
  -37.2797   56.5330   64.2333 H   0  0  0  0  0  0  0  0  0  0  0  0
  -36.8422   54.8215   65.9387 H   0  0  0  0  0  0  0  0  0  0  0  0
  -37.2435   54.0837   64.3792 H   0  0  0  0  0  0  0  0  0  0  0  0
  -39.4896   53.6569   65.1330 H   0  0  0  0  0  0  0  0  0  0  0  0
  -39.0839   54.4095   66.6974 H   0  0  0  0  0  0  0  0  0  0  0  0
  -39.1287   51.9844   66.8616 H   0  0  0  0  0  0  0  0  0  0  0  0
  -37.5200   52.6657   67.1604 H   0  0  0  0  0  0  0  0  0  0  0  0
  -38.3968   51.3719   64.5917 H   0  0  0  0  0  0  0  0  0  0  0  0
  -37.3822   50.6280   65.8165 H   0  0  0  0  0  0  0  0  0  0  0  0
  -35.7150   52.3645   65.5079 H   0  0  0  0  0  0  0  0  0  0  0  0
  -36.7671   53.0954   64.2594 H   0  0  0  0  0  0  0  0  0  0  0  0
  -36.4553   51.2131   62.8458 H   0  0  0  0  0  0  0  0  0  0  0  0
  -35.4409   50.4469   64.0746 H   0  0  0  0  0  0  0  0  0  0  0  0
  -33.8332   52.2119   63.8775 H   0  0  0  0  0  0  0  0  0  0  0  0
  -34.8791   52.9686   62.6283 H   0  0  0  0  0  0  0  0  0  0  0  0
  -32.9340   51.8804   61.6462 H   0  0  0  0  0  0  0  0  0  0  0  0
  -34.4342   51.1806   61.1159 H   0  0  0  0  0  0  0  0  0  0  0  0
  -32.8416   49.4549   61.7074 H   0  0  0  0  0  0  0  0  0  0  0  0
  -34.2476   49.5170   62.8570 H   0  0  0  0  0  0  0  0  0  0  0  0
  -32.9023   50.4122   64.5352 H   0  0  0  0  0  0  0  0  0  0  0  0
  -31.5127   50.4494   63.4587 H   0  0  0  0  0  0  0  0  0  0  0  0
  -31.4171   48.5201   64.9471 H   0  0  0  0  0  0  0  0  0  0  0  0
  -31.6124   48.0451   63.2378 H   0  0  0  0  0  0  0  0  0  0  0  0
  -32.9315   46.6348   64.7095 H   0  0  0  0  0  0  0  0  0  0  0  0
  -33.9249   47.5997   63.5983 H   0  0  0  0  0  0  0  0  0  0  0  0
  -33.4869   48.1853   66.5020 H   0  0  0  0  0  0  0  0  0  0  0  0
  -34.9412   47.5213   65.7970 H   0  0  0  0  0  0  0  0  0  0  0  0
  -34.4374   49.1450   65.3936 H   0  0  0  0  0  0  0  0  0  0  0  0
  -35.9925   61.0440   64.5457 H   0  0  0  0  0  0  0  0  0  0  0  0
  -35.8309   61.6875   67.4750 H   0  0  0  0  0  0  0  0  0  0  0  0
  -33.7257   60.5630   65.7076 H   0  0  0  0  0  0  0  0  0  0  0  0
  -34.0355   58.5774   67.1903 H   0  0  0  0  0  0  0  0  0  0  0  0
  -35.5992   58.7098   65.2389 H   0  0  0  0  0  0  0  0  0  0  0  0
  -36.7961   57.8333   67.8927 H   0  0  0  0  0  0  0  0  0  0  0  0
  -37.1076   57.1054   66.3338 H   0  0  0  0  0  0  0  0  0  0  0  0
  1  4  1  0  0  0  0
  1 31  1  0  0  0  0
  1 56  1  0  0  0  0
  2  3  1  0  0  0  0
  2  4  1  0  0  0  0
  2 57  1  0  0  0  0
  2 58  1  0  0  0  0
  3 49  1  0  0  0  0
  4  6  1  0  0  0  0
  4 59  1  1  0  0  0
  5  6  1  0  0  0  0
  5 60  1  0  0  0  0
  6  8  1  0  0  0  0
  6 61  1  6  0  0  0
  7 31  2  0  0  0  0
  8  9  2  0  0  0  0
  8 62  1  0  0  0  0
  9 11  1  0  0  0  0
  9 63  1  0  0  0  0
 10 50  1  0  0  0  0
 10 64  1  0  0  0  0
 11 13  1  0  0  0  0
 11 65  1  0  0  0  0
 11 66  1  0  0  0  0
 12 51  1  0  0  0  0
 12 55  1  0  0  0  0
 13 15  1  0  0  0  0
 13 67  1  0  0  0  0
 13 68  1  0  0  0  0
 14 55  1  0  0  0  0
 14 69  1  0  0  0  0
 15 17  1  0  0  0  0
 15 70  1  0  0  0  0
 15 71  1  0  0  0  0
 16 52  1  0  0  0  0
 16 72  1  0  0  0  0
 17 19  1  0  0  0  0
 17 73  1  0  0  0  0
 17 74  1  0  0  0  0
 18 49  1  0  0  0  0
 18 53  1  0  0  0  0
 19 21  1  0  0  0  0
 19 75  1  0  0  0  0
 19 76  1  0  0  0  0
 20 54  1  0  0  0  0
 20 77  1  0  0  0  0
 21 22  1  0  0  0  0
 21 78  1  0  0  0  0
 21 79  1  0  0  0  0
 22 23  1  0  0  0  0
 22 80  1  0  0  0  0
 22 81  1  0  0  0  0
 23 25  1  0  0  0  0
 23 82  1  0  0  0  0
 23 83  1  0  0  0  0
 24 55  1  0  0  0  0
 25 27  1  0  0  0  0
 25 84  1  0  0  0  0
 25 85  1  0  0  0  0
 26 55  1  0  0  0  0
 26 86  1  0  0  0  0
 27 28  1  0  0  0  0
 27 87  1  0  0  0  0
 27 88  1  0  0  0  0
 28 29  1  0  0  0  0
 28 89  1  0  0  0  0
 28 90  1  0  0  0  0
 29 30  1  0  0  0  0
 29 91  1  0  0  0  0
 29 92  1  0  0  0  0
 30 93  1  0  0  0  0
 30 94  1  0  0  0  0
 30 95  1  0  0  0  0
 31 32  1  0  0  0  0
 32 33  1  0  0  0  0
 32 96  1  0  0  0  0
 32 97  1  0  0  0  0
 33 34  1  0  0  0  0
 33 98  1  0  0  0  0
 33 99  1  0  0  0  0
 34 35  1  0  0  0  0
 34100  1  0  0  0  0
 34101  1  0  0  0  0
 35 36  1  0  0  0  0
 35102  1  0  0  0  0
 35103  1  0  0  0  0
 36 37  1  0  0  0  0
 36104  1  0  0  0  0
 36105  1  0  0  0  0
 37 38  1  0  0  0  0
 37106  1  0  0  0  0
 37107  1  0  0  0  0
 38 39  1  0  0  0  0
 38108  1  0  0  0  0
 38109  1  0  0  0  0
 39 40  1  0  0  0  0
 39110  1  0  0  0  0
 39111  1  0  0  0  0
 40 41  1  0  0  0  0
 40112  1  0  0  0  0
 40113  1  0  0  0  0
 41 42  1  0  0  0  0
 41114  1  0  0  0  0
 41115  1  0  0  0  0
 42 43  1  0  0  0  0
 42116  1  0  0  0  0
 42117  1  0  0  0  0
 43 44  1  0  0  0  0
 43118  1  0  0  0  0
 43119  1  0  0  0  0
 44 45  1  0  0  0  0
 44120  1  0  0  0  0
 44121  1  0  0  0  0
 45 46  1  0  0  0  0
 45122  1  0  0  0  0
 45123  1  0  0  0  0
 46 47  1  0  0  0  0
 46124  1  0  0  0  0
 46125  1  0  0  0  0
 47 48  1  0  0  0  0
 47126  1  0  0  0  0
 47127  1  0  0  0  0
 48128  1  0  0  0  0
 48129  1  0  0  0  0
 48130  1  0  0  0  0
 49 50  1  0  0  0  0
 49131  1  6  0  0  0
 50 51  1  0  0  0  0
 50132  1  1  0  0  0
 51 52  1  0  0  0  0
 51133  1  6  0  0  0
 52 53  1  0  0  0  0
 52134  1  1  0  0  0
 53 54  1  0  0  0  0
 53135  1  6  0  0  0
 54136  1  0  0  0  0
 54137  1  0  0  0  0
M  CHG  1  24  -1
M  END
$$$$
/media/chris/experiments/cd1a-new-docking/inputs/ligands/1onq_ligand.pdb
 OpenBabel06222310383D

137137  0  0  1  0  0  0  0  0999 V2000
  -40.4920   60.2280   63.6270 N   0  0  0  0  0  0  0  0  0  0  0  0
  -38.5950   61.7730   64.2860 C   0  0  0  0  0  0  0  0  0  0  0  0
  -39.2927   63.0412   64.1953 O   0  0  0  0  0  0  0  0  0  0  0  0
  -39.4590   60.5300   64.5980 C   0  0  1  0  0  0  0  0  0  0  0  0
  -39.2569   60.8461   66.8904 O   0  0  0  0  0  0  0  0  0  0  0  0
  -40.2280   60.5370   65.9080 C   0  0  2  0  0  0  0  0  0  0  0  0
  -42.2618   61.3924   64.4390 O   0  0  0  0  0  0  0  0  0  0  0  0
  -40.8583   59.1606   66.1332 C   0  0  0  0  0  0  0  0  0  0  0  0
  -42.0897   58.8399   65.7007 C   0  0  0  0  0  0  0  0  0  0  0  0
  -36.9245   63.2334   62.6041 O   0  0  0  0  0  0  0  0  0  0  0  0
  -42.6490   57.4435   65.9661 C   0  0  0  0  0  0  0  0  0  0  0  0
  -36.2474   65.6923   61.0988 O   0  0  0  0  0  0  0  0  0  0  0  0
  -44.1767   57.4042   66.1175 C   0  0  0  0  0  0  0  0  0  0  0  0
  -35.7017   63.2262   60.5177 O   0  0  0  0  0  0  0  0  0  0  0  0
  -44.9803   57.8774   64.8922 C   0  0  0  0  0  0  0  0  0  0  0  0
  -38.7865   66.6864   61.1867 O   0  0  0  0  0  0  0  0  0  0  0  0
  -44.6770   56.9907   63.6605 C   0  0  0  0  0  0  0  0  0  0  0  0
  -39.4547   65.4386   63.8611 O   0  0  0  0  0  0  0  0  0  0  0  0
  -45.0292   55.4902   63.8225 C   0  0  0  0  0  0  0  0  0  0  0  0
  -38.9348   69.0474   63.1582 O   0  0  0  0  0  0  0  0  0  0  0  0
  -44.6999   54.6249   62.5833 C   0  0  0  0  0  0  0  0  0  0  0  0
  -45.0722   53.1361   62.7532 C   0  0  0  0  0  0  0  0  0  0  0  0
  -44.7318   52.2712   61.5336 C   0  0  0  0  0  0  0  0  0  0  0  0
  -34.0628   64.5679   61.7022 O   0  5  0  0  0  0  0  0  0  0  0  0
  -45.3980   52.6721   60.2192 C   0  0  0  0  0  0  0  0  0  0  0  0
  -34.4390   64.9139   59.3330 O   0  0  0  0  0  0  0  0  0  0  0  0
  -46.9386   52.6551   60.2676 C   0  0  0  0  0  0  0  0  0  0  0  0
  -47.6393   53.0376   58.9551 C   0  0  0  0  0  0  0  0  0  0  0  0
  -47.2427   54.4485   58.5110 C   0  0  0  0  0  0  0  0  0  0  0  0
  -47.8808   54.9576   57.2306 C   0  0  0  0  0  0  0  0  0  0  0  0
  -41.7615   60.6565   63.6107 C   0  0  0  0  0  0  0  0  0  0  0  0
  -42.5847   60.1680   62.4559 C   0  0  0  0  0  0  0  0  0  0  0  0
  -42.6099   58.6428   62.5563 C   0  0  0  0  0  0  0  0  0  0  0  0
  -41.1870   58.0925   62.4955 C   0  0  0  0  0  0  0  0  0  0  0  0
  -41.0530   56.5907   62.5667 C   0  0  0  0  0  0  0  0  0  0  0  0
  -41.6712   56.1348   63.8843 C   0  0  0  0  0  0  0  0  0  0  0  0
  -41.5823   54.6163   64.0869 C   0  0  0  0  0  0  0  0  0  0  0  0
  -40.1448   54.0660   64.1205 C   0  0  0  0  0  0  0  0  0  0  0  0
  -39.3007   54.6611   65.2689 C   0  0  0  0  0  0  0  0  0  0  0  0
  -37.8787   54.0935   65.2442 C   0  0  0  0  0  0  0  0  0  0  0  0
  -37.0912   54.3817   63.9718 C   0  0  0  0  0  0  0  0  0  0  0  0
  -36.9091   55.8730   63.7310 C   0  0  0  0  0  0  0  0  0  0  0  0
  -36.1426   56.2595   62.4640 C   0  0  0  0  0  0  0  0  0  0  0  0
  -36.0498   57.7784   62.4089 C   0  0  0  0  0  0  0  0  0  0  0  0
  -35.3423   58.4234   61.2263 C   0  0  0  0  0  0  0  0  0  0  0  0
  -33.8829   57.9504   61.1339 C   0  0  0  0  0  0  0  0  0  0  0  0
  -33.0837   58.5682   59.9718 C   0  0  0  0  0  0  0  0  0  0  0  0
  -33.6878   58.2754   58.6004 C   0  0  0  0  0  0  0  0  0  0  0  0
  -38.5707   64.2916   63.8868 C   0  0  2  0  0  0  0  0  0  0  0  0
  -37.8007   64.3171   62.5587 C   0  0  1  0  0  0  0  0  0  0  0  0
  -36.9714   65.6028   62.3469 C   0  0  2  0  0  0  0  0  0  0  0  0
  -37.9542   66.7410   62.3427 C   0  0  2  0  0  0  0  0  0  0  0  0
  -38.7875   66.7050   63.6110 C   0  0  1  0  0  0  0  0  0  0  0  0
  -39.7042   67.9085   63.4028 C   0  0  0  0  0  0  0  0  0  0  0  0
  -35.0951   64.5857   60.6304 S   0  0  0  0  0  0  0  0  0  0  0  0
  -40.2280   59.6342   62.8875 H   0  0  0  0  0  0  0  0  0  0  0  0
  -37.8608   61.8607   65.0594 H   0  0  0  0  0  0  0  0  0  0  0  0
  -38.1940   61.6005   63.3091 H   0  0  0  0  0  0  0  0  0  0  0  0
  -38.6677   59.8099   64.6092 H   0  0  0  0  0  0  0  0  0  0  0  0
  -38.8837   61.7234   66.7113 H   0  0  0  0  0  0  0  0  0  0  0  0
  -41.0317   61.2430   65.9299 H   0  0  0  0  0  0  0  0  0  0  0  0
  -40.3128   58.4462   66.6402 H   0  0  0  0  0  0  0  0  0  0  0  0
  -42.6561   59.5355   65.1904 H   0  0  0  0  0  0  0  0  0  0  0  0
  -37.4286   62.4154   62.7369 H   0  0  0  0  0  0  0  0  0  0  0  0
  -42.2112   57.0710   66.8686 H   0  0  0  0  0  0  0  0  0  0  0  0
  -42.4056   56.8440   65.1139 H   0  0  0  0  0  0  0  0  0  0  0  0
  -44.4414   58.0281   66.9455 H   0  0  0  0  0  0  0  0  0  0  0  0
  -44.4305   56.3736   66.2531 H   0  0  0  0  0  0  0  0  0  0  0  0
  -36.1343   62.9948   61.3545 H   0  0  0  0  0  0  0  0  0  0  0  0
  -44.7161   58.8900   64.6691 H   0  0  0  0  0  0  0  0  0  0  0  0
  -46.0238   57.8060   65.1177 H   0  0  0  0  0  0  0  0  0  0  0  0
  -38.2346   66.7105   60.3894 H   0  0  0  0  0  0  0  0  0  0  0  0
  -43.6304   57.0638   63.4501 H   0  0  0  0  0  0  0  0  0  0  0  0
  -45.2993   57.3574   62.8711 H   0  0  0  0  0  0  0  0  0  0  0  0
  -46.0782   55.4109   64.0181 H   0  0  0  0  0  0  0  0  0  0  0  0
  -44.4287   55.1181   64.6261 H   0  0  0  0  0  0  0  0  0  0  0  0
  -39.5192   69.8103   63.0264 H   0  0  0  0  0  0  0  0  0  0  0  0
  -43.6489   54.6915   62.3937 H   0  0  0  0  0  0  0  0  0  0  0  0
  -45.2844   55.0041   61.7712 H   0  0  0  0  0  0  0  0  0  0  0  0
  -46.1252   53.0696   62.9308 H   0  0  0  0  0  0  0  0  0  0  0  0
  -44.4947   52.7615   63.5724 H   0  0  0  0  0  0  0  0  0  0  0  0
  -45.0230   51.2655   61.7544 H   0  0  0  0  0  0  0  0  0  0  0  0
  -43.6814   52.3990   61.3744 H   0  0  0  0  0  0  0  0  0  0  0  0
  -45.0776   51.9918   59.4580 H   0  0  0  0  0  0  0  0  0  0  0  0
  -45.1053   53.6816   60.0185 H   0  0  0  0  0  0  0  0  0  0  0  0
  -35.1052   64.9276   58.6281 H   0  0  0  0  0  0  0  0  0  0  0  0
  -47.2535   53.3437   61.0237 H   0  0  0  0  0  0  0  0  0  0  0  0
  -47.2179   51.6420   60.4687 H   0  0  0  0  0  0  0  0  0  0  0  0
  -48.6987   53.0016   59.1009 H   0  0  0  0  0  0  0  0  0  0  0  0
  -47.3411   52.3452   58.1957 H   0  0  0  0  0  0  0  0  0  0  0  0
  -46.1818   54.4602   58.3729 H   0  0  0  0  0  0  0  0  0  0  0  0
  -47.5964   55.0994   59.2831 H   0  0  0  0  0  0  0  0  0  0  0  0
  -47.5681   54.3474   56.4092 H   0  0  0  0  0  0  0  0  0  0  0  0
  -47.5779   55.9694   57.0590 H   0  0  0  0  0  0  0  0  0  0  0  0
  -48.9461   54.9147   57.3215 H   0  0  0  0  0  0  0  0  0  0  0  0
  -42.1401   60.4704   61.5308 H   0  0  0  0  0  0  0  0  0  0  0  0
  -43.5740   60.5745   62.4862 H   0  0  0  0  0  0  0  0  0  0  0  0
  -43.1794   58.2434   61.7432 H   0  0  0  0  0  0  0  0  0  0  0  0
  -43.0571   58.3590   63.4860 H   0  0  0  0  0  0  0  0  0  0  0  0
  -40.6400   58.5089   63.3154 H   0  0  0  0  0  0  0  0  0  0  0  0
  -40.8124   58.3694   61.5322 H   0  0  0  0  0  0  0  0  0  0  0  0
  -40.0197   56.3146   62.5336 H   0  0  0  0  0  0  0  0  0  0  0  0
  -41.5496   56.1292   61.7389 H   0  0  0  0  0  0  0  0  0  0  0  0
  -42.7019   56.4219   63.8961 H   0  0  0  0  0  0  0  0  0  0  0  0
  -41.1217   56.5990   64.6764 H   0  0  0  0  0  0  0  0  0  0  0  0
  -42.1052   54.1397   63.2843 H   0  0  0  0  0  0  0  0  0  0  0  0
  -42.0130   54.4086   65.0442 H   0  0  0  0  0  0  0  0  0  0  0  0
  -39.6685   54.2981   63.1909 H   0  0  0  0  0  0  0  0  0  0  0  0
  -40.2085   53.0102   64.2822 H   0  0  0  0  0  0  0  0  0  0  0  0
  -39.7597   54.4186   66.2046 H   0  0  0  0  0  0  0  0  0  0  0  0
  -39.2501   55.7227   65.1450 H   0  0  0  0  0  0  0  0  0  0  0  0
  -37.9432   53.0318   65.3610 H   0  0  0  0  0  0  0  0  0  0  0  0
  -37.3500   54.5775   66.0386 H   0  0  0  0  0  0  0  0  0  0  0  0
  -37.6156   53.9603   63.1397 H   0  0  0  0  0  0  0  0  0  0  0  0
  -36.1199   53.9469   64.0823 H   0  0  0  0  0  0  0  0  0  0  0  0
  -36.3814   56.2778   64.5691 H   0  0  0  0  0  0  0  0  0  0  0  0
  -37.8956   56.2670   63.6027 H   0  0  0  0  0  0  0  0  0  0  0  0
  -36.6619   55.8968   61.6016 H   0  0  0  0  0  0  0  0  0  0  0  0
  -35.1628   55.8297   62.4791 H   0  0  0  0  0  0  0  0  0  0  0  0
  -35.5380   58.0953   63.2935 H   0  0  0  0  0  0  0  0  0  0  0  0
  -37.0662   58.0980   62.3101 H   0  0  0  0  0  0  0  0  0  0  0  0
  -35.3587   59.4866   61.3459 H   0  0  0  0  0  0  0  0  0  0  0  0
  -35.8505   58.1398   60.3284 H   0  0  0  0  0  0  0  0  0  0  0  0
  -33.8833   56.8874   61.0114 H   0  0  0  0  0  0  0  0  0  0  0  0
  -33.4026   58.2674   62.0360 H   0  0  0  0  0  0  0  0  0  0  0  0
  -32.0893   58.1738   59.9961 H   0  0  0  0  0  0  0  0  0  0  0  0
  -33.0998   59.6297   60.1051 H   0  0  0  0  0  0  0  0  0  0  0  0
  -33.6892   57.2191   58.4294 H   0  0  0  0  0  0  0  0  0  0  0  0
  -33.1056   58.7584   57.8437 H   0  0  0  0  0  0  0  0  0  0  0  0
  -34.6920   58.6434   58.5670 H   0  0  0  0  0  0  0  0  0  0  0  0
  -37.8613   64.3371   64.6865 H   0  0  0  0  0  0  0  0  0  0  0  0
  -38.5037   64.2763   61.7531 H   0  0  0  0  0  0  0  0  0  0  0  0
  -36.2362   65.6172   63.1242 H   0  0  0  0  0  0  0  0  0  0  0  0
  -37.4139   67.6641   62.3117 H   0  0  0  0  0  0  0  0  0  0  0  0
  -38.2128   66.7722   64.5111 H   0  0  0  0  0  0  0  0  0  0  0  0
  -40.3464   67.7264   62.5666 H   0  0  0  0  0  0  0  0  0  0  0  0
  -40.2948   68.0612   64.2819 H   0  0  0  0  0  0  0  0  0  0  0  0
  1  4  1  0  0  0  0
  1 31  1  0  0  0  0
  1 56  1  0  0  0  0
  2  3  1  0  0  0  0
  2  4  1  0  0  0  0
  2 57  1  0  0  0  0
  2 58  1  0  0  0  0
  3 49  1  0  0  0  0
  4  6  1  0  0  0  0
  4 59  1  1  0  0  0
  5  6  1  0  0  0  0
  5 60  1  0  0  0  0
  6  8  1  0  0  0  0
  6 61  1  6  0  0  0
  7 31  2  0  0  0  0
  8  9  2  0  0  0  0
  8 62  1  0  0  0  0
  9 11  1  0  0  0  0
  9 63  1  0  0  0  0
 10 50  1  0  0  0  0
 10 64  1  0  0  0  0
 11 13  1  0  0  0  0
 11 65  1  0  0  0  0
 11 66  1  0  0  0  0
 12 51  1  0  0  0  0
 12 55  1  0  0  0  0
 13 15  1  0  0  0  0
 13 67  1  0  0  0  0
 13 68  1  0  0  0  0
 14 55  1  0  0  0  0
 14 69  1  0  0  0  0
 15 17  1  0  0  0  0
 15 70  1  0  0  0  0
 15 71  1  0  0  0  0
 16 52  1  0  0  0  0
 16 72  1  0  0  0  0
 17 19  1  0  0  0  0
 17 73  1  0  0  0  0
 17 74  1  0  0  0  0
 18 49  1  0  0  0  0
 18 53  1  0  0  0  0
 19 21  1  0  0  0  0
 19 75  1  0  0  0  0
 19 76  1  0  0  0  0
 20 54  1  0  0  0  0
 20 77  1  0  0  0  0
 21 22  1  0  0  0  0
 21 78  1  0  0  0  0
 21 79  1  0  0  0  0
 22 23  1  0  0  0  0
 22 80  1  0  0  0  0
 22 81  1  0  0  0  0
 23 25  1  0  0  0  0
 23 82  1  0  0  0  0
 23 83  1  0  0  0  0
 24 55  1  0  0  0  0
 25 27  1  0  0  0  0
 25 84  1  0  0  0  0
 25 85  1  0  0  0  0
 26 55  1  0  0  0  0
 26 86  1  0  0  0  0
 27 28  1  0  0  0  0
 27 87  1  0  0  0  0
 27 88  1  0  0  0  0
 28 29  1  0  0  0  0
 28 89  1  0  0  0  0
 28 90  1  0  0  0  0
 29 30  1  0  0  0  0
 29 91  1  0  0  0  0
 29 92  1  0  0  0  0
 30 93  1  0  0  0  0
 30 94  1  0  0  0  0
 30 95  1  0  0  0  0
 31 32  1  0  0  0  0
 32 33  1  0  0  0  0
 32 96  1  0  0  0  0
 32 97  1  0  0  0  0
 33 34  1  0  0  0  0
 33 98  1  0  0  0  0
 33 99  1  0  0  0  0
 34 35  1  0  0  0  0
 34100  1  0  0  0  0
 34101  1  0  0  0  0
 35 36  1  0  0  0  0
 35102  1  0  0  0  0
 35103  1  0  0  0  0
 36 37  1  0  0  0  0
 36104  1  0  0  0  0
 36105  1  0  0  0  0
 37 38  1  0  0  0  0
 37106  1  0  0  0  0
 37107  1  0  0  0  0
 38 39  1  0  0  0  0
 38108  1  0  0  0  0
 38109  1  0  0  0  0
 39 40  1  0  0  0  0
 39110  1  0  0  0  0
 39111  1  0  0  0  0
 40 41  1  0  0  0  0
 40112  1  0  0  0  0
 40113  1  0  0  0  0
 41 42  1  0  0  0  0
 41114  1  0  0  0  0
 41115  1  0  0  0  0
 42 43  1  0  0  0  0
 42116  1  0  0  0  0
 42117  1  0  0  0  0
 43 44  1  0  0  0  0
 43118  1  0  0  0  0
 43119  1  0  0  0  0
 44 45  1  0  0  0  0
 44120  1  0  0  0  0
 44121  1  0  0  0  0
 45 46  1  0  0  0  0
 45122  1  0  0  0  0
 45123  1  0  0  0  0
 46 47  1  0  0  0  0
 46124  1  0  0  0  0
 46125  1  0  0  0  0
 47 48  1  0  0  0  0
 47126  1  0  0  0  0
 47127  1  0  0  0  0
 48128  1  0  0  0  0
 48129  1  0  0  0  0
 48130  1  0  0  0  0
 49 50  1  0  0  0  0
 49131  1  1  0  0  0
 50 51  1  0  0  0  0
 50132  1  6  0  0  0
 51 52  1  0  0  0  0
 51133  1  1  0  0  0
 52 53  1  0  0  0  0
 52134  1  6  0  0  0
 53 54  1  0  0  0  0
 53135  1  1  0  0  0
 54136  1  0  0  0  0
 54137  1  0  0  0  0
M  CHG  1  24  -1
M  END
$$$$
/media/chris/experiments/cd1a-new-docking/inputs/ligands/1onq_ligand.pdb
 OpenBabel06222310383D

137137  0  0  1  0  0  0  0  0999 V2000
  -40.4920   60.2280   63.6270 N   0  0  0  0  0  0  0  0  0  0  0  0
  -38.5950   61.7730   64.2860 C   0  0  0  0  0  0  0  0  0  0  0  0
  -37.8612   61.7550   63.0352 O   0  0  0  0  0  0  0  0  0  0  0  0
  -39.4590   60.5300   64.5980 C   0  0  1  0  0  0  0  0  0  0  0  0
  -41.2116   61.5409   65.7392 O   0  0  0  0  0  0  0  0  0  0  0  0
  -40.2280   60.5370   65.9080 C   0  0  2  0  0  0  0  0  0  0  0  0
  -40.9980   62.2858   62.8166 O   0  0  0  0  0  0  0  0  0  0  0  0
  -39.2689   60.8567   67.0571 C   0  0  0  0  0  0  0  0  0  0  0  0
  -39.0539   60.0187   68.0855 C   0  0  0  0  0  0  0  0  0  0  0  0
  -36.4617   63.4735   64.8422 O   0  0  0  0  0  0  0  0  0  0  0  0
  -38.0807   60.4114   69.1956 C   0  0  0  0  0  0  0  0  0  0  0  0
  -33.9514   64.8423   64.0706 O   0  0  0  0  0  0  0  0  0  0  0  0
  -37.3725   59.2176   69.8525 C   0  0  0  0  0  0  0  0  0  0  0  0
  -33.7985   67.4203   63.8529 O   0  0  0  0  0  0  0  0  0  0  0  0
  -36.3941   59.5662   70.9893 C   0  0  0  0  0  0  0  0  0  0  0  0
  -33.4515   63.1747   61.9701 O   0  0  0  0  0  0  0  0  0  0  0  0
  -37.1303   60.2819   72.1474 C   0  0  0  0  0  0  0  0  0  0  0  0
  -36.3692   62.6641   61.3521 O   0  0  0  0  0  0  0  0  0  0  0  0
  -36.2366   60.6966   73.3436 C   0  0  0  0  0  0  0  0  0  0  0  0
  -33.8767   62.4184   59.8301 O   0  0  0  0  0  0  0  0  0  0  0  0
  -35.1067   61.6873   72.9766 C   0  0  0  0  0  0  0  0  0  0  0  0
  -35.6209   63.0266   72.4058 C   0  0  0  0  0  0  0  0  0  0  0  0
  -36.5152   63.8087   73.3754 C   0  0  0  0  0  0  0  0  0  0  0  0
  -32.4014   66.0156   62.4514 O   0  5  0  0  0  0  0  0  0  0  0  0
  -35.8714   64.2227   74.6969 C   0  0  0  0  0  0  0  0  0  0  0  0
  -31.8724   66.3060   64.7988 O   0  0  0  0  0  0  0  0  0  0  0  0
  -34.6487   65.1472   74.5349 C   0  0  0  0  0  0  0  0  0  0  0  0
  -33.9678   65.5682   75.8461 C   0  0  0  0  0  0  0  0  0  0  0  0
  -34.9461   66.3122   76.7595 C   0  0  0  0  0  0  0  0  0  0  0  0
  -36.1763   65.5403   77.2026 C   0  0  0  0  0  0  0  0  0  0  0  0
  -41.1606   61.0813   62.8393 C   0  0  0  0  0  0  0  0  0  0  0  0
  -42.1710   60.4499   61.9282 C   0  0  0  0  0  0  0  0  0  0  0  0
  -42.7946   61.5868   61.1184 C   0  0  0  0  0  0  0  0  0  0  0  0
  -41.7183   62.2950   60.2992 C   0  0  0  0  0  0  0  0  0  0  0  0
  -40.5825   62.9062   61.0834 C   0  0  0  0  0  0  0  0  0  0  0  0
  -39.6392   63.5708   60.0862 C   0  0  0  0  0  0  0  0  0  0  0  0
  -39.0742   62.5838   59.0559 C   0  0  0  0  0  0  0  0  0  0  0  0
  -38.2783   61.4169   59.6687 C   0  0  0  0  0  0  0  0  0  0  0  0
  -37.7100   60.4532   58.6039 C   0  0  0  0  0  0  0  0  0  0  0  0
  -36.9446   59.3051   59.2682 C   0  0  0  0  0  0  0  0  0  0  0  0
  -37.7740   58.4325   60.2024 C   0  0  0  0  0  0  0  0  0  0  0  0
  -38.9294   57.7524   59.4829 C   0  0  0  0  0  0  0  0  0  0  0  0
  -39.9409   58.6824   58.8090 C   0  0  0  0  0  0  0  0  0  0  0  0
  -41.0206   57.8237   58.1643 C   0  0  0  0  0  0  0  0  0  0  0  0
  -42.1467   58.5137   57.4086 C   0  0  0  0  0  0  0  0  0  0  0  0
  -43.1425   57.4864   56.8474 C   0  0  0  0  0  0  0  0  0  0  0  0
  -44.3096   58.0978   56.0504 C   0  0  0  0  0  0  0  0  0  0  0  0
  -45.1554   59.0708   56.8685 C   0  0  0  0  0  0  0  0  0  0  0  0
  -36.9920   62.8817   62.6414 C   0  0  2  0  0  0  0  0  0  0  0  0
  -35.8536   63.2281   63.6117 C   0  0  1  0  0  0  0  0  0  0  0  0
  -35.0540   64.4857   63.2063 C   0  0  2  0  0  0  0  0  0  0  0  0
  -34.4510   64.1853   61.8619 C   0  0  2  0  0  0  0  0  0  0  0  0
  -35.5409   63.7659   60.8921 C   0  0  1  0  0  0  0  0  0  0  0  0
  -34.7309   63.5033   59.6245 C   0  0  0  0  0  0  0  0  0  0  0  0
  -32.9820   66.1711   63.8128 S   0  0  0  0  0  0  0  0  0  0  0  0
  -40.7322   59.2777   63.5347 H   0  0  0  0  0  0  0  0  0  0  0  0
  -39.2437   62.6238   64.2698 H   0  0  0  0  0  0  0  0  0  0  0  0
  -37.8479   61.7974   65.0516 H   0  0  0  0  0  0  0  0  0  0  0  0
  -38.6677   59.8099   64.6092 H   0  0  0  0  0  0  0  0  0  0  0  0
  -41.7964   61.3001   65.0038 H   0  0  0  0  0  0  0  0  0  0  0  0
  -40.6791   59.5963   66.1457 H   0  0  0  0  0  0  0  0  0  0  0  0
  -38.7644   61.7568   67.0415 H   0  0  0  0  0  0  0  0  0  0  0  0
  -39.5451   59.1120   68.1252 H   0  0  0  0  0  0  0  0  0  0  0  0
  -36.9694   62.6928   65.1133 H   0  0  0  0  0  0  0  0  0  0  0  0
  -38.6259   60.9373   69.9513 H   0  0  0  0  0  0  0  0  0  0  0  0
  -37.3204   61.0137   68.7437 H   0  0  0  0  0  0  0  0  0  0  0  0
  -36.8235   58.7019   69.0925 H   0  0  0  0  0  0  0  0  0  0  0  0
  -38.1457   58.6305   70.3022 H   0  0  0  0  0  0  0  0  0  0  0  0
  -34.5271   67.3509   63.2163 H   0  0  0  0  0  0  0  0  0  0  0  0
  -35.6291   60.2103   70.6086 H   0  0  0  0  0  0  0  0  0  0  0  0
  -35.9656   58.6599   71.3632 H   0  0  0  0  0  0  0  0  0  0  0  0
  -32.7664   63.4629   62.5935 H   0  0  0  0  0  0  0  0  0  0  0  0
  -37.8890   59.6227   72.5144 H   0  0  0  0  0  0  0  0  0  0  0  0
  -37.5153   61.1916   71.7361 H   0  0  0  0  0  0  0  0  0  0  0  0
  -35.7898   59.8137   73.7507 H   0  0  0  0  0  0  0  0  0  0  0  0
  -36.8718   61.1994   74.0426 H   0  0  0  0  0  0  0  0  0  0  0  0
  -33.3634   62.2536   59.0236 H   0  0  0  0  0  0  0  0  0  0  0  0
  -34.4774   61.2266   72.2441 H   0  0  0  0  0  0  0  0  0  0  0  0
  -34.5807   61.9126   73.8808 H   0  0  0  0  0  0  0  0  0  0  0  0
  -36.1831   62.8218   71.5187 H   0  0  0  0  0  0  0  0  0  0  0  0
  -34.7616   63.6347   72.2142 H   0  0  0  0  0  0  0  0  0  0  0  0
  -37.3640   63.1980   73.6023 H   0  0  0  0  0  0  0  0  0  0  0  0
  -36.7539   64.7227   72.8729 H   0  0  0  0  0  0  0  0  0  0  0  0
  -35.5586   63.3379   75.2109 H   0  0  0  0  0  0  0  0  0  0  0  0
  -36.6083   64.7758   75.2409 H   0  0  0  0  0  0  0  0  0  0  0  0
  -32.2422   66.4079   65.6898 H   0  0  0  0  0  0  0  0  0  0  0  0
  -34.9691   66.0339   74.0289 H   0  0  0  0  0  0  0  0  0  0  0  0
  -33.9205   64.5833   73.9903 H   0  0  0  0  0  0  0  0  0  0  0  0
  -33.1422   66.2106   75.6208 H   0  0  0  0  0  0  0  0  0  0  0  0
  -33.6312   64.6880   76.3528 H   0  0  0  0  0  0  0  0  0  0  0  0
  -35.2798   67.1846   76.2374 H   0  0  0  0  0  0  0  0  0  0  0  0
  -34.3993   66.5148   77.6566 H   0  0  0  0  0  0  0  0  0  0  0  0
  -36.7748   65.3022   76.3482 H   0  0  0  0  0  0  0  0  0  0  0  0
  -36.7468   66.1380   77.8823 H   0  0  0  0  0  0  0  0  0  0  0  0
  -35.8742   64.6366   77.6894 H   0  0  0  0  0  0  0  0  0  0  0  0
  -42.9228   59.9482   62.5008 H   0  0  0  0  0  0  0  0  0  0  0  0
  -41.7149   59.7236   61.2883 H   0  0  0  0  0  0  0  0  0  0  0  0
  -43.2511   62.2880   61.7854 H   0  0  0  0  0  0  0  0  0  0  0  0
  -43.5318   61.1834   60.4562 H   0  0  0  0  0  0  0  0  0  0  0  0
  -42.1916   63.0783   59.7449 H   0  0  0  0  0  0  0  0  0  0  0  0
  -41.2725   61.5352   59.6919 H   0  0  0  0  0  0  0  0  0  0  0  0
  -40.0623   62.1447   61.6260 H   0  0  0  0  0  0  0  0  0  0  0  0
  -40.9535   63.6235   61.7853 H   0  0  0  0  0  0  0  0  0  0  0  0
  -38.8241   64.0072   60.6248 H   0  0  0  0  0  0  0  0  0  0  0  0
  -40.2012   64.3083   59.5523 H   0  0  0  0  0  0  0  0  0  0  0  0
  -38.4261   63.1219   58.3962 H   0  0  0  0  0  0  0  0  0  0  0  0
  -39.9136   62.1518   58.5521 H   0  0  0  0  0  0  0  0  0  0  0  0
  -38.9261   60.8652   60.3176 H   0  0  0  0  0  0  0  0  0  0  0  0
  -37.4485   61.8367   60.1978 H   0  0  0  0  0  0  0  0  0  0  0  0
  -37.0463   60.9922   57.9605 H   0  0  0  0  0  0  0  0  0  0  0  0
  -38.5225   60.0448   58.0400 H   0  0  0  0  0  0  0  0  0  0  0  0
  -36.1405   59.7264   59.8346 H   0  0  0  0  0  0  0  0  0  0  0  0
  -36.6171   58.6661   58.4749 H   0  0  0  0  0  0  0  0  0  0  0  0
  -38.1691   59.0453   60.9854 H   0  0  0  0  0  0  0  0  0  0  0  0
  -37.1340   57.6676   60.5901 H   0  0  0  0  0  0  0  0  0  0  0  0
  -39.4574   57.1589   60.1997 H   0  0  0  0  0  0  0  0  0  0  0  0
  -38.4837   57.1883   58.6904 H   0  0  0  0  0  0  0  0  0  0  0  0
  -39.4506   59.2698   58.0610 H   0  0  0  0  0  0  0  0  0  0  0  0
  -40.3752   59.3417   59.5313 H   0  0  0  0  0  0  0  0  0  0  0  0
  -41.4718   57.2465   58.9442 H   0  0  0  0  0  0  0  0  0  0  0  0
  -40.4993   57.2732   57.4093 H   0  0  0  0  0  0  0  0  0  0  0  0
  -41.7313   59.0770   56.5992 H   0  0  0  0  0  0  0  0  0  0  0  0
  -42.6669   59.1588   58.0855 H   0  0  0  0  0  0  0  0  0  0  0  0
  -43.5511   56.9343   57.6678 H   0  0  0  0  0  0  0  0  0  0  0  0
  -42.5942   56.8739   56.1625 H   0  0  0  0  0  0  0  0  0  0  0  0
  -44.9403   57.3038   55.7088 H   0  0  0  0  0  0  0  0  0  0  0  0
  -43.8841   58.6518   55.2399 H   0  0  0  0  0  0  0  0  0  0  0  0
  -45.5997   58.5519   57.6920 H   0  0  0  0  0  0  0  0  0  0  0  0
  -45.9248   59.4824   56.2493 H   0  0  0  0  0  0  0  0  0  0  0  0
  -44.5343   59.8601   57.2375 H   0  0  0  0  0  0  0  0  0  0  0  0
  -37.6838   63.6979   62.6313 H   0  0  0  0  0  0  0  0  0  0  0  0
  -35.1546   62.4180   63.6243 H   0  0  0  0  0  0  0  0  0  0  0  0
  -35.7427   65.3038   63.2423 H   0  0  0  0  0  0  0  0  0  0  0  0
  -33.9800   65.0706   61.4887 H   0  0  0  0  0  0  0  0  0  0  0  0
  -36.3046   64.5020   60.7512 H   0  0  0  0  0  0  0  0  0  0  0  0
  -35.3964   63.2841   58.8158 H   0  0  0  0  0  0  0  0  0  0  0  0
  -34.1517   64.3711   59.3871 H   0  0  0  0  0  0  0  0  0  0  0  0
  1  4  1  0  0  0  0
  1 31  1  0  0  0  0
  1 56  1  0  0  0  0
  2  3  1  0  0  0  0
  2  4  1  0  0  0  0
  2 57  1  0  0  0  0
  2 58  1  0  0  0  0
  3 49  1  0  0  0  0
  4  6  1  0  0  0  0
  4 59  1  1  0  0  0
  5  6  1  0  0  0  0
  5 60  1  0  0  0  0
  6  8  1  0  0  0  0
  6 61  1  1  0  0  0
  7 31  2  0  0  0  0
  8  9  2  0  0  0  0
  8 62  1  0  0  0  0
  9 11  1  0  0  0  0
  9 63  1  0  0  0  0
 10 50  1  0  0  0  0
 10 64  1  0  0  0  0
 11 13  1  0  0  0  0
 11 65  1  0  0  0  0
 11 66  1  0  0  0  0
 12 51  1  0  0  0  0
 12 55  1  0  0  0  0
 13 15  1  0  0  0  0
 13 67  1  0  0  0  0
 13 68  1  0  0  0  0
 14 55  1  0  0  0  0
 14 69  1  0  0  0  0
 15 17  1  0  0  0  0
 15 70  1  0  0  0  0
 15 71  1  0  0  0  0
 16 52  1  0  0  0  0
 16 72  1  0  0  0  0
 17 19  1  0  0  0  0
 17 73  1  0  0  0  0
 17 74  1  0  0  0  0
 18 49  1  0  0  0  0
 18 53  1  0  0  0  0
 19 21  1  0  0  0  0
 19 75  1  0  0  0  0
 19 76  1  0  0  0  0
 20 54  1  0  0  0  0
 20 77  1  0  0  0  0
 21 22  1  0  0  0  0
 21 78  1  0  0  0  0
 21 79  1  0  0  0  0
 22 23  1  0  0  0  0
 22 80  1  0  0  0  0
 22 81  1  0  0  0  0
 23 25  1  0  0  0  0
 23 82  1  0  0  0  0
 23 83  1  0  0  0  0
 24 55  1  0  0  0  0
 25 27  1  0  0  0  0
 25 84  1  0  0  0  0
 25 85  1  0  0  0  0
 26 55  1  0  0  0  0
 26 86  1  0  0  0  0
 27 28  1  0  0  0  0
 27 87  1  0  0  0  0
 27 88  1  0  0  0  0
 28 29  1  0  0  0  0
 28 89  1  0  0  0  0
 28 90  1  0  0  0  0
 29 30  1  0  0  0  0
 29 91  1  0  0  0  0
 29 92  1  0  0  0  0
 30 93  1  0  0  0  0
 30 94  1  0  0  0  0
 30 95  1  0  0  0  0
 31 32  1  0  0  0  0
 32 33  1  0  0  0  0
 32 96  1  0  0  0  0
 32 97  1  0  0  0  0
 33 34  1  0  0  0  0
 33 98  1  0  0  0  0
 33 99  1  0  0  0  0
 34 35  1  0  0  0  0
 34100  1  0  0  0  0
 34101  1  0  0  0  0
 35 36  1  0  0  0  0
 35102  1  0  0  0  0
 35103  1  0  0  0  0
 36 37  1  0  0  0  0
 36104  1  0  0  0  0
 36105  1  0  0  0  0
 37 38  1  0  0  0  0
 37106  1  0  0  0  0
 37107  1  0  0  0  0
 38 39  1  0  0  0  0
 38108  1  0  0  0  0
 38109  1  0  0  0  0
 39 40  1  0  0  0  0
 39110  1  0  0  0  0
 39111  1  0  0  0  0
 40 41  1  0  0  0  0
 40112  1  0  0  0  0
 40113  1  0  0  0  0
 41 42  1  0  0  0  0
 41114  1  0  0  0  0
 41115  1  0  0  0  0
 42 43  1  0  0  0  0
 42116  1  0  0  0  0
 42117  1  0  0  0  0
 43 44  1  0  0  0  0
 43118  1  0  0  0  0
 43119  1  0  0  0  0
 44 45  1  0  0  0  0
 44120  1  0  0  0  0
 44121  1  0  0  0  0
 45 46  1  0  0  0  0
 45122  1  0  0  0  0
 45123  1  0  0  0  0
 46 47  1  0  0  0  0
 46124  1  0  0  0  0
 46125  1  0  0  0  0
 47 48  1  0  0  0  0
 47126  1  0  0  0  0
 47127  1  0  0  0  0
 48128  1  0  0  0  0
 48129  1  0  0  0  0
 48130  1  0  0  0  0
 49 50  1  0  0  0  0
 49131  1  6  0  0  0
 50 51  1  0  0  0  0
 50132  1  1  0  0  0
 51 52  1  0  0  0  0
 51133  1  6  0  0  0
 52 53  1  0  0  0  0
 52134  1  6  0  0  0
 53 54  1  0  0  0  0
 53135  1  6  0  0  0
 54136  1  0  0  0  0
 54137  1  0  0  0  0
M  CHG  1  24  -1
M  END
$$$$
/media/chris/experiments/cd1a-new-docking/inputs/ligands/1onq_ligand.pdb
 OpenBabel06222310383D

137137  0  0  1  0  0  0  0  0999 V2000
  -40.4920   60.2280   63.6270 N   0  0  0  0  0  0  0  0  0  0  0  0
  -38.5950   61.7730   64.2860 C   0  0  0  0  0  0  0  0  0  0  0  0
  -37.5441   62.0867   65.2349 O   0  0  0  0  0  0  0  0  0  0  0  0
  -39.4590   60.5300   64.5980 C   0  0  1  0  0  0  0  0  0  0  0  0
  -40.7577   59.2290   66.0180 O   0  0  0  0  0  0  0  0  0  0  0  0
  -40.2280   60.5370   65.9080 C   0  0  2  0  0  0  0  0  0  0  0  0
  -41.5248   58.9216   62.0861 O   0  0  0  0  0  0  0  0  0  0  0  0
  -41.3266   61.6007   65.8452 C   0  0  0  0  0  0  0  0  0  0  0  0
  -41.3921   62.6366   66.6990 C   0  0  0  0  0  0  0  0  0  0  0  0
  -37.5806   60.0646   67.2565 O   0  0  0  0  0  0  0  0  0  0  0  0
  -42.5217   63.6569   66.5713 C   0  0  0  0  0  0  0  0  0  0  0  0
  -36.0104   57.5670   66.9984 O   0  0  0  0  0  0  0  0  0  0  0  0
  -42.9351   64.2968   67.9046 C   0  0  0  0  0  0  0  0  0  0  0  0
  -38.2735   57.9493   68.2022 O   0  0  0  0  0  0  0  0  0  0  0  0
  -41.8322   65.0836   68.6366 C   0  0  0  0  0  0  0  0  0  0  0  0
  -35.6857   57.8125   64.3008 O   0  0  0  0  0  0  0  0  0  0  0  0
  -42.3635   65.6632   69.9697 C   0  0  0  0  0  0  0  0  0  0  0  0
  -35.6754   60.8382   64.3212 O   0  0  0  0  0  0  0  0  0  0  0  0
  -41.3395   66.4920   70.7858 C   0  0  0  0  0  0  0  0  0  0  0  0
  -32.7832   58.6087   63.6489 O   0  0  0  0  0  0  0  0  0  0  0  0
  -40.0690   65.7080   71.1906 C   0  0  0  0  0  0  0  0  0  0  0  0
  -39.0663   66.5415   72.0176 C   0  0  0  0  0  0  0  0  0  0  0  0
  -39.6371   67.0559   73.3445 C   0  0  0  0  0  0  0  0  0  0  0  0
  -36.2081   58.0655   69.4709 O   0  5  0  0  0  0  0  0  0  0  0  0
  -40.0975   65.9893   74.3358 C   0  0  0  0  0  0  0  0  0  0  0  0
  -37.0865   55.9195   68.7655 O   0  0  0  0  0  0  0  0  0  0  0  0
  -38.9777   65.0328   74.7909 C   0  0  0  0  0  0  0  0  0  0  0  0
  -38.2959   64.2402   73.6653 C   0  0  0  0  0  0  0  0  0  0  0  0
  -37.2148   63.3107   74.2241 C   0  0  0  0  0  0  0  0  0  0  0  0
  -36.0866   63.9736   74.9944 C   0  0  0  0  0  0  0  0  0  0  0  0
  -40.6403   59.1136   62.8978 C   0  0  0  0  0  0  0  0  0  0  0  0
  -39.6041   58.0550   63.1330 C   0  0  0  0  0  0  0  0  0  0  0  0
  -39.9494   56.8954   62.1986 C   0  0  0  0  0  0  0  0  0  0  0  0
  -38.9479   55.7583   62.3862 C   0  0  0  0  0  0  0  0  0  0  0  0
  -39.1521   54.5437   61.5136 C   0  0  0  0  0  0  0  0  0  0  0  0
  -38.0672   53.5327   61.8698 C   0  0  0  0  0  0  0  0  0  0  0  0
  -36.6507   54.0826   61.6549 C   0  0  0  0  0  0  0  0  0  0  0  0
  -35.5275   53.0835   61.9879 C   0  0  0  0  0  0  0  0  0  0  0  0
  -35.5684   52.6012   63.4546 C   0  0  0  0  0  0  0  0  0  0  0  0
  -35.4367   53.7854   64.4164 C   0  0  0  0  0  0  0  0  0  0  0  0
  -35.4481   53.4193   65.8956 C   0  0  0  0  0  0  0  0  0  0  0  0
  -36.7277   52.7043   66.3035 C   0  0  0  0  0  0  0  0  0  0  0  0
  -37.0107   51.3781   65.5939 C   0  0  0  0  0  0  0  0  0  0  0  0
  -35.8684   50.4199   65.9030 C   0  0  0  0  0  0  0  0  0  0  0  0
  -35.9026   49.0247   65.2970 C   0  0  0  0  0  0  0  0  0  0  0  0
  -34.6795   48.2042   65.7362 C   0  0  0  0  0  0  0  0  0  0  0  0
  -34.6235   46.7798   65.1539 C   0  0  0  0  0  0  0  0  0  0  0  0
  -34.5636   46.7529   63.6284 C   0  0  0  0  0  0  0  0  0  0  0  0
  -36.4503   61.1334   65.5086 C   0  0  2  0  0  0  0  0  0  0  0  0
  -36.8674   59.7764   66.0936 C   0  0  1  0  0  0  0  0  0  0  0  0
  -35.6748   58.8694   66.4682 C   0  0  2  0  0  0  0  0  0  0  0  0
  -34.9197   58.6193   65.1921 C   0  0  2  0  0  0  0  0  0  0  0  0
  -34.5533   59.9423   64.5442 C   0  0  1  0  0  0  0  0  0  0  0  0
  -33.8212   59.4704   63.2899 C   0  0  0  0  0  0  0  0  0  0  0  0
  -36.9180   57.3486   68.3770 S   0  0  0  0  0  0  0  0  0  0  0  0
  -41.1688   60.9288   63.4857 H   0  0  0  0  0  0  0  0  0  0  0  0
  -38.1357   61.6183   63.3320 H   0  0  0  0  0  0  0  0  0  0  0  0
  -39.2690   62.6030   64.3261 H   0  0  0  0  0  0  0  0  0  0  0  0
  -38.6677   59.8099   64.6092 H   0  0  0  0  0  0  0  0  0  0  0  0
  -40.0308   58.5878   66.0547 H   0  0  0  0  0  0  0  0  0  0  0  0
  -39.6247   60.7776   66.7583 H   0  0  0  0  0  0  0  0  0  0  0  0
  -42.0502   61.5188   65.1139 H   0  0  0  0  0  0  0  0  0  0  0  0
  -40.6808   62.7424   67.4391 H   0  0  0  0  0  0  0  0  0  0  0  0
  -38.3351   60.6345   67.0402 H   0  0  0  0  0  0  0  0  0  0  0  0
  -43.3754   63.1642   66.1549 H   0  0  0  0  0  0  0  0  0  0  0  0
  -42.1584   64.4464   65.9471 H   0  0  0  0  0  0  0  0  0  0  0  0
  -43.2687   63.5154   68.5551 H   0  0  0  0  0  0  0  0  0  0  0  0
  -43.6930   65.0123   67.6628 H   0  0  0  0  0  0  0  0  0  0  0  0
  -38.1839   58.8813   67.9487 H   0  0  0  0  0  0  0  0  0  0  0  0
  -41.5008   65.8867   68.0121 H   0  0  0  0  0  0  0  0  0  0  0  0
  -41.0211   64.4192   68.8504 H   0  0  0  0  0  0  0  0  0  0  0  0
  -35.9083   56.9738   64.7342 H   0  0  0  0  0  0  0  0  0  0  0  0
  -42.6885   64.8461   70.5793 H   0  0  0  0  0  0  0  0  0  0  0  0
  -43.1492   66.3400   69.7060 H   0  0  0  0  0  0  0  0  0  0  0  0
  -41.8204   66.8355   71.6777 H   0  0  0  0  0  0  0  0  0  0  0  0
  -41.0183   67.2932   70.1534 H   0  0  0  0  0  0  0  0  0  0  0  0
  -32.3198   58.3104   62.8506 H   0  0  0  0  0  0  0  0  0  0  0  0
  -39.5786   65.3750   70.2998 H   0  0  0  0  0  0  0  0  0  0  0  0
  -40.3859   64.8941   71.8087 H   0  0  0  0  0  0  0  0  0  0  0  0
  -38.7631   67.3837   71.4314 H   0  0  0  0  0  0  0  0  0  0  0  0
  -38.2481   65.8956   72.2593 H   0  0  0  0  0  0  0  0  0  0  0  0
  -40.4781   67.6780   73.1195 H   0  0  0  0  0  0  0  0  0  0  0  0
  -38.8297   67.5669   73.8261 H   0  0  0  0  0  0  0  0  0  0  0  0
  -40.8680   65.4092   73.8725 H   0  0  0  0  0  0  0  0  0  0  0  0
  -40.4391   66.5045   75.2092 H   0  0  0  0  0  0  0  0  0  0  0  0
  -37.5488   55.4443   68.0574 H   0  0  0  0  0  0  0  0  0  0  0  0
  -39.4009   64.3318   75.4797 H   0  0  0  0  0  0  0  0  0  0  0  0
  -38.2172   65.6500   75.2218 H   0  0  0  0  0  0  0  0  0  0  0  0
  -37.8463   64.9258   72.9776 H   0  0  0  0  0  0  0  0  0  0  0  0
  -39.0354   63.6445   73.1722 H   0  0  0  0  0  0  0  0  0  0  0  0
  -36.7807   62.7838   73.4001 H   0  0  0  0  0  0  0  0  0  0  0  0
  -37.7158   62.6868   74.9345 H   0  0  0  0  0  0  0  0  0  0  0  0
  -35.5381   64.6180   74.3397 H   0  0  0  0  0  0  0  0  0  0  0  0
  -35.4327   63.2226   75.3860 H   0  0  0  0  0  0  0  0  0  0  0  0
  -36.4941   64.5472   75.8006 H   0  0  0  0  0  0  0  0  0  0  0  0
  -39.6324   57.7298   64.1520 H   0  0  0  0  0  0  0  0  0  0  0  0
  -38.6196   58.4273   62.9406 H   0  0  0  0  0  0  0  0  0  0  0  0
  -39.9144   57.2348   61.1845 H   0  0  0  0  0  0  0  0  0  0  0  0
  -40.9321   56.5397   62.4281 H   0  0  0  0  0  0  0  0  0  0  0  0
  -39.0012   55.4407   63.4066 H   0  0  0  0  0  0  0  0  0  0  0  0
  -37.9985   56.1612   62.1010 H   0  0  0  0  0  0  0  0  0  0  0  0
  -39.0714   54.8175   60.4824 H   0  0  0  0  0  0  0  0  0  0  0  0
  -40.1235   54.1247   61.6739 H   0  0  0  0  0  0  0  0  0  0  0  0
  -38.1939   52.6647   61.2572 H   0  0  0  0  0  0  0  0  0  0  0  0
  -38.1697   53.3021   62.9097 H   0  0  0  0  0  0  0  0  0  0  0  0
  -36.5278   54.9448   62.2764 H   0  0  0  0  0  0  0  0  0  0  0  0
  -36.5633   54.3065   60.6122 H   0  0  0  0  0  0  0  0  0  0  0  0
  -34.5849   53.5578   61.8106 H   0  0  0  0  0  0  0  0  0  0  0  0
  -35.6650   52.2256   61.3635 H   0  0  0  0  0  0  0  0  0  0  0  0
  -34.7607   51.9199   63.6232 H   0  0  0  0  0  0  0  0  0  0  0  0
  -36.5056   52.1161   63.6318 H   0  0  0  0  0  0  0  0  0  0  0  0
  -36.2522   54.4535   64.2337 H   0  0  0  0  0  0  0  0  0  0  0  0
  -34.4785   54.2212   64.2241 H   0  0  0  0  0  0  0  0  0  0  0  0
  -35.3559   54.3157   66.4727 H   0  0  0  0  0  0  0  0  0  0  0  0
  -34.6297   52.7536   66.0745 H   0  0  0  0  0  0  0  0  0  0  0  0
  -37.5477   53.3627   66.1061 H   0  0  0  0  0  0  0  0  0  0  0  0
  -36.6031   52.4574   67.3371 H   0  0  0  0  0  0  0  0  0  0  0  0
  -37.0733   51.5385   64.5379 H   0  0  0  0  0  0  0  0  0  0  0  0
  -37.9391   50.9683   65.9331 H   0  0  0  0  0  0  0  0  0  0  0  0
  -35.8355   50.3011   66.9659 H   0  0  0  0  0  0  0  0  0  0  0  0
  -35.0139   50.8791   65.4515 H   0  0  0  0  0  0  0  0  0  0  0  0
  -35.9046   49.1064   64.2301 H   0  0  0  0  0  0  0  0  0  0  0  0
  -36.7871   48.5269   65.6359 H   0  0  0  0  0  0  0  0  0  0  0  0
  -34.6935   48.1287   66.8034 H   0  0  0  0  0  0  0  0  0  0  0  0
  -33.8183   48.7190   65.3644 H   0  0  0  0  0  0  0  0  0  0  0  0
  -35.4978   46.2495   65.4689 H   0  0  0  0  0  0  0  0  0  0  0  0
  -33.7245   46.3252   65.5145 H   0  0  0  0  0  0  0  0  0  0  0  0
  -35.4493   47.2008   63.2287 H   0  0  0  0  0  0  0  0  0  0  0  0
  -34.4935   45.7395   63.2921 H   0  0  0  0  0  0  0  0  0  0  0  0
  -33.7061   47.2993   63.2954 H   0  0  0  0  0  0  0  0  0  0  0  0
  -35.8838   61.6578   66.2495 H   0  0  0  0  0  0  0  0  0  0  0  0
  -37.4312   59.2434   65.3568 H   0  0  0  0  0  0  0  0  0  0  0  0
  -35.1395   59.3811   67.2406 H   0  0  0  0  0  0  0  0  0  0  0  0
  -34.0200   58.0873   65.4213 H   0  0  0  0  0  0  0  0  0  0  0  0
  -33.9522   60.5771   65.1611 H   0  0  0  0  0  0  0  0  0  0  0  0
  -34.5068   58.9548   62.6503 H   0  0  0  0  0  0  0  0  0  0  0  0
  -33.4177   60.3170   62.7747 H   0  0  0  0  0  0  0  0  0  0  0  0
  1  4  1  0  0  0  0
  1 31  1  0  0  0  0
  1 56  1  0  0  0  0
  2  3  1  0  0  0  0
  2  4  1  0  0  0  0
  2 57  1  0  0  0  0
  2 58  1  0  0  0  0
  3 49  1  0  0  0  0
  4  6  1  0  0  0  0
  4 59  1  1  0  0  0
  5  6  1  0  0  0  0
  5 60  1  0  0  0  0
  6  8  1  0  0  0  0
  6 61  1  1  0  0  0
  7 31  2  0  0  0  0
  8  9  2  0  0  0  0
  8 62  1  0  0  0  0
  9 11  1  0  0  0  0
  9 63  1  0  0  0  0
 10 50  1  0  0  0  0
 10 64  1  0  0  0  0
 11 13  1  0  0  0  0
 11 65  1  0  0  0  0
 11 66  1  0  0  0  0
 12 51  1  0  0  0  0
 12 55  1  0  0  0  0
 13 15  1  0  0  0  0
 13 67  1  0  0  0  0
 13 68  1  0  0  0  0
 14 55  1  0  0  0  0
 14 69  1  0  0  0  0
 15 17  1  0  0  0  0
 15 70  1  0  0  0  0
 15 71  1  0  0  0  0
 16 52  1  0  0  0  0
 16 72  1  0  0  0  0
 17 19  1  0  0  0  0
 17 73  1  0  0  0  0
 17 74  1  0  0  0  0
 18 49  1  0  0  0  0
 18 53  1  0  0  0  0
 19 21  1  0  0  0  0
 19 75  1  0  0  0  0
 19 76  1  0  0  0  0
 20 54  1  0  0  0  0
 20 77  1  0  0  0  0
 21 22  1  0  0  0  0
 21 78  1  0  0  0  0
 21 79  1  0  0  0  0
 22 23  1  0  0  0  0
 22 80  1  0  0  0  0
 22 81  1  0  0  0  0
 23 25  1  0  0  0  0
 23 82  1  0  0  0  0
 23 83  1  0  0  0  0
 24 55  1  0  0  0  0
 25 27  1  0  0  0  0
 25 84  1  0  0  0  0
 25 85  1  0  0  0  0
 26 55  1  0  0  0  0
 26 86  1  0  0  0  0
 27 28  1  0  0  0  0
 27 87  1  0  0  0  0
 27 88  1  0  0  0  0
 28 29  1  0  0  0  0
 28 89  1  0  0  0  0
 28 90  1  0  0  0  0
 29 30  1  0  0  0  0
 29 91  1  0  0  0  0
 29 92  1  0  0  0  0
 30 93  1  0  0  0  0
 30 94  1  0  0  0  0
 30 95  1  0  0  0  0
 31 32  1  0  0  0  0
 32 33  1  0  0  0  0
 32 96  1  0  0  0  0
 32 97  1  0  0  0  0
 33 34  1  0  0  0  0
 33 98  1  0  0  0  0
 33 99  1  0  0  0  0
 34 35  1  0  0  0  0
 34100  1  0  0  0  0
 34101  1  0  0  0  0
 35 36  1  0  0  0  0
 35102  1  0  0  0  0
 35103  1  0  0  0  0
 36 37  1  0  0  0  0
 36104  1  0  0  0  0
 36105  1  0  0  0  0
 37 38  1  0  0  0  0
 37106  1  0  0  0  0
 37107  1  0  0  0  0
 38 39  1  0  0  0  0
 38108  1  0  0  0  0
 38109  1  0  0  0  0
 39 40  1  0  0  0  0
 39110  1  0  0  0  0
 39111  1  0  0  0  0
 40 41  1  0  0  0  0
 40112  1  0  0  0  0
 40113  1  0  0  0  0
 41 42  1  0  0  0  0
 41114  1  0  0  0  0
 41115  1  0  0  0  0
 42 43  1  0  0  0  0
 42116  1  0  0  0  0
 42117  1  0  0  0  0
 43 44  1  0  0  0  0
 43118  1  0  0  0  0
 43119  1  0  0  0  0
 44 45  1  0  0  0  0
 44120  1  0  0  0  0
 44121  1  0  0  0  0
 45 46  1  0  0  0  0
 45122  1  0  0  0  0
 45123  1  0  0  0  0
 46 47  1  0  0  0  0
 46124  1  0  0  0  0
 46125  1  0  0  0  0
 47 48  1  0  0  0  0
 47126  1  0  0  0  0
 47127  1  0  0  0  0
 48128  1  0  0  0  0
 48129  1  0  0  0  0
 48130  1  0  0  0  0
 49 50  1  0  0  0  0
 49131  1  1  0  0  0
 50 51  1  0  0  0  0
 50132  1  6  0  0  0
 51 52  1  0  0  0  0
 51133  1  1  0  0  0
 52 53  1  0  0  0  0
 52134  1  1  0  0  0
 53 54  1  0  0  0  0
 53135  1  1  0  0  0
 54136  1  0  0  0  0
 54137  1  0  0  0  0
M  CHG  1  24  -1
M  END
$$$$
/media/chris/experiments/cd1a-new-docking/inputs/ligands/1onq_ligand.pdb
 OpenBabel06222310383D

137137  0  0  1  0  0  0  0  0999 V2000
  -40.4920   60.2280   63.6270 N   0  0  0  0  0  0  0  0  0  0  0  0
  -38.5950   61.7730   64.2860 C   0  0  0  0  0  0  0  0  0  0  0  0
  -39.2927   63.0412   64.1953 O   0  0  0  0  0  0  0  0  0  0  0  0
  -39.4590   60.5300   64.5980 C   0  0  1  0  0  0  0  0  0  0  0  0
  -39.2569   60.8461   66.8904 O   0  0  0  0  0  0  0  0  0  0  0  0
  -40.2280   60.5370   65.9080 C   0  0  2  0  0  0  0  0  0  0  0  0
  -41.4675   58.3885   64.5282 O   0  0  0  0  0  0  0  0  0  0  0  0
  -40.8583   59.1606   66.1332 C   0  0  0  0  0  0  0  0  0  0  0  0
  -40.1348   58.0332   66.2415 C   0  0  0  0  0  0  0  0  0  0  0  0
  -40.3964   65.2906   62.8172 O   0  0  0  0  0  0  0  0  0  0  0  0
  -40.8391   56.6963   66.4649 C   0  0  0  0  0  0  0  0  0  0  0  0
  -39.3931   68.0416   63.2594 O   0  0  0  0  0  0  0  0  0  0  0  0
  -40.0956   55.4940   65.8648 C   0  0  0  0  0  0  0  0  0  0  0  0
  -40.3295   68.0012   60.8431 O   0  0  0  0  0  0  0  0  0  0  0  0
  -39.8594   55.5478   64.3441 C   0  0  0  0  0  0  0  0  0  0  0  0
  -38.1858   67.4358   65.6297 O   0  0  0  0  0  0  0  0  0  0  0  0
  -39.1202   54.2779   63.8579 C   0  0  0  0  0  0  0  0  0  0  0  0
  -37.5407   64.5807   64.8630 O   0  0  0  0  0  0  0  0  0  0  0  0
  -37.7335   54.0311   64.5043 C   0  0  0  0  0  0  0  0  0  0  0  0
  -35.1272   67.3720   65.2776 O   0  0  0  0  0  0  0  0  0  0  0  0
  -37.7735   53.8511   66.0401 C   0  0  0  0  0  0  0  0  0  0  0  0
  -36.3831   53.6233   66.6716 C   0  0  0  0  0  0  0  0  0  0  0  0
  -36.4197   53.4273   68.1920 C   0  0  0  0  0  0  0  0  0  0  0  0
  -41.1616   69.6455   62.4221 O   0  5  0  0  0  0  0  0  0  0  0  0
  -37.2260   52.2320   68.6955 C   0  0  0  0  0  0  0  0  0  0  0  0
  -41.8523   67.3288   62.5967 O   0  0  0  0  0  0  0  0  0  0  0  0
  -38.7127   52.2643   68.2897 C   0  0  0  0  0  0  0  0  0  0  0  0
  -39.5553   51.0836   68.7956 C   0  0  0  0  0  0  0  0  0  0  0  0
  -41.0075   51.2026   68.3244 C   0  0  0  0  0  0  0  0  0  0  0  0
  -41.9547   50.1032   68.7713 C   0  0  0  0  0  0  0  0  0  0  0  0
  -41.3839   59.2282   63.6532 C   0  0  0  0  0  0  0  0  0  0  0  0
  -42.3351   59.1918   62.4940 C   0  0  0  0  0  0  0  0  0  0  0  0
  -41.9685   60.3730   61.5954 C   0  0  0  0  0  0  0  0  0  0  0  0
  -42.9053   60.4223   60.3907 C   0  0  0  0  0  0  0  0  0  0  0  0
  -42.6536   61.5326   59.3996 C   0  0  0  0  0  0  0  0  0  0  0  0
  -43.6994   61.4112   58.2962 C   0  0  0  0  0  0  0  0  0  0  0  0
  -43.5401   62.4813   57.2080 C   0  0  0  0  0  0  0  0  0  0  0  0
  -44.5898   62.4015   56.0844 C   0  0  0  0  0  0  0  0  0  0  0  0
  -44.3899   63.4811   54.9981 C   0  0  0  0  0  0  0  0  0  0  0  0
  -45.4690   63.3663   53.9176 C   0  0  0  0  0  0  0  0  0  0  0  0
  -45.3559   64.3775   52.7832 C   0  0  0  0  0  0  0  0  0  0  0  0
  -46.4668   64.2188   51.7556 C   0  0  0  0  0  0  0  0  0  0  0  0
  -46.5512   62.8563   51.0636 C   0  0  0  0  0  0  0  0  0  0  0  0
  -45.2305   62.6030   50.3492 C   0  0  0  0  0  0  0  0  0  0  0  0
  -44.7778   63.5886   49.2821 C   0  0  0  0  0  0  0  0  0  0  0  0
  -45.8107   63.6840   48.1481 C   0  0  0  0  0  0  0  0  0  0  0  0
  -46.0916   62.3531   47.4265 C   0  0  0  0  0  0  0  0  0  0  0  0
  -47.1082   62.4826   46.2945 C   0  0  0  0  0  0  0  0  0  0  0  0
  -38.5707   64.2916   63.8868 C   0  0  2  0  0  0  0  0  0  0  0  0
  -39.4297   65.5603   63.7851 C   0  0  1  0  0  0  0  0  0  0  0  0
  -38.6385   66.8115   63.3449 C   0  0  2  0  0  0  0  0  0  0  0  0
  -37.5890   67.0373   64.3980 C   0  0  2  0  0  0  0  0  0  0  0  0
  -36.7643   65.7760   64.5802 C   0  0  1  0  0  0  0  0  0  0  0  0
  -35.7901   66.2089   65.6736 C   0  0  0  0  0  0  0  0  0  0  0  0
  -40.7155   68.2343   62.2663 S   0  0  0  0  0  0  0  0  0  0  0  0
  -40.5449   60.8326   62.8518 H   0  0  0  0  0  0  0  0  0  0  0  0
  -37.8608   61.8607   65.0594 H   0  0  0  0  0  0  0  0  0  0  0  0
  -38.1940   61.6005   63.3091 H   0  0  0  0  0  0  0  0  0  0  0  0
  -38.6677   59.8099   64.6092 H   0  0  0  0  0  0  0  0  0  0  0  0
  -38.8837   61.7234   66.7113 H   0  0  0  0  0  0  0  0  0  0  0  0
  -41.0317   61.2430   65.9299 H   0  0  0  0  0  0  0  0  0  0  0  0
  -41.8857   59.0952   66.2050 H   0  0  0  0  0  0  0  0  0  0  0  0
  -39.1057   58.0706   66.1740 H   0  0  0  0  0  0  0  0  0  0  0  0
  -40.9043   64.5062   63.0773 H   0  0  0  0  0  0  0  0  0  0  0  0
  -41.8105   56.7485   66.0191 H   0  0  0  0  0  0  0  0  0  0  0  0
  -40.8807   56.5397   67.5225 H   0  0  0  0  0  0  0  0  0  0  0  0
  -40.6663   54.6144   66.0782 H   0  0  0  0  0  0  0  0  0  0  0  0
  -39.1235   55.4988   66.3119 H   0  0  0  0  0  0  0  0  0  0  0  0
  -39.5894   68.5830   60.6093 H   0  0  0  0  0  0  0  0  0  0  0  0
  -39.2682   56.4087   64.1111 H   0  0  0  0  0  0  0  0  0  0  0  0
  -40.8075   55.6028   63.8513 H   0  0  0  0  0  0  0  0  0  0  0  0
  -38.7070   68.2420   65.4906 H   0  0  0  0  0  0  0  0  0  0  0  0
  -38.9819   54.3604   62.8001 H   0  0  0  0  0  0  0  0  0  0  0  0
  -39.7331   53.4497   64.1466 H   0  0  0  0  0  0  0  0  0  0  0  0
  -37.1052   54.8679   64.2806 H   0  0  0  0  0  0  0  0  0  0  0  0
  -37.3627   53.1140   64.0965 H   0  0  0  0  0  0  0  0  0  0  0  0
  -34.5092   67.6449   65.9736 H   0  0  0  0  0  0  0  0  0  0  0  0
  -38.3902   53.0063   66.2658 H   0  0  0  0  0  0  0  0  0  0  0  0
  -38.1609   54.7592   66.4527 H   0  0  0  0  0  0  0  0  0  0  0  0
  -35.7708   54.4738   66.4556 H   0  0  0  0  0  0  0  0  0  0  0  0
  -35.9928   52.7207   66.2499 H   0  0  0  0  0  0  0  0  0  0  0  0
  -36.8393   54.3109   68.6256 H   0  0  0  0  0  0  0  0  0  0  0  0
  -35.4079   53.2343   68.4816 H   0  0  0  0  0  0  0  0  0  0  0  0
  -37.1690   52.2134   69.7639 H   0  0  0  0  0  0  0  0  0  0  0  0
  -36.8007   51.3594   68.2455 H   0  0  0  0  0  0  0  0  0  0  0  0
  -41.5700   66.4061   62.4977 H   0  0  0  0  0  0  0  0  0  0  0  0
  -38.7639   52.2735   67.2210 H   0  0  0  0  0  0  0  0  0  0  0  0
  -39.1256   53.1401   68.7453 H   0  0  0  0  0  0  0  0  0  0  0  0
  -39.5346   51.0721   69.8653 H   0  0  0  0  0  0  0  0  0  0  0  0
  -39.1430   50.1779   68.4024 H   0  0  0  0  0  0  0  0  0  0  0  0
  -41.0028   51.2132   67.2545 H   0  0  0  0  0  0  0  0  0  0  0  0
  -41.3799   52.0990   68.7748 H   0  0  0  0  0  0  0  0  0  0  0  0
  -41.6396   49.1696   68.3540 H   0  0  0  0  0  0  0  0  0  0  0  0
  -42.9455   50.3277   68.4355 H   0  0  0  0  0  0  0  0  0  0  0  0
  -41.9463   50.0375   69.8393 H   0  0  0  0  0  0  0  0  0  0  0  0
  -43.3430   59.2890   62.8396 H   0  0  0  0  0  0  0  0  0  0  0  0
  -42.2640   58.2651   61.9637 H   0  0  0  0  0  0  0  0  0  0  0  0
  -40.9601   60.2605   61.2558 H   0  0  0  0  0  0  0  0  0  0  0  0
  -42.0643   61.2815   62.1525 H   0  0  0  0  0  0  0  0  0  0  0  0
  -43.9044   60.5317   60.7577 H   0  0  0  0  0  0  0  0  0  0  0  0
  -42.7320   59.5129   59.8542 H   0  0  0  0  0  0  0  0  0  0  0  0
  -41.6722   61.4356   58.9844 H   0  0  0  0  0  0  0  0  0  0  0  0
  -42.7217   62.4868   59.8788 H   0  0  0  0  0  0  0  0  0  0  0  0
  -44.6710   61.5097   58.7334 H   0  0  0  0  0  0  0  0  0  0  0  0
  -43.5692   60.4562   57.8315 H   0  0  0  0  0  0  0  0  0  0  0  0
  -42.5704   62.3718   56.7693 H   0  0  0  0  0  0  0  0  0  0  0  0
  -43.6745   63.4287   57.6869 H   0  0  0  0  0  0  0  0  0  0  0  0
  -45.5613   62.5262   56.5151 H   0  0  0  0  0  0  0  0  0  0  0  0
  -44.4834   61.4471   55.6124 H   0  0  0  0  0  0  0  0  0  0  0  0
  -43.4274   63.3533   54.5485 H   0  0  0  0  0  0  0  0  0  0  0  0
  -44.4606   64.4463   55.4545 H   0  0  0  0  0  0  0  0  0  0  0  0
  -46.4222   63.4978   54.3855 H   0  0  0  0  0  0  0  0  0  0  0  0
  -45.3435   62.4018   53.4716 H   0  0  0  0  0  0  0  0  0  0  0  0
  -44.4135   64.2428   52.2948 H   0  0  0  0  0  0  0  0  0  0  0  0
  -45.4398   65.3562   53.2075 H   0  0  0  0  0  0  0  0  0  0  0  0
  -46.3216   64.9616   50.9993 H   0  0  0  0  0  0  0  0  0  0  0  0
  -47.3813   64.3222   52.3013 H   0  0  0  0  0  0  0  0  0  0  0  0
  -47.3521   62.8595   50.3541 H   0  0  0  0  0  0  0  0  0  0  0  0
  -46.7354   62.0868   51.7839 H   0  0  0  0  0  0  0  0  0  0  0  0
  -45.3043   61.6436   49.8812 H   0  0  0  0  0  0  0  0  0  0  0  0
  -44.4949   62.6979   51.1204 H   0  0  0  0  0  0  0  0  0  0  0  0
  -43.8429   63.2615   48.8775 H   0  0  0  0  0  0  0  0  0  0  0  0
  -44.6740   64.5542   49.7314 H   0  0  0  0  0  0  0  0  0  0  0  0
  -45.4500   64.3862   47.4257 H   0  0  0  0  0  0  0  0  0  0  0  0
  -46.7324   63.9853   48.6005 H   0  0  0  0  0  0  0  0  0  0  0  0
  -46.4673   61.6516   48.1418 H   0  0  0  0  0  0  0  0  0  0  0  0
  -45.1703   62.0290   46.9894 H   0  0  0  0  0  0  0  0  0  0  0  0
  -48.0469   62.8063   46.6935 H   0  0  0  0  0  0  0  0  0  0  0  0
  -47.2322   61.5335   45.8162 H   0  0  0  0  0  0  0  0  0  0  0  0
  -46.7580   63.1987   45.5808 H   0  0  0  0  0  0  0  0  0  0  0  0
  -38.1706   64.0792   62.9174 H   0  0  0  0  0  0  0  0  0  0  0  0
  -39.8304   65.7822   64.7521 H   0  0  0  0  0  0  0  0  0  0  0  0
  -38.2799   66.6080   62.3576 H   0  0  0  0  0  0  0  0  0  0  0  0
  -36.9429   67.8280   64.0783 H   0  0  0  0  0  0  0  0  0  0  0  0
  -36.2694   65.4476   63.6902 H   0  0  0  0  0  0  0  0  0  0  0  0
  -36.3305   66.3975   66.5776 H   0  0  0  0  0  0  0  0  0  0  0  0
  -35.0741   65.4312   65.8394 H   0  0  0  0  0  0  0  0  0  0  0  0
  1  4  1  0  0  0  0
  1 31  1  0  0  0  0
  1 56  1  0  0  0  0
  2  3  1  0  0  0  0
  2  4  1  0  0  0  0
  2 57  1  0  0  0  0
  2 58  1  0  0  0  0
  3 49  1  0  0  0  0
  4  6  1  0  0  0  0
  4 59  1  1  0  0  0
  5  6  1  0  0  0  0
  5 60  1  0  0  0  0
  6  8  1  0  0  0  0
  6 61  1  6  0  0  0
  7 31  2  0  0  0  0
  8  9  2  0  0  0  0
  8 62  1  0  0  0  0
  9 11  1  0  0  0  0
  9 63  1  0  0  0  0
 10 50  1  0  0  0  0
 10 64  1  0  0  0  0
 11 13  1  0  0  0  0
 11 65  1  0  0  0  0
 11 66  1  0  0  0  0
 12 51  1  0  0  0  0
 12 55  1  0  0  0  0
 13 15  1  0  0  0  0
 13 67  1  0  0  0  0
 13 68  1  0  0  0  0
 14 55  1  0  0  0  0
 14 69  1  0  0  0  0
 15 17  1  0  0  0  0
 15 70  1  0  0  0  0
 15 71  1  0  0  0  0
 16 52  1  0  0  0  0
 16 72  1  0  0  0  0
 17 19  1  0  0  0  0
 17 73  1  0  0  0  0
 17 74  1  0  0  0  0
 18 49  1  0  0  0  0
 18 53  1  0  0  0  0
 19 21  1  0  0  0  0
 19 75  1  0  0  0  0
 19 76  1  0  0  0  0
 20 54  1  0  0  0  0
 20 77  1  0  0  0  0
 21 22  1  0  0  0  0
 21 78  1  0  0  0  0
 21 79  1  0  0  0  0
 22 23  1  0  0  0  0
 22 80  1  0  0  0  0
 22 81  1  0  0  0  0
 23 25  1  0  0  0  0
 23 82  1  0  0  0  0
 23 83  1  0  0  0  0
 24 55  1  0  0  0  0
 25 27  1  0  0  0  0
 25 84  1  0  0  0  0
 25 85  1  0  0  0  0
 26 55  1  0  0  0  0
 26 86  1  0  0  0  0
 27 28  1  0  0  0  0
 27 87  1  0  0  0  0
 27 88  1  0  0  0  0
 28 29  1  0  0  0  0
 28 89  1  0  0  0  0
 28 90  1  0  0  0  0
 29 30  1  0  0  0  0
 29 91  1  0  0  0  0
 29 92  1  0  0  0  0
 30 93  1  0  0  0  0
 30 94  1  0  0  0  0
 30 95  1  0  0  0  0
 31 32  1  0  0  0  0
 32 33  1  0  0  0  0
 32 96  1  0  0  0  0
 32 97  1  0  0  0  0
 33 34  1  0  0  0  0
 33 98  1  0  0  0  0
 33 99  1  0  0  0  0
 34 35  1  0  0  0  0
 34100  1  0  0  0  0
 34101  1  0  0  0  0
 35 36  1  0  0  0  0
 35102  1  0  0  0  0
 35103  1  0  0  0  0
 36 37  1  0  0  0  0
 36104  1  0  0  0  0
 36105  1  0  0  0  0
 37 38  1  0  0  0  0
 37106  1  0  0  0  0
 37107  1  0  0  0  0
 38 39  1  0  0  0  0
 38108  1  0  0  0  0
 38109  1  0  0  0  0
 39 40  1  0  0  0  0
 39110  1  0  0  0  0
 39111  1  0  0  0  0
 40 41  1  0  0  0  0
 40112  1  0  0  0  0
 40113  1  0  0  0  0
 41 42  1  0  0  0  0
 41114  1  0  0  0  0
 41115  1  0  0  0  0
 42 43  1  0  0  0  0
 42116  1  0  0  0  0
 42117  1  0  0  0  0
 43 44  1  0  0  0  0
 43118  1  0  0  0  0
 43119  1  0  0  0  0
 44 45  1  0  0  0  0
 44120  1  0  0  0  0
 44121  1  0  0  0  0
 45 46  1  0  0  0  0
 45122  1  0  0  0  0
 45123  1  0  0  0  0
 46 47  1  0  0  0  0
 46124  1  0  0  0  0
 46125  1  0  0  0  0
 47 48  1  0  0  0  0
 47126  1  0  0  0  0
 47127  1  0  0  0  0
 48128  1  0  0  0  0
 48129  1  0  0  0  0
 48130  1  0  0  0  0
 49 50  1  0  0  0  0
 49131  1  6  0  0  0
 50 51  1  0  0  0  0
 50132  1  1  0  0  0
 51 52  1  0  0  0  0
 51133  1  6  0  0  0
 52 53  1  0  0  0  0
 52134  1  6  0  0  0
 53 54  1  0  0  0  0
 53135  1  6  0  0  0
 54136  1  0  0  0  0
 54137  1  0  0  0  0
M  CHG  1  24  -1
M  END
$$$$
/media/chris/experiments/cd1a-new-docking/inputs/ligands/1onq_ligand.pdb
 OpenBabel06222310383D

137137  0  0  1  0  0  0  0  0999 V2000
  -40.4920   60.2280   63.6270 N   0  0  0  0  0  0  0  0  0  0  0  0
  -38.5950   61.7730   64.2860 C   0  0  0  0  0  0  0  0  0  0  0  0
  -37.8612   61.7550   63.0352 O   0  0  0  0  0  0  0  0  0  0  0  0
  -39.4590   60.5300   64.5980 C   0  0  1  0  0  0  0  0  0  0  0  0
  -39.2569   60.8461   66.8904 O   0  0  0  0  0  0  0  0  0  0  0  0
  -40.2280   60.5370   65.9080 C   0  0  2  0  0  0  0  0  0  0  0  0
  -40.6436   57.9696   63.7820 O   0  0  0  0  0  0  0  0  0  0  0  0
  -40.8583   59.1606   66.1332 C   0  0  0  0  0  0  0  0  0  0  0  0
  -41.7314   58.6062   65.2749 C   0  0  0  0  0  0  0  0  0  0  0  0
  -40.4867   62.7491   62.4913 O   0  0  0  0  0  0  0  0  0  0  0  0
  -42.3177   57.2272   65.5716 C   0  0  0  0  0  0  0  0  0  0  0  0
  -41.3164   63.5659   59.7683 O   0  0  0  0  0  0  0  0  0  0  0  0
  -43.8482   57.2164   65.6974 C   0  0  0  0  0  0  0  0  0  0  0  0
  -43.4033   65.0686   60.0896 O   0  0  0  0  0  0  0  0  0  0  0  0
  -44.6231   57.6655   64.4447 C   0  0  0  0  0  0  0  0  0  0  0  0
  -38.7607   63.8137   58.8462 O   0  0  0  0  0  0  0  0  0  0  0  0
  -44.3132   56.7378   63.2453 C   0  0  0  0  0  0  0  0  0  0  0  0
  -37.6382   61.6364   60.6224 O   0  0  0  0  0  0  0  0  0  0  0  0
  -45.0282   57.1073   61.9210 C   0  0  0  0  0  0  0  0  0  0  0  0
  -38.0898   61.4904   56.9396 O   0  0  0  0  0  0  0  0  0  0  0  0
  -46.5723   57.1078   62.0135 C   0  0  0  0  0  0  0  0  0  0  0  0
  -47.1291   58.1185   63.0395 C   0  0  0  0  0  0  0  0  0  0  0  0
  -46.7641   59.5757   62.7318 C   0  0  0  0  0  0  0  0  0  0  0  0
  -42.0156   64.5219   62.0039 O   0  5  0  0  0  0  0  0  0  0  0  0
  -47.2744   60.6193   63.7232 C   0  0  0  0  0  0  0  0  0  0  0  0
  -43.5096   62.8594   61.0666 O   0  0  0  0  0  0  0  0  0  0  0  0
  -46.7476   60.4286   65.1592 C   0  0  0  0  0  0  0  0  0  0  0  0
  -47.2563   61.4530   66.1847 C   0  0  0  0  0  0  0  0  0  0  0  0
  -48.7815   61.3956   66.3092 C   0  0  0  0  0  0  0  0  0  0  0  0
  -49.3722   60.0745   66.7688 C   0  0  0  0  0  0  0  0  0  0  0  0
  -40.9921   59.0290   63.2983 C   0  0  0  0  0  0  0  0  0  0  0  0
  -42.0683   59.0516   62.2538 C   0  0  0  0  0  0  0  0  0  0  0  0
  -41.5552   58.2106   61.0848 C   0  0  0  0  0  0  0  0  0  0  0  0
  -41.3002   56.7776   61.5456 C   0  0  0  0  0  0  0  0  0  0  0  0
  -40.7718   55.8279   60.4980 C   0  0  0  0  0  0  0  0  0  0  0  0
  -40.6059   54.4620   61.1558 C   0  0  0  0  0  0  0  0  0  0  0  0
  -39.6418   54.4919   62.3494 C   0  0  0  0  0  0  0  0  0  0  0  0
  -39.4353   53.1262   63.0296 C   0  0  0  0  0  0  0  0  0  0  0  0
  -38.4739   53.1957   64.2363 C   0  0  0  0  0  0  0  0  0  0  0  0
  -39.0226   54.1392   65.3104 C   0  0  0  0  0  0  0  0  0  0  0  0
  -38.1407   54.2954   66.5433 C   0  0  0  0  0  0  0  0  0  0  0  0
  -37.8979   52.9706   67.2510 C   0  0  0  0  0  0  0  0  0  0  0  0
  -37.1925   51.8898   66.4285 C   0  0  0  0  0  0  0  0  0  0  0  0
  -35.8218   52.4170   66.0260 C   0  0  0  0  0  0  0  0  0  0  0  0
  -35.7448   53.6916   65.1985 C   0  0  0  0  0  0  0  0  0  0  0  0
  -34.2855   54.0522   64.8787 C   0  0  0  0  0  0  0  0  0  0  0  0
  -33.3973   54.2772   66.1163 C   0  0  0  0  0  0  0  0  0  0  0  0
  -33.8982   55.3988   67.0234 C   0  0  0  0  0  0  0  0  0  0  0  0
  -38.5606   61.6540   61.7388 C   0  0  2  0  0  0  0  0  0  0  0  0
  -39.5794   62.7613   61.4326 C   0  0  1  0  0  0  0  0  0  0  0  0
  -40.3623   62.5383   60.1202 C   0  0  2  0  0  0  0  0  0  0  0  0
  -39.3395   62.5224   59.0179 C   0  0  2  0  0  0  0  0  0  0  0  0
  -38.2716   61.4876   59.3230 C   0  0  1  0  0  0  0  0  0  0  0  0
  -37.3507   61.6405   58.1144 C   0  0  0  0  0  0  0  0  0  0  0  0
  -42.5984   63.9931   60.7408 S   0  0  0  0  0  0  0  0  0  0  0  0
  -40.8737   60.9998   63.1496 H   0  0  0  0  0  0  0  0  0  0  0  0
  -39.2437   62.6238   64.2698 H   0  0  0  0  0  0  0  0  0  0  0  0
  -37.8479   61.7974   65.0516 H   0  0  0  0  0  0  0  0  0  0  0  0
  -38.6677   59.8099   64.6092 H   0  0  0  0  0  0  0  0  0  0  0  0
  -38.8837   61.7234   66.7113 H   0  0  0  0  0  0  0  0  0  0  0  0
  -41.0317   61.2430   65.9299 H   0  0  0  0  0  0  0  0  0  0  0  0
  -40.6011   58.6342   66.9828 H   0  0  0  0  0  0  0  0  0  0  0  0
  -42.0050   59.1109   64.4174 H   0  0  0  0  0  0  0  0  0  0  0  0
  -40.0119   62.8880   63.3257 H   0  0  0  0  0  0  0  0  0  0  0  0
  -41.9014   56.8750   66.4922 H   0  0  0  0  0  0  0  0  0  0  0  0
  -42.0696   56.5989   64.7418 H   0  0  0  0  0  0  0  0  0  0  0  0
  -44.1168   57.8688   66.5018 H   0  0  0  0  0  0  0  0  0  0  0  0
  -44.1209   56.1945   65.8589 H   0  0  0  0  0  0  0  0  0  0  0  0
  -42.8260   65.8165   59.8699 H   0  0  0  0  0  0  0  0  0  0  0  0
  -44.3387   58.6668   64.1965 H   0  0  0  0  0  0  0  0  0  0  0  0
  -45.6713   57.6172   64.6540 H   0  0  0  0  0  0  0  0  0  0  0  0
  -39.4595   64.4581   58.6526 H   0  0  0  0  0  0  0  0  0  0  0  0
  -44.6049   55.7436   63.5123 H   0  0  0  0  0  0  0  0  0  0  0  0
  -43.2653   56.8403   63.0546 H   0  0  0  0  0  0  0  0  0  0  0  0
  -44.7370   56.3993   61.1734 H   0  0  0  0  0  0  0  0  0  0  0  0
  -44.7340   58.1077   61.6811 H   0  0  0  0  0  0  0  0  0  0  0  0
  -37.5028   61.5878   56.1736 H   0  0  0  0  0  0  0  0  0  0  0  0
  -46.8947   56.1272   62.2953 H   0  0  0  0  0  0  0  0  0  0  0  0
  -46.9444   57.3979   61.0532 H   0  0  0  0  0  0  0  0  0  0  0  0
  -46.7395   57.8694   64.0044 H   0  0  0  0  0  0  0  0  0  0  0  0
  -48.1961   58.0487   62.9988 H   0  0  0  0  0  0  0  0  0  0  0  0
  -47.1637   59.8165   61.7689 H   0  0  0  0  0  0  0  0  0  0  0  0
  -45.6967   59.6229   62.7884 H   0  0  0  0  0  0  0  0  0  0  0  0
  -48.3429   60.5670   63.7469 H   0  0  0  0  0  0  0  0  0  0  0  0
  -46.9163   61.5692   63.3852 H   0  0  0  0  0  0  0  0  0  0  0  0
  -43.8942   62.5084   60.2482 H   0  0  0  0  0  0  0  0  0  0  0  0
  -45.6798   60.4909   65.1309 H   0  0  0  0  0  0  0  0  0  0  0  0
  -47.1120   59.4767   65.4849 H   0  0  0  0  0  0  0  0  0  0  0  0
  -46.9677   62.4345   65.8713 H   0  0  0  0  0  0  0  0  0  0  0  0
  -46.8280   61.2222   67.1377 H   0  0  0  0  0  0  0  0  0  0  0  0
  -49.1952   61.6205   65.3484 H   0  0  0  0  0  0  0  0  0  0  0  0
  -49.0309   62.1001   67.0749 H   0  0  0  0  0  0  0  0  0  0  0  0
  -49.1589   59.3170   66.0437 H   0  0  0  0  0  0  0  0  0  0  0  0
  -50.4318   60.1760   66.8773 H   0  0  0  0  0  0  0  0  0  0  0  0
  -48.9421   59.7993   67.7091 H   0  0  0  0  0  0  0  0  0  0  0  0
  -42.2523   60.0560   61.9341 H   0  0  0  0  0  0  0  0  0  0  0  0
  -42.9881   58.6617   62.6370 H   0  0  0  0  0  0  0  0  0  0  0  0
  -40.6430   58.6327   60.7180 H   0  0  0  0  0  0  0  0  0  0  0  0
  -42.2902   58.2042   60.3072 H   0  0  0  0  0  0  0  0  0  0  0  0
  -42.2252   56.3814   61.9093 H   0  0  0  0  0  0  0  0  0  0  0  0
  -40.5308   56.8461   62.2860 H   0  0  0  0  0  0  0  0  0  0  0  0
  -39.8273   56.1749   60.1341 H   0  0  0  0  0  0  0  0  0  0  0  0
  -41.4476   55.7671   59.6707 H   0  0  0  0  0  0  0  0  0  0  0  0
  -40.2277   53.7752   60.4277 H   0  0  0  0  0  0  0  0  0  0  0  0
  -41.5650   54.1618   61.5229 H   0  0  0  0  0  0  0  0  0  0  0  0
  -40.0300   55.1737   63.0770 H   0  0  0  0  0  0  0  0  0  0  0  0
  -38.6886   54.7916   61.9667 H   0  0  0  0  0  0  0  0  0  0  0  0
  -39.0322   52.4440   62.3105 H   0  0  0  0  0  0  0  0  0  0  0  0
  -40.3872   52.8021   63.3954 H   0  0  0  0  0  0  0  0  0  0  0  0
  -37.5213   53.5546   63.9066 H   0  0  0  0  0  0  0  0  0  0  0  0
  -38.3759   52.2161   64.6556 H   0  0  0  0  0  0  0  0  0  0  0  0
  -39.9730   53.7636   65.6277 H   0  0  0  0  0  0  0  0  0  0  0  0
  -39.0774   55.1072   64.8578 H   0  0  0  0  0  0  0  0  0  0  0  0
  -38.6186   54.9673   67.2253 H   0  0  0  0  0  0  0  0  0  0  0  0
  -37.1928   54.6736   66.2219 H   0  0  0  0  0  0  0  0  0  0  0  0
  -38.8477   52.5829   67.5549 H   0  0  0  0  0  0  0  0  0  0  0  0
  -37.2362   53.1938   68.0617 H   0  0  0  0  0  0  0  0  0  0  0  0
  -37.7667   51.6682   65.5532 H   0  0  0  0  0  0  0  0  0  0  0  0
  -37.0894   50.9946   67.0054 H   0  0  0  0  0  0  0  0  0  0  0  0
  -35.3405   51.6455   65.4621 H   0  0  0  0  0  0  0  0  0  0  0  0
  -35.3614   52.6814   66.9550 H   0  0  0  0  0  0  0  0  0  0  0  0
  -36.1911   54.4935   65.7486 H   0  0  0  0  0  0  0  0  0  0  0  0
  -36.2667   53.5329   64.2780 H   0  0  0  0  0  0  0  0  0  0  0  0
  -34.2829   54.9507   64.2978 H   0  0  0  0  0  0  0  0  0  0  0  0
  -33.8726   53.2148   64.3561 H   0  0  0  0  0  0  0  0  0  0  0  0
  -32.4099   54.5232   65.7856 H   0  0  0  0  0  0  0  0  0  0  0  0
  -33.4172   53.3736   66.6891 H   0  0  0  0  0  0  0  0  0  0  0  0
  -33.8929   56.3228   66.4840 H   0  0  0  0  0  0  0  0  0  0  0  0
  -33.2578   55.4802   67.8767 H   0  0  0  0  0  0  0  0  0  0  0  0
  -34.8948   55.1792   67.3450 H   0  0  0  0  0  0  0  0  0  0  0  0
  -39.0913   60.7313   61.8483 H   0  0  0  0  0  0  0  0  0  0  0  0
  -39.0559   63.6873   61.3173 H   0  0  0  0  0  0  0  0  0  0  0  0
  -40.9244   61.6378   60.2552 H   0  0  0  0  0  0  0  0  0  0  0  0
  -39.8234   62.2578   58.1011 H   0  0  0  0  0  0  0  0  0  0  0  0
  -38.6490   60.4925   59.4336 H   0  0  0  0  0  0  0  0  0  0  0  0
  -36.9007   62.6111   58.1302 H   0  0  0  0  0  0  0  0  0  0  0  0
  -36.5880   60.8910   58.1521 H   0  0  0  0  0  0  0  0  0  0  0  0
  1  4  1  0  0  0  0
  1 31  1  0  0  0  0
  1 56  1  0  0  0  0
  2  3  1  0  0  0  0
  2  4  1  0  0  0  0
  2 57  1  0  0  0  0
  2 58  1  0  0  0  0
  3 49  1  0  0  0  0
  4  6  1  0  0  0  0
  4 59  1  1  0  0  0
  5  6  1  0  0  0  0
  5 60  1  0  0  0  0
  6  8  1  0  0  0  0
  6 61  1  6  0  0  0
  7 31  2  0  0  0  0
  8  9  2  0  0  0  0
  8 62  1  0  0  0  0
  9 11  1  0  0  0  0
  9 63  1  0  0  0  0
 10 50  1  0  0  0  0
 10 64  1  0  0  0  0
 11 13  1  0  0  0  0
 11 65  1  0  0  0  0
 11 66  1  0  0  0  0
 12 51  1  0  0  0  0
 12 55  1  0  0  0  0
 13 15  1  0  0  0  0
 13 67  1  0  0  0  0
 13 68  1  0  0  0  0
 14 55  1  0  0  0  0
 14 69  1  0  0  0  0
 15 17  1  0  0  0  0
 15 70  1  0  0  0  0
 15 71  1  0  0  0  0
 16 52  1  0  0  0  0
 16 72  1  0  0  0  0
 17 19  1  0  0  0  0
 17 73  1  0  0  0  0
 17 74  1  0  0  0  0
 18 49  1  0  0  0  0
 18 53  1  0  0  0  0
 19 21  1  0  0  0  0
 19 75  1  0  0  0  0
 19 76  1  0  0  0  0
 20 54  1  0  0  0  0
 20 77  1  0  0  0  0
 21 22  1  0  0  0  0
 21 78  1  0  0  0  0
 21 79  1  0  0  0  0
 22 23  1  0  0  0  0
 22 80  1  0  0  0  0
 22 81  1  0  0  0  0
 23 25  1  0  0  0  0
 23 82  1  0  0  0  0
 23 83  1  0  0  0  0
 24 55  1  0  0  0  0
 25 27  1  0  0  0  0
 25 84  1  0  0  0  0
 25 85  1  0  0  0  0
 26 55  1  0  0  0  0
 26 86  1  0  0  0  0
 27 28  1  0  0  0  0
 27 87  1  0  0  0  0
 27 88  1  0  0  0  0
 28 29  1  0  0  0  0
 28 89  1  0  0  0  0
 28 90  1  0  0  0  0
 29 30  1  0  0  0  0
 29 91  1  0  0  0  0
 29 92  1  0  0  0  0
 30 93  1  0  0  0  0
 30 94  1  0  0  0  0
 30 95  1  0  0  0  0
 31 32  1  0  0  0  0
 32 33  1  0  0  0  0
 32 96  1  0  0  0  0
 32 97  1  0  0  0  0
 33 34  1  0  0  0  0
 33 98  1  0  0  0  0
 33 99  1  0  0  0  0
 34 35  1  0  0  0  0
 34100  1  0  0  0  0
 34101  1  0  0  0  0
 35 36  1  0  0  0  0
 35102  1  0  0  0  0
 35103  1  0  0  0  0
 36 37  1  0  0  0  0
 36104  1  0  0  0  0
 36105  1  0  0  0  0
 37 38  1  0  0  0  0
 37106  1  0  0  0  0
 37107  1  0  0  0  0
 38 39  1  0  0  0  0
 38108  1  0  0  0  0
 38109  1  0  0  0  0
 39 40  1  0  0  0  0
 39110  1  0  0  0  0
 39111  1  0  0  0  0
 40 41  1  0  0  0  0
 40112  1  0  0  0  0
 40113  1  0  0  0  0
 41 42  1  0  0  0  0
 41114  1  0  0  0  0
 41115  1  0  0  0  0
 42 43  1  0  0  0  0
 42116  1  0  0  0  0
 42117  1  0  0  0  0
 43 44  1  0  0  0  0
 43118  1  0  0  0  0
 43119  1  0  0  0  0
 44 45  1  0  0  0  0
 44120  1  0  0  0  0
 44121  1  0  0  0  0
 45 46  1  0  0  0  0
 45122  1  0  0  0  0
 45123  1  0  0  0  0
 46 47  1  0  0  0  0
 46124  1  0  0  0  0
 46125  1  0  0  0  0
 47 48  1  0  0  0  0
 47126  1  0  0  0  0
 47127  1  0  0  0  0
 48128  1  0  0  0  0
 48129  1  0  0  0  0
 48130  1  0  0  0  0
 49 50  1  0  0  0  0
 49131  1  6  0  0  0
 50 51  1  0  0  0  0
 50132  1  6  0  0  0
 51 52  1  0  0  0  0
 51133  1  1  0  0  0
 52 53  1  0  0  0  0
 52134  1  6  0  0  0
 53 54  1  0  0  0  0
 53135  1  6  0  0  0
 54136  1  0  0  0  0
 54137  1  0  0  0  0
M  CHG  1  24  -1
M  END
$$$$
/media/chris/experiments/cd1a-new-docking/inputs/ligands/1onq_ligand.pdb
 OpenBabel06222310383D

137137  0  0  1  0  0  0  0  0999 V2000
  -40.4920   60.2280   63.6270 N   0  0  0  0  0  0  0  0  0  0  0  0
  -38.5950   61.7730   64.2860 C   0  0  0  0  0  0  0  0  0  0  0  0
  -37.5441   62.0867   65.2349 O   0  0  0  0  0  0  0  0  0  0  0  0
  -39.4590   60.5300   64.5980 C   0  0  1  0  0  0  0  0  0  0  0  0
  -40.7577   59.2290   66.0180 O   0  0  0  0  0  0  0  0  0  0  0  0
  -40.2280   60.5370   65.9080 C   0  0  2  0  0  0  0  0  0  0  0  0
  -41.6768   60.5954   61.7273 O   0  0  0  0  0  0  0  0  0  0  0  0
  -41.3266   61.6007   65.8452 C   0  0  0  0  0  0  0  0  0  0  0  0
  -41.9275   61.9655   64.6997 C   0  0  0  0  0  0  0  0  0  0  0  0
  -38.2938   64.5178   63.9293 O   0  0  0  0  0  0  0  0  0  0  0  0
  -43.0161   63.0369   64.7199 C   0  0  0  0  0  0  0  0  0  0  0  0
  -37.0206   67.1074   64.5954 O   0  0  0  0  0  0  0  0  0  0  0  0
  -44.4337   62.4793   64.9141 C   0  0  0  0  0  0  0  0  0  0  0  0
  -35.5491   68.3969   62.8957 O   0  0  0  0  0  0  0  0  0  0  0  0
  -44.9083   61.4779   63.8450 C   0  0  0  0  0  0  0  0  0  0  0  0
  -36.0508   66.2424   66.9942 O   0  0  0  0  0  0  0  0  0  0  0  0
  -46.3517   61.0032   64.1393 C   0  0  0  0  0  0  0  0  0  0  0  0
  -35.6795   63.3761   66.0987 O   0  0  0  0  0  0  0  0  0  0  0  0
  -46.5523   60.3046   65.5080 C   0  0  0  0  0  0  0  0  0  0  0  0
  -34.5625   65.0109   68.2596 O   0  0  0  0  0  0  0  0  0  0  0  0
  -47.9999   59.8254   65.7684 C   0  0  0  0  0  0  0  0  0  0  0  0
  -48.1880   59.1471   67.1426 C   0  0  0  0  0  0  0  0  0  0  0  0
  -47.3041   57.9110   67.3476 C   0  0  0  0  0  0  0  0  0  0  0  0
  -35.0811   68.5856   65.2694 O   0  5  0  0  0  0  0  0  0  0  0  0
  -45.7964   58.1457   67.2836 C   0  0  0  0  0  0  0  0  0  0  0  0
  -36.9848   69.7361   64.3068 O   0  0  0  0  0  0  0  0  0  0  0  0
  -45.2697   59.1259   68.3503 C   0  0  0  0  0  0  0  0  0  0  0  0
  -43.7583   59.3965   68.3017 C   0  0  0  0  0  0  0  0  0  0  0  0
  -42.9617   58.1013   68.4832 C   0  0  0  0  0  0  0  0  0  0  0  0
  -43.1962   57.3399   69.7758 C   0  0  0  0  0  0  0  0  0  0  0  0
  -40.7863   60.8910   62.5003 C   0  0  0  0  0  0  0  0  0  0  0  0
  -39.9258   62.0873   62.2211 C   0  0  0  0  0  0  0  0  0  0  0  0
  -39.2409   61.8250   60.8797 C   0  0  0  0  0  0  0  0  0  0  0  0
  -38.3254   62.9939   60.5241 C   0  0  0  0  0  0  0  0  0  0  0  0
  -37.2037   63.2769   61.4937 C   0  0  0  0  0  0  0  0  0  0  0  0
  -36.3216   62.0342   61.5534 C   0  0  0  0  0  0  0  0  0  0  0  0
  -35.7043   61.6794   60.1940 C   0  0  0  0  0  0  0  0  0  0  0  0
  -34.8200   60.4191   60.2109 C   0  0  0  0  0  0  0  0  0  0  0  0
  -33.6315   60.5326   61.1907 C   0  0  0  0  0  0  0  0  0  0  0  0
  -32.7780   59.2617   61.1539 C   0  0  0  0  0  0  0  0  0  0  0  0
  -32.1570   58.9408   59.7998 C   0  0  0  0  0  0  0  0  0  0  0  0
  -31.2219   60.0403   59.3184 C   0  0  0  0  0  0  0  0  0  0  0  0
  -30.5633   59.8124   57.9559 C   0  0  0  0  0  0  0  0  0  0  0  0
  -29.6594   61.0014   57.6595 C   0  0  0  0  0  0  0  0  0  0  0  0
  -30.2776   62.3905   57.6000 C   0  0  0  0  0  0  0  0  0  0  0  0
  -30.9220   62.7636   58.9444 C   0  0  0  0  0  0  0  0  0  0  0  0
  -31.5892   64.1512   58.9695 C   0  0  0  0  0  0  0  0  0  0  0  0
  -32.2052   64.5008   60.3222 C   0  0  0  0  0  0  0  0  0  0  0  0
  -36.6675   63.2597   65.0462 C   0  0  2  0  0  0  0  0  0  0  0  0
  -37.3701   64.6228   64.9685 C   0  0  1  0  0  0  0  0  0  0  0  0
  -36.4160   65.7955   64.6529 C   0  0  2  0  0  0  0  0  0  0  0  0
  -35.4210   65.8428   65.7794 C   0  0  2  0  0  0  0  0  0  0  0  0
  -34.7568   64.4868   65.9355 C   0  0  1  0  0  0  0  0  0  0  0  0
  -33.8159   64.7462   67.1101 C   0  0  0  0  0  0  0  0  0  0  0  0
  -36.1639   68.4933   64.2527 S   0  0  0  0  0  0  0  0  0  0  0  0
  -41.0464   59.4375   63.8192 H   0  0  0  0  0  0  0  0  0  0  0  0
  -38.1357   61.6183   63.3320 H   0  0  0  0  0  0  0  0  0  0  0  0
  -39.2690   62.6030   64.3261 H   0  0  0  0  0  0  0  0  0  0  0  0
  -38.6677   59.8099   64.6092 H   0  0  0  0  0  0  0  0  0  0  0  0
  -40.0308   58.5878   66.0547 H   0  0  0  0  0  0  0  0  0  0  0  0
  -39.6247   60.7776   66.7583 H   0  0  0  0  0  0  0  0  0  0  0  0
  -41.6194   62.0587   66.7224 H   0  0  0  0  0  0  0  0  0  0  0  0
  -41.6541   61.5227   63.8085 H   0  0  0  0  0  0  0  0  0  0  0  0
  -38.9026   63.7849   64.1107 H   0  0  0  0  0  0  0  0  0  0  0  0
  -42.9862   63.5652   63.7899 H   0  0  0  0  0  0  0  0  0  0  0  0
  -42.8135   63.6701   65.5583 H   0  0  0  0  0  0  0  0  0  0  0  0
  -45.1144   63.3049   64.9169 H   0  0  0  0  0  0  0  0  0  0  0  0
  -44.4097   61.9345   65.8347 H   0  0  0  0  0  0  0  0  0  0  0  0
  -35.0098   67.5924   62.8415 H   0  0  0  0  0  0  0  0  0  0  0  0
  -44.2541   60.6312   63.8424 H   0  0  0  0  0  0  0  0  0  0  0  0
  -44.8942   61.9622   62.8909 H   0  0  0  0  0  0  0  0  0  0  0  0
  -36.4678   67.1097   66.8721 H   0  0  0  0  0  0  0  0  0  0  0  0
  -46.6362   60.3143   63.3716 H   0  0  0  0  0  0  0  0  0  0  0  0
  -46.9542   61.8869   64.1668 H   0  0  0  0  0  0  0  0  0  0  0  0
  -46.2834   60.9950   66.2799 H   0  0  0  0  0  0  0  0  0  0  0  0
  -45.9354   59.4304   65.5007 H   0  0  0  0  0  0  0  0  0  0  0  0
  -33.9627   65.1753   69.0040 H   0  0  0  0  0  0  0  0  0  0  0  0
  -48.2665   59.1241   65.0055 H   0  0  0  0  0  0  0  0  0  0  0  0
  -48.6247   60.6940   65.7587 H   0  0  0  0  0  0  0  0  0  0  0  0
  -49.2116   58.8491   67.2347 H   0  0  0  0  0  0  0  0  0  0  0  0
  -47.9019   59.8621   67.8854 H   0  0  0  0  0  0  0  0  0  0  0  0
  -47.5567   57.1990   66.5898 H   0  0  0  0  0  0  0  0  0  0  0  0
  -47.5013   57.5785   68.3453 H   0  0  0  0  0  0  0  0  0  0  0  0
  -45.5576   58.5393   66.3176 H   0  0  0  0  0  0  0  0  0  0  0  0
  -45.3275   57.2024   67.4709 H   0  0  0  0  0  0  0  0  0  0  0  0
  -37.6937   69.6843   63.6467 H   0  0  0  0  0  0  0  0  0  0  0  0
  -45.5029   58.7231   69.3137 H   0  0  0  0  0  0  0  0  0  0  0  0
  -45.7455   60.0636   68.1522 H   0  0  0  0  0  0  0  0  0  0  0  0
  -43.4998   60.0787   69.0844 H   0  0  0  0  0  0  0  0  0  0  0  0
  -43.5176   59.8131   67.3459 H   0  0  0  0  0  0  0  0  0  0  0  0
  -41.9219   58.3492   68.4354 H   0  0  0  0  0  0  0  0  0  0  0  0
  -43.2980   57.4493   67.7043 H   0  0  0  0  0  0  0  0  0  0  0  0
  -42.8795   57.9381   70.6045 H   0  0  0  0  0  0  0  0  0  0  0  0
  -42.6363   56.4283   69.7594 H   0  0  0  0  0  0  0  0  0  0  0  0
  -44.2380   57.1169   69.8745 H   0  0  0  0  0  0  0  0  0  0  0  0
  -39.1942   62.2049   62.9930 H   0  0  0  0  0  0  0  0  0  0  0  0
  -40.5082   62.9844   62.1896 H   0  0  0  0  0  0  0  0  0  0  0  0
  -39.9842   61.7125   60.1183 H   0  0  0  0  0  0  0  0  0  0  0  0
  -38.6575   60.9309   60.9518 H   0  0  0  0  0  0  0  0  0  0  0  0
  -38.9299   63.8743   60.4574 H   0  0  0  0  0  0  0  0  0  0  0  0
  -37.8496   62.7178   59.6064 H   0  0  0  0  0  0  0  0  0  0  0  0
  -37.6040   63.4871   62.4635 H   0  0  0  0  0  0  0  0  0  0  0  0
  -36.6360   64.1258   61.1745 H   0  0  0  0  0  0  0  0  0  0  0  0
  -36.9158   61.2085   61.8854 H   0  0  0  0  0  0  0  0  0  0  0  0
  -35.5180   62.2408   62.2289 H   0  0  0  0  0  0  0  0  0  0  0  0
  -35.1050   62.5053   59.8721 H   0  0  0  0  0  0  0  0  0  0  0  0
  -36.5188   61.4741   59.5311 H   0  0  0  0  0  0  0  0  0  0  0  0
  -34.4359   60.2582   59.2253 H   0  0  0  0  0  0  0  0  0  0  0  0
  -35.4297   59.6031   60.5385 H   0  0  0  0  0  0  0  0  0  0  0  0
  -34.0062   60.6758   62.1827 H   0  0  0  0  0  0  0  0  0  0  0  0
  -33.0239   61.3642   60.9004 H   0  0  0  0  0  0  0  0  0  0  0  0
  -33.3981   58.4374   61.4382 H   0  0  0  0  0  0  0  0  0  0  0  0
  -31.9614   59.4308   61.8243 H   0  0  0  0  0  0  0  0  0  0  0  0
  -32.9411   58.8173   59.0822 H   0  0  0  0  0  0  0  0  0  0  0  0
  -31.5814   58.0453   59.9075 H   0  0  0  0  0  0  0  0  0  0  0  0
  -30.4433   60.1488   60.0443 H   0  0  0  0  0  0  0  0  0  0  0  0
  -31.8350   60.9093   59.2006 H   0  0  0  0  0  0  0  0  0  0  0  0
  -31.3153   59.7315   57.1991 H   0  0  0  0  0  0  0  0  0  0  0  0
  -29.9919   58.9078   57.9683 H   0  0  0  0  0  0  0  0  0  0  0  0
  -29.2006   60.8197   56.7101 H   0  0  0  0  0  0  0  0  0  0  0  0
  -29.0017   61.0451   58.5024 H   0  0  0  0  0  0  0  0  0  0  0  0
  -31.0266   62.4078   56.8360 H   0  0  0  0  0  0  0  0  0  0  0  0
  -29.5054   63.0987   57.3833 H   0  0  0  0  0  0  0  0  0  0  0  0
  -30.1609   62.7452   59.6963 H   0  0  0  0  0  0  0  0  0  0  0  0
  -31.6992   62.0490   59.1181 H   0  0  0  0  0  0  0  0  0  0  0  0
  -32.3619   64.1699   58.2295 H   0  0  0  0  0  0  0  0  0  0  0  0
  -30.8251   64.8739   58.7730 H   0  0  0  0  0  0  0  0  0  0  0  0
  -32.9772   63.7974   60.5551 H   0  0  0  0  0  0  0  0  0  0  0  0
  -32.6209   65.4859   60.2810 H   0  0  0  0  0  0  0  0  0  0  0  0
  -31.4493   64.4640   61.0786 H   0  0  0  0  0  0  0  0  0  0  0  0
  -36.2294   63.0536   64.0919 H   0  0  0  0  0  0  0  0  0  0  0  0
  -37.8075   64.8385   65.9209 H   0  0  0  0  0  0  0  0  0  0  0  0
  -36.0169   65.6040   63.6787 H   0  0  0  0  0  0  0  0  0  0  0  0
  -34.6703   66.5692   65.5474 H   0  0  0  0  0  0  0  0  0  0  0  0
  -34.2432   64.1505   65.0592 H   0  0  0  0  0  0  0  0  0  0  0  0
  -33.2045   63.8834   67.2736 H   0  0  0  0  0  0  0  0  0  0  0  0
  -33.1949   65.5888   66.8881 H   0  0  0  0  0  0  0  0  0  0  0  0
  1  4  1  0  0  0  0
  1 31  1  0  0  0  0
  1 56  1  0  0  0  0
  2  3  1  0  0  0  0
  2  4  1  0  0  0  0
  2 57  1  0  0  0  0
  2 58  1  0  0  0  0
  3 49  1  0  0  0  0
  4  6  1  0  0  0  0
  4 59  1  1  0  0  0
  5  6  1  0  0  0  0
  5 60  1  0  0  0  0
  6  8  1  0  0  0  0
  6 61  1  1  0  0  0
  7 31  2  0  0  0  0
  8  9  2  0  0  0  0
  8 62  1  0  0  0  0
  9 11  1  0  0  0  0
  9 63  1  0  0  0  0
 10 50  1  0  0  0  0
 10 64  1  0  0  0  0
 11 13  1  0  0  0  0
 11 65  1  0  0  0  0
 11 66  1  0  0  0  0
 12 51  1  0  0  0  0
 12 55  1  0  0  0  0
 13 15  1  0  0  0  0
 13 67  1  0  0  0  0
 13 68  1  0  0  0  0
 14 55  1  0  0  0  0
 14 69  1  0  0  0  0
 15 17  1  0  0  0  0
 15 70  1  0  0  0  0
 15 71  1  0  0  0  0
 16 52  1  0  0  0  0
 16 72  1  0  0  0  0
 17 19  1  0  0  0  0
 17 73  1  0  0  0  0
 17 74  1  0  0  0  0
 18 49  1  0  0  0  0
 18 53  1  0  0  0  0
 19 21  1  0  0  0  0
 19 75  1  0  0  0  0
 19 76  1  0  0  0  0
 20 54  1  0  0  0  0
 20 77  1  0  0  0  0
 21 22  1  0  0  0  0
 21 78  1  0  0  0  0
 21 79  1  0  0  0  0
 22 23  1  0  0  0  0
 22 80  1  0  0  0  0
 22 81  1  0  0  0  0
 23 25  1  0  0  0  0
 23 82  1  0  0  0  0
 23 83  1  0  0  0  0
 24 55  1  0  0  0  0
 25 27  1  0  0  0  0
 25 84  1  0  0  0  0
 25 85  1  0  0  0  0
 26 55  1  0  0  0  0
 26 86  1  0  0  0  0
 27 28  1  0  0  0  0
 27 87  1  0  0  0  0
 27 88  1  0  0  0  0
 28 29  1  0  0  0  0
 28 89  1  0  0  0  0
 28 90  1  0  0  0  0
 29 30  1  0  0  0  0
 29 91  1  0  0  0  0
 29 92  1  0  0  0  0
 30 93  1  0  0  0  0
 30 94  1  0  0  0  0
 30 95  1  0  0  0  0
 31 32  1  0  0  0  0
 32 33  1  0  0  0  0
 32 96  1  0  0  0  0
 32 97  1  0  0  0  0
 33 34  1  0  0  0  0
 33 98  1  0  0  0  0
 33 99  1  0  0  0  0
 34 35  1  0  0  0  0
 34100  1  0  0  0  0
 34101  1  0  0  0  0
 35 36  1  0  0  0  0
 35102  1  0  0  0  0
 35103  1  0  0  0  0
 36 37  1  0  0  0  0
 36104  1  0  0  0  0
 36105  1  0  0  0  0
 37 38  1  0  0  0  0
 37106  1  0  0  0  0
 37107  1  0  0  0  0
 38 39  1  0  0  0  0
 38108  1  0  0  0  0
 38109  1  0  0  0  0
 39 40  1  0  0  0  0
 39110  1  0  0  0  0
 39111  1  0  0  0  0
 40 41  1  0  0  0  0
 40112  1  0  0  0  0
 40113  1  0  0  0  0
 41 42  1  0  0  0  0
 41114  1  0  0  0  0
 41115  1  0  0  0  0
 42 43  1  0  0  0  0
 42116  1  0  0  0  0
 42117  1  0  0  0  0
 43 44  1  0  0  0  0
 43118  1  0  0  0  0
 43119  1  0  0  0  0
 44 45  1  0  0  0  0
 44120  1  0  0  0  0
 44121  1  0  0  0  0
 45 46  1  0  0  0  0
 45122  1  0  0  0  0
 45123  1  0  0  0  0
 46 47  1  0  0  0  0
 46124  1  0  0  0  0
 46125  1  0  0  0  0
 47 48  1  0  0  0  0
 47126  1  0  0  0  0
 47127  1  0  0  0  0
 48128  1  0  0  0  0
 48129  1  0  0  0  0
 48130  1  0  0  0  0
 49 50  1  0  0  0  0
 49131  1  6  0  0  0
 50 51  1  0  0  0  0
 50132  1  1  0  0  0
 51 52  1  0  0  0  0
 51133  1  6  0  0  0
 52 53  1  0  0  0  0
 52134  1  6  0  0  0
 53 54  1  0  0  0  0
 53135  1  6  0  0  0
 54136  1  0  0  0  0
 54137  1  0  0  0  0
M  CHG  1  24  -1
M  END
$$$$
/media/chris/experiments/cd1a-new-docking/inputs/ligands/1onq_ligand.pdb
 OpenBabel06222310383D

137137  0  0  1  0  0  0  0  0999 V2000
  -40.4920   60.2280   63.6270 N   0  0  0  0  0  0  0  0  0  0  0  0
  -38.5950   61.7730   64.2860 C   0  0  0  0  0  0  0  0  0  0  0  0
  -39.2927   63.0412   64.1953 O   0  0  0  0  0  0  0  0  0  0  0  0
  -39.4590   60.5300   64.5980 C   0  0  1  0  0  0  0  0  0  0  0  0
  -39.2569   60.8461   66.8904 O   0  0  0  0  0  0  0  0  0  0  0  0
  -40.2280   60.5370   65.9080 C   0  0  2  0  0  0  0  0  0  0  0  0
  -39.2820   59.8772   61.7401 O   0  0  0  0  0  0  0  0  0  0  0  0
  -40.8583   59.1606   66.1332 C   0  0  0  0  0  0  0  0  0  0  0  0
  -41.2344   58.3542   65.1259 C   0  0  0  0  0  0  0  0  0  0  0  0
  -40.3964   65.2906   62.8172 O   0  0  0  0  0  0  0  0  0  0  0  0
  -41.8578   56.9940   65.4332 C   0  0  0  0  0  0  0  0  0  0  0  0
  -39.3931   68.0416   63.2594 O   0  0  0  0  0  0  0  0  0  0  0  0
  -41.9874   56.6942   66.9337 C   0  0  0  0  0  0  0  0  0  0  0  0
  -41.2594   69.6187   62.3950 O   0  0  0  0  0  0  0  0  0  0  0  0
  -42.8658   57.6724   67.7354 C   0  0  0  0  0  0  0  0  0  0  0  0
  -38.1858   67.4358   65.6297 O   0  0  0  0  0  0  0  0  0  0  0  0
  -44.3180   57.6718   67.2000 C   0  0  0  0  0  0  0  0  0  0  0  0
  -37.5407   64.5807   64.8630 O   0  0  0  0  0  0  0  0  0  0  0  0
  -45.2908   58.6364   67.9243 C   0  0  0  0  0  0  0  0  0  0  0  0
  -36.4911   66.4567   66.8552 O   0  0  0  0  0  0  0  0  0  0  0  0
  -45.4429   58.3631   69.4392 C   0  0  0  0  0  0  0  0  0  0  0  0
  -45.9616   56.9450   69.7618 C   0  0  0  0  0  0  0  0  0  0  0  0
  -47.3329   56.6347   69.1496 C   0  0  0  0  0  0  0  0  0  0  0  0
  -41.7430   67.2649   62.7342 O   0  5  0  0  0  0  0  0  0  0  0  0
  -48.4788   57.5528   69.5694 C   0  0  0  0  0  0  0  0  0  0  0  0
  -40.4283   67.9769   60.8266 O   0  0  0  0  0  0  0  0  0  0  0  0
  -49.8371   57.1868   68.9392 C   0  0  0  0  0  0  0  0  0  0  0  0
  -50.3614   55.7842   69.2824 C   0  0  0  0  0  0  0  0  0  0  0  0
  -51.7030   55.5152   68.5949 C   0  0  0  0  0  0  0  0  0  0  0  0
  -52.3415   54.1644   68.8655 C   0  0  0  0  0  0  0  0  0  0  0  0
  -40.3447   59.9361   62.3275 C   0  0  0  0  0  0  0  0  0  0  0  0
  -41.6199   59.6610   61.5872 C   0  0  0  0  0  0  0  0  0  0  0  0
  -42.4612   60.9337   61.6856 C   0  0  0  0  0  0  0  0  0  0  0  0
  -42.7312   61.2685   63.1505 C   0  0  0  0  0  0  0  0  0  0  0  0
  -43.5692   62.4976   63.4065 C   0  0  0  0  0  0  0  0  0  0  0  0
  -44.9285   62.2730   62.7524 C   0  0  0  0  0  0  0  0  0  0  0  0
  -45.8755   63.4678   62.9276 C   0  0  0  0  0  0  0  0  0  0  0  0
  -45.3584   64.7801   62.3102 C   0  0  0  0  0  0  0  0  0  0  0  0
  -45.1376   64.6799   60.7848 C   0  0  0  0  0  0  0  0  0  0  0  0
  -44.6079   66.0043   60.2278 C   0  0  0  0  0  0  0  0  0  0  0  0
  -44.3698   66.0218   58.7227 C   0  0  0  0  0  0  0  0  0  0  0  0
  -43.8286   67.3592   58.2393 C   0  0  0  0  0  0  0  0  0  0  0  0
  -44.7111   68.5790   58.5140 C   0  0  0  0  0  0  0  0  0  0  0  0
  -44.0142   69.8079   57.9457 C   0  0  0  0  0  0  0  0  0  0  0  0
  -44.6843   71.1648   58.1041 C   0  0  0  0  0  0  0  0  0  0  0  0
  -43.8414   72.2735   57.4542 C   0  0  0  0  0  0  0  0  0  0  0  0
  -43.6155   72.0999   55.9409 C   0  0  0  0  0  0  0  0  0  0  0  0
  -44.9116   72.0937   55.1336 C   0  0  0  0  0  0  0  0  0  0  0  0
  -38.5707   64.2916   63.8868 C   0  0  2  0  0  0  0  0  0  0  0  0
  -39.4297   65.5603   63.7851 C   0  0  1  0  0  0  0  0  0  0  0  0
  -38.6385   66.8115   63.3449 C   0  0  2  0  0  0  0  0  0  0  0  0
  -37.5890   67.0373   64.3980 C   0  0  2  0  0  0  0  0  0  0  0  0
  -36.7643   65.7760   64.5802 C   0  0  1  0  0  0  0  0  0  0  0  0
  -35.7901   66.2089   65.6736 C   0  0  0  0  0  0  0  0  0  0  0  0
  -40.7155   68.2343   62.2663 S   0  0  0  0  0  0  0  0  0  0  0  0
  -41.4169   60.2387   63.9642 H   0  0  0  0  0  0  0  0  0  0  0  0
  -37.8608   61.8607   65.0594 H   0  0  0  0  0  0  0  0  0  0  0  0
  -38.1940   61.6005   63.3091 H   0  0  0  0  0  0  0  0  0  0  0  0
  -38.6677   59.8099   64.6092 H   0  0  0  0  0  0  0  0  0  0  0  0
  -38.8837   61.7234   66.7113 H   0  0  0  0  0  0  0  0  0  0  0  0
  -41.0317   61.2430   65.9299 H   0  0  0  0  0  0  0  0  0  0  0  0
  -41.0010   58.8369   67.1026 H   0  0  0  0  0  0  0  0  0  0  0  0
  -41.1023   58.6533   64.1471 H   0  0  0  0  0  0  0  0  0  0  0  0
  -40.9043   64.5062   63.0773 H   0  0  0  0  0  0  0  0  0  0  0  0
  -41.2474   56.2355   64.9895 H   0  0  0  0  0  0  0  0  0  0  0  0
  -42.8499   57.0091   65.0324 H   0  0  0  0  0  0  0  0  0  0  0  0
  -41.0054   56.7102   67.3584 H   0  0  0  0  0  0  0  0  0  0  0  0
  -42.4730   55.7432   67.0008 H   0  0  0  0  0  0  0  0  0  0  0  0
  -41.4526   69.8047   63.3272 H   0  0  0  0  0  0  0  0  0  0  0  0
  -42.4607   58.6590   67.6495 H   0  0  0  0  0  0  0  0  0  0  0  0
  -42.8776   57.3627   68.7595 H   0  0  0  0  0  0  0  0  0  0  0  0
  -38.7070   68.2420   65.4906 H   0  0  0  0  0  0  0  0  0  0  0  0
  -44.7051   56.6788   67.2952 H   0  0  0  0  0  0  0  0  0  0  0  0
  -44.2606   58.0140   66.1878 H   0  0  0  0  0  0  0  0  0  0  0  0
  -46.2546   58.5461   67.4685 H   0  0  0  0  0  0  0  0  0  0  0  0
  -44.8778   59.6189   67.8289 H   0  0  0  0  0  0  0  0  0  0  0  0
  -35.8702   66.7314   67.5479 H   0  0  0  0  0  0  0  0  0  0  0  0
  -46.1311   59.0753   69.8441 H   0  0  0  0  0  0  0  0  0  0  0  0
  -44.4684   58.4472   69.8730 H   0  0  0  0  0  0  0  0  0  0  0  0
  -46.0364   56.8465   70.8246 H   0  0  0  0  0  0  0  0  0  0  0  0
  -45.2656   56.2534   69.3349 H   0  0  0  0  0  0  0  0  0  0  0  0
  -47.5962   55.6353   69.4269 H   0  0  0  0  0  0  0  0  0  0  0  0
  -47.2175   56.7818   68.0961 H   0  0  0  0  0  0  0  0  0  0  0  0
  -48.2321   58.5530   69.2801 H   0  0  0  0  0  0  0  0  0  0  0  0
  -48.5895   57.4462   70.6283 H   0  0  0  0  0  0  0  0  0  0  0  0
  -39.7589   68.6050   60.5130 H   0  0  0  0  0  0  0  0  0  0  0  0
  -49.7367   57.2515   67.8759 H   0  0  0  0  0  0  0  0  0  0  0  0
  -50.5476   57.8765   69.3446 H   0  0  0  0  0  0  0  0  0  0  0  0
  -50.4900   55.7085   70.3420 H   0  0  0  0  0  0  0  0  0  0  0  0
  -49.6514   55.0616   68.9379 H   0  0  0  0  0  0  0  0  0  0  0  0
  -51.5500   55.5973   67.5391 H   0  0  0  0  0  0  0  0  0  0  0  0
  -52.3806   56.2365   69.0019 H   0  0  0  0  0  0  0  0  0  0  0  0
  -51.7120   53.3890   68.4815 H   0  0  0  0  0  0  0  0  0  0  0  0
  -53.2967   54.1188   68.3854 H   0  0  0  0  0  0  0  0  0  0  0  0
  -52.4657   54.0335   69.9201 H   0  0  0  0  0  0  0  0  0  0  0  0
  -42.1382   58.8395   62.0360 H   0  0  0  0  0  0  0  0  0  0  0  0
  -41.4273   59.4020   60.5671 H   0  0  0  0  0  0  0  0  0  0  0  0
  -43.3916   60.7835   61.1790 H   0  0  0  0  0  0  0  0  0  0  0  0
  -41.9282   61.7433   61.2324 H   0  0  0  0  0  0  0  0  0  0  0  0
  -41.7868   61.4102   63.6330 H   0  0  0  0  0  0  0  0  0  0  0  0
  -43.3006   60.4473   63.5331 H   0  0  0  0  0  0  0  0  0  0  0  0
  -43.0963   63.3571   62.9794 H   0  0  0  0  0  0  0  0  0  0  0  0
  -43.6808   62.6642   64.4576 H   0  0  0  0  0  0  0  0  0  0  0  0
  -45.3818   61.4097   63.1930 H   0  0  0  0  0  0  0  0  0  0  0  0
  -44.7643   62.1423   61.7032 H   0  0  0  0  0  0  0  0  0  0  0  0
  -46.0253   63.6262   63.9751 H   0  0  0  0  0  0  0  0  0  0  0  0
  -46.7797   63.2211   62.4115 H   0  0  0  0  0  0  0  0  0  0  0  0
  -44.4278   65.0324   62.7741 H   0  0  0  0  0  0  0  0  0  0  0  0
  -46.1031   65.5298   62.4785 H   0  0  0  0  0  0  0  0  0  0  0  0
  -46.0672   64.4455   60.3098 H   0  0  0  0  0  0  0  0  0  0  0  0
  -44.4181   63.9121   60.5906 H   0  0  0  0  0  0  0  0  0  0  0  0
  -43.6791   66.2206   60.7131 H   0  0  0  0  0  0  0  0  0  0  0  0
  -45.3674   66.7335   60.4184 H   0  0  0  0  0  0  0  0  0  0  0  0
  -45.2966   65.8255   58.2254 H   0  0  0  0  0  0  0  0  0  0  0  0
  -43.6396   65.2726   58.4981 H   0  0  0  0  0  0  0  0  0  0  0  0
  -43.6847   67.2909   57.1813 H   0  0  0  0  0  0  0  0  0  0  0  0
  -42.9286   67.5236   58.7941 H   0  0  0  0  0  0  0  0  0  0  0  0
  -44.8492   68.6961   59.5686 H   0  0  0  0  0  0  0  0  0  0  0  0
  -45.6696   68.4526   58.0556 H   0  0  0  0  0  0  0  0  0  0  0  0
  -43.8855   69.6405   56.8968 H   0  0  0  0  0  0  0  0  0  0  0  0
  -43.1185   69.8906   58.5252 H   0  0  0  0  0  0  0  0  0  0  0  0
  -44.8002   71.3785   59.1461 H   0  0  0  0  0  0  0  0  0  0  0  0
  -45.6380   71.1330   57.6200 H   0  0  0  0  0  0  0  0  0  0  0  0
  -42.8856   72.2918   57.9348 H   0  0  0  0  0  0  0  0  0  0  0  0
  -44.3893   73.1842   57.5776 H   0  0  0  0  0  0  0  0  0  0  0  0
  -43.1091   71.1716   55.7774 H   0  0  0  0  0  0  0  0  0  0  0  0
  -43.0391   72.9378   55.6084 H   0  0  0  0  0  0  0  0  0  0  0  0
  -45.5178   71.2664   55.4387 H   0  0  0  0  0  0  0  0  0  0  0  0
  -44.6827   72.0033   54.0923 H   0  0  0  0  0  0  0  0  0  0  0  0
  -45.4424   73.0069   55.3042 H   0  0  0  0  0  0  0  0  0  0  0  0
  -38.1706   64.0792   62.9174 H   0  0  0  0  0  0  0  0  0  0  0  0
  -39.8304   65.7822   64.7521 H   0  0  0  0  0  0  0  0  0  0  0  0
  -38.2799   66.6080   62.3576 H   0  0  0  0  0  0  0  0  0  0  0  0
  -36.9429   67.8280   64.0783 H   0  0  0  0  0  0  0  0  0  0  0  0
  -36.2694   65.4476   63.6902 H   0  0  0  0  0  0  0  0  0  0  0  0
  -35.0742   65.4315   65.8407 H   0  0  0  0  0  0  0  0  0  0  0  0
  -35.2854   67.1011   65.3665 H   0  0  0  0  0  0  0  0  0  0  0  0
  1  4  1  0  0  0  0
  1 31  1  0  0  0  0
  1 56  1  0  0  0  0
  2  3  1  0  0  0  0
  2  4  1  0  0  0  0
  2 57  1  0  0  0  0
  2 58  1  0  0  0  0
  3 49  1  0  0  0  0
  4  6  1  0  0  0  0
  4 59  1  1  0  0  0
  5  6  1  0  0  0  0
  5 60  1  0  0  0  0
  6  8  1  0  0  0  0
  6 61  1  6  0  0  0
  7 31  2  0  0  0  0
  8  9  2  0  0  0  0
  8 62  1  0  0  0  0
  9 11  1  0  0  0  0
  9 63  1  0  0  0  0
 10 50  1  0  0  0  0
 10 64  1  0  0  0  0
 11 13  1  0  0  0  0
 11 65  1  0  0  0  0
 11 66  1  0  0  0  0
 12 51  1  0  0  0  0
 12 55  1  0  0  0  0
 13 15  1  0  0  0  0
 13 67  1  0  0  0  0
 13 68  1  0  0  0  0
 14 55  1  0  0  0  0
 14 69  1  0  0  0  0
 15 17  1  0  0  0  0
 15 70  1  0  0  0  0
 15 71  1  0  0  0  0
 16 52  1  0  0  0  0
 16 72  1  0  0  0  0
 17 19  1  0  0  0  0
 17 73  1  0  0  0  0
 17 74  1  0  0  0  0
 18 49  1  0  0  0  0
 18 53  1  0  0  0  0
 19 21  1  0  0  0  0
 19 75  1  0  0  0  0
 19 76  1  0  0  0  0
 20 54  1  0  0  0  0
 20 77  1  0  0  0  0
 21 22  1  0  0  0  0
 21 78  1  0  0  0  0
 21 79  1  0  0  0  0
 22 23  1  0  0  0  0
 22 80  1  0  0  0  0
 22 81  1  0  0  0  0
 23 25  1  0  0  0  0
 23 82  1  0  0  0  0
 23 83  1  0  0  0  0
 24 55  1  0  0  0  0
 25 27  1  0  0  0  0
 25 84  1  0  0  0  0
 25 85  1  0  0  0  0
 26 55  1  0  0  0  0
 26 86  1  0  0  0  0
 27 28  1  0  0  0  0
 27 87  1  0  0  0  0
 27 88  1  0  0  0  0
 28 29  1  0  0  0  0
 28 89  1  0  0  0  0
 28 90  1  0  0  0  0
 29 30  1  0  0  0  0
 29 91  1  0  0  0  0
 29 92  1  0  0  0  0
 30 93  1  0  0  0  0
 30 94  1  0  0  0  0
 30 95  1  0  0  0  0
 31 32  1  0  0  0  0
 32 33  1  0  0  0  0
 32 96  1  0  0  0  0
 32 97  1  0  0  0  0
 33 34  1  0  0  0  0
 33 98  1  0  0  0  0
 33 99  1  0  0  0  0
 34 35  1  0  0  0  0
 34100  1  0  0  0  0
 34101  1  0  0  0  0
 35 36  1  0  0  0  0
 35102  1  0  0  0  0
 35103  1  0  0  0  0
 36 37  1  0  0  0  0
 36104  1  0  0  0  0
 36105  1  0  0  0  0
 37 38  1  0  0  0  0
 37106  1  0  0  0  0
 37107  1  0  0  0  0
 38 39  1  0  0  0  0
 38108  1  0  0  0  0
 38109  1  0  0  0  0
 39 40  1  0  0  0  0
 39110  1  0  0  0  0
 39111  1  0  0  0  0
 40 41  1  0  0  0  0
 40112  1  0  0  0  0
 40113  1  0  0  0  0
 41 42  1  0  0  0  0
 41114  1  0  0  0  0
 41115  1  0  0  0  0
 42 43  1  0  0  0  0
 42116  1  0  0  0  0
 42117  1  0  0  0  0
 43 44  1  0  0  0  0
 43118  1  0  0  0  0
 43119  1  0  0  0  0
 44 45  1  0  0  0  0
 44120  1  0  0  0  0
 44121  1  0  0  0  0
 45 46  1  0  0  0  0
 45122  1  0  0  0  0
 45123  1  0  0  0  0
 46 47  1  0  0  0  0
 46124  1  0  0  0  0
 46125  1  0  0  0  0
 47 48  1  0  0  0  0
 47126  1  0  0  0  0
 47127  1  0  0  0  0
 48128  1  0  0  0  0
 48129  1  0  0  0  0
 48130  1  0  0  0  0
 49 50  1  0  0  0  0
 49131  1  6  0  0  0
 50 51  1  0  0  0  0
 50132  1  1  0  0  0
 51 52  1  0  0  0  0
 51133  1  6  0  0  0
 52 53  1  0  0  0  0
 52134  1  6  0  0  0
 53 54  1  0  0  0  0
 53135  1  6  0  0  0
 54136  1  0  0  0  0
 54137  1  0  0  0  0
M  CHG  1  24  -1
M  END
$$$$
/media/chris/experiments/cd1a-new-docking/inputs/ligands/1onq_ligand.pdb
 OpenBabel06222310383D

137137  0  0  1  0  0  0  0  0999 V2000
  -40.4920   60.2280   63.6270 N   0  0  0  0  0  0  0  0  0  0  0  0
  -38.5950   61.7730   64.2860 C   0  0  0  0  0  0  0  0  0  0  0  0
  -37.8612   61.7550   63.0352 O   0  0  0  0  0  0  0  0  0  0  0  0
  -39.4590   60.5300   64.5980 C   0  0  1  0  0  0  0  0  0  0  0  0
  -41.2116   61.5409   65.7392 O   0  0  0  0  0  0  0  0  0  0  0  0
  -40.2280   60.5370   65.9080 C   0  0  2  0  0  0  0  0  0  0  0  0
  -41.8540   58.8360   62.4630 O   0  0  0  0  0  0  0  0  0  0  0  0
  -39.2689   60.8567   67.0571 C   0  0  0  0  0  0  0  0  0  0  0  0
  -39.4194   61.9233   67.8608 C   0  0  0  0  0  0  0  0  0  0  0  0
  -35.5100   61.5437   61.4214 O   0  0  0  0  0  0  0  0  0  0  0  0
  -38.4178   62.1745   68.9864 C   0  0  0  0  0  0  0  0  0  0  0  0
  -34.5500   63.7954   59.7545 O   0  0  0  0  0  0  0  0  0  0  0  0
  -38.8021   61.5155   70.3191 C   0  0  0  0  0  0  0  0  0  0  0  0
  -32.8948   64.5688   57.9163 O   0  0  0  0  0  0  0  0  0  0  0  0
  -40.1549   61.9507   70.9122 C   0  0  0  0  0  0  0  0  0  0  0  0
  -36.9424   65.1061   59.7916 O   0  0  0  0  0  0  0  0  0  0  0  0
  -40.1772   63.4771   71.1671 C   0  0  0  0  0  0  0  0  0  0  0  0
  -37.7250   64.1271   62.5456 O   0  0  0  0  0  0  0  0  0  0  0  0
  -41.4896   64.0263   71.7817 C   0  0  0  0  0  0  0  0  0  0  0  0
  -38.5454   66.3797   60.8597 O   0  0  0  0  0  0  0  0  0  0  0  0
  -41.4906   65.5562   72.0097 C   0  0  0  0  0  0  0  0  0  0  0  0
  -41.3085   66.3740   70.7127 C   0  0  0  0  0  0  0  0  0  0  0  0
  -42.4135   66.1412   69.6754 C   0  0  0  0  0  0  0  0  0  0  0  0
  -32.3309   64.9039   60.2527 O   0  5  0  0  0  0  0  0  0  0  0  0
  -42.5839   64.7043   69.1868 C   0  0  0  0  0  0  0  0  0  0  0  0
  -33.9858   66.3154   59.1833 O   0  0  0  0  0  0  0  0  0  0  0  0
  -43.6956   64.5291   68.1335 C   0  0  0  0  0  0  0  0  0  0  0  0
  -43.9035   63.0913   67.6339 C   0  0  0  0  0  0  0  0  0  0  0  0
  -45.0144   63.0300   66.5817 C   0  0  0  0  0  0  0  0  0  0  0  0
  -46.3868   63.5096   67.0201 C   0  0  0  0  0  0  0  0  0  0  0  0
  -40.9921   59.0290   63.2983 C   0  0  0  0  0  0  0  0  0  0  0  0
  -40.4035   57.8670   64.0420 C   0  0  0  0  0  0  0  0  0  0  0  0
  -41.5596   57.1980   64.7856 C   0  0  0  0  0  0  0  0  0  0  0  0
  -41.0433   56.0066   65.5887 C   0  0  0  0  0  0  0  0  0  0  0  0
  -40.3619   54.9174   64.7962 C   0  0  0  0  0  0  0  0  0  0  0  0
  -39.9434   53.8270   65.7769 C   0  0  0  0  0  0  0  0  0  0  0  0
  -39.2183   52.6605   65.0925 C   0  0  0  0  0  0  0  0  0  0  0  0
  -38.7949   51.5308   66.0491 C   0  0  0  0  0  0  0  0  0  0  0  0
  -38.0533   50.3822   65.3307 C   0  0  0  0  0  0  0  0  0  0  0  0
  -36.7715   50.8971   64.6697 C   0  0  0  0  0  0  0  0  0  0  0  0
  -35.9674   49.8451   63.9154 C   0  0  0  0  0  0  0  0  0  0  0  0
  -36.7586   49.2216   62.7752 C   0  0  0  0  0  0  0  0  0  0  0  0
  -36.0357   48.1396   61.9697 C   0  0  0  0  0  0  0  0  0  0  0  0
  -34.7786   48.7539   61.3688 C   0  0  0  0  0  0  0  0  0  0  0  0
  -33.8836   47.8815   60.5011 C   0  0  0  0  0  0  0  0  0  0  0  0
  -33.3724   46.6643   61.2880 C   0  0  0  0  0  0  0  0  0  0  0  0
  -32.4423   45.7325   60.4896 C   0  0  0  0  0  0  0  0  0  0  0  0
  -31.9646   44.5240   61.2915 C   0  0  0  0  0  0  0  0  0  0  0  0
  -36.9920   62.8817   62.6414 C   0  0  2  0  0  0  0  0  0  0  0  0
  -36.2434   62.7243   61.3101 C   0  0  1  0  0  0  0  0  0  0  0  0
  -35.2621   63.8785   61.0099 C   0  0  2  0  0  0  0  0  0  0  0  0
  -36.0938   65.1292   60.9367 C   0  0  2  0  0  0  0  0  0  0  0  0
  -36.9073   65.2804   62.2094 C   0  0  1  0  0  0  0  0  0  0  0  0
  -37.6681   66.5742   61.9281 C   0  0  0  0  0  0  0  0  0  0  0  0
  -33.4381   64.9312   59.2587 S   0  0  0  0  0  0  0  0  0  0  0  0
  -40.8737   60.9998   63.1496 H   0  0  0  0  0  0  0  0  0  0  0  0
  -39.2437   62.6238   64.2698 H   0  0  0  0  0  0  0  0  0  0  0  0
  -37.8479   61.7974   65.0516 H   0  0  0  0  0  0  0  0  0  0  0  0
  -38.6677   59.8099   64.6092 H   0  0  0  0  0  0  0  0  0  0  0  0
  -41.7964   61.3001   65.0038 H   0  0  0  0  0  0  0  0  0  0  0  0
  -40.6791   59.5963   66.1457 H   0  0  0  0  0  0  0  0  0  0  0  0
  -38.4702   60.2244   67.2223 H   0  0  0  0  0  0  0  0  0  0  0  0
  -40.2099   62.5712   67.7177 H   0  0  0  0  0  0  0  0  0  0  0  0
  -36.1111   60.8062   61.6103 H   0  0  0  0  0  0  0  0  0  0  0  0
  -38.3434   63.2306   69.1418 H   0  0  0  0  0  0  0  0  0  0  0  0
  -37.4901   61.7383   68.6800 H   0  0  0  0  0  0  0  0  0  0  0  0
  -38.0398   61.7480   71.0330 H   0  0  0  0  0  0  0  0  0  0  0  0
  -38.8969   60.4701   70.1115 H   0  0  0  0  0  0  0  0  0  0  0  0
  -32.5332   63.6692   57.9459 H   0  0  0  0  0  0  0  0  0  0  0  0
  -40.3133   61.4381   71.8380 H   0  0  0  0  0  0  0  0  0  0  0  0
  -40.9293   61.7079   70.2150 H   0  0  0  0  0  0  0  0  0  0  0  0
  -36.4029   65.0090   58.9913 H   0  0  0  0  0  0  0  0  0  0  0  0
  -40.0184   63.9710   70.2313 H   0  0  0  0  0  0  0  0  0  0  0  0
  -39.4100   63.6682   71.8880 H   0  0  0  0  0  0  0  0  0  0  0  0
  -41.6449   63.5462   72.7253 H   0  0  0  0  0  0  0  0  0  0  0  0
  -42.2689   63.8194   71.0784 H   0  0  0  0  0  0  0  0  0  0  0  0
  -39.0273   67.2028   60.6831 H   0  0  0  0  0  0  0  0  0  0  0  0
  -40.6911   65.7993   72.6780 H   0  0  0  0  0  0  0  0  0  0  0  0
  -42.4485   65.8133   72.4111 H   0  0  0  0  0  0  0  0  0  0  0  0
  -40.3708   66.1051   70.2730 H   0  0  0  0  0  0  0  0  0  0  0  0
  -41.3503   67.4074   70.9868 H   0  0  0  0  0  0  0  0  0  0  0  0
  -42.1971   66.7526   68.8243 H   0  0  0  0  0  0  0  0  0  0  0  0
  -43.3295   66.3871   70.1708 H   0  0  0  0  0  0  0  0  0  0  0  0
  -42.8182   64.0878   70.0293 H   0  0  0  0  0  0  0  0  0  0  0  0
  -41.6642   64.4258   68.7161 H   0  0  0  0  0  0  0  0  0  0  0  0
  -34.7086   66.3423   58.5371 H   0  0  0  0  0  0  0  0  0  0  0  0
  -43.4515   65.1404   67.2899 H   0  0  0  0  0  0  0  0  0  0  0  0
  -44.6083   64.8104   68.6159 H   0  0  0  0  0  0  0  0  0  0  0  0
  -44.1713   62.4687   68.4619 H   0  0  0  0  0  0  0  0  0  0  0  0
  -42.9926   62.7509   67.1875 H   0  0  0  0  0  0  0  0  0  0  0  0
  -45.1103   62.0114   66.2686 H   0  0  0  0  0  0  0  0  0  0  0  0
  -44.7111   63.7047   65.8086 H   0  0  0  0  0  0  0  0  0  0  0  0
  -46.7545   62.8747   67.7989 H   0  0  0  0  0  0  0  0  0  0  0  0
  -47.0582   63.4784   66.1876 H   0  0  0  0  0  0  0  0  0  0  0  0
  -46.3146   64.5137   67.3827 H   0  0  0  0  0  0  0  0  0  0  0  0
  -39.6651   58.2085   64.7370 H   0  0  0  0  0  0  0  0  0  0  0  0
  -39.9248   57.1820   63.3737 H   0  0  0  0  0  0  0  0  0  0  0  0
  -42.2876   56.8597   64.0781 H   0  0  0  0  0  0  0  0  0  0  0  0
  -42.0045   57.9058   65.4534 H   0  0  0  0  0  0  0  0  0  0  0  0
  -41.8769   55.5686   66.0967 H   0  0  0  0  0  0  0  0  0  0  0  0
  -40.2915   56.4023   66.2392 H   0  0  0  0  0  0  0  0  0  0  0  0
  -39.5002   55.3121   64.2997 H   0  0  0  0  0  0  0  0  0  0  0  0
  -41.0240   54.5220   64.0545 H   0  0  0  0  0  0  0  0  0  0  0  0
  -40.8189   53.4485   66.2618 H   0  0  0  0  0  0  0  0  0  0  0  0
  -39.2619   54.2654   66.4756 H   0  0  0  0  0  0  0  0  0  0  0  0
  -38.3398   53.0443   64.6171 H   0  0  0  0  0  0  0  0  0  0  0  0
  -39.9118   52.2321   64.3994 H   0  0  0  0  0  0  0  0  0  0  0  0
  -39.6713   51.1322   66.5159 H   0  0  0  0  0  0  0  0  0  0  0  0
  -38.1195   51.9517   66.7644 H   0  0  0  0  0  0  0  0  0  0  0  0
  -38.6927   49.9658   64.5807 H   0  0  0  0  0  0  0  0  0  0  0  0
  -37.7931   49.6358   66.0520 H   0  0  0  0  0  0  0  0  0  0  0  0
  -36.1457   51.3077   65.4344 H   0  0  0  0  0  0  0  0  0  0  0  0
  -37.0800   51.6168   63.9404 H   0  0  0  0  0  0  0  0  0  0  0  0
  -35.6833   49.0731   64.5997 H   0  0  0  0  0  0  0  0  0  0  0  0
  -35.1107   50.3281   63.4938 H   0  0  0  0  0  0  0  0  0  0  0  0
  -37.0318   50.0050   62.0996 H   0  0  0  0  0  0  0  0  0  0  0  0
  -37.5903   48.7308   63.2360 H   0  0  0  0  0  0  0  0  0  0  0  0
  -36.6736   47.7828   61.1882 H   0  0  0  0  0  0  0  0  0  0  0  0
  -35.7783   47.3168   62.6035 H   0  0  0  0  0  0  0  0  0  0  0  0
  -34.1807   49.1077   62.1826 H   0  0  0  0  0  0  0  0  0  0  0  0
  -35.1489   49.4983   60.6952 H   0  0  0  0  0  0  0  0  0  0  0  0
  -33.0470   48.4599   60.1686 H   0  0  0  0  0  0  0  0  0  0  0  0
  -34.4535   47.5328   59.6654 H   0  0  0  0  0  0  0  0  0  0  0  0
  -34.2192   46.0951   61.6103 H   0  0  0  0  0  0  0  0  0  0  0  0
  -32.7929   47.0490   62.1010 H   0  0  0  0  0  0  0  0  0  0  0  0
  -31.5859   46.2932   60.1778 H   0  0  0  0  0  0  0  0  0  0  0  0
  -33.0042   45.3595   59.6589 H   0  0  0  0  0  0  0  0  0  0  0  0
  -31.3962   44.8575   62.1345 H   0  0  0  0  0  0  0  0  0  0  0  0
  -31.3521   43.9037   60.6711 H   0  0  0  0  0  0  0  0  0  0  0  0
  -32.8109   43.9641   61.6309 H   0  0  0  0  0  0  0  0  0  0  0  0
  -36.2714   62.8884   63.4323 H   0  0  0  0  0  0  0  0  0  0  0  0
  -36.9572   62.7210   60.5129 H   0  0  0  0  0  0  0  0  0  0  0  0
  -34.5202   63.8498   61.7804 H   0  0  0  0  0  0  0  0  0  0  0  0
  -35.4422   65.9726   60.8423 H   0  0  0  0  0  0  0  0  0  0  0  0
  -36.3163   65.3320   63.0999 H   0  0  0  0  0  0  0  0  0  0  0  0
  -38.2236   66.8568   62.7979 H   0  0  0  0  0  0  0  0  0  0  0  0
  -36.9725   67.3484   61.6798 H   0  0  0  0  0  0  0  0  0  0  0  0
  1  4  1  0  0  0  0
  1 31  1  0  0  0  0
  1 56  1  0  0  0  0
  2  3  1  0  0  0  0
  2  4  1  0  0  0  0
  2 57  1  0  0  0  0
  2 58  1  0  0  0  0
  3 49  1  0  0  0  0
  4  6  1  0  0  0  0
  4 59  1  1  0  0  0
  5  6  1  0  0  0  0
  5 60  1  0  0  0  0
  6  8  1  0  0  0  0
  6 61  1  1  0  0  0
  7 31  2  0  0  0  0
  8  9  2  0  0  0  0
  8 62  1  0  0  0  0
  9 11  1  0  0  0  0
  9 63  1  0  0  0  0
 10 50  1  0  0  0  0
 10 64  1  0  0  0  0
 11 13  1  0  0  0  0
 11 65  1  0  0  0  0
 11 66  1  0  0  0  0
 12 51  1  0  0  0  0
 12 55  1  0  0  0  0
 13 15  1  0  0  0  0
 13 67  1  0  0  0  0
 13 68  1  0  0  0  0
 14 55  1  0  0  0  0
 14 69  1  0  0  0  0
 15 17  1  0  0  0  0
 15 70  1  0  0  0  0
 15 71  1  0  0  0  0
 16 52  1  0  0  0  0
 16 72  1  0  0  0  0
 17 19  1  0  0  0  0
 17 73  1  0  0  0  0
 17 74  1  0  0  0  0
 18 49  1  0  0  0  0
 18 53  1  0  0  0  0
 19 21  1  0  0  0  0
 19 75  1  0  0  0  0
 19 76  1  0  0  0  0
 20 54  1  0  0  0  0
 20 77  1  0  0  0  0
 21 22  1  0  0  0  0
 21 78  1  0  0  0  0
 21 79  1  0  0  0  0
 22 23  1  0  0  0  0
 22 80  1  0  0  0  0
 22 81  1  0  0  0  0
 23 25  1  0  0  0  0
 23 82  1  0  0  0  0
 23 83  1  0  0  0  0
 24 55  1  0  0  0  0
 25 27  1  0  0  0  0
 25 84  1  0  0  0  0
 25 85  1  0  0  0  0
 26 55  1  0  0  0  0
 26 86  1  0  0  0  0
 27 28  1  0  0  0  0
 27 87  1  0  0  0  0
 27 88  1  0  0  0  0
 28 29  1  0  0  0  0
 28 89  1  0  0  0  0
 28 90  1  0  0  0  0
 29 30  1  0  0  0  0
 29 91  1  0  0  0  0
 29 92  1  0  0  0  0
 30 93  1  0  0  0  0
 30 94  1  0  0  0  0
 30 95  1  0  0  0  0
 31 32  1  0  0  0  0
 32 33  1  0  0  0  0
 32 96  1  0  0  0  0
 32 97  1  0  0  0  0
 33 34  1  0  0  0  0
 33 98  1  0  0  0  0
 33 99  1  0  0  0  0
 34 35  1  0  0  0  0
 34100  1  0  0  0  0
 34101  1  0  0  0  0
 35 36  1  0  0  0  0
 35102  1  0  0  0  0
 35103  1  0  0  0  0
 36 37  1  0  0  0  0
 36104  1  0  0  0  0
 36105  1  0  0  0  0
 37 38  1  0  0  0  0
 37106  1  0  0  0  0
 37107  1  0  0  0  0
 38 39  1  0  0  0  0
 38108  1  0  0  0  0
 38109  1  0  0  0  0
 39 40  1  0  0  0  0
 39110  1  0  0  0  0
 39111  1  0  0  0  0
 40 41  1  0  0  0  0
 40112  1  0  0  0  0
 40113  1  0  0  0  0
 41 42  1  0  0  0  0
 41114  1  0  0  0  0
 41115  1  0  0  0  0
 42 43  1  0  0  0  0
 42116  1  0  0  0  0
 42117  1  0  0  0  0
 43 44  1  0  0  0  0
 43118  1  0  0  0  0
 43119  1  0  0  0  0
 44 45  1  0  0  0  0
 44120  1  0  0  0  0
 44121  1  0  0  0  0
 45 46  1  0  0  0  0
 45122  1  0  0  0  0
 45123  1  0  0  0  0
 46 47  1  0  0  0  0
 46124  1  0  0  0  0
 46125  1  0  0  0  0
 47 48  1  0  0  0  0
 47126  1  0  0  0  0
 47127  1  0  0  0  0
 48128  1  0  0  0  0
 48129  1  0  0  0  0
 48130  1  0  0  0  0
 49 50  1  0  0  0  0
 49131  1  1  0  0  0
 50 51  1  0  0  0  0
 50132  1  6  0  0  0
 51 52  1  0  0  0  0
 51133  1  1  0  0  0
 52 53  1  0  0  0  0
 52134  1  6  0  0  0
 53 54  1  0  0  0  0
 53135  1  1  0  0  0
 54136  1  0  0  0  0
 54137  1  0  0  0  0
M  CHG  1  24  -1
M  END
$$$$
/media/chris/experiments/cd1a-new-docking/inputs/ligands/1onq_ligand.pdb
 OpenBabel06222310383D

137137  0  0  1  0  0  0  0  0999 V2000
  -40.4920   60.2280   63.6270 N   0  0  0  0  0  0  0  0  0  0  0  0
  -38.5950   61.7730   64.2860 C   0  0  0  0  0  0  0  0  0  0  0  0
  -37.5441   62.0867   65.2349 O   0  0  0  0  0  0  0  0  0  0  0  0
  -39.4590   60.5300   64.5980 C   0  0  1  0  0  0  0  0  0  0  0  0
  -40.7577   59.2290   66.0180 O   0  0  0  0  0  0  0  0  0  0  0  0
  -40.2280   60.5370   65.9080 C   0  0  2  0  0  0  0  0  0  0  0  0
  -41.5248   58.9216   62.0861 O   0  0  0  0  0  0  0  0  0  0  0  0
  -41.3266   61.6007   65.8452 C   0  0  0  0  0  0  0  0  0  0  0  0
  -41.3921   62.6366   66.6990 C   0  0  0  0  0  0  0  0  0  0  0  0
  -35.0677   62.0871   63.8049 O   0  0  0  0  0  0  0  0  0  0  0  0
  -42.5217   63.6569   66.5713 C   0  0  0  0  0  0  0  0  0  0  0  0
  -34.0199   64.5267   62.4933 O   0  0  0  0  0  0  0  0  0  0  0  0
  -42.1870   64.8436   65.6560 C   0  0  0  0  0  0  0  0  0  0  0  0
  -33.7161   62.0480   61.7999 O   0  0  0  0  0  0  0  0  0  0  0  0
  -40.9647   65.6825   66.0724 C   0  0  0  0  0  0  0  0  0  0  0  0
  -36.4318   65.8017   62.4860 O   0  0  0  0  0  0  0  0  0  0  0  0
  -40.7408   66.8542   65.0863 C   0  0  0  0  0  0  0  0  0  0  0  0
  -37.4137   64.5009   65.0354 O   0  0  0  0  0  0  0  0  0  0  0  0
  -40.5021   66.4415   63.6117 C   0  0  0  0  0  0  0  0  0  0  0  0
  -36.4467   68.0573   64.5825 O   0  0  0  0  0  0  0  0  0  0  0  0
  -41.6761   65.6617   62.9742 C   0  0  0  0  0  0  0  0  0  0  0  0
  -41.4167   65.2425   61.5109 C   0  0  0  0  0  0  0  0  0  0  0  0
  -40.2054   64.3183   61.3385 C   0  0  0  0  0  0  0  0  0  0  0  0
  -32.0205   63.1272   63.1599 O   0  5  0  0  0  0  0  0  0  0  0  0
  -40.2716   62.9807   62.0727 C   0  0  0  0  0  0  0  0  0  0  0  0
  -32.1955   63.6382   60.7971 O   0  0  0  0  0  0  0  0  0  0  0  0
  -41.4506   62.0870   61.6401 C   0  0  0  0  0  0  0  0  0  0  0  0
  -42.8448   62.7012   61.8375 C   0  0  0  0  0  0  0  0  0  0  0  0
  -43.9418   61.7289   61.3944 C   0  0  0  0  0  0  0  0  0  0  0  0
  -45.3724   62.2214   61.5221 C   0  0  0  0  0  0  0  0  0  0  0  0
  -40.6403   59.1136   62.8978 C   0  0  0  0  0  0  0  0  0  0  0  0
  -39.6041   58.0550   63.1330 C   0  0  0  0  0  0  0  0  0  0  0  0
  -40.3539   56.8157   63.6218 C   0  0  0  0  0  0  0  0  0  0  0  0
  -39.3662   55.6862   63.9043 C   0  0  0  0  0  0  0  0  0  0  0  0
  -39.9649   54.3852   64.3812 C   0  0  0  0  0  0  0  0  0  0  0  0
  -38.8172   53.4093   64.6185 C   0  0  0  0  0  0  0  0  0  0  0  0
  -37.9848   53.1544   63.3548 C   0  0  0  0  0  0  0  0  0  0  0  0
  -38.7873   52.5753   62.1753 C   0  0  0  0  0  0  0  0  0  0  0  0
  -39.4583   51.2252   62.5109 C   0  0  0  0  0  0  0  0  0  0  0  0
  -40.2264   50.6882   61.2999 C   0  0  0  0  0  0  0  0  0  0  0  0
  -40.9439   49.3631   61.5270 C   0  0  0  0  0  0  0  0  0  0  0  0
  -41.9884   49.4538   62.6296 C   0  0  0  0  0  0  0  0  0  0  0  0
  -43.1247   50.4523   62.3972 C   0  0  0  0  0  0  0  0  0  0  0  0
  -43.8700   50.0396   61.1351 C   0  0  0  0  0  0  0  0  0  0  0  0
  -43.1004   49.9666   59.8246 C   0  0  0  0  0  0  0  0  0  0  0  0
  -44.0229   49.5516   58.6675 C   0  0  0  0  0  0  0  0  0  0  0  0
  -43.3216   49.4356   57.3017 C   0  0  0  0  0  0  0  0  0  0  0  0
  -44.2661   49.0386   56.1695 C   0  0  0  0  0  0  0  0  0  0  0  0
  -36.6675   63.2597   65.0462 C   0  0  2  0  0  0  0  0  0  0  0  0
  -35.8119   63.2657   63.7712 C   0  0  1  0  0  0  0  0  0  0  0  0
  -34.8316   64.4561   63.6875 C   0  0  2  0  0  0  0  0  0  0  0  0
  -35.6781   65.6990   63.6916 C   0  0  2  0  0  0  0  0  0  0  0  0
  -36.5935   65.6931   64.9025 C   0  0  1  0  0  0  0  0  0  0  0  0
  -37.3535   67.0038   64.7114 C   0  0  0  0  0  0  0  0  0  0  0  0
  -32.9699   63.3204   62.0304 S   0  0  0  0  0  0  0  0  0  0  0  0
  -41.1688   60.9288   63.4857 H   0  0  0  0  0  0  0  0  0  0  0  0
  -38.1357   61.6183   63.3320 H   0  0  0  0  0  0  0  0  0  0  0  0
  -39.2690   62.6030   64.3261 H   0  0  0  0  0  0  0  0  0  0  0  0
  -38.6677   59.8099   64.6092 H   0  0  0  0  0  0  0  0  0  0  0  0
  -40.0308   58.5878   66.0547 H   0  0  0  0  0  0  0  0  0  0  0  0
  -39.6247   60.7776   66.7583 H   0  0  0  0  0  0  0  0  0  0  0  0
  -42.0502   61.5188   65.1139 H   0  0  0  0  0  0  0  0  0  0  0  0
  -40.6808   62.7424   67.4391 H   0  0  0  0  0  0  0  0  0  0  0  0
  -35.6681   61.3270   63.8576 H   0  0  0  0  0  0  0  0  0  0  0  0
  -42.7452   64.0361   67.5466 H   0  0  0  0  0  0  0  0  0  0  0  0
  -43.3521   63.1475   66.1287 H   0  0  0  0  0  0  0  0  0  0  0  0
  -43.0382   65.4915   65.6328 H   0  0  0  0  0  0  0  0  0  0  0  0
  -41.9397   64.4189   64.7055 H   0  0  0  0  0  0  0  0  0  0  0  0
  -34.2271   61.8246   62.5935 H   0  0  0  0  0  0  0  0  0  0  0  0
  -40.0959   65.0579   66.0782 H   0  0  0  0  0  0  0  0  0  0  0  0
  -41.1407   66.0844   67.0484 H   0  0  0  0  0  0  0  0  0  0  0  0
  -35.8283   65.8037   61.7266 H   0  0  0  0  0  0  0  0  0  0  0  0
  -39.8864   67.4065   65.4175 H   0  0  0  0  0  0  0  0  0  0  0  0
  -41.6471   67.4229   65.0916 H   0  0  0  0  0  0  0  0  0  0  0  0
  -39.6289   65.8244   63.5730 H   0  0  0  0  0  0  0  0  0  0  0  0
  -40.3944   67.3472   63.0522 H   0  0  0  0  0  0  0  0  0  0  0  0
  -36.9318   68.8885   64.4613 H   0  0  0  0  0  0  0  0  0  0  0  0
  -42.5476   66.2820   62.9991 H   0  0  0  0  0  0  0  0  0  0  0  0
  -41.8005   64.7627   63.5410 H   0  0  0  0  0  0  0  0  0  0  0  0
  -41.2522   66.1264   60.9307 H   0  0  0  0  0  0  0  0  0  0  0  0
  -42.2764   64.6943   61.1863 H   0  0  0  0  0  0  0  0  0  0  0  0
  -39.3415   64.8422   61.6907 H   0  0  0  0  0  0  0  0  0  0  0  0
  -40.1762   64.0737   60.2973 H   0  0  0  0  0  0  0  0  0  0  0  0
  -40.3642   63.1762   63.1207 H   0  0  0  0  0  0  0  0  0  0  0  0
  -39.3748   62.4496   61.8309 H   0  0  0  0  0  0  0  0  0  0  0  0
  -32.8072   63.7658   60.0552 H   0  0  0  0  0  0  0  0  0  0  0  0
  -41.4048   61.1811   62.2077 H   0  0  0  0  0  0  0  0  0  0  0  0
  -41.3386   61.9377   60.5865 H   0  0  0  0  0  0  0  0  0  0  0  0
  -42.9171   63.5978   61.2579 H   0  0  0  0  0  0  0  0  0  0  0  0
  -42.9787   62.9146   62.8774 H   0  0  0  0  0  0  0  0  0  0  0  0
  -43.8488   60.8419   61.9856 H   0  0  0  0  0  0  0  0  0  0  0  0
  -43.7845   61.5814   60.3463 H   0  0  0  0  0  0  0  0  0  0  0  0
  -45.6004   62.3912   62.5537 H   0  0  0  0  0  0  0  0  0  0  0  0
  -46.0399   61.4850   61.1258 H   0  0  0  0  0  0  0  0  0  0  0  0
  -45.4851   63.1352   60.9769 H   0  0  0  0  0  0  0  0  0  0  0  0
  -38.9047   58.3804   63.8745 H   0  0  0  0  0  0  0  0  0  0  0  0
  -39.0532   57.8471   62.2396 H   0  0  0  0  0  0  0  0  0  0  0  0
  -41.0466   56.5009   62.8695 H   0  0  0  0  0  0  0  0  0  0  0  0
  -40.8803   57.0556   64.5219 H   0  0  0  0  0  0  0  0  0  0  0  0
  -38.6851   56.0276   64.6555 H   0  0  0  0  0  0  0  0  0  0  0  0
  -38.9068   55.4638   62.9638 H   0  0  0  0  0  0  0  0  0  0  0  0
  -40.6283   53.9946   63.6381 H   0  0  0  0  0  0  0  0  0  0  0  0
  -40.5225   54.5359   65.2820 H   0  0  0  0  0  0  0  0  0  0  0  0
  -39.2236   52.4782   64.9542 H   0  0  0  0  0  0  0  0  0  0  0  0
  -38.1689   53.8450   65.3498 H   0  0  0  0  0  0  0  0  0  0  0  0
  -37.2047   52.4644   63.6006 H   0  0  0  0  0  0  0  0  0  0  0  0
  -37.6125   54.1053   63.0354 H   0  0  0  0  0  0  0  0  0  0  0  0
  -38.1234   52.4306   61.3488 H   0  0  0  0  0  0  0  0  0  0  0  0
  -39.5655   53.2720   61.9433 H   0  0  0  0  0  0  0  0  0  0  0  0
  -40.1383   51.3635   63.3254 H   0  0  0  0  0  0  0  0  0  0  0  0
  -38.6990   50.5200   62.7777 H   0  0  0  0  0  0  0  0  0  0  0  0
  -39.5307   50.5556   60.4979 H   0  0  0  0  0  0  0  0  0  0  0  0
  -40.9890   51.4079   61.0868 H   0  0  0  0  0  0  0  0  0  0  0  0
  -40.2208   48.6224   61.7980 H   0  0  0  0  0  0  0  0  0  0  0  0
  -41.4476   49.1037   60.6194 H   0  0  0  0  0  0  0  0  0  0  0  0
  -41.4874   49.7325   63.5331 H   0  0  0  0  0  0  0  0  0  0  0  0
  -42.4537   48.4909   62.6660 H   0  0  0  0  0  0  0  0  0  0  0  0
  -42.7227   51.4364   62.2750 H   0  0  0  0  0  0  0  0  0  0  0  0
  -43.7903   50.4564   63.2349 H   0  0  0  0  0  0  0  0  0  0  0  0
  -44.6653   50.7415   60.9950 H   0  0  0  0  0  0  0  0  0  0  0  0
  -44.1602   49.0270   61.3234 H   0  0  0  0  0  0  0  0  0  0  0  0
  -42.3136   49.2478   59.9201 H   0  0  0  0  0  0  0  0  0  0  0  0
  -42.6988   50.9350   59.6103 H   0  0  0  0  0  0  0  0  0  0  0  0
  -44.8013   50.2808   58.5826 H   0  0  0  0  0  0  0  0  0  0  0  0
  -44.3889   48.5747   58.9056 H   0  0  0  0  0  0  0  0  0  0  0  0
  -42.5519   48.6961   57.3768 H   0  0  0  0  0  0  0  0  0  0  0  0
  -42.9299   50.4024   57.0634 H   0  0  0  0  0  0  0  0  0  0  0  0
  -44.6798   48.0729   56.3722 H   0  0  0  0  0  0  0  0  0  0  0  0
  -43.7244   49.0082   55.2472 H   0  0  0  0  0  0  0  0  0  0  0  0
  -45.0559   49.7567   56.0956 H   0  0  0  0  0  0  0  0  0  0  0  0
  -36.0127   63.1808   65.8888 H   0  0  0  0  0  0  0  0  0  0  0  0
  -36.4595   63.3487   62.9234 H   0  0  0  0  0  0  0  0  0  0  0  0
  -34.1533   64.3446   64.5075 H   0  0  0  0  0  0  0  0  0  0  0  0
  -35.0370   66.5538   63.7488 H   0  0  0  0  0  0  0  0  0  0  0  0
  -36.0767   65.6460   65.8383 H   0  0  0  0  0  0  0  0  0  0  0  0
  -37.9544   66.9413   63.8283 H   0  0  0  0  0  0  0  0  0  0  0  0
  -37.9810   67.1774   65.5606 H   0  0  0  0  0  0  0  0  0  0  0  0
  1  4  1  0  0  0  0
  1 31  1  0  0  0  0
  1 56  1  0  0  0  0
  2  3  1  0  0  0  0
  2  4  1  0  0  0  0
  2 57  1  0  0  0  0
  2 58  1  0  0  0  0
  3 49  1  0  0  0  0
  4  6  1  0  0  0  0
  4 59  1  1  0  0  0
  5  6  1  0  0  0  0
  5 60  1  0  0  0  0
  6  8  1  0  0  0  0
  6 61  1  1  0  0  0
  7 31  2  0  0  0  0
  8  9  2  0  0  0  0
  8 62  1  0  0  0  0
  9 11  1  0  0  0  0
  9 63  1  0  0  0  0
 10 50  1  0  0  0  0
 10 64  1  0  0  0  0
 11 13  1  0  0  0  0
 11 65  1  0  0  0  0
 11 66  1  0  0  0  0
 12 51  1  0  0  0  0
 12 55  1  0  0  0  0
 13 15  1  0  0  0  0
 13 67  1  0  0  0  0
 13 68  1  0  0  0  0
 14 55  1  0  0  0  0
 14 69  1  0  0  0  0
 15 17  1  0  0  0  0
 15 70  1  0  0  0  0
 15 71  1  0  0  0  0
 16 52  1  0  0  0  0
 16 72  1  0  0  0  0
 17 19  1  0  0  0  0
 17 73  1  0  0  0  0
 17 74  1  0  0  0  0
 18 49  1  0  0  0  0
 18 53  1  0  0  0  0
 19 21  1  0  0  0  0
 19 75  1  0  0  0  0
 19 76  1  0  0  0  0
 20 54  1  0  0  0  0
 20 77  1  0  0  0  0
 21 22  1  0  0  0  0
 21 78  1  0  0  0  0
 21 79  1  0  0  0  0
 22 23  1  0  0  0  0
 22 80  1  0  0  0  0
 22 81  1  0  0  0  0
 23 25  1  0  0  0  0
 23 82  1  0  0  0  0
 23 83  1  0  0  0  0
 24 55  1  0  0  0  0
 25 27  1  0  0  0  0
 25 84  1  0  0  0  0
 25 85  1  0  0  0  0
 26 55  1  0  0  0  0
 26 86  1  0  0  0  0
 27 28  1  0  0  0  0
 27 87  1  0  0  0  0
 27 88  1  0  0  0  0
 28 29  1  0  0  0  0
 28 89  1  0  0  0  0
 28 90  1  0  0  0  0
 29 30  1  0  0  0  0
 29 91  1  0  0  0  0
 29 92  1  0  0  0  0
 30 93  1  0  0  0  0
 30 94  1  0  0  0  0
 30 95  1  0  0  0  0
 31 32  1  0  0  0  0
 32 33  1  0  0  0  0
 32 96  1  0  0  0  0
 32 97  1  0  0  0  0
 33 34  1  0  0  0  0
 33 98  1  0  0  0  0
 33 99  1  0  0  0  0
 34 35  1  0  0  0  0
 34100  1  0  0  0  0
 34101  1  0  0  0  0
 35 36  1  0  0  0  0
 35102  1  0  0  0  0
 35103  1  0  0  0  0
 36 37  1  0  0  0  0
 36104  1  0  0  0  0
 36105  1  0  0  0  0
 37 38  1  0  0  0  0
 37106  1  0  0  0  0
 37107  1  0  0  0  0
 38 39  1  0  0  0  0
 38108  1  0  0  0  0
 38109  1  0  0  0  0
 39 40  1  0  0  0  0
 39110  1  0  0  0  0
 39111  1  0  0  0  0
 40 41  1  0  0  0  0
 40112  1  0  0  0  0
 40113  1  0  0  0  0
 41 42  1  0  0  0  0
 41114  1  0  0  0  0
 41115  1  0  0  0  0
 42 43  1  0  0  0  0
 42116  1  0  0  0  0
 42117  1  0  0  0  0
 43 44  1  0  0  0  0
 43118  1  0  0  0  0
 43119  1  0  0  0  0
 44 45  1  0  0  0  0
 44120  1  0  0  0  0
 44121  1  0  0  0  0
 45 46  1  0  0  0  0
 45122  1  0  0  0  0
 45123  1  0  0  0  0
 46 47  1  0  0  0  0
 46124  1  0  0  0  0
 46125  1  0  0  0  0
 47 48  1  0  0  0  0
 47126  1  0  0  0  0
 47127  1  0  0  0  0
 48128  1  0  0  0  0
 48129  1  0  0  0  0
 48130  1  0  0  0  0
 49 50  1  0  0  0  0
 49131  1  1  0  0  0
 50 51  1  0  0  0  0
 50132  1  6  0  0  0
 51 52  1  0  0  0  0
 51133  1  1  0  0  0
 52 53  1  0  0  0  0
 52134  1  1  0  0  0
 53 54  1  0  0  0  0
 53135  1  1  0  0  0
 54136  1  0  0  0  0
 54137  1  0  0  0  0
M  CHG  1  24  -1
M  END
$$$$
/media/chris/experiments/cd1a-new-docking/inputs/ligands/1onq_ligand.pdb
 OpenBabel06222310383D

137137  0  0  1  0  0  0  0  0999 V2000
  -40.4920   60.2280   63.6270 N   0  0  0  0  0  0  0  0  0  0  0  0
  -38.5950   61.7730   64.2860 C   0  0  0  0  0  0  0  0  0  0  0  0
  -39.2927   63.0412   64.1953 O   0  0  0  0  0  0  0  0  0  0  0  0
  -39.4590   60.5300   64.5980 C   0  0  1  0  0  0  0  0  0  0  0  0
  -39.2569   60.8461   66.8904 O   0  0  0  0  0  0  0  0  0  0  0  0
  -40.2280   60.5370   65.9080 C   0  0  2  0  0  0  0  0  0  0  0  0
  -39.2820   59.8772   61.7401 O   0  0  0  0  0  0  0  0  0  0  0  0
  -40.8583   59.1606   66.1332 C   0  0  0  0  0  0  0  0  0  0  0  0
  -41.2344   58.3542   65.1259 C   0  0  0  0  0  0  0  0  0  0  0  0
  -40.3964   65.2906   62.8172 O   0  0  0  0  0  0  0  0  0  0  0  0
  -41.8578   56.9940   65.4332 C   0  0  0  0  0  0  0  0  0  0  0  0
  -39.3931   68.0416   63.2594 O   0  0  0  0  0  0  0  0  0  0  0  0
  -41.9874   56.6942   66.9337 C   0  0  0  0  0  0  0  0  0  0  0  0
  -41.2594   69.6187   62.3950 O   0  0  0  0  0  0  0  0  0  0  0  0
  -42.8658   57.6724   67.7354 C   0  0  0  0  0  0  0  0  0  0  0  0
  -38.1858   67.4358   65.6297 O   0  0  0  0  0  0  0  0  0  0  0  0
  -44.3180   57.6718   67.2000 C   0  0  0  0  0  0  0  0  0  0  0  0
  -37.5407   64.5807   64.8630 O   0  0  0  0  0  0  0  0  0  0  0  0
  -45.2908   58.6364   67.9243 C   0  0  0  0  0  0  0  0  0  0  0  0
  -36.4911   66.4567   66.8552 O   0  0  0  0  0  0  0  0  0  0  0  0
  -45.4429   58.3631   69.4392 C   0  0  0  0  0  0  0  0  0  0  0  0
  -46.4281   59.3209   70.1437 C   0  0  0  0  0  0  0  0  0  0  0  0
  -46.0389   60.7998   70.0313 C   0  0  0  0  0  0  0  0  0  0  0  0
  -41.7430   67.2649   62.7342 O   0  5  0  0  0  0  0  0  0  0  0  0
  -44.6763   61.1809   70.6061 C   0  0  0  0  0  0  0  0  0  0  0  0
  -40.4283   67.9769   60.8266 O   0  0  0  0  0  0  0  0  0  0  0  0
  -44.5213   60.8697   72.1078 C   0  0  0  0  0  0  0  0  0  0  0  0
  -44.6656   59.3882   72.4878 C   0  0  0  0  0  0  0  0  0  0  0  0
  -44.5124   59.1905   73.9986 C   0  0  0  0  0  0  0  0  0  0  0  0
  -44.6176   57.7636   74.5069 C   0  0  0  0  0  0  0  0  0  0  0  0
  -40.3447   59.9361   62.3275 C   0  0  0  0  0  0  0  0  0  0  0  0
  -41.6199   59.6610   61.5872 C   0  0  0  0  0  0  0  0  0  0  0  0
  -42.4612   60.9337   61.6856 C   0  0  0  0  0  0  0  0  0  0  0  0
  -43.7942   60.7344   60.9683 C   0  0  0  0  0  0  0  0  0  0  0  0
  -44.7302   61.9186   60.9667 C   0  0  0  0  0  0  0  0  0  0  0  0
  -44.0200   63.0665   60.2569 C   0  0  0  0  0  0  0  0  0  0  0  0
  -44.8668   64.3451   60.2034 C   0  0  0  0  0  0  0  0  0  0  0  0
  -45.2412   64.9136   61.5844 C   0  0  0  0  0  0  0  0  0  0  0  0
  -44.0074   65.3000   62.4293 C   0  0  0  0  0  0  0  0  0  0  0  0
  -44.4367   65.8418   63.7957 C   0  0  0  0  0  0  0  0  0  0  0  0
  -43.2937   66.2707   64.7076 C   0  0  0  0  0  0  0  0  0  0  0  0
  -43.7888   66.7818   66.0525 C   0  0  0  0  0  0  0  0  0  0  0  0
  -44.7314   67.9867   66.0069 C   0  0  0  0  0  0  0  0  0  0  0  0
  -45.0994   68.3572   67.4373 C   0  0  0  0  0  0  0  0  0  0  0  0
  -46.0482   69.5242   67.6672 C   0  0  0  0  0  0  0  0  0  0  0  0
  -46.2838   69.7538   69.1685 C   0  0  0  0  0  0  0  0  0  0  0  0
  -45.0132   70.0920   69.9699 C   0  0  0  0  0  0  0  0  0  0  0  0
  -45.2758   70.2976   71.4600 C   0  0  0  0  0  0  0  0  0  0  0  0
  -38.5707   64.2916   63.8868 C   0  0  2  0  0  0  0  0  0  0  0  0
  -39.4297   65.5603   63.7851 C   0  0  1  0  0  0  0  0  0  0  0  0
  -38.6385   66.8115   63.3449 C   0  0  2  0  0  0  0  0  0  0  0  0
  -37.5890   67.0373   64.3980 C   0  0  2  0  0  0  0  0  0  0  0  0
  -36.7643   65.7760   64.5802 C   0  0  1  0  0  0  0  0  0  0  0  0
  -35.7901   66.2089   65.6736 C   0  0  0  0  0  0  0  0  0  0  0  0
  -40.7155   68.2343   62.2663 S   0  0  0  0  0  0  0  0  0  0  0  0
  -41.4169   60.2387   63.9642 H   0  0  0  0  0  0  0  0  0  0  0  0
  -37.8608   61.8607   65.0594 H   0  0  0  0  0  0  0  0  0  0  0  0
  -38.1940   61.6005   63.3091 H   0  0  0  0  0  0  0  0  0  0  0  0
  -38.6677   59.8099   64.6092 H   0  0  0  0  0  0  0  0  0  0  0  0
  -38.8837   61.7234   66.7113 H   0  0  0  0  0  0  0  0  0  0  0  0
  -41.0317   61.2430   65.9299 H   0  0  0  0  0  0  0  0  0  0  0  0
  -41.0010   58.8369   67.1026 H   0  0  0  0  0  0  0  0  0  0  0  0
  -41.1023   58.6533   64.1471 H   0  0  0  0  0  0  0  0  0  0  0  0
  -40.9043   64.5062   63.0773 H   0  0  0  0  0  0  0  0  0  0  0  0
  -41.2474   56.2355   64.9895 H   0  0  0  0  0  0  0  0  0  0  0  0
  -42.8499   57.0091   65.0324 H   0  0  0  0  0  0  0  0  0  0  0  0
  -41.0054   56.7102   67.3584 H   0  0  0  0  0  0  0  0  0  0  0  0
  -42.4730   55.7432   67.0008 H   0  0  0  0  0  0  0  0  0  0  0  0
  -41.4526   69.8047   63.3272 H   0  0  0  0  0  0  0  0  0  0  0  0
  -42.4607   58.6590   67.6495 H   0  0  0  0  0  0  0  0  0  0  0  0
  -42.8776   57.3627   68.7595 H   0  0  0  0  0  0  0  0  0  0  0  0
  -38.7070   68.2420   65.4906 H   0  0  0  0  0  0  0  0  0  0  0  0
  -44.7051   56.6788   67.2952 H   0  0  0  0  0  0  0  0  0  0  0  0
  -44.2606   58.0140   66.1878 H   0  0  0  0  0  0  0  0  0  0  0  0
  -46.2546   58.5461   67.4685 H   0  0  0  0  0  0  0  0  0  0  0  0
  -44.8778   59.6189   67.8289 H   0  0  0  0  0  0  0  0  0  0  0  0
  -35.8702   66.7314   67.5479 H   0  0  0  0  0  0  0  0  0  0  0  0
  -44.4827   58.4664   69.8999 H   0  0  0  0  0  0  0  0  0  0  0  0
  -45.8388   57.3743   69.5417 H   0  0  0  0  0  0  0  0  0  0  0  0
  -46.4688   59.0604   71.1807 H   0  0  0  0  0  0  0  0  0  0  0  0
  -47.3742   59.2092   69.6565 H   0  0  0  0  0  0  0  0  0  0  0  0
  -46.7823   61.3735   70.5442 H   0  0  0  0  0  0  0  0  0  0  0  0
  -45.9752   61.0015   68.9824 H   0  0  0  0  0  0  0  0  0  0  0  0
  -44.5327   62.2316   70.4635 H   0  0  0  0  0  0  0  0  0  0  0  0
  -43.9466   60.5922   70.0905 H   0  0  0  0  0  0  0  0  0  0  0  0
  -39.7589   68.6050   60.5130 H   0  0  0  0  0  0  0  0  0  0  0  0
  -45.2682   61.4218   72.6390 H   0  0  0  0  0  0  0  0  0  0  0  0
  -43.5204   61.1460   72.3663 H   0  0  0  0  0  0  0  0  0  0  0  0
  -43.9107   58.8225   71.9827 H   0  0  0  0  0  0  0  0  0  0  0  0
  -45.6405   59.0559   72.1980 H   0  0  0  0  0  0  0  0  0  0  0  0
  -45.2754   59.7651   74.4810 H   0  0  0  0  0  0  0  0  0  0  0  0
  -43.5138   59.5003   74.2259 H   0  0  0  0  0  0  0  0  0  0  0  0
  -45.5997   57.3867   74.3109 H   0  0  0  0  0  0  0  0  0  0  0  0
  -44.4325   57.7458   75.5606 H   0  0  0  0  0  0  0  0  0  0  0  0
  -43.8949   57.1529   74.0074 H   0  0  0  0  0  0  0  0  0  0  0  0
  -42.1382   58.8395   62.0360 H   0  0  0  0  0  0  0  0  0  0  0  0
  -41.4273   59.4020   60.5671 H   0  0  0  0  0  0  0  0  0  0  0  0
  -41.9317   61.7446   61.2307 H   0  0  0  0  0  0  0  0  0  0  0  0
  -42.6461   61.1540   62.7162 H   0  0  0  0  0  0  0  0  0  0  0  0
  -44.3004   59.9180   61.4397 H   0  0  0  0  0  0  0  0  0  0  0  0
  -43.5457   60.5627   59.9418 H   0  0  0  0  0  0  0  0  0  0  0  0
  -44.9641   62.2002   61.9722 H   0  0  0  0  0  0  0  0  0  0  0  0
  -45.6439   61.6749   60.4661 H   0  0  0  0  0  0  0  0  0  0  0  0
  -43.7951   62.7628   59.2558 H   0  0  0  0  0  0  0  0  0  0  0  0
  -43.1328   63.2897   60.8118 H   0  0  0  0  0  0  0  0  0  0  0  0
  -45.7708   64.1268   59.6742 H   0  0  0  0  0  0  0  0  0  0  0  0
  -44.2702   65.0883   59.7169 H   0  0  0  0  0  0  0  0  0  0  0  0
  -45.8022   64.1746   62.1173 H   0  0  0  0  0  0  0  0  0  0  0  0
  -45.8109   65.8046   61.4214 H   0  0  0  0  0  0  0  0  0  0  0  0
  -43.4491   66.0524   61.9125 H   0  0  0  0  0  0  0  0  0  0  0  0
  -43.4050   64.4283   62.5781 H   0  0  0  0  0  0  0  0  0  0  0  0
  -44.9914   65.0762   64.2967 H   0  0  0  0  0  0  0  0  0  0  0  0
  -45.0101   66.7239   63.6004 H   0  0  0  0  0  0  0  0  0  0  0  0
  -42.7424   67.0505   64.2249 H   0  0  0  0  0  0  0  0  0  0  0  0
  -42.6801   65.4131   64.8890 H   0  0  0  0  0  0  0  0  0  0  0  0
  -42.9333   67.0573   66.6331 H   0  0  0  0  0  0  0  0  0  0  0  0
  -44.3632   65.9820   66.4712 H   0  0  0  0  0  0  0  0  0  0  0  0
  -45.6153   67.7345   65.4591 H   0  0  0  0  0  0  0  0  0  0  0  0
  -44.2528   68.8122   65.5227 H   0  0  0  0  0  0  0  0  0  0  0  0
  -44.1876   68.5868   67.9479 H   0  0  0  0  0  0  0  0  0  0  0  0
  -45.6411   67.5067   67.7954 H   0  0  0  0  0  0  0  0  0  0  0  0
  -46.9844   69.3127   67.1943 H   0  0  0  0  0  0  0  0  0  0  0  0
  -45.6098   70.4074   67.2516 H   0  0  0  0  0  0  0  0  0  0  0  0
  -46.7111   68.8631   69.5797 H   0  0  0  0  0  0  0  0  0  0  0  0
  -46.9294   70.6033   69.2488 H   0  0  0  0  0  0  0  0  0  0  0  0
  -44.5902   70.9908   69.5724 H   0  0  0  0  0  0  0  0  0  0  0  0
  -44.3488   69.2584   69.8773 H   0  0  0  0  0  0  0  0  0  0  0  0
  -45.9392   71.1263   71.5942 H   0  0  0  0  0  0  0  0  0  0  0  0
  -44.3514   70.4959   71.9610 H   0  0  0  0  0  0  0  0  0  0  0  0
  -45.7209   69.4146   71.8689 H   0  0  0  0  0  0  0  0  0  0  0  0
  -38.1706   64.0792   62.9174 H   0  0  0  0  0  0  0  0  0  0  0  0
  -39.8304   65.7822   64.7521 H   0  0  0  0  0  0  0  0  0  0  0  0
  -38.2799   66.6080   62.3576 H   0  0  0  0  0  0  0  0  0  0  0  0
  -36.9429   67.8280   64.0783 H   0  0  0  0  0  0  0  0  0  0  0  0
  -36.2694   65.4476   63.6902 H   0  0  0  0  0  0  0  0  0  0  0  0
  -35.0742   65.4315   65.8407 H   0  0  0  0  0  0  0  0  0  0  0  0
  -35.2854   67.1011   65.3665 H   0  0  0  0  0  0  0  0  0  0  0  0
  1  4  1  0  0  0  0
  1 31  1  0  0  0  0
  1 56  1  0  0  0  0
  2  3  1  0  0  0  0
  2  4  1  0  0  0  0
  2 57  1  0  0  0  0
  2 58  1  0  0  0  0
  3 49  1  0  0  0  0
  4  6  1  0  0  0  0
  4 59  1  1  0  0  0
  5  6  1  0  0  0  0
  5 60  1  0  0  0  0
  6  8  1  0  0  0  0
  6 61  1  6  0  0  0
  7 31  2  0  0  0  0
  8  9  2  0  0  0  0
  8 62  1  0  0  0  0
  9 11  1  0  0  0  0
  9 63  1  0  0  0  0
 10 50  1  0  0  0  0
 10 64  1  0  0  0  0
 11 13  1  0  0  0  0
 11 65  1  0  0  0  0
 11 66  1  0  0  0  0
 12 51  1  0  0  0  0
 12 55  1  0  0  0  0
 13 15  1  0  0  0  0
 13 67  1  0  0  0  0
 13 68  1  0  0  0  0
 14 55  1  0  0  0  0
 14 69  1  0  0  0  0
 15 17  1  0  0  0  0
 15 70  1  0  0  0  0
 15 71  1  0  0  0  0
 16 52  1  0  0  0  0
 16 72  1  0  0  0  0
 17 19  1  0  0  0  0
 17 73  1  0  0  0  0
 17 74  1  0  0  0  0
 18 49  1  0  0  0  0
 18 53  1  0  0  0  0
 19 21  1  0  0  0  0
 19 75  1  0  0  0  0
 19 76  1  0  0  0  0
 20 54  1  0  0  0  0
 20 77  1  0  0  0  0
 21 22  1  0  0  0  0
 21 78  1  0  0  0  0
 21 79  1  0  0  0  0
 22 23  1  0  0  0  0
 22 80  1  0  0  0  0
 22 81  1  0  0  0  0
 23 25  1  0  0  0  0
 23 82  1  0  0  0  0
 23 83  1  0  0  0  0
 24 55  1  0  0  0  0
 25 27  1  0  0  0  0
 25 84  1  0  0  0  0
 25 85  1  0  0  0  0
 26 55  1  0  0  0  0
 26 86  1  0  0  0  0
 27 28  1  0  0  0  0
 27 87  1  0  0  0  0
 27 88  1  0  0  0  0
 28 29  1  0  0  0  0
 28 89  1  0  0  0  0
 28 90  1  0  0  0  0
 29 30  1  0  0  0  0
 29 91  1  0  0  0  0
 29 92  1  0  0  0  0
 30 93  1  0  0  0  0
 30 94  1  0  0  0  0
 30 95  1  0  0  0  0
 31 32  1  0  0  0  0
 32 33  1  0  0  0  0
 32 96  1  0  0  0  0
 32 97  1  0  0  0  0
 33 34  1  0  0  0  0
 33 98  1  0  0  0  0
 33 99  1  0  0  0  0
 34 35  1  0  0  0  0
 34100  1  0  0  0  0
 34101  1  0  0  0  0
 35 36  1  0  0  0  0
 35102  1  0  0  0  0
 35103  1  0  0  0  0
 36 37  1  0  0  0  0
 36104  1  0  0  0  0
 36105  1  0  0  0  0
 37 38  1  0  0  0  0
 37106  1  0  0  0  0
 37107  1  0  0  0  0
 38 39  1  0  0  0  0
 38108  1  0  0  0  0
 38109  1  0  0  0  0
 39 40  1  0  0  0  0
 39110  1  0  0  0  0
 39111  1  0  0  0  0
 40 41  1  0  0  0  0
 40112  1  0  0  0  0
 40113  1  0  0  0  0
 41 42  1  0  0  0  0
 41114  1  0  0  0  0
 41115  1  0  0  0  0
 42 43  1  0  0  0  0
 42116  1  0  0  0  0
 42117  1  0  0  0  0
 43 44  1  0  0  0  0
 43118  1  0  0  0  0
 43119  1  0  0  0  0
 44 45  1  0  0  0  0
 44120  1  0  0  0  0
 44121  1  0  0  0  0
 45 46  1  0  0  0  0
 45122  1  0  0  0  0
 45123  1  0  0  0  0
 46 47  1  0  0  0  0
 46124  1  0  0  0  0
 46125  1  0  0  0  0
 47 48  1  0  0  0  0
 47126  1  0  0  0  0
 47127  1  0  0  0  0
 48128  1  0  0  0  0
 48129  1  0  0  0  0
 48130  1  0  0  0  0
 49 50  1  0  0  0  0
 49131  1  6  0  0  0
 50 51  1  0  0  0  0
 50132  1  1  0  0  0
 51 52  1  0  0  0  0
 51133  1  6  0  0  0
 52 53  1  0  0  0  0
 52134  1  6  0  0  0
 53 54  1  0  0  0  0
 53135  1  6  0  0  0
 54136  1  0  0  0  0
 54137  1  0  0  0  0
M  CHG  1  24  -1
M  END
$$$$
/media/chris/experiments/cd1a-new-docking/inputs/ligands/1onq_ligand.pdb
 OpenBabel06222310383D

137137  0  0  1  0  0  0  0  0999 V2000
  -40.4920   60.2280   63.6270 N   0  0  0  0  0  0  0  0  0  0  0  0
  -38.5950   61.7730   64.2860 C   0  0  0  0  0  0  0  0  0  0  0  0
  -37.5441   62.0867   65.2349 O   0  0  0  0  0  0  0  0  0  0  0  0
  -39.4590   60.5300   64.5980 C   0  0  1  0  0  0  0  0  0  0  0  0
  -39.2569   60.8461   66.8904 O   0  0  0  0  0  0  0  0  0  0  0  0
  -40.2280   60.5370   65.9080 C   0  0  2  0  0  0  0  0  0  0  0  0
  -39.4065   58.8441   62.1938 O   0  0  0  0  0  0  0  0  0  0  0  0
  -40.8583   59.1606   66.1332 C   0  0  0  0  0  0  0  0  0  0  0  0
  -41.0723   58.6448   67.3556 C   0  0  0  0  0  0  0  0  0  0  0  0
  -36.3260   63.5957   67.3365 O   0  0  0  0  0  0  0  0  0  0  0  0
  -41.7060   57.2621   67.4971 C   0  0  0  0  0  0  0  0  0  0  0  0
  -33.7882   65.0685   66.9357 O   0  0  0  0  0  0  0  0  0  0  0  0
  -43.2388   57.2871   67.5876 C   0  0  0  0  0  0  0  0  0  0  0  0
  -32.0570   66.4929   65.6354 O   0  0  0  0  0  0  0  0  0  0  0  0
  -43.8241   58.0935   68.7617 C   0  0  0  0  0  0  0  0  0  0  0  0
  -33.0907   63.6620   64.7045 O   0  0  0  0  0  0  0  0  0  0  0  0
  -45.3704   58.0288   68.7557 C   0  0  0  0  0  0  0  0  0  0  0  0
  -35.9395   63.1998   63.7956 O   0  0  0  0  0  0  0  0  0  0  0  0
  -46.0505   58.5726   67.4737 C   0  0  0  0  0  0  0  0  0  0  0  0
  -33.4262   65.4161   62.1957 O   0  0  0  0  0  0  0  0  0  0  0  0
  -45.6596   57.8187   66.1808 C   0  0  0  0  0  0  0  0  0  0  0  0
  -46.0343   56.3209   66.2022 C   0  0  0  0  0  0  0  0  0  0  0  0
  -45.6333   55.5656   64.9294 C   0  0  0  0  0  0  0  0  0  0  0  0
  -31.8719   66.2910   68.0467 O   0  5  0  0  0  0  0  0  0  0  0  0
  -45.9943   54.0823   64.8871 C   0  0  0  0  0  0  0  0  0  0  0  0
  -33.5831   67.7019   67.0691 O   0  0  0  0  0  0  0  0  0  0  0  0
  -45.5539   53.3676   63.5943 C   0  0  0  0  0  0  0  0  0  0  0  0
  -45.9176   51.8772   63.5136 C   0  0  0  0  0  0  0  0  0  0  0  0
  -47.4343   51.6768   63.5826 C   0  0  0  0  0  0  0  0  0  0  0  0
  -47.9289   50.2422   63.5296 C   0  0  0  0  0  0  0  0  0  0  0  0
  -40.4039   59.4449   62.5432 C   0  0  0  0  0  0  0  0  0  0  0  0
  -41.6634   59.3275   61.7372 C   0  0  0  0  0  0  0  0  0  0  0  0
  -42.4292   58.1308   62.3018 C   0  0  0  0  0  0  0  0  0  0  0  0
  -43.7261   57.9268   61.5224 C   0  0  0  0  0  0  0  0  0  0  0  0
  -44.6016   56.7849   61.9786 C   0  0  0  0  0  0  0  0  0  0  0  0
  -45.8225   56.7471   61.0655 C   0  0  0  0  0  0  0  0  0  0  0  0
  -46.6287   58.0524   61.0989 C   0  0  0  0  0  0  0  0  0  0  0  0
  -47.1621   58.4305   62.4928 C   0  0  0  0  0  0  0  0  0  0  0  0
  -47.9826   59.7391   62.4870 C   0  0  0  0  0  0  0  0  0  0  0  0
  -48.4724   60.0755   63.8984 C   0  0  0  0  0  0  0  0  0  0  0  0
  -47.3709   60.2931   64.9286 C   0  0  0  0  0  0  0  0  0  0  0  0
  -46.4548   61.4502   64.5586 C   0  0  0  0  0  0  0  0  0  0  0  0
  -47.1220   62.8223   64.4379 C   0  0  0  0  0  0  0  0  0  0  0  0
  -47.7323   63.1749   65.7876 C   0  0  0  0  0  0  0  0  0  0  0  0
  -48.7841   62.2469   66.3773 C   0  0  0  0  0  0  0  0  0  0  0  0
  -49.9925   62.1172   65.4365 C   0  0  0  0  0  0  0  0  0  0  0  0
  -50.7043   63.4465   65.1243 C   0  0  0  0  0  0  0  0  0  0  0  0
  -51.2385   64.1523   66.3685 C   0  0  0  0  0  0  0  0  0  0  0  0
  -36.6675   63.2597   65.0462 C   0  0  2  0  0  0  0  0  0  0  0  0
  -35.6170   63.5011   66.1397 C   0  0  1  0  0  0  0  0  0  0  0  0
  -34.8113   64.8049   65.9489 C   0  0  2  0  0  0  0  0  0  0  0  0
  -34.0971   64.6690   64.6325 C   0  0  2  0  0  0  0  0  0  0  0  0
  -35.0980   64.3555   63.5351 C   0  0  1  0  0  0  0  0  0  0  0  0
  -34.1843   64.2500   62.3160 C   0  0  0  0  0  0  0  0  0  0  0  0
  -32.8264   66.4273   66.9131 S   0  0  0  0  0  0  0  0  0  0  0  0
  -41.3672   60.6509   63.7832 H   0  0  0  0  0  0  0  0  0  0  0  0
  -38.1357   61.6183   63.3320 H   0  0  0  0  0  0  0  0  0  0  0  0
  -39.2690   62.6030   64.3261 H   0  0  0  0  0  0  0  0  0  0  0  0
  -38.6677   59.8099   64.6092 H   0  0  0  0  0  0  0  0  0  0  0  0
  -38.8837   61.7234   66.7113 H   0  0  0  0  0  0  0  0  0  0  0  0
  -41.0317   61.2430   65.9299 H   0  0  0  0  0  0  0  0  0  0  0  0
  -41.1313   58.6032   65.3087 H   0  0  0  0  0  0  0  0  0  0  0  0
  -40.8092   59.1816   68.1968 H   0  0  0  0  0  0  0  0  0  0  0  0
  -36.8391   62.7839   67.4733 H   0  0  0  0  0  0  0  0  0  0  0  0
  -41.3233   56.8054   68.3858 H   0  0  0  0  0  0  0  0  0  0  0  0
  -41.4558   56.7135   66.6131 H   0  0  0  0  0  0  0  0  0  0  0  0
  -43.5794   56.2770   67.6802 H   0  0  0  0  0  0  0  0  0  0  0  0
  -43.5760   57.7783   66.6989 H   0  0  0  0  0  0  0  0  0  0  0  0
  -31.5570   65.6703   65.5164 H   0  0  0  0  0  0  0  0  0  0  0  0
  -43.5153   59.1142   68.6747 H   0  0  0  0  0  0  0  0  0  0  0  0
  -43.4667   57.6732   69.6785 H   0  0  0  0  0  0  0  0  0  0  0  0
  -32.4632   63.8819   65.4108 H   0  0  0  0  0  0  0  0  0  0  0  0
  -45.7285   58.5990   69.5873 H   0  0  0  0  0  0  0  0  0  0  0  0
  -45.6235   56.9904   68.8074 H   0  0  0  0  0  0  0  0  0  0  0  0
  -45.7765   59.6005   67.3587 H   0  0  0  0  0  0  0  0  0  0  0  0
  -47.1039   58.4366   67.6028 H   0  0  0  0  0  0  0  0  0  0  0  0
  -32.8469   65.3466   61.4208 H   0  0  0  0  0  0  0  0  0  0  0  0
  -44.6011   57.9008   66.0481 H   0  0  0  0  0  0  0  0  0  0  0  0
  -46.2062   58.2677   65.3780 H   0  0  0  0  0  0  0  0  0  0  0  0
  -47.0943   56.2398   66.3230 H   0  0  0  0  0  0  0  0  0  0  0  0
  -45.4951   55.8758   67.0121 H   0  0  0  0  0  0  0  0  0  0  0  0
  -44.5719   55.6471   64.8214 H   0  0  0  0  0  0  0  0  0  0  0  0
  -46.1912   56.0201   64.1374 H   0  0  0  0  0  0  0  0  0  0  0  0
  -47.0567   53.9916   64.9767 H   0  0  0  0  0  0  0  0  0  0  0  0
  -45.4717   53.6129   65.6942 H   0  0  0  0  0  0  0  0  0  0  0  0
  -34.2082   67.7988   66.3338 H   0  0  0  0  0  0  0  0  0  0  0  0
  -44.4904   53.4534   63.5146 H   0  0  0  0  0  0  0  0  0  0  0  0
  -46.0827   53.8456   62.7963 H   0  0  0  0  0  0  0  0  0  0  0  0
  -45.4591   51.3606   64.3307 H   0  0  0  0  0  0  0  0  0  0  0  0
  -45.5653   51.4908   62.5801 H   0  0  0  0  0  0  0  0  0  0  0  0
  -47.8699   52.2020   62.7584 H   0  0  0  0  0  0  0  0  0  0  0  0
  -47.7258   52.0426   64.5450 H   0  0  0  0  0  0  0  0  0  0  0  0
  -47.6694   49.8101   62.5857 H   0  0  0  0  0  0  0  0  0  0  0  0
  -48.9921   50.2268   63.6487 H   0  0  0  0  0  0  0  0  0  0  0  0
  -47.4736   49.6786   64.3170 H   0  0  0  0  0  0  0  0  0  0  0  0
  -41.4287   59.1633   60.7063 H   0  0  0  0  0  0  0  0  0  0  0  0
  -42.2460   60.2230   61.7966 H   0  0  0  0  0  0  0  0  0  0  0  0
  -42.6589   58.3107   63.3312 H   0  0  0  0  0  0  0  0  0  0  0  0
  -41.8241   57.2528   62.2133 H   0  0  0  0  0  0  0  0  0  0  0  0
  -43.4684   57.7525   60.4986 H   0  0  0  0  0  0  0  0  0  0  0  0
  -44.3021   58.8137   61.6850 H   0  0  0  0  0  0  0  0  0  0  0  0
  -44.9082   56.9424   62.9916 H   0  0  0  0  0  0  0  0  0  0  0  0
  -44.0673   55.8591   61.9305 H   0  0  0  0  0  0  0  0  0  0  0  0
  -46.4579   55.9444   61.3769 H   0  0  0  0  0  0  0  0  0  0  0  0
  -45.4724   56.6093   60.0638 H   0  0  0  0  0  0  0  0  0  0  0  0
  -47.4632   57.9482   60.4373 H   0  0  0  0  0  0  0  0  0  0  0  0
  -45.9600   58.8338   60.8037 H   0  0  0  0  0  0  0  0  0  0  0  0
  -46.3307   58.5517   63.1553 H   0  0  0  0  0  0  0  0  0  0  0  0
  -47.8137   57.6440   62.8117 H   0  0  0  0  0  0  0  0  0  0  0  0
  -48.8272   59.6215   61.8406 H   0  0  0  0  0  0  0  0  0  0  0  0
  -47.3583   60.5357   62.1400 H   0  0  0  0  0  0  0  0  0  0  0  0
  -49.0885   59.2688   64.2368 H   0  0  0  0  0  0  0  0  0  0  0  0
  -48.9952   61.0058   63.8192 H   0  0  0  0  0  0  0  0  0  0  0  0
  -46.7856   59.4002   65.0004 H   0  0  0  0  0  0  0  0  0  0  0  0
  -47.8375   60.5304   65.8618 H   0  0  0  0  0  0  0  0  0  0  0  0
  -46.0033   61.2218   63.6158 H   0  0  0  0  0  0  0  0  0  0  0  0
  -45.7597   61.5378   65.3674 H   0  0  0  0  0  0  0  0  0  0  0  0
  -47.8882   62.7881   63.6917 H   0  0  0  0  0  0  0  0  0  0  0  0
  -46.4010   63.5602   64.1541 H   0  0  0  0  0  0  0  0  0  0  0  0
  -48.1840   64.1397   65.6870 H   0  0  0  0  0  0  0  0  0  0  0  0
  -46.9116   63.1056   66.4706 H   0  0  0  0  0  0  0  0  0  0  0  0
  -49.1122   62.6414   67.3162 H   0  0  0  0  0  0  0  0  0  0  0  0
  -48.3491   61.2783   66.5095 H   0  0  0  0  0  0  0  0  0  0  0  0
  -50.7013   61.4575   65.8918 H   0  0  0  0  0  0  0  0  0  0  0  0
  -49.6153   61.7482   64.5057 H   0  0  0  0  0  0  0  0  0  0  0  0
  -51.5257   63.2461   64.4685 H   0  0  0  0  0  0  0  0  0  0  0  0
  -49.9809   64.0961   64.6775 H   0  0  0  0  0  0  0  0  0  0  0  0
  -51.9679   63.5314   66.8453 H   0  0  0  0  0  0  0  0  0  0  0  0
  -51.6899   65.0803   66.0859 H   0  0  0  0  0  0  0  0  0  0  0  0
  -50.4319   64.3398   67.0462 H   0  0  0  0  0  0  0  0  0  0  0  0
  -37.3714   64.0651   65.0741 H   0  0  0  0  0  0  0  0  0  0  0  0
  -34.9062   62.7017   66.1156 H   0  0  0  0  0  0  0  0  0  0  0  0
  -35.5159   65.6067   66.0228 H   0  0  0  0  0  0  0  0  0  0  0  0
  -33.6145   65.5961   64.4038 H   0  0  0  0  0  0  0  0  0  0  0  0
  -35.8616   65.0958   63.4182 H   0  0  0  0  0  0  0  0  0  0  0  0
  -33.5307   63.4109   62.4325 H   0  0  0  0  0  0  0  0  0  0  0  0
  -34.7797   64.1214   61.4363 H   0  0  0  0  0  0  0  0  0  0  0  0
  1  4  1  0  0  0  0
  1 31  1  0  0  0  0
  1 56  1  0  0  0  0
  2  3  1  0  0  0  0
  2  4  1  0  0  0  0
  2 57  1  0  0  0  0
  2 58  1  0  0  0  0
  3 49  1  0  0  0  0
  4  6  1  0  0  0  0
  4 59  1  1  0  0  0
  5  6  1  0  0  0  0
  5 60  1  0  0  0  0
  6  8  1  0  0  0  0
  6 61  1  6  0  0  0
  7 31  2  0  0  0  0
  8  9  2  0  0  0  0
  8 62  1  0  0  0  0
  9 11  1  0  0  0  0
  9 63  1  0  0  0  0
 10 50  1  0  0  0  0
 10 64  1  0  0  0  0
 11 13  1  0  0  0  0
 11 65  1  0  0  0  0
 11 66  1  0  0  0  0
 12 51  1  0  0  0  0
 12 55  1  0  0  0  0
 13 15  1  0  0  0  0
 13 67  1  0  0  0  0
 13 68  1  0  0  0  0
 14 55  1  0  0  0  0
 14 69  1  0  0  0  0
 15 17  1  0  0  0  0
 15 70  1  0  0  0  0
 15 71  1  0  0  0  0
 16 52  1  0  0  0  0
 16 72  1  0  0  0  0
 17 19  1  0  0  0  0
 17 73  1  0  0  0  0
 17 74  1  0  0  0  0
 18 49  1  0  0  0  0
 18 53  1  0  0  0  0
 19 21  1  0  0  0  0
 19 75  1  0  0  0  0
 19 76  1  0  0  0  0
 20 54  1  0  0  0  0
 20 77  1  0  0  0  0
 21 22  1  0  0  0  0
 21 78  1  0  0  0  0
 21 79  1  0  0  0  0
 22 23  1  0  0  0  0
 22 80  1  0  0  0  0
 22 81  1  0  0  0  0
 23 25  1  0  0  0  0
 23 82  1  0  0  0  0
 23 83  1  0  0  0  0
 24 55  1  0  0  0  0
 25 27  1  0  0  0  0
 25 84  1  0  0  0  0
 25 85  1  0  0  0  0
 26 55  1  0  0  0  0
 26 86  1  0  0  0  0
 27 28  1  0  0  0  0
 27 87  1  0  0  0  0
 27 88  1  0  0  0  0
 28 29  1  0  0  0  0
 28 89  1  0  0  0  0
 28 90  1  0  0  0  0
 29 30  1  0  0  0  0
 29 91  1  0  0  0  0
 29 92  1  0  0  0  0
 30 93  1  0  0  0  0
 30 94  1  0  0  0  0
 30 95  1  0  0  0  0
 31 32  1  0  0  0  0
 32 33  1  0  0  0  0
 32 96  1  0  0  0  0
 32 97  1  0  0  0  0
 33 34  1  0  0  0  0
 33 98  1  0  0  0  0
 33 99  1  0  0  0  0
 34 35  1  0  0  0  0
 34100  1  0  0  0  0
 34101  1  0  0  0  0
 35 36  1  0  0  0  0
 35102  1  0  0  0  0
 35103  1  0  0  0  0
 36 37  1  0  0  0  0
 36104  1  0  0  0  0
 36105  1  0  0  0  0
 37 38  1  0  0  0  0
 37106  1  0  0  0  0
 37107  1  0  0  0  0
 38 39  1  0  0  0  0
 38108  1  0  0  0  0
 38109  1  0  0  0  0
 39 40  1  0  0  0  0
 39110  1  0  0  0  0
 39111  1  0  0  0  0
 40 41  1  0  0  0  0
 40112  1  0  0  0  0
 40113  1  0  0  0  0
 41 42  1  0  0  0  0
 41114  1  0  0  0  0
 41115  1  0  0  0  0
 42 43  1  0  0  0  0
 42116  1  0  0  0  0
 42117  1  0  0  0  0
 43 44  1  0  0  0  0
 43118  1  0  0  0  0
 43119  1  0  0  0  0
 44 45  1  0  0  0  0
 44120  1  0  0  0  0
 44121  1  0  0  0  0
 45 46  1  0  0  0  0
 45122  1  0  0  0  0
 45123  1  0  0  0  0
 46 47  1  0  0  0  0
 46124  1  0  0  0  0
 46125  1  0  0  0  0
 47 48  1  0  0  0  0
 47126  1  0  0  0  0
 47127  1  0  0  0  0
 48128  1  0  0  0  0
 48129  1  0  0  0  0
 48130  1  0  0  0  0
 49 50  1  0  0  0  0
 49131  1  6  0  0  0
 50 51  1  0  0  0  0
 50132  1  1  0  0  0
 51 52  1  0  0  0  0
 51133  1  6  0  0  0
 52 53  1  0  0  0  0
 52134  1  6  0  0  0
 53 54  1  0  0  0  0
 53135  1  6  0  0  0
 54136  1  0  0  0  0
 54137  1  0  0  0  0
M  CHG  1  24  -1
M  END
$$$$
/media/chris/experiments/cd1a-new-docking/inputs/ligands/1onq_ligand.pdb
 OpenBabel06222310383D

137137  0  0  1  0  0  0  0  0999 V2000
  -40.4920   60.2280   63.6270 N   0  0  0  0  0  0  0  0  0  0  0  0
  -38.5950   61.7730   64.2860 C   0  0  0  0  0  0  0  0  0  0  0  0
  -37.5441   62.0867   65.2349 O   0  0  0  0  0  0  0  0  0  0  0  0
  -39.4590   60.5300   64.5980 C   0  0  1  0  0  0  0  0  0  0  0  0
  -39.2569   60.8461   66.8904 O   0  0  0  0  0  0  0  0  0  0  0  0
  -40.2280   60.5370   65.9080 C   0  0  2  0  0  0  0  0  0  0  0  0
  -39.4065   58.8441   62.1938 O   0  0  0  0  0  0  0  0  0  0  0  0
  -40.8583   59.1606   66.1332 C   0  0  0  0  0  0  0  0  0  0  0  0
  -41.0723   58.6448   67.3556 C   0  0  0  0  0  0  0  0  0  0  0  0
  -36.3260   63.5957   67.3365 O   0  0  0  0  0  0  0  0  0  0  0  0
  -41.7060   57.2621   67.4971 C   0  0  0  0  0  0  0  0  0  0  0  0
  -33.7882   65.0685   66.9357 O   0  0  0  0  0  0  0  0  0  0  0  0
  -40.8212   56.2451   68.2326 C   0  0  0  0  0  0  0  0  0  0  0  0
  -35.0671   66.3399   68.7971 O   0  0  0  0  0  0  0  0  0  0  0  0
  -39.4490   55.9685   67.5909 C   0  0  0  0  0  0  0  0  0  0  0  0
  -33.0907   63.6620   64.7045 O   0  0  0  0  0  0  0  0  0  0  0  0
  -38.6610   54.9185   68.4105 C   0  0  0  0  0  0  0  0  0  0  0  0
  -35.9395   63.1998   63.7956 O   0  0  0  0  0  0  0  0  0  0  0  0
  -39.3390   53.5304   68.5337 C   0  0  0  0  0  0  0  0  0  0  0  0
  -33.4262   65.4161   62.1957 O   0  0  0  0  0  0  0  0  0  0  0  0
  -39.5753   52.8186   67.1808 C   0  0  0  0  0  0  0  0  0  0  0  0
  -38.2758   52.5372   66.3958 C   0  0  0  0  0  0  0  0  0  0  0  0
  -38.5066   51.8470   65.0461 C   0  0  0  0  0  0  0  0  0  0  0  0
  -32.8125   65.5484   69.2201 O   0  5  0  0  0  0  0  0  0  0  0  0
  -39.3587   52.6139   64.0369 C   0  0  0  0  0  0  0  0  0  0  0  0
  -34.6660   63.9871   69.1841 O   0  0  0  0  0  0  0  0  0  0  0  0
  -39.5736   51.8686   62.7049 C   0  0  0  0  0  0  0  0  0  0  0  0
  -40.4131   52.6213   61.6615 C   0  0  0  0  0  0  0  0  0  0  0  0
  -39.7499   53.9462   61.2741 C   0  0  0  0  0  0  0  0  0  0  0  0
  -40.4887   54.7993   60.2583 C   0  0  0  0  0  0  0  0  0  0  0  0
  -40.4039   59.4449   62.5432 C   0  0  0  0  0  0  0  0  0  0  0  0
  -41.6634   59.3275   61.7372 C   0  0  0  0  0  0  0  0  0  0  0  0
  -41.3476   58.3867   60.5744 C   0  0  0  0  0  0  0  0  0  0  0  0
  -42.5788   58.2234   59.6864 C   0  0  0  0  0  0  0  0  0  0  0  0
  -42.4233   57.3044   58.4991 C   0  0  0  0  0  0  0  0  0  0  0  0
  -43.7488   57.2977   57.7448 C   0  0  0  0  0  0  0  0  0  0  0  0
  -44.9213   56.8179   58.6107 C   0  0  0  0  0  0  0  0  0  0  0  0
  -44.7527   55.3934   59.1701 C   0  0  0  0  0  0  0  0  0  0  0  0
  -45.9574   54.9363   60.0218 C   0  0  0  0  0  0  0  0  0  0  0  0
  -45.7290   53.5231   60.5656 C   0  0  0  0  0  0  0  0  0  0  0  0
  -44.5123   53.3689   61.4700 C   0  0  0  0  0  0  0  0  0  0  0  0
  -44.6012   54.2438   62.7116 C   0  0  0  0  0  0  0  0  0  0  0  0
  -45.7869   53.9723   63.6404 C   0  0  0  0  0  0  0  0  0  0  0  0
  -45.7126   54.9504   64.8051 C   0  0  0  0  0  0  0  0  0  0  0  0
  -44.4748   54.9383   65.6898 C   0  0  0  0  0  0  0  0  0  0  0  0
  -44.2764   53.5594   66.3388 C   0  0  0  0  0  0  0  0  0  0  0  0
  -45.4505   53.0930   67.2191 C   0  0  0  0  0  0  0  0  0  0  0  0
  -45.7514   54.0418   68.3770 C   0  0  0  0  0  0  0  0  0  0  0  0
  -36.6675   63.2597   65.0462 C   0  0  2  0  0  0  0  0  0  0  0  0
  -35.6170   63.5011   66.1397 C   0  0  1  0  0  0  0  0  0  0  0  0
  -34.8113   64.8049   65.9489 C   0  0  2  0  0  0  0  0  0  0  0  0
  -34.0971   64.6690   64.6325 C   0  0  2  0  0  0  0  0  0  0  0  0
  -35.0980   64.3555   63.5351 C   0  0  1  0  0  0  0  0  0  0  0  0
  -34.1843   64.2500   62.3160 C   0  0  0  0  0  0  0  0  0  0  0  0
  -34.1068   65.2212   68.5628 S   0  0  0  0  0  0  0  0  0  0  0  0
  -41.3672   60.6509   63.7832 H   0  0  0  0  0  0  0  0  0  0  0  0
  -38.1357   61.6183   63.3320 H   0  0  0  0  0  0  0  0  0  0  0  0
  -39.2690   62.6030   64.3261 H   0  0  0  0  0  0  0  0  0  0  0  0
  -38.6677   59.8099   64.6092 H   0  0  0  0  0  0  0  0  0  0  0  0
  -38.8837   61.7234   66.7113 H   0  0  0  0  0  0  0  0  0  0  0  0
  -41.0317   61.2430   65.9299 H   0  0  0  0  0  0  0  0  0  0  0  0
  -41.1313   58.6032   65.3087 H   0  0  0  0  0  0  0  0  0  0  0  0
  -40.8092   59.1816   68.1968 H   0  0  0  0  0  0  0  0  0  0  0  0
  -36.8391   62.7839   67.4733 H   0  0  0  0  0  0  0  0  0  0  0  0
  -41.9116   56.8838   66.5175 H   0  0  0  0  0  0  0  0  0  0  0  0
  -42.5922   57.3849   68.0840 H   0  0  0  0  0  0  0  0  0  0  0  0
  -41.3547   55.3188   68.2804 H   0  0  0  0  0  0  0  0  0  0  0  0
  -40.6146   56.6760   69.1899 H   0  0  0  0  0  0  0  0  0  0  0  0
  -34.7195   67.1532   68.3990 H   0  0  0  0  0  0  0  0  0  0  0  0
  -38.8882   56.8791   67.5557 H   0  0  0  0  0  0  0  0  0  0  0  0
  -39.6028   55.5876   66.6029 H   0  0  0  0  0  0  0  0  0  0  0  0
  -32.4632   63.8819   65.4108 H   0  0  0  0  0  0  0  0  0  0  0  0
  -38.5209   55.3068   69.3977 H   0  0  0  0  0  0  0  0  0  0  0  0
  -37.7459   54.7551   67.8806 H   0  0  0  0  0  0  0  0  0  0  0  0
  -40.2860   53.6609   69.0143 H   0  0  0  0  0  0  0  0  0  0  0  0
  -38.6715   52.9106   69.0951 H   0  0  0  0  0  0  0  0  0  0  0  0
  -32.8469   65.3466   61.4208 H   0  0  0  0  0  0  0  0  0  0  0  0
  -40.2071   53.4376   66.5786 H   0  0  0  0  0  0  0  0  0  0  0  0
  -40.0222   51.8711   67.3983 H   0  0  0  0  0  0  0  0  0  0  0  0
  -37.6497   51.9085   66.9937 H   0  0  0  0  0  0  0  0  0  0  0  0
  -37.8249   53.4852   66.1885 H   0  0  0  0  0  0  0  0  0  0  0  0
  -38.9880   50.9105   65.2358 H   0  0  0  0  0  0  0  0  0  0  0  0
  -37.5387   51.7602   64.5982 H   0  0  0  0  0  0  0  0  0  0  0  0
  -38.8757   53.5454   63.8274 H   0  0  0  0  0  0  0  0  0  0  0  0
  -40.3242   52.7415   64.4800 H   0  0  0  0  0  0  0  0  0  0  0  0
  -35.5105   63.7664   68.7611 H   0  0  0  0  0  0  0  0  0  0  0  0
  -40.0649   50.9426   62.9193 H   0  0  0  0  0  0  0  0  0  0  0  0
  -38.6023   51.7474   62.2727 H   0  0  0  0  0  0  0  0  0  0  0  0
  -41.3815   52.8213   62.0701 H   0  0  0  0  0  0  0  0  0  0  0  0
  -40.4937   52.0120   60.7856 H   0  0  0  0  0  0  0  0  0  0  0  0
  -38.7850   53.7213   60.8701 H   0  0  0  0  0  0  0  0  0  0  0  0
  -39.7298   54.5272   62.1723 H   0  0  0  0  0  0  0  0  0  0  0  0
  -40.5466   54.2753   59.3272 H   0  0  0  0  0  0  0  0  0  0  0  0
  -39.9633   55.7207   60.1169 H   0  0  0  0  0  0  0  0  0  0  0  0
  -41.4767   55.0032   60.6149 H   0  0  0  0  0  0  0  0  0  0  0  0
  -41.9563   60.2877   61.3669 H   0  0  0  0  0  0  0  0  0  0  0  0
  -42.4698   58.9515   62.3315 H   0  0  0  0  0  0  0  0  0  0  0  0
  -41.0593   57.4310   60.9598 H   0  0  0  0  0  0  0  0  0  0  0  0
  -40.5486   58.7999   59.9949 H   0  0  0  0  0  0  0  0  0  0  0  0
  -42.8468   59.1915   59.3177 H   0  0  0  0  0  0  0  0  0  0  0  0
  -43.3226   57.7687   60.3067 H   0  0  0  0  0  0  0  0  0  0  0  0
  -42.1877   56.3151   58.8318 H   0  0  0  0  0  0  0  0  0  0  0  0
  -41.6310   57.6417   57.8639 H   0  0  0  0  0  0  0  0  0  0  0  0
  -43.6585   56.6470   56.9001 H   0  0  0  0  0  0  0  0  0  0  0  0
  -43.9569   58.3046   57.4487 H   0  0  0  0  0  0  0  0  0  0  0  0
  -45.8098   56.8412   58.0149 H   0  0  0  0  0  0  0  0  0  0  0  0
  -44.9695   57.4751   59.4537 H   0  0  0  0  0  0  0  0  0  0  0  0
  -43.8740   55.3678   59.7800 H   0  0  0  0  0  0  0  0  0  0  0  0
  -44.6777   54.7274   58.3360 H   0  0  0  0  0  0  0  0  0  0  0  0
  -46.8388   54.9412   59.4151 H   0  0  0  0  0  0  0  0  0  0  0  0
  -46.0713   55.6085   60.8463 H   0  0  0  0  0  0  0  0  0  0  0  0
  -45.6090   52.8624   59.7326 H   0  0  0  0  0  0  0  0  0  0  0  0
  -46.5815   53.2945   61.1705 H   0  0  0  0  0  0  0  0  0  0  0  0
  -43.6369   53.6419   60.9186 H   0  0  0  0  0  0  0  0  0  0  0  0
  -44.4698   52.3489   61.7906 H   0  0  0  0  0  0  0  0  0  0  0  0
  -44.6637   55.2626   62.3904 H   0  0  0  0  0  0  0  0  0  0  0  0
  -43.7273   54.0186   63.2863 H   0  0  0  0  0  0  0  0  0  0  0  0
  -45.7374   52.9683   64.0069 H   0  0  0  0  0  0  0  0  0  0  0  0
  -46.7079   54.0979   63.1104 H   0  0  0  0  0  0  0  0  0  0  0  0
  -46.5535   54.7529   65.4366 H   0  0  0  0  0  0  0  0  0  0  0  0
  -45.6884   55.9120   64.3364 H   0  0  0  0  0  0  0  0  0  0  0  0
  -44.5867   55.6742   66.4585 H   0  0  0  0  0  0  0  0  0  0  0  0
  -43.6202   55.1566   65.0841 H   0  0  0  0  0  0  0  0  0  0  0  0
  -43.3976   53.6001   66.9480 H   0  0  0  0  0  0  0  0  0  0  0  0
  -44.1979   52.8544   65.5377 H   0  0  0  0  0  0  0  0  0  0  0  0
  -45.2119   52.1308   67.6217 H   0  0  0  0  0  0  0  0  0  0  0  0
  -46.3211   53.0653   66.5976 H   0  0  0  0  0  0  0  0  0  0  0  0
  -44.9007   54.0963   69.0237 H   0  0  0  0  0  0  0  0  0  0  0  0
  -46.5944   53.6779   68.9264 H   0  0  0  0  0  0  0  0  0  0  0  0
  -45.9700   55.0160   67.9922 H   0  0  0  0  0  0  0  0  0  0  0  0
  -37.3714   64.0651   65.0741 H   0  0  0  0  0  0  0  0  0  0  0  0
  -34.9062   62.7017   66.1156 H   0  0  0  0  0  0  0  0  0  0  0  0
  -35.5159   65.6067   66.0228 H   0  0  0  0  0  0  0  0  0  0  0  0
  -33.6145   65.5961   64.4038 H   0  0  0  0  0  0  0  0  0  0  0  0
  -35.8616   65.0958   63.4182 H   0  0  0  0  0  0  0  0  0  0  0  0
  -33.5307   63.4109   62.4325 H   0  0  0  0  0  0  0  0  0  0  0  0
  -34.7797   64.1214   61.4363 H   0  0  0  0  0  0  0  0  0  0  0  0
  1  4  1  0  0  0  0
  1 31  1  0  0  0  0
  1 56  1  0  0  0  0
  2  3  1  0  0  0  0
  2  4  1  0  0  0  0
  2 57  1  0  0  0  0
  2 58  1  0  0  0  0
  3 49  1  0  0  0  0
  4  6  1  0  0  0  0
  4 59  1  1  0  0  0
  5  6  1  0  0  0  0
  5 60  1  0  0  0  0
  6  8  1  0  0  0  0
  6 61  1  6  0  0  0
  7 31  2  0  0  0  0
  8  9  2  0  0  0  0
  8 62  1  0  0  0  0
  9 11  1  0  0  0  0
  9 63  1  0  0  0  0
 10 50  1  0  0  0  0
 10 64  1  0  0  0  0
 11 13  1  0  0  0  0
 11 65  1  0  0  0  0
 11 66  1  0  0  0  0
 12 51  1  0  0  0  0
 12 55  1  0  0  0  0
 13 15  1  0  0  0  0
 13 67  1  0  0  0  0
 13 68  1  0  0  0  0
 14 55  1  0  0  0  0
 14 69  1  0  0  0  0
 15 17  1  0  0  0  0
 15 70  1  0  0  0  0
 15 71  1  0  0  0  0
 16 52  1  0  0  0  0
 16 72  1  0  0  0  0
 17 19  1  0  0  0  0
 17 73  1  0  0  0  0
 17 74  1  0  0  0  0
 18 49  1  0  0  0  0
 18 53  1  0  0  0  0
 19 21  1  0  0  0  0
 19 75  1  0  0  0  0
 19 76  1  0  0  0  0
 20 54  1  0  0  0  0
 20 77  1  0  0  0  0
 21 22  1  0  0  0  0
 21 78  1  0  0  0  0
 21 79  1  0  0  0  0
 22 23  1  0  0  0  0
 22 80  1  0  0  0  0
 22 81  1  0  0  0  0
 23 25  1  0  0  0  0
 23 82  1  0  0  0  0
 23 83  1  0  0  0  0
 24 55  1  0  0  0  0
 25 27  1  0  0  0  0
 25 84  1  0  0  0  0
 25 85  1  0  0  0  0
 26 55  1  0  0  0  0
 26 86  1  0  0  0  0
 27 28  1  0  0  0  0
 27 87  1  0  0  0  0
 27 88  1  0  0  0  0
 28 29  1  0  0  0  0
 28 89  1  0  0  0  0
 28 90  1  0  0  0  0
 29 30  1  0  0  0  0
 29 91  1  0  0  0  0
 29 92  1  0  0  0  0
 30 93  1  0  0  0  0
 30 94  1  0  0  0  0
 30 95  1  0  0  0  0
 31 32  1  0  0  0  0
 32 33  1  0  0  0  0
 32 96  1  0  0  0  0
 32 97  1  0  0  0  0
 33 34  1  0  0  0  0
 33 98  1  0  0  0  0
 33 99  1  0  0  0  0
 34 35  1  0  0  0  0
 34100  1  0  0  0  0
 34101  1  0  0  0  0
 35 36  1  0  0  0  0
 35102  1  0  0  0  0
 35103  1  0  0  0  0
 36 37  1  0  0  0  0
 36104  1  0  0  0  0
 36105  1  0  0  0  0
 37 38  1  0  0  0  0
 37106  1  0  0  0  0
 37107  1  0  0  0  0
 38 39  1  0  0  0  0
 38108  1  0  0  0  0
 38109  1  0  0  0  0
 39 40  1  0  0  0  0
 39110  1  0  0  0  0
 39111  1  0  0  0  0
 40 41  1  0  0  0  0
 40112  1  0  0  0  0
 40113  1  0  0  0  0
 41 42  1  0  0  0  0
 41114  1  0  0  0  0
 41115  1  0  0  0  0
 42 43  1  0  0  0  0
 42116  1  0  0  0  0
 42117  1  0  0  0  0
 43 44  1  0  0  0  0
 43118  1  0  0  0  0
 43119  1  0  0  0  0
 44 45  1  0  0  0  0
 44120  1  0  0  0  0
 44121  1  0  0  0  0
 45 46  1  0  0  0  0
 45122  1  0  0  0  0
 45123  1  0  0  0  0
 46 47  1  0  0  0  0
 46124  1  0  0  0  0
 46125  1  0  0  0  0
 47 48  1  0  0  0  0
 47126  1  0  0  0  0
 47127  1  0  0  0  0
 48128  1  0  0  0  0
 48129  1  0  0  0  0
 48130  1  0  0  0  0
 49 50  1  0  0  0  0
 49131  1  6  0  0  0
 50 51  1  0  0  0  0
 50132  1  1  0  0  0
 51 52  1  0  0  0  0
 51133  1  6  0  0  0
 52 53  1  0  0  0  0
 52134  1  6  0  0  0
 53 54  1  0  0  0  0
 53135  1  6  0  0  0
 54136  1  0  0  0  0
 54137  1  0  0  0  0
M  CHG  1  24  -1
M  END
$$$$
/media/chris/experiments/cd1a-new-docking/inputs/ligands/1onq_ligand.pdb
 OpenBabel06222310383D

137137  0  0  1  0  0  0  0  0999 V2000
  -40.4920   60.2280   63.6270 N   0  0  0  0  0  0  0  0  0  0  0  0
  -38.5950   61.7730   64.2860 C   0  0  0  0  0  0  0  0  0  0  0  0
  -39.2927   63.0412   64.1953 O   0  0  0  0  0  0  0  0  0  0  0  0
  -39.4590   60.5300   64.5980 C   0  0  1  0  0  0  0  0  0  0  0  0
  -39.2569   60.8461   66.8904 O   0  0  0  0  0  0  0  0  0  0  0  0
  -40.2280   60.5370   65.9080 C   0  0  2  0  0  0  0  0  0  0  0  0
  -42.2618   61.3924   64.4390 O   0  0  0  0  0  0  0  0  0  0  0  0
  -40.8583   59.1606   66.1332 C   0  0  0  0  0  0  0  0  0  0  0  0
  -42.0897   58.8399   65.7007 C   0  0  0  0  0  0  0  0  0  0  0  0
  -36.9245   63.2334   62.6041 O   0  0  0  0  0  0  0  0  0  0  0  0
  -42.6490   57.4435   65.9661 C   0  0  0  0  0  0  0  0  0  0  0  0
  -36.2474   65.6923   61.0988 O   0  0  0  0  0  0  0  0  0  0  0  0
  -42.7691   57.0949   67.4568 C   0  0  0  0  0  0  0  0  0  0  0  0
  -33.9903   64.5362   61.6333 O   0  0  0  0  0  0  0  0  0  0  0  0
  -43.6955   58.0071   68.2821 C   0  0  0  0  0  0  0  0  0  0  0  0
  -38.7865   66.6864   61.1867 O   0  0  0  0  0  0  0  0  0  0  0  0
  -45.1443   57.9532   67.7402 C   0  0  0  0  0  0  0  0  0  0  0  0
  -39.4547   65.4386   63.8611 O   0  0  0  0  0  0  0  0  0  0  0  0
  -46.1639   58.8496   68.4873 C   0  0  0  0  0  0  0  0  0  0  0  0
  -40.5437   67.6756   62.3121 O   0  0  0  0  0  0  0  0  0  0  0  0
  -47.6066   58.7632   67.9359 C   0  0  0  0  0  0  0  0  0  0  0  0
  -48.2155   57.3467   68.0187 C   0  0  0  0  0  0  0  0  0  0  0  0
  -48.3192   56.8014   69.4481 C   0  0  0  0  0  0  0  0  0  0  0  0
  -34.5490   65.0650   59.3317 O   0  5  0  0  0  0  0  0  0  0  0  0
  -49.1883   57.6061   70.4122 C   0  0  0  0  0  0  0  0  0  0  0  0
  -35.6260   63.2046   60.4511 O   0  0  0  0  0  0  0  0  0  0  0  0
  -50.6634   57.7193   69.9793 C   0  0  0  0  0  0  0  0  0  0  0  0
  -51.5609   58.5376   70.9200 C   0  0  0  0  0  0  0  0  0  0  0  0
  -51.0668   59.9827   71.0324 C   0  0  0  0  0  0  0  0  0  0  0  0
  -51.0345   60.7872   69.7451 C   0  0  0  0  0  0  0  0  0  0  0  0
  -41.7615   60.6565   63.6107 C   0  0  0  0  0  0  0  0  0  0  0  0
  -42.5847   60.1680   62.4559 C   0  0  0  0  0  0  0  0  0  0  0  0
  -42.6099   58.6428   62.5563 C   0  0  0  0  0  0  0  0  0  0  0  0
  -43.4180   58.0574   61.4007 C   0  0  0  0  0  0  0  0  0  0  0  0
  -43.5460   56.5535   61.3755 C   0  0  0  0  0  0  0  0  0  0  0  0
  -44.2507   56.1295   62.6599 C   0  0  0  0  0  0  0  0  0  0  0  0
  -44.4279   54.6088   62.7646 C   0  0  0  0  0  0  0  0  0  0  0  0
  -45.1515   54.1431   64.0414 C   0  0  0  0  0  0  0  0  0  0  0  0
  -44.4206   54.5669   65.3343 C   0  0  0  0  0  0  0  0  0  0  0  0
  -45.1729   54.0637   66.5696 C   0  0  0  0  0  0  0  0  0  0  0  0
  -46.6064   54.5638   66.6997 C   0  0  0  0  0  0  0  0  0  0  0  0
  -47.2886   54.0407   67.9552 C   0  0  0  0  0  0  0  0  0  0  0  0
  -47.3881   52.5186   68.0803 C   0  0  0  0  0  0  0  0  0  0  0  0
  -48.1103   52.1944   69.3810 C   0  0  0  0  0  0  0  0  0  0  0  0
  -48.3249   50.7344   69.7517 C   0  0  0  0  0  0  0  0  0  0  0  0
  -49.0830   50.6108   71.0829 C   0  0  0  0  0  0  0  0  0  0  0  0
  -49.3298   49.1629   71.5452 C   0  0  0  0  0  0  0  0  0  0  0  0
  -50.0993   49.0718   72.8609 C   0  0  0  0  0  0  0  0  0  0  0  0
  -38.5707   64.2916   63.8868 C   0  0  2  0  0  0  0  0  0  0  0  0
  -37.8007   64.3171   62.5587 C   0  0  1  0  0  0  0  0  0  0  0  0
  -36.9714   65.6028   62.3469 C   0  0  2  0  0  0  0  0  0  0  0  0
  -37.9542   66.7410   62.3427 C   0  0  2  0  0  0  0  0  0  0  0  0
  -38.7875   66.7050   63.6110 C   0  0  1  0  0  0  0  0  0  0  0  0
  -39.7042   67.9085   63.4028 C   0  0  0  0  0  0  0  0  0  0  0  0
  -35.0951   64.5857   60.6304 S   0  0  0  0  0  0  0  0  0  0  0  0
  -40.2280   59.6342   62.8875 H   0  0  0  0  0  0  0  0  0  0  0  0
  -37.8608   61.8607   65.0594 H   0  0  0  0  0  0  0  0  0  0  0  0
  -38.1940   61.6005   63.3091 H   0  0  0  0  0  0  0  0  0  0  0  0
  -38.6677   59.8099   64.6092 H   0  0  0  0  0  0  0  0  0  0  0  0
  -38.8837   61.7234   66.7113 H   0  0  0  0  0  0  0  0  0  0  0  0
  -41.0317   61.2430   65.9299 H   0  0  0  0  0  0  0  0  0  0  0  0
  -40.3128   58.4462   66.6402 H   0  0  0  0  0  0  0  0  0  0  0  0
  -42.6561   59.5355   65.1904 H   0  0  0  0  0  0  0  0  0  0  0  0
  -37.4286   62.4154   62.7369 H   0  0  0  0  0  0  0  0  0  0  0  0
  -42.0019   56.7277   65.5037 H   0  0  0  0  0  0  0  0  0  0  0  0
  -43.6393   57.4232   65.5614 H   0  0  0  0  0  0  0  0  0  0  0  0
  -41.7904   57.1450   67.8863 H   0  0  0  0  0  0  0  0  0  0  0  0
  -43.2094   56.1204   67.4945 H   0  0  0  0  0  0  0  0  0  0  0  0
  -33.6315   65.4279   61.7634 H   0  0  0  0  0  0  0  0  0  0  0  0
  -43.3372   59.0137   68.2262 H   0  0  0  0  0  0  0  0  0  0  0  0
  -43.6959   57.6678   69.2969 H   0  0  0  0  0  0  0  0  0  0  0  0
  -38.2346   66.7105   60.3894 H   0  0  0  0  0  0  0  0  0  0  0  0
  -45.4842   56.9407   67.8052 H   0  0  0  0  0  0  0  0  0  0  0  0
  -45.0998   58.3267   66.7385 H   0  0  0  0  0  0  0  0  0  0  0  0
  -45.8362   59.8654   68.4122 H   0  0  0  0  0  0  0  0  0  0  0  0
  -46.1992   58.4994   69.4978 H   0  0  0  0  0  0  0  0  0  0  0  0
  -41.1248   68.4413   62.1820 H   0  0  0  0  0  0  0  0  0  0  0  0
  -47.5956   59.0674   66.9101 H   0  0  0  0  0  0  0  0  0  0  0  0
  -48.2136   59.4019   68.5429 H   0  0  0  0  0  0  0  0  0  0  0  0
  -47.6020   56.6817   67.4474 H   0  0  0  0  0  0  0  0  0  0  0  0
  -49.2128   57.4128   67.6367 H   0  0  0  0  0  0  0  0  0  0  0  0
  -47.3305   56.7609   69.8552 H   0  0  0  0  0  0  0  0  0  0  0  0
  -48.7963   55.8478   69.3582 H   0  0  0  0  0  0  0  0  0  0  0  0
  -48.7827   58.5934   70.4870 H   0  0  0  0  0  0  0  0  0  0  0  0
  -49.1786   57.0853   71.3468 H   0  0  0  0  0  0  0  0  0  0  0  0
  -35.9843   62.8840   61.2936 H   0  0  0  0  0  0  0  0  0  0  0  0
  -51.0663   56.7301   69.9151 H   0  0  0  0  0  0  0  0  0  0  0  0
  -50.6592   58.2410   69.0451 H   0  0  0  0  0  0  0  0  0  0  0  0
  -51.5514   58.0882   71.8911 H   0  0  0  0  0  0  0  0  0  0  0  0
  -52.5535   58.5472   70.5206 H   0  0  0  0  0  0  0  0  0  0  0  0
  -50.0718   59.9569   71.4252 H   0  0  0  0  0  0  0  0  0  0  0  0
  -51.7781   60.4783   71.6595 H   0  0  0  0  0  0  0  0  0  0  0  0
  -50.3372   60.3442   69.0650 H   0  0  0  0  0  0  0  0  0  0  0  0
  -50.7345   61.7916   69.9596 H   0  0  0  0  0  0  0  0  0  0  0  0
  -52.0091   60.7927   69.3034 H   0  0  0  0  0  0  0  0  0  0  0  0
  -42.1401   60.4704   61.5308 H   0  0  0  0  0  0  0  0  0  0  0  0
  -43.5740   60.5745   62.4862 H   0  0  0  0  0  0  0  0  0  0  0  0
  -43.0591   58.3560   63.4841 H   0  0  0  0  0  0  0  0  0  0  0  0
  -41.6078   58.2708   62.5083 H   0  0  0  0  0  0  0  0  0  0  0  0
  -42.9502   58.3611   60.4876 H   0  0  0  0  0  0  0  0  0  0  0  0
  -44.4133   58.4287   61.5285 H   0  0  0  0  0  0  0  0  0  0  0  0
  -42.5756   56.1055   61.3268 H   0  0  0  0  0  0  0  0  0  0  0  0
  -44.1040   56.2381   60.5188 H   0  0  0  0  0  0  0  0  0  0  0  0
  -45.2165   56.5892   62.6881 H   0  0  0  0  0  0  0  0  0  0  0  0
  -43.6397   56.4407   63.4813 H   0  0  0  0  0  0  0  0  0  0  0  0
  -43.4586   54.1560   62.7445 H   0  0  0  0  0  0  0  0  0  0  0  0
  -45.0412   54.3135   61.9391 H   0  0  0  0  0  0  0  0  0  0  0  0
  -45.2227   53.0756   64.0235 H   0  0  0  0  0  0  0  0  0  0  0  0
  -46.1161   54.6061   64.0511 H   0  0  0  0  0  0  0  0  0  0  0  0
  -44.3603   55.6346   65.3702 H   0  0  0  0  0  0  0  0  0  0  0  0
  -43.4393   54.1402   65.3310 H   0  0  0  0  0  0  0  0  0  0  0  0
  -44.6320   54.3773   67.4380 H   0  0  0  0  0  0  0  0  0  0  0  0
  -45.2355   53.0004   66.4685 H   0  0  0  0  0  0  0  0  0  0  0  0
  -47.1629   54.2396   65.8452 H   0  0  0  0  0  0  0  0  0  0  0  0
  -46.5762   55.6314   66.7642 H   0  0  0  0  0  0  0  0  0  0  0  0
  -48.2824   54.4366   67.9768 H   0  0  0  0  0  0  0  0  0  0  0  0
  -46.6731   54.3575   68.7711 H   0  0  0  0  0  0  0  0  0  0  0  0
  -46.4071   52.0915   68.0945 H   0  0  0  0  0  0  0  0  0  0  0  0
  -47.9254   52.1137   67.2483 H   0  0  0  0  0  0  0  0  0  0  0  0
  -49.0764   52.6513   69.3275 H   0  0  0  0  0  0  0  0  0  0  0  0
  -47.4543   52.5626   70.1419 H   0  0  0  0  0  0  0  0  0  0  0  0
  -47.3737   50.2533   69.8446 H   0  0  0  0  0  0  0  0  0  0  0  0
  -48.9064   50.2691   68.9834 H   0  0  0  0  0  0  0  0  0  0  0  0
  -50.0319   51.0929   70.9731 H   0  0  0  0  0  0  0  0  0  0  0  0
  -48.4656   51.0671   71.8282 H   0  0  0  0  0  0  0  0  0  0  0  0
  -48.3830   48.6806   71.6714 H   0  0  0  0  0  0  0  0  0  0  0  0
  -49.9273   48.6882   70.7951 H   0  0  0  0  0  0  0  0  0  0  0  0
  -49.5317   49.5377   73.6391 H   0  0  0  0  0  0  0  0  0  0  0  0
  -50.2649   48.0437   73.1068 H   0  0  0  0  0  0  0  0  0  0  0  0
  -51.0407   49.5701   72.7588 H   0  0  0  0  0  0  0  0  0  0  0  0
  -37.8613   64.3371   64.6865 H   0  0  0  0  0  0  0  0  0  0  0  0
  -38.5037   64.2763   61.7531 H   0  0  0  0  0  0  0  0  0  0  0  0
  -36.2362   65.6172   63.1242 H   0  0  0  0  0  0  0  0  0  0  0  0
  -37.4139   67.6641   62.3117 H   0  0  0  0  0  0  0  0  0  0  0  0
  -38.2128   66.7722   64.5111 H   0  0  0  0  0  0  0  0  0  0  0  0
  -40.2958   68.0614   64.2812 H   0  0  0  0  0  0  0  0  0  0  0  0
  -39.1105   68.7786   63.2144 H   0  0  0  0  0  0  0  0  0  0  0  0
  1  4  1  0  0  0  0
  1 31  1  0  0  0  0
  1 56  1  0  0  0  0
  2  3  1  0  0  0  0
  2  4  1  0  0  0  0
  2 57  1  0  0  0  0
  2 58  1  0  0  0  0
  3 49  1  0  0  0  0
  4  6  1  0  0  0  0
  4 59  1  1  0  0  0
  5  6  1  0  0  0  0
  5 60  1  0  0  0  0
  6  8  1  0  0  0  0
  6 61  1  6  0  0  0
  7 31  2  0  0  0  0
  8  9  2  0  0  0  0
  8 62  1  0  0  0  0
  9 11  1  0  0  0  0
  9 63  1  0  0  0  0
 10 50  1  0  0  0  0
 10 64  1  0  0  0  0
 11 13  1  0  0  0  0
 11 65  1  0  0  0  0
 11 66  1  0  0  0  0
 12 51  1  0  0  0  0
 12 55  1  0  0  0  0
 13 15  1  0  0  0  0
 13 67  1  0  0  0  0
 13 68  1  0  0  0  0
 14 55  1  0  0  0  0
 14 69  1  0  0  0  0
 15 17  1  0  0  0  0
 15 70  1  0  0  0  0
 15 71  1  0  0  0  0
 16 52  1  0  0  0  0
 16 72  1  0  0  0  0
 17 19  1  0  0  0  0
 17 73  1  0  0  0  0
 17 74  1  0  0  0  0
 18 49  1  0  0  0  0
 18 53  1  0  0  0  0
 19 21  1  0  0  0  0
 19 75  1  0  0  0  0
 19 76  1  0  0  0  0
 20 54  1  0  0  0  0
 20 77  1  0  0  0  0
 21 22  1  0  0  0  0
 21 78  1  0  0  0  0
 21 79  1  0  0  0  0
 22 23  1  0  0  0  0
 22 80  1  0  0  0  0
 22 81  1  0  0  0  0
 23 25  1  0  0  0  0
 23 82  1  0  0  0  0
 23 83  1  0  0  0  0
 24 55  1  0  0  0  0
 25 27  1  0  0  0  0
 25 84  1  0  0  0  0
 25 85  1  0  0  0  0
 26 55  1  0  0  0  0
 26 86  1  0  0  0  0
 27 28  1  0  0  0  0
 27 87  1  0  0  0  0
 27 88  1  0  0  0  0
 28 29  1  0  0  0  0
 28 89  1  0  0  0  0
 28 90  1  0  0  0  0
 29 30  1  0  0  0  0
 29 91  1  0  0  0  0
 29 92  1  0  0  0  0
 30 93  1  0  0  0  0
 30 94  1  0  0  0  0
 30 95  1  0  0  0  0
 31 32  1  0  0  0  0
 32 33  1  0  0  0  0
 32 96  1  0  0  0  0
 32 97  1  0  0  0  0
 33 34  1  0  0  0  0
 33 98  1  0  0  0  0
 33 99  1  0  0  0  0
 34 35  1  0  0  0  0
 34100  1  0  0  0  0
 34101  1  0  0  0  0
 35 36  1  0  0  0  0
 35102  1  0  0  0  0
 35103  1  0  0  0  0
 36 37  1  0  0  0  0
 36104  1  0  0  0  0
 36105  1  0  0  0  0
 37 38  1  0  0  0  0
 37106  1  0  0  0  0
 37107  1  0  0  0  0
 38 39  1  0  0  0  0
 38108  1  0  0  0  0
 38109  1  0  0  0  0
 39 40  1  0  0  0  0
 39110  1  0  0  0  0
 39111  1  0  0  0  0
 40 41  1  0  0  0  0
 40112  1  0  0  0  0
 40113  1  0  0  0  0
 41 42  1  0  0  0  0
 41114  1  0  0  0  0
 41115  1  0  0  0  0
 42 43  1  0  0  0  0
 42116  1  0  0  0  0
 42117  1  0  0  0  0
 43 44  1  0  0  0  0
 43118  1  0  0  0  0
 43119  1  0  0  0  0
 44 45  1  0  0  0  0
 44120  1  0  0  0  0
 44121  1  0  0  0  0
 45 46  1  0  0  0  0
 45122  1  0  0  0  0
 45123  1  0  0  0  0
 46 47  1  0  0  0  0
 46124  1  0  0  0  0
 46125  1  0  0  0  0
 47 48  1  0  0  0  0
 47126  1  0  0  0  0
 47127  1  0  0  0  0
 48128  1  0  0  0  0
 48129  1  0  0  0  0
 48130  1  0  0  0  0
 49 50  1  0  0  0  0
 49131  1  1  0  0  0
 50 51  1  0  0  0  0
 50132  1  6  0  0  0
 51 52  1  0  0  0  0
 51133  1  1  0  0  0
 52 53  1  0  0  0  0
 52134  1  6  0  0  0
 53 54  1  0  0  0  0
 53135  1  1  0  0  0
 54136  1  0  0  0  0
 54137  1  0  0  0  0
M  CHG  1  24  -1
M  END
$$$$
/media/chris/experiments/cd1a-new-docking/inputs/ligands/1onq_ligand.pdb
 OpenBabel06222310383D

137137  0  0  1  0  0  0  0  0999 V2000
  -40.4920   60.2280   63.6270 N   0  0  0  0  0  0  0  0  0  0  0  0
  -38.5950   61.7730   64.2860 C   0  0  0  0  0  0  0  0  0  0  0  0
  -37.5441   62.0867   65.2349 O   0  0  0  0  0  0  0  0  0  0  0  0
  -39.4590   60.5300   64.5980 C   0  0  1  0  0  0  0  0  0  0  0  0
  -40.7577   59.2290   66.0180 O   0  0  0  0  0  0  0  0  0  0  0  0
  -40.2280   60.5370   65.9080 C   0  0  2  0  0  0  0  0  0  0  0  0
  -39.2820   59.8772   61.7401 O   0  0  0  0  0  0  0  0  0  0  0  0
  -41.3266   61.6007   65.8452 C   0  0  0  0  0  0  0  0  0  0  0  0
  -41.3921   62.6366   66.6990 C   0  0  0  0  0  0  0  0  0  0  0  0
  -37.5806   60.0646   67.2565 O   0  0  0  0  0  0  0  0  0  0  0  0
  -42.5217   63.6569   66.5713 C   0  0  0  0  0  0  0  0  0  0  0  0
  -36.0104   57.5670   66.9984 O   0  0  0  0  0  0  0  0  0  0  0  0
  -42.9351   64.2968   67.9046 C   0  0  0  0  0  0  0  0  0  0  0  0
  -38.2735   57.9493   68.2022 O   0  0  0  0  0  0  0  0  0  0  0  0
  -43.4282   63.3200   68.9881 C   0  0  0  0  0  0  0  0  0  0  0  0
  -35.6857   57.8125   64.3008 O   0  0  0  0  0  0  0  0  0  0  0  0
  -42.3201   62.3046   69.3577 C   0  0  0  0  0  0  0  0  0  0  0  0
  -35.6754   60.8382   64.3212 O   0  0  0  0  0  0  0  0  0  0  0  0
  -42.7128   61.2581   70.4310 C   0  0  0  0  0  0  0  0  0  0  0  0
  -33.2939   60.5713   62.6125 O   0  0  0  0  0  0  0  0  0  0  0  0
  -43.1368   61.8698   71.7870 C   0  0  0  0  0  0  0  0  0  0  0  0
  -43.5084   60.8147   72.8513 C   0  0  0  0  0  0  0  0  0  0  0  0
  -42.3599   59.8620   73.2041 C   0  0  0  0  0  0  0  0  0  0  0  0
  -36.2081   58.0655   69.4709 O   0  5  0  0  0  0  0  0  0  0  0  0
  -41.1050   60.5097   73.7856 C   0  0  0  0  0  0  0  0  0  0  0  0
  -37.0865   55.9195   68.7655 O   0  0  0  0  0  0  0  0  0  0  0  0
  -39.9761   59.5103   74.1063 C   0  0  0  0  0  0  0  0  0  0  0  0
  -40.3418   58.4109   75.1151 C   0  0  0  0  0  0  0  0  0  0  0  0
  -39.1500   57.4854   75.3758 C   0  0  0  0  0  0  0  0  0  0  0  0
  -38.5841   56.7571   74.1696 C   0  0  0  0  0  0  0  0  0  0  0  0
  -40.3447   59.9361   62.3275 C   0  0  0  0  0  0  0  0  0  0  0  0
  -41.6199   59.6610   61.5872 C   0  0  0  0  0  0  0  0  0  0  0  0
  -41.2235   59.3375   60.1466 C   0  0  0  0  0  0  0  0  0  0  0  0
  -40.4705   60.5167   59.5355 C   0  0  0  0  0  0  0  0  0  0  0  0
  -40.0267   60.3496   58.1025 C   0  0  0  0  0  0  0  0  0  0  0  0
  -39.2866   61.6203   57.6981 C   0  0  0  0  0  0  0  0  0  0  0  0
  -40.1579   62.8778   57.8186 C   0  0  0  0  0  0  0  0  0  0  0  0
  -39.4497   64.1799   57.4021 C   0  0  0  0  0  0  0  0  0  0  0  0
  -38.1840   64.4690   58.2387 C   0  0  0  0  0  0  0  0  0  0  0  0
  -37.1590   63.3432   58.0740 C   0  0  0  0  0  0  0  0  0  0  0  0
  -35.8734   63.5195   58.8730 C   0  0  0  0  0  0  0  0  0  0  0  0
  -36.1292   63.5839   60.3715 C   0  0  0  0  0  0  0  0  0  0  0  0
  -36.7832   62.3484   60.9944 C   0  0  0  0  0  0  0  0  0  0  0  0
  -35.8614   61.1575   60.7689 C   0  0  0  0  0  0  0  0  0  0  0  0
  -35.5067   60.7699   59.3409 C   0  0  0  0  0  0  0  0  0  0  0  0
  -34.5854   59.5400   59.3177 C   0  0  0  0  0  0  0  0  0  0  0  0
  -34.1607   59.0867   57.9087 C   0  0  0  0  0  0  0  0  0  0  0  0
  -33.2605   57.8534   57.9167 C   0  0  0  0  0  0  0  0  0  0  0  0
  -36.4503   61.1334   65.5086 C   0  0  2  0  0  0  0  0  0  0  0  0
  -36.8674   59.7764   66.0936 C   0  0  1  0  0  0  0  0  0  0  0  0
  -35.6748   58.8694   66.4682 C   0  0  2  0  0  0  0  0  0  0  0  0
  -34.9197   58.6193   65.1921 C   0  0  2  0  0  0  0  0  0  0  0  0
  -34.5533   59.9423   64.5442 C   0  0  1  0  0  0  0  0  0  0  0  0
  -33.8212   59.4704   63.2899 C   0  0  0  0  0  0  0  0  0  0  0  0
  -36.9180   57.3486   68.3770 S   0  0  0  0  0  0  0  0  0  0  0  0
  -41.4169   60.2387   63.9642 H   0  0  0  0  0  0  0  0  0  0  0  0
  -38.1357   61.6183   63.3320 H   0  0  0  0  0  0  0  0  0  0  0  0
  -39.2690   62.6030   64.3261 H   0  0  0  0  0  0  0  0  0  0  0  0
  -38.6677   59.8099   64.6092 H   0  0  0  0  0  0  0  0  0  0  0  0
  -40.0308   58.5878   66.0547 H   0  0  0  0  0  0  0  0  0  0  0  0
  -39.6247   60.7776   66.7583 H   0  0  0  0  0  0  0  0  0  0  0  0
  -42.0502   61.5188   65.1139 H   0  0  0  0  0  0  0  0  0  0  0  0
  -40.6808   62.7424   67.4391 H   0  0  0  0  0  0  0  0  0  0  0  0
  -38.3351   60.6345   67.0402 H   0  0  0  0  0  0  0  0  0  0  0  0
  -43.3754   63.1642   66.1549 H   0  0  0  0  0  0  0  0  0  0  0  0
  -42.1584   64.4464   65.9471 H   0  0  0  0  0  0  0  0  0  0  0  0
  -43.7234   64.9923   67.7053 H   0  0  0  0  0  0  0  0  0  0  0  0
  -42.0488   64.7479   68.2994 H   0  0  0  0  0  0  0  0  0  0  0  0
  -38.1839   58.8813   67.9487 H   0  0  0  0  0  0  0  0  0  0  0  0
  -44.2816   62.7896   68.6203 H   0  0  0  0  0  0  0  0  0  0  0  0
  -43.6863   63.8797   69.8628 H   0  0  0  0  0  0  0  0  0  0  0  0
  -35.9083   56.9738   64.7342 H   0  0  0  0  0  0  0  0  0  0  0  0
  -41.4775   62.8533   69.7236 H   0  0  0  0  0  0  0  0  0  0  0  0
  -42.1161   61.7511   68.4650 H   0  0  0  0  0  0  0  0  0  0  0  0
  -41.8718   60.6184   70.5996 H   0  0  0  0  0  0  0  0  0  0  0  0
  -43.5637   60.7321   70.0512 H   0  0  0  0  0  0  0  0  0  0  0  0
  -32.8294   60.2690   61.8164 H   0  0  0  0  0  0  0  0  0  0  0  0
  -43.9864   62.4993   71.6234 H   0  0  0  0  0  0  0  0  0  0  0  0
  -42.2951   62.4127   72.1635 H   0  0  0  0  0  0  0  0  0  0  0  0
  -44.3266   60.2340   72.4795 H   0  0  0  0  0  0  0  0  0  0  0  0
  -43.7578   61.3474   73.7451 H   0  0  0  0  0  0  0  0  0  0  0  0
  -42.0773   59.3455   72.3107 H   0  0  0  0  0  0  0  0  0  0  0  0
  -42.7401   59.2268   73.9767 H   0  0  0  0  0  0  0  0  0  0  0  0
  -41.3747   61.0144   74.6897 H   0  0  0  0  0  0  0  0  0  0  0  0
  -40.7261   61.1765   73.0395 H   0  0  0  0  0  0  0  0  0  0  0  0
  -37.5488   55.4443   68.0574 H   0  0  0  0  0  0  0  0  0  0  0  0
  -39.1490   60.0614   74.5028 H   0  0  0  0  0  0  0  0  0  0  0  0
  -39.7546   59.0082   73.1877 H   0  0  0  0  0  0  0  0  0  0  0  0
  -41.1538   57.8339   74.7244 H   0  0  0  0  0  0  0  0  0  0  0  0
  -40.6209   58.8749   76.0380 H   0  0  0  0  0  0  0  0  0  0  0  0
  -39.4603   56.7472   76.0856 H   0  0  0  0  0  0  0  0  0  0  0  0
  -38.3628   58.1248   75.7169 H   0  0  0  0  0  0  0  0  0  0  0  0
  -39.3246   56.0940   73.7735 H   0  0  0  0  0  0  0  0  0  0  0  0
  -37.7228   56.1948   74.4642 H   0  0  0  0  0  0  0  0  0  0  0  0
  -38.3062   57.4694   73.4210 H   0  0  0  0  0  0  0  0  0  0  0  0
  -42.2547   60.5220   61.6116 H   0  0  0  0  0  0  0  0  0  0  0  0
  -42.1587   58.8505   62.0319 H   0  0  0  0  0  0  0  0  0  0  0  0
  -42.1047   59.1433   59.5716 H   0  0  0  0  0  0  0  0  0  0  0  0
  -40.5899   58.4752   60.1416 H   0  0  0  0  0  0  0  0  0  0  0  0
  -39.5979   60.6910   60.1299 H   0  0  0  0  0  0  0  0  0  0  0  0
  -41.1661   61.3297   59.5283 H   0  0  0  0  0  0  0  0  0  0  0  0
  -40.8786   60.2068   57.4710 H   0  0  0  0  0  0  0  0  0  0  0  0
  -39.3894   59.4958   58.0034 H   0  0  0  0  0  0  0  0  0  0  0  0
  -38.9672   61.5215   56.6816 H   0  0  0  0  0  0  0  0  0  0  0  0
  -38.4575   61.7369   58.3643 H   0  0  0  0  0  0  0  0  0  0  0  0
  -40.4667   62.9753   58.8384 H   0  0  0  0  0  0  0  0  0  0  0  0
  -40.9802   62.7471   57.1466 H   0  0  0  0  0  0  0  0  0  0  0  0
  -40.1329   64.9943   57.5239 H   0  0  0  0  0  0  0  0  0  0  0  0
  -39.1426   64.0670   56.3834 H   0  0  0  0  0  0  0  0  0  0  0  0
  -38.4554   64.5490   59.2706 H   0  0  0  0  0  0  0  0  0  0  0  0
  -37.7476   65.3847   57.8982 H   0  0  0  0  0  0  0  0  0  0  0  0
  -36.8996   63.2797   57.0379 H   0  0  0  0  0  0  0  0  0  0  0  0
  -37.6256   62.4571   58.4508 H   0  0  0  0  0  0  0  0  0  0  0  0
  -35.3990   64.4279   58.5655 H   0  0  0  0  0  0  0  0  0  0  0  0
  -35.2510   62.6700   58.6833 H   0  0  0  0  0  0  0  0  0  0  0  0
  -36.7678   64.4218   60.5588 H   0  0  0  0  0  0  0  0  0  0  0  0
  -35.1634   63.6590   60.8259 H   0  0  0  0  0  0  0  0  0  0  0  0
  -37.7299   62.1667   60.5300 H   0  0  0  0  0  0  0  0  0  0  0  0
  -36.9398   62.5014   62.0417 H   0  0  0  0  0  0  0  0  0  0  0  0
  -36.3291   60.3071   61.2193 H   0  0  0  0  0  0  0  0  0  0  0  0
  -34.9292   61.4655   61.1944 H   0  0  0  0  0  0  0  0  0  0  0  0
  -35.0073   61.5904   58.8693 H   0  0  0  0  0  0  0  0  0  0  0  0
  -36.4090   60.5304   58.8181 H   0  0  0  0  0  0  0  0  0  0  0  0
  -35.0994   58.7285   59.7891 H   0  0  0  0  0  0  0  0  0  0  0  0
  -33.6891   59.8215   59.8298 H   0  0  0  0  0  0  0  0  0  0  0  0
  -33.6326   59.8897   57.4384 H   0  0  0  0  0  0  0  0  0  0  0  0
  -35.0522   58.8249   57.3779 H   0  0  0  0  0  0  0  0  0  0  0  0
  -32.3547   58.0764   58.4409 H   0  0  0  0  0  0  0  0  0  0  0  0
  -33.0303   57.5733   56.9100 H   0  0  0  0  0  0  0  0  0  0  0  0
  -33.7656   57.0463   58.4049 H   0  0  0  0  0  0  0  0  0  0  0  0
  -35.8838   61.6578   66.2495 H   0  0  0  0  0  0  0  0  0  0  0  0
  -37.4312   59.2434   65.3568 H   0  0  0  0  0  0  0  0  0  0  0  0
  -35.1395   59.3811   67.2406 H   0  0  0  0  0  0  0  0  0  0  0  0
  -34.0200   58.0873   65.4213 H   0  0  0  0  0  0  0  0  0  0  0  0
  -33.9522   60.5771   65.1611 H   0  0  0  0  0  0  0  0  0  0  0  0
  -33.0268   58.8100   63.5686 H   0  0  0  0  0  0  0  0  0  0  0  0
  -34.5077   58.9557   62.6506 H   0  0  0  0  0  0  0  0  0  0  0  0
  1  4  1  0  0  0  0
  1 31  1  0  0  0  0
  1 56  1  0  0  0  0
  2  3  1  0  0  0  0
  2  4  1  0  0  0  0
  2 57  1  0  0  0  0
  2 58  1  0  0  0  0
  3 49  1  0  0  0  0
  4  6  1  0  0  0  0
  4 59  1  1  0  0  0
  5  6  1  0  0  0  0
  5 60  1  0  0  0  0
  6  8  1  0  0  0  0
  6 61  1  1  0  0  0
  7 31  2  0  0  0  0
  8  9  2  0  0  0  0
  8 62  1  0  0  0  0
  9 11  1  0  0  0  0
  9 63  1  0  0  0  0
 10 50  1  0  0  0  0
 10 64  1  0  0  0  0
 11 13  1  0  0  0  0
 11 65  1  0  0  0  0
 11 66  1  0  0  0  0
 12 51  1  0  0  0  0
 12 55  1  0  0  0  0
 13 15  1  0  0  0  0
 13 67  1  0  0  0  0
 13 68  1  0  0  0  0
 14 55  1  0  0  0  0
 14 69  1  0  0  0  0
 15 17  1  0  0  0  0
 15 70  1  0  0  0  0
 15 71  1  0  0  0  0
 16 52  1  0  0  0  0
 16 72  1  0  0  0  0
 17 19  1  0  0  0  0
 17 73  1  0  0  0  0
 17 74  1  0  0  0  0
 18 49  1  0  0  0  0
 18 53  1  0  0  0  0
 19 21  1  0  0  0  0
 19 75  1  0  0  0  0
 19 76  1  0  0  0  0
 20 54  1  0  0  0  0
 20 77  1  0  0  0  0
 21 22  1  0  0  0  0
 21 78  1  0  0  0  0
 21 79  1  0  0  0  0
 22 23  1  0  0  0  0
 22 80  1  0  0  0  0
 22 81  1  0  0  0  0
 23 25  1  0  0  0  0
 23 82  1  0  0  0  0
 23 83  1  0  0  0  0
 24 55  1  0  0  0  0
 25 27  1  0  0  0  0
 25 84  1  0  0  0  0
 25 85  1  0  0  0  0
 26 55  1  0  0  0  0
 26 86  1  0  0  0  0
 27 28  1  0  0  0  0
 27 87  1  0  0  0  0
 27 88  1  0  0  0  0
 28 29  1  0  0  0  0
 28 89  1  0  0  0  0
 28 90  1  0  0  0  0
 29 30  1  0  0  0  0
 29 91  1  0  0  0  0
 29 92  1  0  0  0  0
 30 93  1  0  0  0  0
 30 94  1  0  0  0  0
 30 95  1  0  0  0  0
 31 32  1  0  0  0  0
 32 33  1  0  0  0  0
 32 96  1  0  0  0  0
 32 97  1  0  0  0  0
 33 34  1  0  0  0  0
 33 98  1  0  0  0  0
 33 99  1  0  0  0  0
 34 35  1  0  0  0  0
 34100  1  0  0  0  0
 34101  1  0  0  0  0
 35 36  1  0  0  0  0
 35102  1  0  0  0  0
 35103  1  0  0  0  0
 36 37  1  0  0  0  0
 36104  1  0  0  0  0
 36105  1  0  0  0  0
 37 38  1  0  0  0  0
 37106  1  0  0  0  0
 37107  1  0  0  0  0
 38 39  1  0  0  0  0
 38108  1  0  0  0  0
 38109  1  0  0  0  0
 39 40  1  0  0  0  0
 39110  1  0  0  0  0
 39111  1  0  0  0  0
 40 41  1  0  0  0  0
 40112  1  0  0  0  0
 40113  1  0  0  0  0
 41 42  1  0  0  0  0
 41114  1  0  0  0  0
 41115  1  0  0  0  0
 42 43  1  0  0  0  0
 42116  1  0  0  0  0
 42117  1  0  0  0  0
 43 44  1  0  0  0  0
 43118  1  0  0  0  0
 43119  1  0  0  0  0
 44 45  1  0  0  0  0
 44120  1  0  0  0  0
 44121  1  0  0  0  0
 45 46  1  0  0  0  0
 45122  1  0  0  0  0
 45123  1  0  0  0  0
 46 47  1  0  0  0  0
 46124  1  0  0  0  0
 46125  1  0  0  0  0
 47 48  1  0  0  0  0
 47126  1  0  0  0  0
 47127  1  0  0  0  0
 48128  1  0  0  0  0
 48129  1  0  0  0  0
 48130  1  0  0  0  0
 49 50  1  0  0  0  0
 49131  1  1  0  0  0
 50 51  1  0  0  0  0
 50132  1  6  0  0  0
 51 52  1  0  0  0  0
 51133  1  1  0  0  0
 52 53  1  0  0  0  0
 52134  1  1  0  0  0
 53 54  1  0  0  0  0
 53135  1  1  0  0  0
 54136  1  0  0  0  0
 54137  1  0  0  0  0
M  CHG  1  24  -1
M  END
$$$$
/media/chris/experiments/cd1a-new-docking/inputs/ligands/1onq_ligand.pdb
 OpenBabel06222310383D

137137  0  0  1  0  0  0  0  0999 V2000
  -40.4920   60.2280   63.6270 N   0  0  0  0  0  0  0  0  0  0  0  0
  -38.5950   61.7730   64.2860 C   0  0  0  0  0  0  0  0  0  0  0  0
  -37.8612   61.7550   63.0352 O   0  0  0  0  0  0  0  0  0  0  0  0
  -39.4590   60.5300   64.5980 C   0  0  1  0  0  0  0  0  0  0  0  0
  -41.2116   61.5409   65.7392 O   0  0  0  0  0  0  0  0  0  0  0  0
  -40.2280   60.5370   65.9080 C   0  0  2  0  0  0  0  0  0  0  0  0
  -40.6436   57.9696   63.7820 O   0  0  0  0  0  0  0  0  0  0  0  0
  -39.2689   60.8567   67.0571 C   0  0  0  0  0  0  0  0  0  0  0  0
  -39.4194   61.9233   67.8608 C   0  0  0  0  0  0  0  0  0  0  0  0
  -37.2160   60.7634   60.4318 O   0  0  0  0  0  0  0  0  0  0  0  0
  -38.4178   62.1745   68.9864 C   0  0  0  0  0  0  0  0  0  0  0  0
  -34.5577   59.6156   59.8102 O   0  0  0  0  0  0  0  0  0  0  0  0
  -37.2270   63.0523   68.5744 C   0  0  0  0  0  0  0  0  0  0  0  0
  -34.2435   57.1145   59.2078 O   0  0  0  0  0  0  0  0  0  0  0  0
  -36.1826   63.3177   69.6745 C   0  0  0  0  0  0  0  0  0  0  0  0
  -33.3383   60.7545   61.9686 O   0  0  0  0  0  0  0  0  0  0  0  0
  -36.8324   64.0206   70.8907 C   0  0  0  0  0  0  0  0  0  0  0  0
  -35.8018   60.6731   63.7236 O   0  0  0  0  0  0  0  0  0  0  0  0
  -37.9639   63.2242   71.5885 C   0  0  0  0  0  0  0  0  0  0  0  0
  -32.9238   60.8795   64.2370 O   0  0  0  0  0  0  0  0  0  0  0  0
  -37.5159   61.8607   72.1655 C   0  0  0  0  0  0  0  0  0  0  0  0
  -38.6574   61.0714   72.8422 C   0  0  0  0  0  0  0  0  0  0  0  0
  -39.8140   60.7251   71.8969 C   0  0  0  0  0  0  0  0  0  0  0  0
  -32.4608   58.3051   60.3451 O   0  5  0  0  0  0  0  0  0  0  0  0
  -40.5208   61.9084   71.2391 C   0  0  0  0  0  0  0  0  0  0  0  0
  -32.8764   58.6930   57.9891 O   0  0  0  0  0  0  0  0  0  0  0  0
  -41.6853   61.5058   70.3130 C   0  0  0  0  0  0  0  0  0  0  0  0
  -42.4064   62.6733   69.6224 C   0  0  0  0  0  0  0  0  0  0  0  0
  -42.9962   63.6415   70.6518 C   0  0  0  0  0  0  0  0  0  0  0  0
  -44.0061   63.0595   71.6249 C   0  0  0  0  0  0  0  0  0  0  0  0
  -40.9921   59.0290   63.2983 C   0  0  0  0  0  0  0  0  0  0  0  0
  -42.0683   59.0516   62.2538 C   0  0  0  0  0  0  0  0  0  0  0  0
  -41.9615   57.7299   61.4930 C   0  0  0  0  0  0  0  0  0  0  0  0
  -43.0170   57.6756   60.3911 C   0  0  0  0  0  0  0  0  0  0  0  0
  -44.4530   57.7906   60.8418 C   0  0  0  0  0  0  0  0  0  0  0  0
  -45.3344   57.6962   59.6008 C   0  0  0  0  0  0  0  0  0  0  0  0
  -46.8295   57.8177   59.9247 C   0  0  0  0  0  0  0  0  0  0  0  0
  -47.3560   56.7425   60.8929 C   0  0  0  0  0  0  0  0  0  0  0  0
  -48.8663   56.8839   61.1833 C   0  0  0  0  0  0  0  0  0  0  0  0
  -49.6796   56.7449   59.8932 C   0  0  0  0  0  0  0  0  0  0  0  0
  -49.5287   55.4087   59.1764 C   0  0  0  0  0  0  0  0  0  0  0  0
  -49.9790   54.2377   60.0371 C   0  0  0  0  0  0  0  0  0  0  0  0
  -49.8477   52.8503   59.4046 C   0  0  0  0  0  0  0  0  0  0  0  0
  -48.3778   52.6085   59.0891 C   0  0  0  0  0  0  0  0  0  0  0  0
  -47.9793   51.2947   58.4331 C   0  0  0  0  0  0  0  0  0  0  0  0
  -48.3812   50.0982   59.3099 C   0  0  0  0  0  0  0  0  0  0  0  0
  -47.9995   48.7241   58.7291 C   0  0  0  0  0  0  0  0  0  0  0  0
  -48.4264   47.5549   59.6134 C   0  0  0  0  0  0  0  0  0  0  0  0
  -36.8691   60.7008   62.7449 C   0  0  2  0  0  0  0  0  0  0  0  0
  -36.1862   60.7751   61.3717 C   0  0  1  0  0  0  0  0  0  0  0  0
  -35.2491   59.5828   61.0794 C   0  0  2  0  0  0  0  0  0  0  0  0
  -34.1816   59.6177   62.1379 C   0  0  2  0  0  0  0  0  0  0  0  0
  -34.8225   59.6202   63.5140 C   0  0  1  0  0  0  0  0  0  0  0  0
  -33.5929   59.6678   64.4184 C   0  0  0  0  0  0  0  0  0  0  0  0
  -33.5192   58.4163   59.3050 S   0  0  0  0  0  0  0  0  0  0  0  0
  -40.8737   60.9998   63.1496 H   0  0  0  0  0  0  0  0  0  0  0  0
  -39.2437   62.6238   64.2698 H   0  0  0  0  0  0  0  0  0  0  0  0
  -37.8479   61.7974   65.0516 H   0  0  0  0  0  0  0  0  0  0  0  0
  -38.6677   59.8099   64.6092 H   0  0  0  0  0  0  0  0  0  0  0  0
  -41.7964   61.3001   65.0038 H   0  0  0  0  0  0  0  0  0  0  0  0
  -40.6791   59.5963   66.1457 H   0  0  0  0  0  0  0  0  0  0  0  0
  -38.4702   60.2244   67.2223 H   0  0  0  0  0  0  0  0  0  0  0  0
  -40.2099   62.5712   67.7177 H   0  0  0  0  0  0  0  0  0  0  0  0
  -37.8159   61.5069   60.6001 H   0  0  0  0  0  0  0  0  0  0  0  0
  -38.0410   61.2300   69.3193 H   0  0  0  0  0  0  0  0  0  0  0  0
  -38.9412   62.7021   69.7562 H   0  0  0  0  0  0  0  0  0  0  0  0
  -37.6111   63.9970   68.2507 H   0  0  0  0  0  0  0  0  0  0  0  0
  -36.7137   62.5081   67.8094 H   0  0  0  0  0  0  0  0  0  0  0  0
  -34.6692   56.9172   60.0568 H   0  0  0  0  0  0  0  0  0  0  0  0
  -35.4088   63.9427   69.2801 H   0  0  0  0  0  0  0  0  0  0  0  0
  -35.7771   62.3811   69.9958 H   0  0  0  0  0  0  0  0  0  0  0  0
  -32.9400   60.7327   61.0845 H   0  0  0  0  0  0  0  0  0  0  0  0
  -37.2410   64.9509   70.5554 H   0  0  0  0  0  0  0  0  0  0  0  0
  -36.0558   64.1312   71.6184 H   0  0  0  0  0  0  0  0  0  0  0  0
  -38.7401   63.0474   70.8736 H   0  0  0  0  0  0  0  0  0  0  0  0
  -38.2911   63.8166   72.4173 H   0  0  0  0  0  0  0  0  0  0  0  0
  -32.1433   60.9072   64.8124 H   0  0  0  0  0  0  0  0  0  0  0  0
  -36.7491   62.0358   72.8910 H   0  0  0  0  0  0  0  0  0  0  0  0
  -37.1703   61.2699   71.3430 H   0  0  0  0  0  0  0  0  0  0  0  0
  -39.0443   61.6608   73.6472 H   0  0  0  0  0  0  0  0  0  0  0  0
  -38.2402   60.1449   73.1775 H   0  0  0  0  0  0  0  0  0  0  0  0
  -40.5433   60.1796   72.4586 H   0  0  0  0  0  0  0  0  0  0  0  0
  -39.3736   60.1709   71.0945 H   0  0  0  0  0  0  0  0  0  0  0  0
  -39.8023   62.4504   70.6604 H   0  0  0  0  0  0  0  0  0  0  0  0
  -40.9412   62.4961   72.0283 H   0  0  0  0  0  0  0  0  0  0  0  0
  -33.5598   58.7671   57.3046 H   0  0  0  0  0  0  0  0  0  0  0  0
  -42.4047   60.9725   70.8986 H   0  0  0  0  0  0  0  0  0  0  0  0
  -41.2522   60.9196   69.5296 H   0  0  0  0  0  0  0  0  0  0  0  0
  -43.1967   62.2855   69.0141 H   0  0  0  0  0  0  0  0  0  0  0  0
  -41.6972   63.2046   69.0226 H   0  0  0  0  0  0  0  0  0  0  0  0
  -43.4787   64.4321   70.1161 H   0  0  0  0  0  0  0  0  0  0  0  0
  -42.1691   63.9546   71.2541 H   0  0  0  0  0  0  0  0  0  0  0  0
  -44.8674   62.7231   71.0864 H   0  0  0  0  0  0  0  0  0  0  0  0
  -44.2968   63.8107   72.3292 H   0  0  0  0  0  0  0  0  0  0  0  0
  -43.5659   62.2344   72.1449 H   0  0  0  0  0  0  0  0  0  0  0  0
  -41.9193   59.8751   61.5871 H   0  0  0  0  0  0  0  0  0  0  0  0
  -43.0355   59.1663   62.6968 H   0  0  0  0  0  0  0  0  0  0  0  0
  -42.1152   56.9169   62.1715 H   0  0  0  0  0  0  0  0  0  0  0  0
  -40.9893   57.6556   61.0524 H   0  0  0  0  0  0  0  0  0  0  0  0
  -42.9084   56.7419   59.8800 H   0  0  0  0  0  0  0  0  0  0  0  0
  -42.8380   58.5345   59.7787 H   0  0  0  0  0  0  0  0  0  0  0  0
  -44.6083   58.7305   61.3290 H   0  0  0  0  0  0  0  0  0  0  0  0
  -44.6934   57.0108   61.5338 H   0  0  0  0  0  0  0  0  0  0  0  0
  -45.1621   56.7510   59.1298 H   0  0  0  0  0  0  0  0  0  0  0  0
  -45.0759   58.5118   58.9583 H   0  0  0  0  0  0  0  0  0  0  0  0
  -47.3782   57.7423   59.0092 H   0  0  0  0  0  0  0  0  0  0  0  0
  -46.9624   58.7611   60.4118 H   0  0  0  0  0  0  0  0  0  0  0  0
  -46.8216   56.8233   61.8163 H   0  0  0  0  0  0  0  0  0  0  0  0
  -47.2058   55.7904   60.4282 H   0  0  0  0  0  0  0  0  0  0  0  0
  -49.0529   57.8452   61.6146 H   0  0  0  0  0  0  0  0  0  0  0  0
  -49.1607   56.1101   61.8612 H   0  0  0  0  0  0  0  0  0  0  0  0
  -49.3709   57.5185   59.2215 H   0  0  0  0  0  0  0  0  0  0  0  0
  -50.7082   56.8157   60.1796 H   0  0  0  0  0  0  0  0  0  0  0  0
  -48.4993   55.2707   58.9189 H   0  0  0  0  0  0  0  0  0  0  0  0
  -50.1495   55.4325   58.3052 H   0  0  0  0  0  0  0  0  0  0  0  0
  -51.0093   54.3893   60.2829 H   0  0  0  0  0  0  0  0  0  0  0  0
  -49.3233   54.2324   60.8827 H   0  0  0  0  0  0  0  0  0  0  0  0
  -50.4235   52.8070   58.5038 H   0  0  0  0  0  0  0  0  0  0  0  0
  -50.2093   52.1014   60.0779 H   0  0  0  0  0  0  0  0  0  0  0  0
  -47.8420   52.6748   60.0129 H   0  0  0  0  0  0  0  0  0  0  0  0
  -48.1444   53.3487   58.3525 H   0  0  0  0  0  0  0  0  0  0  0  0
  -46.9191   51.2828   58.2891 H   0  0  0  0  0  0  0  0  0  0  0  0
  -48.4856   51.2148   57.4938 H   0  0  0  0  0  0  0  0  0  0  0  0
  -49.4427   50.1221   59.4417 H   0  0  0  0  0  0  0  0  0  0  0  0
  -47.8430   50.2001   60.2291 H   0  0  0  0  0  0  0  0  0  0  0  0
  -46.9367   48.6892   58.6096 H   0  0  0  0  0  0  0  0  0  0  0  0
  -48.5137   48.6204   57.7965 H   0  0  0  0  0  0  0  0  0  0  0  0
  -47.9311   47.6237   60.5594 H   0  0  0  0  0  0  0  0  0  0  0  0
  -48.1618   46.6333   59.1385 H   0  0  0  0  0  0  0  0  0  0  0  0
  -49.4855   47.5882   59.7621 H   0  0  0  0  0  0  0  0  0  0  0  0
  -37.4739   59.8185   62.7711 H   0  0  0  0  0  0  0  0  0  0  0  0
  -35.5755   61.6531   61.3389 H   0  0  0  0  0  0  0  0  0  0  0  0
  -35.8690   58.7108   61.0631 H   0  0  0  0  0  0  0  0  0  0  0  0
  -33.5723   58.7432   62.0435 H   0  0  0  0  0  0  0  0  0  0  0  0
  -35.4454   58.7715   63.7053 H   0  0  0  0  0  0  0  0  0  0  0  0
  -33.8988   59.5795   65.4399 H   0  0  0  0  0  0  0  0  0  0  0  0
  -32.9375   58.8595   64.1692 H   0  0  0  0  0  0  0  0  0  0  0  0
  1  4  1  0  0  0  0
  1 31  1  0  0  0  0
  1 56  1  0  0  0  0
  2  3  1  0  0  0  0
  2  4  1  0  0  0  0
  2 57  1  0  0  0  0
  2 58  1  0  0  0  0
  3 49  1  0  0  0  0
  4  6  1  0  0  0  0
  4 59  1  1  0  0  0
  5  6  1  0  0  0  0
  5 60  1  0  0  0  0
  6  8  1  0  0  0  0
  6 61  1  1  0  0  0
  7 31  2  0  0  0  0
  8  9  2  0  0  0  0
  8 62  1  0  0  0  0
  9 11  1  0  0  0  0
  9 63  1  0  0  0  0
 10 50  1  0  0  0  0
 10 64  1  0  0  0  0
 11 13  1  0  0  0  0
 11 65  1  0  0  0  0
 11 66  1  0  0  0  0
 12 51  1  0  0  0  0
 12 55  1  0  0  0  0
 13 15  1  0  0  0  0
 13 67  1  0  0  0  0
 13 68  1  0  0  0  0
 14 55  1  0  0  0  0
 14 69  1  0  0  0  0
 15 17  1  0  0  0  0
 15 70  1  0  0  0  0
 15 71  1  0  0  0  0
 16 52  1  0  0  0  0
 16 72  1  0  0  0  0
 17 19  1  0  0  0  0
 17 73  1  0  0  0  0
 17 74  1  0  0  0  0
 18 49  1  0  0  0  0
 18 53  1  0  0  0  0
 19 21  1  0  0  0  0
 19 75  1  0  0  0  0
 19 76  1  0  0  0  0
 20 54  1  0  0  0  0
 20 77  1  0  0  0  0
 21 22  1  0  0  0  0
 21 78  1  0  0  0  0
 21 79  1  0  0  0  0
 22 23  1  0  0  0  0
 22 80  1  0  0  0  0
 22 81  1  0  0  0  0
 23 25  1  0  0  0  0
 23 82  1  0  0  0  0
 23 83  1  0  0  0  0
 24 55  1  0  0  0  0
 25 27  1  0  0  0  0
 25 84  1  0  0  0  0
 25 85  1  0  0  0  0
 26 55  1  0  0  0  0
 26 86  1  0  0  0  0
 27 28  1  0  0  0  0
 27 87  1  0  0  0  0
 27 88  1  0  0  0  0
 28 29  1  0  0  0  0
 28 89  1  0  0  0  0
 28 90  1  0  0  0  0
 29 30  1  0  0  0  0
 29 91  1  0  0  0  0
 29 92  1  0  0  0  0
 30 93  1  0  0  0  0
 30 94  1  0  0  0  0
 30 95  1  0  0  0  0
 31 32  1  0  0  0  0
 32 33  1  0  0  0  0
 32 96  1  0  0  0  0
 32 97  1  0  0  0  0
 33 34  1  0  0  0  0
 33 98  1  0  0  0  0
 33 99  1  0  0  0  0
 34 35  1  0  0  0  0
 34100  1  0  0  0  0
 34101  1  0  0  0  0
 35 36  1  0  0  0  0
 35102  1  0  0  0  0
 35103  1  0  0  0  0
 36 37  1  0  0  0  0
 36104  1  0  0  0  0
 36105  1  0  0  0  0
 37 38  1  0  0  0  0
 37106  1  0  0  0  0
 37107  1  0  0  0  0
 38 39  1  0  0  0  0
 38108  1  0  0  0  0
 38109  1  0  0  0  0
 39 40  1  0  0  0  0
 39110  1  0  0  0  0
 39111  1  0  0  0  0
 40 41  1  0  0  0  0
 40112  1  0  0  0  0
 40113  1  0  0  0  0
 41 42  1  0  0  0  0
 41114  1  0  0  0  0
 41115  1  0  0  0  0
 42 43  1  0  0  0  0
 42116  1  0  0  0  0
 42117  1  0  0  0  0
 43 44  1  0  0  0  0
 43118  1  0  0  0  0
 43119  1  0  0  0  0
 44 45  1  0  0  0  0
 44120  1  0  0  0  0
 44121  1  0  0  0  0
 45 46  1  0  0  0  0
 45122  1  0  0  0  0
 45123  1  0  0  0  0
 46 47  1  0  0  0  0
 46124  1  0  0  0  0
 46125  1  0  0  0  0
 47 48  1  0  0  0  0
 47126  1  0  0  0  0
 47127  1  0  0  0  0
 48128  1  0  0  0  0
 48129  1  0  0  0  0
 48130  1  0  0  0  0
 49 50  1  0  0  0  0
 49131  1  1  0  0  0
 50 51  1  0  0  0  0
 50132  1  6  0  0  0
 51 52  1  0  0  0  0
 51133  1  1  0  0  0
 52 53  1  0  0  0  0
 52134  1  6  0  0  0
 53 54  1  0  0  0  0
 53135  1  1  0  0  0
 54136  1  0  0  0  0
 54137  1  0  0  0  0
M  CHG  1  24  -1
M  END
$$$$
/media/chris/experiments/cd1a-new-docking/inputs/ligands/1onq_ligand.pdb
 OpenBabel06222310383D

137137  0  0  1  0  0  0  0  0999 V2000
  -40.4920   60.2280   63.6270 N   0  0  0  0  0  0  0  0  0  0  0  0
  -38.5950   61.7730   64.2860 C   0  0  0  0  0  0  0  0  0  0  0  0
  -39.2927   63.0412   64.1953 O   0  0  0  0  0  0  0  0  0  0  0  0
  -39.4590   60.5300   64.5980 C   0  0  1  0  0  0  0  0  0  0  0  0
  -40.7577   59.2290   66.0180 O   0  0  0  0  0  0  0  0  0  0  0  0
  -40.2280   60.5370   65.9080 C   0  0  2  0  0  0  0  0  0  0  0  0
  -41.6768   60.5954   61.7273 O   0  0  0  0  0  0  0  0  0  0  0  0
  -41.3266   61.6007   65.8452 C   0  0  0  0  0  0  0  0  0  0  0  0
  -42.6327   61.3127   65.9778 C   0  0  0  0  0  0  0  0  0  0  0  0
  -38.1319   64.8001   66.1282 O   0  0  0  0  0  0  0  0  0  0  0  0
  -43.6696   62.4318   65.9021 C   0  0  0  0  0  0  0  0  0  0  0  0
  -35.8105   66.5213   65.4811 O   0  0  0  0  0  0  0  0  0  0  0  0
  -43.9980   63.0679   67.2607 C   0  0  0  0  0  0  0  0  0  0  0  0
  -33.9865   68.1200   66.3947 O   0  0  0  0  0  0  0  0  0  0  0  0
  -44.5543   62.1083   68.3288 C   0  0  0  0  0  0  0  0  0  0  0  0
  -35.0919   65.0709   63.2850 O   0  0  0  0  0  0  0  0  0  0  0  0
  -44.8616   62.8671   69.6423 C   0  0  0  0  0  0  0  0  0  0  0  0
  -37.9181   64.2390   62.5950 O   0  0  0  0  0  0  0  0  0  0  0  0
  -43.6507   63.5840   70.2912 C   0  0  0  0  0  0  0  0  0  0  0  0
  -35.4059   64.4089   61.0951 O   0  0  0  0  0  0  0  0  0  0  0  0
  -43.0042   64.6693   69.3984 C   0  0  0  0  0  0  0  0  0  0  0  0
  -41.7888   65.3626   70.0513 C   0  0  0  0  0  0  0  0  0  0  0  0
  -42.1149   66.0626   71.3761 C   0  0  0  0  0  0  0  0  0  0  0  0
  -36.0411   69.0408   65.4892 O   0  5  0  0  0  0  0  0  0  0  0  0
  -40.9531   66.7805   72.0597 C   0  0  0  0  0  0  0  0  0  0  0  0
  -34.3443   68.1529   64.0037 O   0  0  0  0  0  0  0  0  0  0  0  0
  -39.7669   65.8602   72.4086 C   0  0  0  0  0  0  0  0  0  0  0  0
  -40.0996   64.6906   73.3474 C   0  0  0  0  0  0  0  0  0  0  0  0
  -40.6524   65.1973   74.6826 C   0  0  0  0  0  0  0  0  0  0  0  0
  -41.0073   64.1389   75.7118 C   0  0  0  0  0  0  0  0  0  0  0  0
  -40.7863   60.8910   62.5003 C   0  0  0  0  0  0  0  0  0  0  0  0
  -39.9258   62.0873   62.2211 C   0  0  0  0  0  0  0  0  0  0  0  0
  -40.4394   62.6955   60.9159 C   0  0  0  0  0  0  0  0  0  0  0  0
  -41.8964   63.1223   61.0773 C   0  0  0  0  0  0  0  0  0  0  0  0
  -42.5489   63.7287   59.8587 C   0  0  0  0  0  0  0  0  0  0  0  0
  -43.9797   64.0968   60.2372 C   0  0  0  0  0  0  0  0  0  0  0  0
  -44.7992   62.8868   60.7053 C   0  0  0  0  0  0  0  0  0  0  0  0
  -46.2557   63.2165   61.0801 C   0  0  0  0  0  0  0  0  0  0  0  0
  -46.3624   64.2562   62.2172 C   0  0  0  0  0  0  0  0  0  0  0  0
  -47.8290   64.5328   62.5602 C   0  0  0  0  0  0  0  0  0  0  0  0
  -48.6177   63.3219   63.0437 C   0  0  0  0  0  0  0  0  0  0  0  0
  -48.0360   62.7249   64.3167 C   0  0  0  0  0  0  0  0  0  0  0  0
  -48.7545   61.4915   64.8687 C   0  0  0  0  0  0  0  0  0  0  0  0
  -50.1984   61.8744   65.1639 C   0  0  0  0  0  0  0  0  0  0  0  0
  -50.4671   62.9961   66.1563 C   0  0  0  0  0  0  0  0  0  0  0  0
  -51.9767   63.2232   66.3340 C   0  0  0  0  0  0  0  0  0  0  0  0
  -52.3415   64.3557   67.3114 C   0  0  0  0  0  0  0  0  0  0  0  0
  -53.8470   64.5462   67.4803 C   0  0  0  0  0  0  0  0  0  0  0  0
  -38.5707   64.2916   63.8868 C   0  0  2  0  0  0  0  0  0  0  0  0
  -37.4907   64.7142   64.8931 C   0  0  1  0  0  0  0  0  0  0  0  0
  -36.8543   66.0862   64.5805 C   0  0  2  0  0  0  0  0  0  0  0  0
  -36.2105   65.9527   63.2280 C   0  0  2  0  0  0  0  0  0  0  0  0
  -37.2331   65.4640   62.2183 C   0  0  1  0  0  0  0  0  0  0  0  0
  -36.3892   65.3888   60.9478 C   0  0  0  0  0  0  0  0  0  0  0  0
  -35.0154   67.9755   65.3227 S   0  0  0  0  0  0  0  0  0  0  0  0
  -41.0464   59.4375   63.8192 H   0  0  0  0  0  0  0  0  0  0  0  0
  -37.8608   61.8607   65.0594 H   0  0  0  0  0  0  0  0  0  0  0  0
  -38.1940   61.6005   63.3091 H   0  0  0  0  0  0  0  0  0  0  0  0
  -38.6677   59.8099   64.6092 H   0  0  0  0  0  0  0  0  0  0  0  0
  -40.0308   58.5878   66.0547 H   0  0  0  0  0  0  0  0  0  0  0  0
  -39.6247   60.7776   66.7583 H   0  0  0  0  0  0  0  0  0  0  0  0
  -41.0520   62.5840   65.6941 H   0  0  0  0  0  0  0  0  0  0  0  0
  -42.9343   60.3376   66.1304 H   0  0  0  0  0  0  0  0  0  0  0  0
  -38.5384   63.9457   66.3416 H   0  0  0  0  0  0  0  0  0  0  0  0
  -44.5717   62.0282   65.4920 H   0  0  0  0  0  0  0  0  0  0  0  0
  -43.2500   63.2034   65.2909 H   0  0  0  0  0  0  0  0  0  0  0  0
  -44.7253   63.8356   67.0973 H   0  0  0  0  0  0  0  0  0  0  0  0
  -43.0675   63.4278   67.6474 H   0  0  0  0  0  0  0  0  0  0  0  0
  -34.4056   68.0074   67.2623 H   0  0  0  0  0  0  0  0  0  0  0  0
  -43.8308   61.3450   68.5257 H   0  0  0  0  0  0  0  0  0  0  0  0
  -45.4616   61.6756   67.9622 H   0  0  0  0  0  0  0  0  0  0  0  0
  -34.4523   65.4016   63.9350 H   0  0  0  0  0  0  0  0  0  0  0  0
  -45.2462   62.1620   70.3493 H   0  0  0  0  0  0  0  0  0  0  0  0
  -45.5578   63.6373   69.3833 H   0  0  0  0  0  0  0  0  0  0  0  0
  -42.9070   62.8487   70.5174 H   0  0  0  0  0  0  0  0  0  0  0  0
  -44.0192   64.0824   71.1634 H   0  0  0  0  0  0  0  0  0  0  0  0
  -34.8714   64.3631   60.2870 H   0  0  0  0  0  0  0  0  0  0  0  0
  -43.7422   65.4133   69.1821 H   0  0  0  0  0  0  0  0  0  0  0  0
  -42.6496   64.1795   68.5157 H   0  0  0  0  0  0  0  0  0  0  0  0
  -41.4097   66.0934   69.3678 H   0  0  0  0  0  0  0  0  0  0  0  0
  -41.0735   64.5975   70.2703 H   0  0  0  0  0  0  0  0  0  0  0  0
  -42.4865   65.3228   72.0539 H   0  0  0  0  0  0  0  0  0  0  0  0
  -42.8215   66.8277   71.1308 H   0  0  0  0  0  0  0  0  0  0  0  0
  -41.3154   67.2206   72.9652 H   0  0  0  0  0  0  0  0  0  0  0  0
  -40.5872   67.5085   71.3661 H   0  0  0  0  0  0  0  0  0  0  0  0
  -33.6735   67.4621   63.8867 H   0  0  0  0  0  0  0  0  0  0  0  0
  -39.0122   66.4564   72.8774 H   0  0  0  0  0  0  0  0  0  0  0  0
  -39.4520   65.4195   71.4858 H   0  0  0  0  0  0  0  0  0  0  0  0
  -39.2101   64.1244   73.5295 H   0  0  0  0  0  0  0  0  0  0  0  0
  -40.8440   64.0803   72.8803 H   0  0  0  0  0  0  0  0  0  0  0  0
  -41.5386   65.7600   74.4754 H   0  0  0  0  0  0  0  0  0  0  0  0
  -39.8590   65.7657   75.1213 H   0  0  0  0  0  0  0  0  0  0  0  0
  -41.8015   63.5282   75.3361 H   0  0  0  0  0  0  0  0  0  0  0  0
  -41.3205   64.6135   76.6181 H   0  0  0  0  0  0  0  0  0  0  0  0
  -40.1499   63.5290   75.9064 H   0  0  0  0  0  0  0  0  0  0  0  0
  -38.9034   61.7905   62.1136 H   0  0  0  0  0  0  0  0  0  0  0  0
  -39.9735   62.7943   63.0229 H   0  0  0  0  0  0  0  0  0  0  0  0
  -40.3675   61.9688   60.1339 H   0  0  0  0  0  0  0  0  0  0  0  0
  -39.8473   63.5522   60.6704 H   0  0  0  0  0  0  0  0  0  0  0  0
  -41.9402   63.8448   61.8654 H   0  0  0  0  0  0  0  0  0  0  0  0
  -42.4395   62.2222   61.2765 H   0  0  0  0  0  0  0  0  0  0  0  0
  -42.5543   63.0201   59.0570 H   0  0  0  0  0  0  0  0  0  0  0  0
  -42.0106   64.5954   59.5361 H   0  0  0  0  0  0  0  0  0  0  0  0
  -44.4602   64.5256   59.3826 H   0  0  0  0  0  0  0  0  0  0  0  0
  -43.9304   64.7882   61.0523 H   0  0  0  0  0  0  0  0  0  0  0  0
  -44.3183   62.4682   61.5646 H   0  0  0  0  0  0  0  0  0  0  0  0
  -44.8410   62.2066   59.8803 H   0  0  0  0  0  0  0  0  0  0  0  0
  -46.7397   62.3156   61.3946 H   0  0  0  0  0  0  0  0  0  0  0  0
  -46.7228   63.6378   60.2145 H   0  0  0  0  0  0  0  0  0  0  0  0
  -45.8966   65.1675   61.9050 H   0  0  0  0  0  0  0  0  0  0  0  0
  -45.8726   63.8683   63.0859 H   0  0  0  0  0  0  0  0  0  0  0  0
  -48.3090   64.9125   61.6825 H   0  0  0  0  0  0  0  0  0  0  0  0
  -47.8195   65.2274   63.3741 H   0  0  0  0  0  0  0  0  0  0  0  0
  -48.6064   62.5754   62.2772 H   0  0  0  0  0  0  0  0  0  0  0  0
  -49.6145   63.6453   63.2596 H   0  0  0  0  0  0  0  0  0  0  0  0
  -48.0573   63.4818   65.0727 H   0  0  0  0  0  0  0  0  0  0  0  0
  -47.0525   62.3933   64.0565 H   0  0  0  0  0  0  0  0  0  0  0  0
  -48.2751   61.1653   65.7680 H   0  0  0  0  0  0  0  0  0  0  0  0
  -48.7219   60.6946   64.1554 H   0  0  0  0  0  0  0  0  0  0  0  0
  -50.6865   60.9989   65.5382 H   0  0  0  0  0  0  0  0  0  0  0  0
  -50.5618   62.2575   64.2333 H   0  0  0  0  0  0  0  0  0  0  0  0
  -50.0176   63.8977   65.7957 H   0  0  0  0  0  0  0  0  0  0  0  0
  -50.0495   62.7220   67.1025 H   0  0  0  0  0  0  0  0  0  0  0  0
  -52.4107   62.3152   66.6976 H   0  0  0  0  0  0  0  0  0  0  0  0
  -52.3555   63.5138   65.3764 H   0  0  0  0  0  0  0  0  0  0  0  0
  -51.9226   65.2693   66.9441 H   0  0  0  0  0  0  0  0  0  0  0  0
  -51.9465   64.0874   68.2690 H   0  0  0  0  0  0  0  0  0  0  0  0
  -54.2801   64.8166   66.5400 H   0  0  0  0  0  0  0  0  0  0  0  0
  -54.0305   65.3223   68.1937 H   0  0  0  0  0  0  0  0  0  0  0  0
  -54.2855   63.6334   67.8257 H   0  0  0  0  0  0  0  0  0  0  0  0
  -39.3601   65.0133   63.9196 H   0  0  0  0  0  0  0  0  0  0  0  0
  -36.6950   63.9994   64.8633 H   0  0  0  0  0  0  0  0  0  0  0  0
  -37.6410   66.8071   64.6593 H   0  0  0  0  0  0  0  0  0  0  0  0
  -35.8531   66.9127   62.9190 H   0  0  0  0  0  0  0  0  0  0  0  0
  -38.0829   66.1058   62.1143 H   0  0  0  0  0  0  0  0  0  0  0  0
  -37.0171   65.1411   60.1175 H   0  0  0  0  0  0  0  0  0  0  0  0
  -35.9231   66.3363   60.7746 H   0  0  0  0  0  0  0  0  0  0  0  0
  1  4  1  0  0  0  0
  1 31  1  0  0  0  0
  1 56  1  0  0  0  0
  2  3  1  0  0  0  0
  2  4  1  0  0  0  0
  2 57  1  0  0  0  0
  2 58  1  0  0  0  0
  3 49  1  0  0  0  0
  4  6  1  0  0  0  0
  4 59  1  1  0  0  0
  5  6  1  0  0  0  0
  5 60  1  0  0  0  0
  6  8  1  0  0  0  0
  6 61  1  1  0  0  0
  7 31  2  0  0  0  0
  8  9  2  0  0  0  0
  8 62  1  0  0  0  0
  9 11  1  0  0  0  0
  9 63  1  0  0  0  0
 10 50  1  0  0  0  0
 10 64  1  0  0  0  0
 11 13  1  0  0  0  0
 11 65  1  0  0  0  0
 11 66  1  0  0  0  0
 12 51  1  0  0  0  0
 12 55  1  0  0  0  0
 13 15  1  0  0  0  0
 13 67  1  0  0  0  0
 13 68  1  0  0  0  0
 14 55  1  0  0  0  0
 14 69  1  0  0  0  0
 15 17  1  0  0  0  0
 15 70  1  0  0  0  0
 15 71  1  0  0  0  0
 16 52  1  0  0  0  0
 16 72  1  0  0  0  0
 17 19  1  0  0  0  0
 17 73  1  0  0  0  0
 17 74  1  0  0  0  0
 18 49  1  0  0  0  0
 18 53  1  0  0  0  0
 19 21  1  0  0  0  0
 19 75  1  0  0  0  0
 19 76  1  0  0  0  0
 20 54  1  0  0  0  0
 20 77  1  0  0  0  0
 21 22  1  0  0  0  0
 21 78  1  0  0  0  0
 21 79  1  0  0  0  0
 22 23  1  0  0  0  0
 22 80  1  0  0  0  0
 22 81  1  0  0  0  0
 23 25  1  0  0  0  0
 23 82  1  0  0  0  0
 23 83  1  0  0  0  0
 24 55  1  0  0  0  0
 25 27  1  0  0  0  0
 25 84  1  0  0  0  0
 25 85  1  0  0  0  0
 26 55  1  0  0  0  0
 26 86  1  0  0  0  0
 27 28  1  0  0  0  0
 27 87  1  0  0  0  0
 27 88  1  0  0  0  0
 28 29  1  0  0  0  0
 28 89  1  0  0  0  0
 28 90  1  0  0  0  0
 29 30  1  0  0  0  0
 29 91  1  0  0  0  0
 29 92  1  0  0  0  0
 30 93  1  0  0  0  0
 30 94  1  0  0  0  0
 30 95  1  0  0  0  0
 31 32  1  0  0  0  0
 32 33  1  0  0  0  0
 32 96  1  0  0  0  0
 32 97  1  0  0  0  0
 33 34  1  0  0  0  0
 33 98  1  0  0  0  0
 33 99  1  0  0  0  0
 34 35  1  0  0  0  0
 34100  1  0  0  0  0
 34101  1  0  0  0  0
 35 36  1  0  0  0  0
 35102  1  0  0  0  0
 35103  1  0  0  0  0
 36 37  1  0  0  0  0
 36104  1  0  0  0  0
 36105  1  0  0  0  0
 37 38  1  0  0  0  0
 37106  1  0  0  0  0
 37107  1  0  0  0  0
 38 39  1  0  0  0  0
 38108  1  0  0  0  0
 38109  1  0  0  0  0
 39 40  1  0  0  0  0
 39110  1  0  0  0  0
 39111  1  0  0  0  0
 40 41  1  0  0  0  0
 40112  1  0  0  0  0
 40113  1  0  0  0  0
 41 42  1  0  0  0  0
 41114  1  0  0  0  0
 41115  1  0  0  0  0
 42 43  1  0  0  0  0
 42116  1  0  0  0  0
 42117  1  0  0  0  0
 43 44  1  0  0  0  0
 43118  1  0  0  0  0
 43119  1  0  0  0  0
 44 45  1  0  0  0  0
 44120  1  0  0  0  0
 44121  1  0  0  0  0
 45 46  1  0  0  0  0
 45122  1  0  0  0  0
 45123  1  0  0  0  0
 46 47  1  0  0  0  0
 46124  1  0  0  0  0
 46125  1  0  0  0  0
 47 48  1  0  0  0  0
 47126  1  0  0  0  0
 47127  1  0  0  0  0
 48128  1  0  0  0  0
 48129  1  0  0  0  0
 48130  1  0  0  0  0
 49 50  1  0  0  0  0
 49131  1  6  0  0  0
 50 51  1  0  0  0  0
 50132  1  1  0  0  0
 51 52  1  0  0  0  0
 51133  1  6  0  0  0
 52 53  1  0  0  0  0
 52134  1  6  0  0  0
 53 54  1  0  0  0  0
 53135  1  6  0  0  0
 54136  1  0  0  0  0
 54137  1  0  0  0  0
M  CHG  1  24  -1
M  END
$$$$
/media/chris/experiments/cd1a-new-docking/inputs/ligands/1onq_ligand.pdb
 OpenBabel06222310383D

137137  0  0  1  0  0  0  0  0999 V2000
  -40.4920   60.2280   63.6270 N   0  0  0  0  0  0  0  0  0  0  0  0
  -38.5950   61.7730   64.2860 C   0  0  0  0  0  0  0  0  0  0  0  0
  -37.5441   62.0867   65.2349 O   0  0  0  0  0  0  0  0  0  0  0  0
  -39.4590   60.5300   64.5980 C   0  0  1  0  0  0  0  0  0  0  0  0
  -39.2569   60.8461   66.8904 O   0  0  0  0  0  0  0  0  0  0  0  0
  -40.2280   60.5370   65.9080 C   0  0  2  0  0  0  0  0  0  0  0  0
  -41.6768   60.5954   61.7273 O   0  0  0  0  0  0  0  0  0  0  0  0
  -40.8583   59.1606   66.1332 C   0  0  0  0  0  0  0  0  0  0  0  0
  -41.0723   58.6448   67.3556 C   0  0  0  0  0  0  0  0  0  0  0  0
  -34.8829   62.7993   66.0015 O   0  0  0  0  0  0  0  0  0  0  0  0
  -41.7060   57.2621   67.4971 C   0  0  0  0  0  0  0  0  0  0  0  0
  -33.1821   60.9883   67.6133 O   0  0  0  0  0  0  0  0  0  0  0  0
  -41.2535   56.4960   68.7487 C   0  0  0  0  0  0  0  0  0  0  0  0
  -31.5554   62.4291   66.2008 O   0  0  0  0  0  0  0  0  0  0  0  0
  -41.5759   57.1696   70.0954 C   0  0  0  0  0  0  0  0  0  0  0  0
  -35.2780   59.4877   68.5068 O   0  0  0  0  0  0  0  0  0  0  0  0
  -41.0568   56.3138   71.2758 C   0  0  0  0  0  0  0  0  0  0  0  0
  -36.9441   59.8674   66.0098 O   0  0  0  0  0  0  0  0  0  0  0  0
  -41.3421   56.8893   72.6861 C   0  0  0  0  0  0  0  0  0  0  0  0
  -35.2824   56.7380   67.1203 O   0  0  0  0  0  0  0  0  0  0  0  0
  -40.7975   56.0227   73.8459 C   0  0  0  0  0  0  0  0  0  0  0  0
  -41.1044   56.5998   75.2448 C   0  0  0  0  0  0  0  0  0  0  0  0
  -40.5515   55.7528   76.3973 C   0  0  0  0  0  0  0  0  0  0  0  0
  -31.3199   62.3771   68.6155 O   0  5  0  0  0  0  0  0  0  0  0  0
  -41.0531   54.3122   76.4725 C   0  0  0  0  0  0  0  0  0  0  0  0
  -33.1237   63.6323   67.5933 O   0  0  0  0  0  0  0  0  0  0  0  0
  -40.4800   53.5111   77.6582 C   0  0  0  0  0  0  0  0  0  0  0  0
  -38.9492   53.3851   77.6844 C   0  0  0  0  0  0  0  0  0  0  0  0
  -38.4860   52.5593   78.8879 C   0  0  0  0  0  0  0  0  0  0  0  0
  -36.9870   52.3718   79.0415 C   0  0  0  0  0  0  0  0  0  0  0  0
  -40.7863   60.8910   62.5003 C   0  0  0  0  0  0  0  0  0  0  0  0
  -39.9258   62.0873   62.2211 C   0  0  0  0  0  0  0  0  0  0  0  0
  -40.8642   63.2930   62.1674 C   0  0  0  0  0  0  0  0  0  0  0  0
  -41.9084   63.0928   61.0717 C   0  0  0  0  0  0  0  0  0  0  0  0
  -42.9004   64.2155   60.8876 C   0  0  0  0  0  0  0  0  0  0  0  0
  -43.6418   64.3966   62.2080 C   0  0  0  0  0  0  0  0  0  0  0  0
  -44.3837   63.1281   62.6503 C   0  0  0  0  0  0  0  0  0  0  0  0
  -45.1589   63.2776   63.9721 C   0  0  0  0  0  0  0  0  0  0  0  0
  -46.2539   64.3650   63.9064 C   0  0  0  0  0  0  0  0  0  0  0  0
  -47.2887   64.0249   62.8300 C   0  0  0  0  0  0  0  0  0  0  0  0
  -48.4096   65.0444   62.6680 C   0  0  0  0  0  0  0  0  0  0  0  0
  -49.2049   65.2366   63.9508 C   0  0  0  0  0  0  0  0  0  0  0  0
  -50.3650   66.2322   63.8784 C   0  0  0  0  0  0  0  0  0  0  0  0
  -51.3540   65.7351   62.8328 C   0  0  0  0  0  0  0  0  0  0  0  0
  -52.0125   64.3789   63.0383 C   0  0  0  0  0  0  0  0  0  0  0  0
  -52.9601   64.0458   61.8750 C   0  0  0  0  0  0  0  0  0  0  0  0
  -54.0993   65.0610   61.6687 C   0  0  0  0  0  0  0  0  0  0  0  0
  -53.6029   66.4704   61.3547 C   0  0  0  0  0  0  0  0  0  0  0  0
  -36.4503   61.1334   65.5086 C   0  0  2  0  0  0  0  0  0  0  0  0
  -35.3818   61.5997   66.5077 C   0  0  1  0  0  0  0  0  0  0  0  0
  -34.2046   60.6120   66.6632 C   0  0  2  0  0  0  0  0  0  0  0  0
  -34.7978   59.3281   67.1741 C   0  0  2  0  0  0  0  0  0  0  0  0
  -35.9120   58.8730   66.2490 C   0  0  1  0  0  0  0  0  0  0  0  0
  -36.3724   57.5915   66.9404 C   0  0  0  0  0  0  0  0  0  0  0  0
  -32.2989   62.3947   67.4949 S   0  0  0  0  0  0  0  0  0  0  0  0
  -41.0464   59.4375   63.8192 H   0  0  0  0  0  0  0  0  0  0  0  0
  -38.1357   61.6183   63.3320 H   0  0  0  0  0  0  0  0  0  0  0  0
  -39.2690   62.6030   64.3261 H   0  0  0  0  0  0  0  0  0  0  0  0
  -38.6677   59.8099   64.6092 H   0  0  0  0  0  0  0  0  0  0  0  0
  -38.8837   61.7234   66.7113 H   0  0  0  0  0  0  0  0  0  0  0  0
  -41.0317   61.2430   65.9299 H   0  0  0  0  0  0  0  0  0  0  0  0
  -41.1313   58.6032   65.3087 H   0  0  0  0  0  0  0  0  0  0  0  0
  -40.8092   59.1816   68.1968 H   0  0  0  0  0  0  0  0  0  0  0  0
  -35.6096   63.4332   65.8970 H   0  0  0  0  0  0  0  0  0  0  0  0
  -41.4471   56.6829   66.6355 H   0  0  0  0  0  0  0  0  0  0  0  0
  -42.7615   57.4118   67.5890 H   0  0  0  0  0  0  0  0  0  0  0  0
  -40.1928   56.3680   68.6905 H   0  0  0  0  0  0  0  0  0  0  0  0
  -41.8017   55.5771   68.7430 H   0  0  0  0  0  0  0  0  0  0  0  0
  -31.0119   61.6299   66.1188 H   0  0  0  0  0  0  0  0  0  0  0  0
  -42.6359   57.2850   70.1851 H   0  0  0  0  0  0  0  0  0  0  0  0
  -41.0936   58.1243   70.1256 H   0  0  0  0  0  0  0  0  0  0  0  0
  -34.5511   59.7783   69.0797 H   0  0  0  0  0  0  0  0  0  0  0  0
  -39.9971   56.2110   71.1688 H   0  0  0  0  0  0  0  0  0  0  0  0
  -41.5849   55.3847   71.2227 H   0  0  0  0  0  0  0  0  0  0  0  0
  -42.4018   56.9798   72.8036 H   0  0  0  0  0  0  0  0  0  0  0  0
  -40.8372   57.8310   72.7422 H   0  0  0  0  0  0  0  0  0  0  0  0
  -35.5774   55.9250   67.5595 H   0  0  0  0  0  0  0  0  0  0  0  0
  -39.7360   55.9420   73.7385 H   0  0  0  0  0  0  0  0  0  0  0  0
  -41.2858   55.0726   73.7841 H   0  0  0  0  0  0  0  0  0  0  0  0
  -42.1663   56.6689   75.3559 H   0  0  0  0  0  0  0  0  0  0  0  0
  -40.6243   57.5544   75.3008 H   0  0  0  0  0  0  0  0  0  0  0  0
  -40.8126   56.2383   77.3144 H   0  0  0  0  0  0  0  0  0  0  0  0
  -39.4982   55.6819   76.2227 H   0  0  0  0  0  0  0  0  0  0  0  0
  -40.7808   53.8132   75.5660 H   0  0  0  0  0  0  0  0  0  0  0  0
  -42.1127   54.3598   76.6137 H   0  0  0  0  0  0  0  0  0  0  0  0
  -33.7652   63.6520   66.8659 H   0  0  0  0  0  0  0  0  0  0  0  0
  -40.8926   52.5245   77.6211 H   0  0  0  0  0  0  0  0  0  0  0  0
  -40.7481   54.0540   78.5403 H   0  0  0  0  0  0  0  0  0  0  0  0
  -38.5188   54.3629   77.7447 H   0  0  0  0  0  0  0  0  0  0  0  0
  -38.6329   52.8902   76.7900 H   0  0  0  0  0  0  0  0  0  0  0  0
  -38.9288   51.5886   78.8066 H   0  0  0  0  0  0  0  0  0  0  0  0
  -38.7925   53.1154   79.7491 H   0  0  0  0  0  0  0  0  0  0  0  0
  -36.6095   51.8182   78.2072 H   0  0  0  0  0  0  0  0  0  0  0  0
  -36.7853   51.8363   79.9456 H   0  0  0  0  0  0  0  0  0  0  0  0
  -36.5100   53.3288   79.0798 H   0  0  0  0  0  0  0  0  0  0  0  0
  -39.4212   61.9695   61.2849 H   0  0  0  0  0  0  0  0  0  0  0  0
  -39.1784   62.2116   62.9767 H   0  0  0  0  0  0  0  0  0  0  0  0
  -40.2960   64.1753   61.9586 H   0  0  0  0  0  0  0  0  0  0  0  0
  -41.3593   63.3953   63.1104 H   0  0  0  0  0  0  0  0  0  0  0  0
  -42.4587   62.2047   61.3028 H   0  0  0  0  0  0  0  0  0  0  0  0
  -41.3580   63.0421   60.1555 H   0  0  0  0  0  0  0  0  0  0  0  0
  -43.5933   63.9665   60.1112 H   0  0  0  0  0  0  0  0  0  0  0  0
  -42.3984   65.1192   60.6114 H   0  0  0  0  0  0  0  0  0  0  0  0
  -44.3535   65.1875   62.0952 H   0  0  0  0  0  0  0  0  0  0  0  0
  -42.9137   64.6230   62.9587 H   0  0  0  0  0  0  0  0  0  0  0  0
  -43.6656   62.3439   62.7695 H   0  0  0  0  0  0  0  0  0  0  0  0
  -45.1080   62.9159   61.8918 H   0  0  0  0  0  0  0  0  0  0  0  0
  -44.4671   63.5360   64.7464 H   0  0  0  0  0  0  0  0  0  0  0  0
  -45.6443   62.3442   64.1673 H   0  0  0  0  0  0  0  0  0  0  0  0
  -45.8010   65.3061   63.6737 H   0  0  0  0  0  0  0  0  0  0  0  0
  -46.7469   64.4152   64.8547 H   0  0  0  0  0  0  0  0  0  0  0  0
  -47.7304   63.0830   63.0803 H   0  0  0  0  0  0  0  0  0  0  0  0
  -46.7594   64.0128   61.9001 H   0  0  0  0  0  0  0  0  0  0  0  0
  -49.0730   64.7072   61.8991 H   0  0  0  0  0  0  0  0  0  0  0  0
  -47.9639   65.9837   62.4152 H   0  0  0  0  0  0  0  0  0  0  0  0
  -48.5288   65.5763   64.7073 H   0  0  0  0  0  0  0  0  0  0  0  0
  -49.6524   64.2870   64.1577 H   0  0  0  0  0  0  0  0  0  0  0  0
  -49.9971   67.1974   63.5991 H   0  0  0  0  0  0  0  0  0  0  0  0
  -50.8439   66.3116   64.8320 H   0  0  0  0  0  0  0  0  0  0  0  0
  -50.8320   65.6939   61.8996 H   0  0  0  0  0  0  0  0  0  0  0  0
  -52.1655   66.4301   62.8907 H   0  0  0  0  0  0  0  0  0  0  0  0
  -52.5709   64.3956   63.9509 H   0  0  0  0  0  0  0  0  0  0  0  0
  -51.2482   63.6313   63.0807 H   0  0  0  0  0  0  0  0  0  0  0  0
  -53.3967   63.0873   62.0636 H   0  0  0  0  0  0  0  0  0  0  0  0
  -52.3678   64.0679   60.9842 H   0  0  0  0  0  0  0  0  0  0  0  0
  -54.6864   65.0989   62.5624 H   0  0  0  0  0  0  0  0  0  0  0  0
  -54.6693   64.7306   60.8256 H   0  0  0  0  0  0  0  0  0  0  0  0
  -53.0260   66.8370   62.1780 H   0  0  0  0  0  0  0  0  0  0  0  0
  -54.4408   67.1155   61.1911 H   0  0  0  0  0  0  0  0  0  0  0  0
  -52.9941   66.4464   60.4752 H   0  0  0  0  0  0  0  0  0  0  0  0
  -35.9925   61.0440   64.5457 H   0  0  0  0  0  0  0  0  0  0  0  0
  -35.8309   61.6875   67.4750 H   0  0  0  0  0  0  0  0  0  0  0  0
  -33.7257   60.5630   65.7076 H   0  0  0  0  0  0  0  0  0  0  0  0
  -34.0355   58.5774   67.1903 H   0  0  0  0  0  0  0  0  0  0  0  0
  -35.5992   58.7098   65.2389 H   0  0  0  0  0  0  0  0  0  0  0  0
  -36.7961   57.8333   67.8927 H   0  0  0  0  0  0  0  0  0  0  0  0
  -37.1076   57.1054   66.3338 H   0  0  0  0  0  0  0  0  0  0  0  0
  1  4  1  0  0  0  0
  1 31  1  0  0  0  0
  1 56  1  0  0  0  0
  2  3  1  0  0  0  0
  2  4  1  0  0  0  0
  2 57  1  0  0  0  0
  2 58  1  0  0  0  0
  3 49  1  0  0  0  0
  4  6  1  0  0  0  0
  4 59  1  1  0  0  0
  5  6  1  0  0  0  0
  5 60  1  0  0  0  0
  6  8  1  0  0  0  0
  6 61  1  6  0  0  0
  7 31  2  0  0  0  0
  8  9  2  0  0  0  0
  8 62  1  0  0  0  0
  9 11  1  0  0  0  0
  9 63  1  0  0  0  0
 10 50  1  0  0  0  0
 10 64  1  0  0  0  0
 11 13  1  0  0  0  0
 11 65  1  0  0  0  0
 11 66  1  0  0  0  0
 12 51  1  0  0  0  0
 12 55  1  0  0  0  0
 13 15  1  0  0  0  0
 13 67  1  0  0  0  0
 13 68  1  0  0  0  0
 14 55  1  0  0  0  0
 14 69  1  0  0  0  0
 15 17  1  0  0  0  0
 15 70  1  0  0  0  0
 15 71  1  0  0  0  0
 16 52  1  0  0  0  0
 16 72  1  0  0  0  0
 17 19  1  0  0  0  0
 17 73  1  0  0  0  0
 17 74  1  0  0  0  0
 18 49  1  0  0  0  0
 18 53  1  0  0  0  0
 19 21  1  0  0  0  0
 19 75  1  0  0  0  0
 19 76  1  0  0  0  0
 20 54  1  0  0  0  0
 20 77  1  0  0  0  0
 21 22  1  0  0  0  0
 21 78  1  0  0  0  0
 21 79  1  0  0  0  0
 22 23  1  0  0  0  0
 22 80  1  0  0  0  0
 22 81  1  0  0  0  0
 23 25  1  0  0  0  0
 23 82  1  0  0  0  0
 23 83  1  0  0  0  0
 24 55  1  0  0  0  0
 25 27  1  0  0  0  0
 25 84  1  0  0  0  0
 25 85  1  0  0  0  0
 26 55  1  0  0  0  0
 26 86  1  0  0  0  0
 27 28  1  0  0  0  0
 27 87  1  0  0  0  0
 27 88  1  0  0  0  0
 28 29  1  0  0  0  0
 28 89  1  0  0  0  0
 28 90  1  0  0  0  0
 29 30  1  0  0  0  0
 29 91  1  0  0  0  0
 29 92  1  0  0  0  0
 30 93  1  0  0  0  0
 30 94  1  0  0  0  0
 30 95  1  0  0  0  0
 31 32  1  0  0  0  0
 32 33  1  0  0  0  0
 32 96  1  0  0  0  0
 32 97  1  0  0  0  0
 33 34  1  0  0  0  0
 33 98  1  0  0  0  0
 33 99  1  0  0  0  0
 34 35  1  0  0  0  0
 34100  1  0  0  0  0
 34101  1  0  0  0  0
 35 36  1  0  0  0  0
 35102  1  0  0  0  0
 35103  1  0  0  0  0
 36 37  1  0  0  0  0
 36104  1  0  0  0  0
 36105  1  0  0  0  0
 37 38  1  0  0  0  0
 37106  1  0  0  0  0
 37107  1  0  0  0  0
 38 39  1  0  0  0  0
 38108  1  0  0  0  0
 38109  1  0  0  0  0
 39 40  1  0  0  0  0
 39110  1  0  0  0  0
 39111  1  0  0  0  0
 40 41  1  0  0  0  0
 40112  1  0  0  0  0
 40113  1  0  0  0  0
 41 42  1  0  0  0  0
 41114  1  0  0  0  0
 41115  1  0  0  0  0
 42 43  1  0  0  0  0
 42116  1  0  0  0  0
 42117  1  0  0  0  0
 43 44  1  0  0  0  0
 43118  1  0  0  0  0
 43119  1  0  0  0  0
 44 45  1  0  0  0  0
 44120  1  0  0  0  0
 44121  1  0  0  0  0
 45 46  1  0  0  0  0
 45122  1  0  0  0  0
 45123  1  0  0  0  0
 46 47  1  0  0  0  0
 46124  1  0  0  0  0
 46125  1  0  0  0  0
 47 48  1  0  0  0  0
 47126  1  0  0  0  0
 47127  1  0  0  0  0
 48128  1  0  0  0  0
 48129  1  0  0  0  0
 48130  1  0  0  0  0
 49 50  1  0  0  0  0
 49131  1  6  0  0  0
 50 51  1  0  0  0  0
 50132  1  1  0  0  0
 51 52  1  0  0  0  0
 51133  1  6  0  0  0
 52 53  1  0  0  0  0
 52134  1  1  0  0  0
 53 54  1  0  0  0  0
 53135  1  6  0  0  0
 54136  1  0  0  0  0
 54137  1  0  0  0  0
M  CHG  1  24  -1
M  END
$$$$
/media/chris/experiments/cd1a-new-docking/inputs/ligands/1onq_ligand.pdb
 OpenBabel06222310383D

137137  0  0  1  0  0  0  0  0999 V2000
  -40.4920   60.2280   63.6270 N   0  0  0  0  0  0  0  0  0  0  0  0
  -38.5950   61.7730   64.2860 C   0  0  0  0  0  0  0  0  0  0  0  0
  -37.5441   62.0867   65.2349 O   0  0  0  0  0  0  0  0  0  0  0  0
  -39.4590   60.5300   64.5980 C   0  0  1  0  0  0  0  0  0  0  0  0
  -41.2116   61.5409   65.7392 O   0  0  0  0  0  0  0  0  0  0  0  0
  -40.2280   60.5370   65.9080 C   0  0  2  0  0  0  0  0  0  0  0  0
  -41.6768   60.5954   61.7273 O   0  0  0  0  0  0  0  0  0  0  0  0
  -39.2689   60.8567   67.0571 C   0  0  0  0  0  0  0  0  0  0  0  0
  -39.0539   60.0187   68.0855 C   0  0  0  0  0  0  0  0  0  0  0  0
  -35.0677   62.0871   63.8049 O   0  0  0  0  0  0  0  0  0  0  0  0
  -38.0807   60.4114   69.1956 C   0  0  0  0  0  0  0  0  0  0  0  0
  -34.0199   64.5267   62.4933 O   0  0  0  0  0  0  0  0  0  0  0  0
  -36.9007   59.4424   69.3594 C   0  0  0  0  0  0  0  0  0  0  0  0
  -31.8452   65.6919   63.2869 O   0  0  0  0  0  0  0  0  0  0  0  0
  -35.9873   59.2905   68.1290 C   0  0  0  0  0  0  0  0  0  0  0  0
  -36.4318   65.8017   62.4860 O   0  0  0  0  0  0  0  0  0  0  0  0
  -34.8505   58.2786   68.4105 C   0  0  0  0  0  0  0  0  0  0  0  0
  -37.4137   64.5009   65.0354 O   0  0  0  0  0  0  0  0  0  0  0  0
  -33.9226   58.6394   69.5981 C   0  0  0  0  0  0  0  0  0  0  0  0
  -36.4467   68.0573   64.5825 O   0  0  0  0  0  0  0  0  0  0  0  0
  -32.7856   57.6203   69.8459 C   0  0  0  0  0  0  0  0  0  0  0  0
  -31.8802   57.9840   71.0426 C   0  0  0  0  0  0  0  0  0  0  0  0
  -30.7413   56.9855   71.2814 C   0  0  0  0  0  0  0  0  0  0  0  0
  -33.6225   67.0179   62.3011 O   0  5  0  0  0  0  0  0  0  0  0  0
  -29.8223   57.2855   72.4637 C   0  0  0  0  0  0  0  0  0  0  0  0
  -32.2187   65.6260   60.8989 O   0  0  0  0  0  0  0  0  0  0  0  0
  -28.6854   56.2612   72.6485 C   0  0  0  0  0  0  0  0  0  0  0  0
  -29.1406   54.8117   72.8760 C   0  0  0  0  0  0  0  0  0  0  0  0
  -27.9391   53.8812   73.0644 C   0  0  0  0  0  0  0  0  0  0  0  0
  -28.2511   52.4112   73.2824 C   0  0  0  0  0  0  0  0  0  0  0  0
  -40.7863   60.8910   62.5003 C   0  0  0  0  0  0  0  0  0  0  0  0
  -39.9258   62.0873   62.2211 C   0  0  0  0  0  0  0  0  0  0  0  0
  -39.2409   61.8250   60.8797 C   0  0  0  0  0  0  0  0  0  0  0  0
  -38.3254   62.9939   60.5241 C   0  0  0  0  0  0  0  0  0  0  0  0
  -37.5895   62.8845   59.2107 C   0  0  0  0  0  0  0  0  0  0  0  0
  -36.7275   64.1336   59.0600 C   0  0  0  0  0  0  0  0  0  0  0  0
  -37.5514   65.4281   59.0764 C   0  0  0  0  0  0  0  0  0  0  0  0
  -36.7166   66.7110   58.9093 C   0  0  0  0  0  0  0  0  0  0  0  0
  -35.6509   66.8820   60.0140 C   0  0  0  0  0  0  0  0  0  0  0  0
  -34.8638   68.1795   59.8089 C   0  0  0  0  0  0  0  0  0  0  0  0
  -34.1280   68.2840   58.4786 C   0  0  0  0  0  0  0  0  0  0  0  0
  -35.0745   68.2218   57.2889 C   0  0  0  0  0  0  0  0  0  0  0  0
  -36.1306   69.3268   57.2131 C   0  0  0  0  0  0  0  0  0  0  0  0
  -35.4120   70.6660   57.1181 C   0  0  0  0  0  0  0  0  0  0  0  0
  -34.4649   71.0665   58.2396 C   0  0  0  0  0  0  0  0  0  0  0  0
  -33.8522   72.4508   57.9738 C   0  0  0  0  0  0  0  0  0  0  0  0
  -32.8646   72.9300   59.0536 C   0  0  0  0  0  0  0  0  0  0  0  0
  -32.2858   74.3145   58.7711 C   0  0  0  0  0  0  0  0  0  0  0  0
  -36.6675   63.2597   65.0462 C   0  0  2  0  0  0  0  0  0  0  0  0
  -35.8119   63.2657   63.7712 C   0  0  1  0  0  0  0  0  0  0  0  0
  -34.8316   64.4561   63.6875 C   0  0  2  0  0  0  0  0  0  0  0  0
  -35.6781   65.6990   63.6916 C   0  0  2  0  0  0  0  0  0  0  0  0
  -36.5935   65.6931   64.9025 C   0  0  1  0  0  0  0  0  0  0  0  0
  -37.3535   67.0038   64.7114 C   0  0  0  0  0  0  0  0  0  0  0  0
  -32.8935   65.7229   62.2244 S   0  0  0  0  0  0  0  0  0  0  0  0
  -41.0464   59.4375   63.8192 H   0  0  0  0  0  0  0  0  0  0  0  0
  -38.1357   61.6183   63.3320 H   0  0  0  0  0  0  0  0  0  0  0  0
  -39.2690   62.6030   64.3261 H   0  0  0  0  0  0  0  0  0  0  0  0
  -38.6677   59.8099   64.6092 H   0  0  0  0  0  0  0  0  0  0  0  0
  -41.7964   61.3001   65.0038 H   0  0  0  0  0  0  0  0  0  0  0  0
  -40.6791   59.5963   66.1457 H   0  0  0  0  0  0  0  0  0  0  0  0
  -38.7644   61.7568   67.0415 H   0  0  0  0  0  0  0  0  0  0  0  0
  -39.5451   59.1120   68.1252 H   0  0  0  0  0  0  0  0  0  0  0  0
  -35.6681   61.3270   63.8576 H   0  0  0  0  0  0  0  0  0  0  0  0
  -38.6194   60.4456   70.1195 H   0  0  0  0  0  0  0  0  0  0  0  0
  -37.6680   61.3609   68.9256 H   0  0  0  0  0  0  0  0  0  0  0  0
  -37.2979   58.4773   69.5954 H   0  0  0  0  0  0  0  0  0  0  0  0
  -36.2859   59.8582   70.1301 H   0  0  0  0  0  0  0  0  0  0  0  0
  -32.2663   65.7541   64.1585 H   0  0  0  0  0  0  0  0  0  0  0  0
  -35.5593   60.2416   67.8901 H   0  0  0  0  0  0  0  0  0  0  0  0
  -36.5729   58.9294   67.3094 H   0  0  0  0  0  0  0  0  0  0  0  0
  -35.8283   65.8037   61.7266 H   0  0  0  0  0  0  0  0  0  0  0  0
  -34.2472   58.2057   67.5298 H   0  0  0  0  0  0  0  0  0  0  0  0
  -35.3307   57.3607   68.6781 H   0  0  0  0  0  0  0  0  0  0  0  0
  -34.5193   58.6986   70.4843 H   0  0  0  0  0  0  0  0  0  0  0  0
  -33.4541   59.5692   69.3512 H   0  0  0  0  0  0  0  0  0  0  0  0
  -36.9318   68.8885   64.4613 H   0  0  0  0  0  0  0  0  0  0  0  0
  -32.1791   57.5694   68.9658 H   0  0  0  0  0  0  0  0  0  0  0  0
  -33.2483   56.6832   70.0756 H   0  0  0  0  0  0  0  0  0  0  0  0
  -32.4854   58.0230   71.9241 H   0  0  0  0  0  0  0  0  0  0  0  0
  -31.4268   58.9262   70.8158 H   0  0  0  0  0  0  0  0  0  0  0  0
  -30.1389   56.9589   70.3975 H   0  0  0  0  0  0  0  0  0  0  0  0
  -31.2176   56.0565   71.5159 H   0  0  0  0  0  0  0  0  0  0  0  0
  -30.4136   57.2967   73.3554 H   0  0  0  0  0  0  0  0  0  0  0  0
  -29.3597   58.2297   72.2650 H   0  0  0  0  0  0  0  0  0  0  0  0
  -31.7406   64.7841   60.8403 H   0  0  0  0  0  0  0  0  0  0  0  0
  -28.1034   56.5619   73.4945 H   0  0  0  0  0  0  0  0  0  0  0  0
  -28.1360   56.2589   71.7303 H   0  0  0  0  0  0  0  0  0  0  0  0
  -29.7059   54.4855   72.0281 H   0  0  0  0  0  0  0  0  0  0  0  0
  -29.7396   54.7780   73.7620 H   0  0  0  0  0  0  0  0  0  0  0  0
  -27.3898   54.2269   73.9151 H   0  0  0  0  0  0  0  0  0  0  0  0
  -27.3994   53.9233   72.1414 H   0  0  0  0  0  0  0  0  0  0  0  0
  -28.7951   52.2938   74.1963 H   0  0  0  0  0  0  0  0  0  0  0  0
  -27.3375   51.8570   73.3373 H   0  0  0  0  0  0  0  0  0  0  0  0
  -28.8407   52.0471   72.4671 H   0  0  0  0  0  0  0  0  0  0  0  0
  -39.1942   62.2049   62.9930 H   0  0  0  0  0  0  0  0  0  0  0  0
  -40.5082   62.9844   62.1896 H   0  0  0  0  0  0  0  0  0  0  0  0
  -39.9842   61.7125   60.1183 H   0  0  0  0  0  0  0  0  0  0  0  0
  -38.6575   60.9309   60.9518 H   0  0  0  0  0  0  0  0  0  0  0  0
  -37.5956   63.0859   61.3012 H   0  0  0  0  0  0  0  0  0  0  0  0
  -38.9687   63.8430   60.4236 H   0  0  0  0  0  0  0  0  0  0  0  0
  -38.2898   62.8249   58.4039 H   0  0  0  0  0  0  0  0  0  0  0  0
  -36.9819   62.0040   59.1925 H   0  0  0  0  0  0  0  0  0  0  0  0
  -36.2002   64.0754   58.1307 H   0  0  0  0  0  0  0  0  0  0  0  0
  -36.0580   64.1664   59.8939 H   0  0  0  0  0  0  0  0  0  0  0  0
  -38.0691   65.4843   60.0111 H   0  0  0  0  0  0  0  0  0  0  0  0
  -38.2136   65.3813   58.2373 H   0  0  0  0  0  0  0  0  0  0  0  0
  -37.3757   67.5534   58.9371 H   0  0  0  0  0  0  0  0  0  0  0  0
  -36.2014   66.6396   57.9742 H   0  0  0  0  0  0  0  0  0  0  0  0
  -34.9756   66.0526   59.9825 H   0  0  0  0  0  0  0  0  0  0  0  0
  -36.1425   66.9237   60.9635 H   0  0  0  0  0  0  0  0  0  0  0  0
  -34.1415   68.2571   60.5945 H   0  0  0  0  0  0  0  0  0  0  0  0
  -35.5848   68.9701   59.8143 H   0  0  0  0  0  0  0  0  0  0  0  0
  -33.4310   67.4753   58.4064 H   0  0  0  0  0  0  0  0  0  0  0  0
  -33.6313   69.2314   58.4527 H   0  0  0  0  0  0  0  0  0  0  0  0
  -35.5856   67.2825   57.3260 H   0  0  0  0  0  0  0  0  0  0  0  0
  -34.4587   68.3515   56.4235 H   0  0  0  0  0  0  0  0  0  0  0  0
  -36.7414   69.3050   58.0913 H   0  0  0  0  0  0  0  0  0  0  0  0
  -36.7565   69.1818   56.3575 H   0  0  0  0  0  0  0  0  0  0  0  0
  -36.1647   71.4239   57.0555 H   0  0  0  0  0  0  0  0  0  0  0  0
  -34.7751   70.5599   56.2649 H   0  0  0  0  0  0  0  0  0  0  0  0
  -33.6792   70.3435   58.3093 H   0  0  0  0  0  0  0  0  0  0  0  0
  -35.0178   71.1081   59.1548 H   0  0  0  0  0  0  0  0  0  0  0  0
  -34.6489   73.1622   57.9101 H   0  0  0  0  0  0  0  0  0  0  0  0
  -33.2928   72.3666   57.0656 H   0  0  0  0  0  0  0  0  0  0  0  0
  -32.0576   72.2297   59.1106 H   0  0  0  0  0  0  0  0  0  0  0  0
  -33.4076   72.9952   59.9733 H   0  0  0  0  0  0  0  0  0  0  0  0
  -31.7332   74.2899   57.8552 H   0  0  0  0  0  0  0  0  0  0  0  0
  -31.6363   74.5998   59.5720 H   0  0  0  0  0  0  0  0  0  0  0  0
  -33.0825   75.0239   58.6880 H   0  0  0  0  0  0  0  0  0  0  0  0
  -36.0127   63.1808   65.8888 H   0  0  0  0  0  0  0  0  0  0  0  0
  -36.4595   63.3487   62.9234 H   0  0  0  0  0  0  0  0  0  0  0  0
  -34.1533   64.3446   64.5075 H   0  0  0  0  0  0  0  0  0  0  0  0
  -35.0370   66.5538   63.7488 H   0  0  0  0  0  0  0  0  0  0  0  0
  -36.0767   65.6460   65.8383 H   0  0  0  0  0  0  0  0  0  0  0  0
  -37.9544   66.9413   63.8283 H   0  0  0  0  0  0  0  0  0  0  0  0
  -37.9810   67.1774   65.5606 H   0  0  0  0  0  0  0  0  0  0  0  0
  1  4  1  0  0  0  0
  1 31  1  0  0  0  0
  1 56  1  0  0  0  0
  2  3  1  0  0  0  0
  2  4  1  0  0  0  0
  2 57  1  0  0  0  0
  2 58  1  0  0  0  0
  3 49  1  0  0  0  0
  4  6  1  0  0  0  0
  4 59  1  1  0  0  0
  5  6  1  0  0  0  0
  5 60  1  0  0  0  0
  6  8  1  0  0  0  0
  6 61  1  1  0  0  0
  7 31  2  0  0  0  0
  8  9  2  0  0  0  0
  8 62  1  0  0  0  0
  9 11  1  0  0  0  0
  9 63  1  0  0  0  0
 10 50  1  0  0  0  0
 10 64  1  0  0  0  0
 11 13  1  0  0  0  0
 11 65  1  0  0  0  0
 11 66  1  0  0  0  0
 12 51  1  0  0  0  0
 12 55  1  0  0  0  0
 13 15  1  0  0  0  0
 13 67  1  0  0  0  0
 13 68  1  0  0  0  0
 14 55  1  0  0  0  0
 14 69  1  0  0  0  0
 15 17  1  0  0  0  0
 15 70  1  0  0  0  0
 15 71  1  0  0  0  0
 16 52  1  0  0  0  0
 16 72  1  0  0  0  0
 17 19  1  0  0  0  0
 17 73  1  0  0  0  0
 17 74  1  0  0  0  0
 18 49  1  0  0  0  0
 18 53  1  0  0  0  0
 19 21  1  0  0  0  0
 19 75  1  0  0  0  0
 19 76  1  0  0  0  0
 20 54  1  0  0  0  0
 20 77  1  0  0  0  0
 21 22  1  0  0  0  0
 21 78  1  0  0  0  0
 21 79  1  0  0  0  0
 22 23  1  0  0  0  0
 22 80  1  0  0  0  0
 22 81  1  0  0  0  0
 23 25  1  0  0  0  0
 23 82  1  0  0  0  0
 23 83  1  0  0  0  0
 24 55  1  0  0  0  0
 25 27  1  0  0  0  0
 25 84  1  0  0  0  0
 25 85  1  0  0  0  0
 26 55  1  0  0  0  0
 26 86  1  0  0  0  0
 27 28  1  0  0  0  0
 27 87  1  0  0  0  0
 27 88  1  0  0  0  0
 28 29  1  0  0  0  0
 28 89  1  0  0  0  0
 28 90  1  0  0  0  0
 29 30  1  0  0  0  0
 29 91  1  0  0  0  0
 29 92  1  0  0  0  0
 30 93  1  0  0  0  0
 30 94  1  0  0  0  0
 30 95  1  0  0  0  0
 31 32  1  0  0  0  0
 32 33  1  0  0  0  0
 32 96  1  0  0  0  0
 32 97  1  0  0  0  0
 33 34  1  0  0  0  0
 33 98  1  0  0  0  0
 33 99  1  0  0  0  0
 34 35  1  0  0  0  0
 34100  1  0  0  0  0
 34101  1  0  0  0  0
 35 36  1  0  0  0  0
 35102  1  0  0  0  0
 35103  1  0  0  0  0
 36 37  1  0  0  0  0
 36104  1  0  0  0  0
 36105  1  0  0  0  0
 37 38  1  0  0  0  0
 37106  1  0  0  0  0
 37107  1  0  0  0  0
 38 39  1  0  0  0  0
 38108  1  0  0  0  0
 38109  1  0  0  0  0
 39 40  1  0  0  0  0
 39110  1  0  0  0  0
 39111  1  0  0  0  0
 40 41  1  0  0  0  0
 40112  1  0  0  0  0
 40113  1  0  0  0  0
 41 42  1  0  0  0  0
 41114  1  0  0  0  0
 41115  1  0  0  0  0
 42 43  1  0  0  0  0
 42116  1  0  0  0  0
 42117  1  0  0  0  0
 43 44  1  0  0  0  0
 43118  1  0  0  0  0
 43119  1  0  0  0  0
 44 45  1  0  0  0  0
 44120  1  0  0  0  0
 44121  1  0  0  0  0
 45 46  1  0  0  0  0
 45122  1  0  0  0  0
 45123  1  0  0  0  0
 46 47  1  0  0  0  0
 46124  1  0  0  0  0
 46125  1  0  0  0  0
 47 48  1  0  0  0  0
 47126  1  0  0  0  0
 47127  1  0  0  0  0
 48128  1  0  0  0  0
 48129  1  0  0  0  0
 48130  1  0  0  0  0
 49 50  1  0  0  0  0
 49131  1  1  0  0  0
 50 51  1  0  0  0  0
 50132  1  6  0  0  0
 51 52  1  0  0  0  0
 51133  1  1  0  0  0
 52 53  1  0  0  0  0
 52134  1  1  0  0  0
 53 54  1  0  0  0  0
 53135  1  1  0  0  0
 54136  1  0  0  0  0
 54137  1  0  0  0  0
M  CHG  1  24  -1
M  END
$$$$
/media/chris/experiments/cd1a-new-docking/inputs/ligands/1onq_ligand.pdb
 OpenBabel06222310383D

137137  0  0  1  0  0  0  0  0999 V2000
  -40.4920   60.2280   63.6270 N   0  0  0  0  0  0  0  0  0  0  0  0
  -38.5950   61.7730   64.2860 C   0  0  0  0  0  0  0  0  0  0  0  0
  -39.2927   63.0412   64.1953 O   0  0  0  0  0  0  0  0  0  0  0  0
  -39.4590   60.5300   64.5980 C   0  0  1  0  0  0  0  0  0  0  0  0
  -40.7577   59.2290   66.0180 O   0  0  0  0  0  0  0  0  0  0  0  0
  -40.2280   60.5370   65.9080 C   0  0  2  0  0  0  0  0  0  0  0  0
  -39.2820   59.8772   61.7401 O   0  0  0  0  0  0  0  0  0  0  0  0
  -41.3266   61.6007   65.8452 C   0  0  0  0  0  0  0  0  0  0  0  0
  -42.1639   61.8493   66.8667 C   0  0  0  0  0  0  0  0  0  0  0  0
  -36.9245   63.2334   62.6041 O   0  0  0  0  0  0  0  0  0  0  0  0
  -43.2362   62.9280   66.7255 C   0  0  0  0  0  0  0  0  0  0  0  0
  -36.2474   65.6923   61.0988 O   0  0  0  0  0  0  0  0  0  0  0  0
  -44.2378   62.6643   65.5918 C   0  0  0  0  0  0  0  0  0  0  0  0
  -33.9903   64.5362   61.6333 O   0  0  0  0  0  0  0  0  0  0  0  0
  -45.0585   61.3673   65.7158 C   0  0  0  0  0  0  0  0  0  0  0  0
  -38.7865   66.6864   61.1867 O   0  0  0  0  0  0  0  0  0  0  0  0
  -45.9100   61.3775   67.0081 C   0  0  0  0  0  0  0  0  0  0  0  0
  -39.4547   65.4386   63.8611 O   0  0  0  0  0  0  0  0  0  0  0  0
  -46.7673   60.1086   67.2459 C   0  0  0  0  0  0  0  0  0  0  0  0
  -40.5437   67.6756   62.3121 O   0  0  0  0  0  0  0  0  0  0  0  0
  -47.6208   60.1532   68.5352 C   0  0  0  0  0  0  0  0  0  0  0  0
  -48.4559   58.8754   68.7674 C   0  0  0  0  0  0  0  0  0  0  0  0
  -49.3168   58.9220   70.0355 C   0  0  0  0  0  0  0  0  0  0  0  0
  -34.5490   65.0650   59.3317 O   0  5  0  0  0  0  0  0  0  0  0  0
  -50.3634   60.0325   70.0960 C   0  0  0  0  0  0  0  0  0  0  0  0
  -35.6260   63.2046   60.4511 O   0  0  0  0  0  0  0  0  0  0  0  0
  -51.4136   59.9649   68.9697 C   0  0  0  0  0  0  0  0  0  0  0  0
  -52.4712   61.0789   68.9927 C   0  0  0  0  0  0  0  0  0  0  0  0
  -51.8207   62.4577   68.8485 C   0  0  0  0  0  0  0  0  0  0  0  0
  -51.0383   62.7048   67.5708 C   0  0  0  0  0  0  0  0  0  0  0  0
  -40.3447   59.9361   62.3275 C   0  0  0  0  0  0  0  0  0  0  0  0
  -41.6199   59.6610   61.5872 C   0  0  0  0  0  0  0  0  0  0  0  0
  -42.4612   60.9337   61.6856 C   0  0  0  0  0  0  0  0  0  0  0  0
  -43.7942   60.7344   60.9683 C   0  0  0  0  0  0  0  0  0  0  0  0
  -44.7302   61.9186   60.9667 C   0  0  0  0  0  0  0  0  0  0  0  0
  -44.0200   63.0665   60.2569 C   0  0  0  0  0  0  0  0  0  0  0  0
  -44.8668   64.3451   60.2034 C   0  0  0  0  0  0  0  0  0  0  0  0
  -45.2412   64.9136   61.5844 C   0  0  0  0  0  0  0  0  0  0  0  0
  -44.0074   65.3000   62.4293 C   0  0  0  0  0  0  0  0  0  0  0  0
  -44.4367   65.8418   63.7957 C   0  0  0  0  0  0  0  0  0  0  0  0
  -45.3316   67.0744   63.7486 C   0  0  0  0  0  0  0  0  0  0  0  0
  -45.7060   67.5693   65.1378 C   0  0  0  0  0  0  0  0  0  0  0  0
  -46.4531   66.5723   66.0266 C   0  0  0  0  0  0  0  0  0  0  0  0
  -46.7524   67.2517   67.3561 C   0  0  0  0  0  0  0  0  0  0  0  0
  -47.4813   66.4601   68.4319 C   0  0  0  0  0  0  0  0  0  0  0  0
  -46.6734   65.2192   68.8438 C   0  0  0  0  0  0  0  0  0  0  0  0
  -47.3466   64.3472   69.9196 C   0  0  0  0  0  0  0  0  0  0  0  0
  -46.5133   63.1321   70.3205 C   0  0  0  0  0  0  0  0  0  0  0  0
  -38.5707   64.2916   63.8868 C   0  0  2  0  0  0  0  0  0  0  0  0
  -37.8007   64.3171   62.5587 C   0  0  1  0  0  0  0  0  0  0  0  0
  -36.9714   65.6028   62.3469 C   0  0  2  0  0  0  0  0  0  0  0  0
  -37.9542   66.7410   62.3427 C   0  0  2  0  0  0  0  0  0  0  0  0
  -38.7875   66.7050   63.6110 C   0  0  1  0  0  0  0  0  0  0  0  0
  -39.7042   67.9085   63.4028 C   0  0  0  0  0  0  0  0  0  0  0  0
  -35.0951   64.5857   60.6304 S   0  0  0  0  0  0  0  0  0  0  0  0
  -41.4169   60.2387   63.9642 H   0  0  0  0  0  0  0  0  0  0  0  0
  -37.8608   61.8607   65.0594 H   0  0  0  0  0  0  0  0  0  0  0  0
  -38.1940   61.6005   63.3091 H   0  0  0  0  0  0  0  0  0  0  0  0
  -38.6677   59.8099   64.6092 H   0  0  0  0  0  0  0  0  0  0  0  0
  -40.0308   58.5878   66.0547 H   0  0  0  0  0  0  0  0  0  0  0  0
  -39.6247   60.7776   66.7583 H   0  0  0  0  0  0  0  0  0  0  0  0
  -41.4292   62.1522   64.9789 H   0  0  0  0  0  0  0  0  0  0  0  0
  -42.0825   61.3127   67.7444 H   0  0  0  0  0  0  0  0  0  0  0  0
  -37.4286   62.4154   62.7369 H   0  0  0  0  0  0  0  0  0  0  0  0
  -42.7511   63.8627   66.5360 H   0  0  0  0  0  0  0  0  0  0  0  0
  -43.7943   62.9329   67.6385 H   0  0  0  0  0  0  0  0  0  0  0  0
  -43.6910   62.6210   64.6731 H   0  0  0  0  0  0  0  0  0  0  0  0
  -44.9471   63.4642   65.6365 H   0  0  0  0  0  0  0  0  0  0  0  0
  -33.6315   65.4279   61.7634 H   0  0  0  0  0  0  0  0  0  0  0  0
  -44.3914   60.5311   65.7418 H   0  0  0  0  0  0  0  0  0  0  0  0
  -45.7143   61.2943   64.8734 H   0  0  0  0  0  0  0  0  0  0  0  0
  -38.2346   66.7105   60.3894 H   0  0  0  0  0  0  0  0  0  0  0  0
  -46.5699   62.2186   66.9627 H   0  0  0  0  0  0  0  0  0  0  0  0
  -45.2149   61.4217   67.8204 H   0  0  0  0  0  0  0  0  0  0  0  0
  -46.1103   59.2663   67.3072 H   0  0  0  0  0  0  0  0  0  0  0  0
  -47.4515   60.0414   66.4260 H   0  0  0  0  0  0  0  0  0  0  0  0
  -41.1248   68.4413   62.1820 H   0  0  0  0  0  0  0  0  0  0  0  0
  -48.2885   60.9867   68.4703 H   0  0  0  0  0  0  0  0  0  0  0  0
  -46.9423   60.2387   69.3581 H   0  0  0  0  0  0  0  0  0  0  0  0
  -47.7867   58.0440   68.8441 H   0  0  0  0  0  0  0  0  0  0  0  0
  -49.1263   58.7857   67.9382 H   0  0  0  0  0  0  0  0  0  0  0  0
  -48.6607   59.0450   70.8717 H   0  0  0  0  0  0  0  0  0  0  0  0
  -49.8691   58.0056   70.0420 H   0  0  0  0  0  0  0  0  0  0  0  0
  -49.8594   60.9741   70.0302 H   0  0  0  0  0  0  0  0  0  0  0  0
  -50.8907   59.9117   71.0192 H   0  0  0  0  0  0  0  0  0  0  0  0
  -35.9843   62.8840   61.2936 H   0  0  0  0  0  0  0  0  0  0  0  0
  -51.9205   59.0257   69.0459 H   0  0  0  0  0  0  0  0  0  0  0  0
  -50.8743   60.0868   68.0536 H   0  0  0  0  0  0  0  0  0  0  0  0
  -53.0020   61.0380   69.9209 H   0  0  0  0  0  0  0  0  0  0  0  0
  -53.1401   60.9303   68.1709 H   0  0  0  0  0  0  0  0  0  0  0  0
  -51.1497   62.5888   69.6716 H   0  0  0  0  0  0  0  0  0  0  0  0
  -52.6329   63.1539   68.8235 H   0  0  0  0  0  0  0  0  0  0  0  0
  -50.2035   62.0368   67.5290 H   0  0  0  0  0  0  0  0  0  0  0  0
  -50.6874   63.7155   67.5573 H   0  0  0  0  0  0  0  0  0  0  0  0
  -51.6727   62.5362   66.7258 H   0  0  0  0  0  0  0  0  0  0  0  0
  -42.1382   58.8395   62.0360 H   0  0  0  0  0  0  0  0  0  0  0  0
  -41.4273   59.4020   60.5671 H   0  0  0  0  0  0  0  0  0  0  0  0
  -41.9317   61.7446   61.2307 H   0  0  0  0  0  0  0  0  0  0  0  0
  -42.6461   61.1540   62.7162 H   0  0  0  0  0  0  0  0  0  0  0  0
  -44.3004   59.9180   61.4397 H   0  0  0  0  0  0  0  0  0  0  0  0
  -43.5457   60.5627   59.9418 H   0  0  0  0  0  0  0  0  0  0  0  0
  -44.9641   62.2002   61.9722 H   0  0  0  0  0  0  0  0  0  0  0  0
  -45.6439   61.6749   60.4661 H   0  0  0  0  0  0  0  0  0  0  0  0
  -43.7951   62.7628   59.2558 H   0  0  0  0  0  0  0  0  0  0  0  0
  -43.1328   63.2897   60.8118 H   0  0  0  0  0  0  0  0  0  0  0  0
  -45.7708   64.1268   59.6742 H   0  0  0  0  0  0  0  0  0  0  0  0
  -44.2702   65.0883   59.7169 H   0  0  0  0  0  0  0  0  0  0  0  0
  -45.8022   64.1746   62.1173 H   0  0  0  0  0  0  0  0  0  0  0  0
  -45.8109   65.8046   61.4214 H   0  0  0  0  0  0  0  0  0  0  0  0
  -43.4491   66.0524   61.9125 H   0  0  0  0  0  0  0  0  0  0  0  0
  -43.4050   64.4283   62.5781 H   0  0  0  0  0  0  0  0  0  0  0  0
  -43.5538   66.0937   64.3451 H   0  0  0  0  0  0  0  0  0  0  0  0
  -45.0171   65.0688   64.2545 H   0  0  0  0  0  0  0  0  0  0  0  0
  -46.2275   66.8291   63.2176 H   0  0  0  0  0  0  0  0  0  0  0  0
  -44.7881   67.8549   63.2584 H   0  0  0  0  0  0  0  0  0  0  0  0
  -46.3268   68.4330   65.0212 H   0  0  0  0  0  0  0  0  0  0  0  0
  -44.7784   67.7606   65.6355 H   0  0  0  0  0  0  0  0  0  0  0  0
  -45.8453   65.7072   66.1907 H   0  0  0  0  0  0  0  0  0  0  0  0
  -47.3633   66.2663   65.5547 H   0  0  0  0  0  0  0  0  0  0  0  0
  -47.3477   68.1148   67.1421 H   0  0  0  0  0  0  0  0  0  0  0  0
  -45.7864   67.4359   67.7778 H   0  0  0  0  0  0  0  0  0  0  0  0
  -48.4325   66.1487   68.0534 H   0  0  0  0  0  0  0  0  0  0  0  0
  -47.6067   67.0862   69.2904 H   0  0  0  0  0  0  0  0  0  0  0  0
  -45.7278   65.5467   69.2226 H   0  0  0  0  0  0  0  0  0  0  0  0
  -46.5853   64.6094   67.9691 H   0  0  0  0  0  0  0  0  0  0  0  0
  -48.2863   64.0042   69.5398 H   0  0  0  0  0  0  0  0  0  0  0  0
  -47.4622   64.9543   70.7931 H   0  0  0  0  0  0  0  0  0  0  0  0
  -46.3753   62.4979   69.4699 H   0  0  0  0  0  0  0  0  0  0  0  0
  -47.0208   62.5900   71.0909 H   0  0  0  0  0  0  0  0  0  0  0  0
  -45.5599   63.4568   70.6817 H   0  0  0  0  0  0  0  0  0  0  0  0
  -37.8613   64.3371   64.6865 H   0  0  0  0  0  0  0  0  0  0  0  0
  -38.5037   64.2763   61.7531 H   0  0  0  0  0  0  0  0  0  0  0  0
  -36.2362   65.6172   63.1242 H   0  0  0  0  0  0  0  0  0  0  0  0
  -37.4139   67.6641   62.3117 H   0  0  0  0  0  0  0  0  0  0  0  0
  -38.2128   66.7722   64.5111 H   0  0  0  0  0  0  0  0  0  0  0  0
  -40.2958   68.0614   64.2812 H   0  0  0  0  0  0  0  0  0  0  0  0
  -39.1105   68.7786   63.2144 H   0  0  0  0  0  0  0  0  0  0  0  0
  1  4  1  0  0  0  0
  1 31  1  0  0  0  0
  1 56  1  0  0  0  0
  2  3  1  0  0  0  0
  2  4  1  0  0  0  0
  2 57  1  0  0  0  0
  2 58  1  0  0  0  0
  3 49  1  0  0  0  0
  4  6  1  0  0  0  0
  4 59  1  1  0  0  0
  5  6  1  0  0  0  0
  5 60  1  0  0  0  0
  6  8  1  0  0  0  0
  6 61  1  1  0  0  0
  7 31  2  0  0  0  0
  8  9  2  0  0  0  0
  8 62  1  0  0  0  0
  9 11  1  0  0  0  0
  9 63  1  0  0  0  0
 10 50  1  0  0  0  0
 10 64  1  0  0  0  0
 11 13  1  0  0  0  0
 11 65  1  0  0  0  0
 11 66  1  0  0  0  0
 12 51  1  0  0  0  0
 12 55  1  0  0  0  0
 13 15  1  0  0  0  0
 13 67  1  0  0  0  0
 13 68  1  0  0  0  0
 14 55  1  0  0  0  0
 14 69  1  0  0  0  0
 15 17  1  0  0  0  0
 15 70  1  0  0  0  0
 15 71  1  0  0  0  0
 16 52  1  0  0  0  0
 16 72  1  0  0  0  0
 17 19  1  0  0  0  0
 17 73  1  0  0  0  0
 17 74  1  0  0  0  0
 18 49  1  0  0  0  0
 18 53  1  0  0  0  0
 19 21  1  0  0  0  0
 19 75  1  0  0  0  0
 19 76  1  0  0  0  0
 20 54  1  0  0  0  0
 20 77  1  0  0  0  0
 21 22  1  0  0  0  0
 21 78  1  0  0  0  0
 21 79  1  0  0  0  0
 22 23  1  0  0  0  0
 22 80  1  0  0  0  0
 22 81  1  0  0  0  0
 23 25  1  0  0  0  0
 23 82  1  0  0  0  0
 23 83  1  0  0  0  0
 24 55  1  0  0  0  0
 25 27  1  0  0  0  0
 25 84  1  0  0  0  0
 25 85  1  0  0  0  0
 26 55  1  0  0  0  0
 26 86  1  0  0  0  0
 27 28  1  0  0  0  0
 27 87  1  0  0  0  0
 27 88  1  0  0  0  0
 28 29  1  0  0  0  0
 28 89  1  0  0  0  0
 28 90  1  0  0  0  0
 29 30  1  0  0  0  0
 29 91  1  0  0  0  0
 29 92  1  0  0  0  0
 30 93  1  0  0  0  0
 30 94  1  0  0  0  0
 30 95  1  0  0  0  0
 31 32  1  0  0  0  0
 32 33  1  0  0  0  0
 32 96  1  0  0  0  0
 32 97  1  0  0  0  0
 33 34  1  0  0  0  0
 33 98  1  0  0  0  0
 33 99  1  0  0  0  0
 34 35  1  0  0  0  0
 34100  1  0  0  0  0
 34101  1  0  0  0  0
 35 36  1  0  0  0  0
 35102  1  0  0  0  0
 35103  1  0  0  0  0
 36 37  1  0  0  0  0
 36104  1  0  0  0  0
 36105  1  0  0  0  0
 37 38  1  0  0  0  0
 37106  1  0  0  0  0
 37107  1  0  0  0  0
 38 39  1  0  0  0  0
 38108  1  0  0  0  0
 38109  1  0  0  0  0
 39 40  1  0  0  0  0
 39110  1  0  0  0  0
 39111  1  0  0  0  0
 40 41  1  0  0  0  0
 40112  1  0  0  0  0
 40113  1  0  0  0  0
 41 42  1  0  0  0  0
 41114  1  0  0  0  0
 41115  1  0  0  0  0
 42 43  1  0  0  0  0
 42116  1  0  0  0  0
 42117  1  0  0  0  0
 43 44  1  0  0  0  0
 43118  1  0  0  0  0
 43119  1  0  0  0  0
 44 45  1  0  0  0  0
 44120  1  0  0  0  0
 44121  1  0  0  0  0
 45 46  1  0  0  0  0
 45122  1  0  0  0  0
 45123  1  0  0  0  0
 46 47  1  0  0  0  0
 46124  1  0  0  0  0
 46125  1  0  0  0  0
 47 48  1  0  0  0  0
 47126  1  0  0  0  0
 47127  1  0  0  0  0
 48128  1  0  0  0  0
 48129  1  0  0  0  0
 48130  1  0  0  0  0
 49 50  1  0  0  0  0
 49131  1  1  0  0  0
 50 51  1  0  0  0  0
 50132  1  6  0  0  0
 51 52  1  0  0  0  0
 51133  1  1  0  0  0
 52 53  1  0  0  0  0
 52134  1  6  0  0  0
 53 54  1  0  0  0  0
 53135  1  1  0  0  0
 54136  1  0  0  0  0
 54137  1  0  0  0  0
M  CHG  1  24  -1
M  END
$$$$
/media/chris/experiments/cd1a-new-docking/inputs/ligands/1onq_ligand.pdb
 OpenBabel06222310383D

137137  0  0  1  0  0  0  0  0999 V2000
  -40.4920   60.2280   63.6270 N   0  0  0  0  0  0  0  0  0  0  0  0
  -38.5950   61.7730   64.2860 C   0  0  0  0  0  0  0  0  0  0  0  0
  -39.2927   63.0412   64.1953 O   0  0  0  0  0  0  0  0  0  0  0  0
  -39.4590   60.5300   64.5980 C   0  0  1  0  0  0  0  0  0  0  0  0
  -39.2569   60.8461   66.8904 O   0  0  0  0  0  0  0  0  0  0  0  0
  -40.2280   60.5370   65.9080 C   0  0  2  0  0  0  0  0  0  0  0  0
  -39.5856   61.0253   61.7060 O   0  0  0  0  0  0  0  0  0  0  0  0
  -40.8583   59.1606   66.1332 C   0  0  0  0  0  0  0  0  0  0  0  0
  -40.5775   58.3927   67.1998 C   0  0  0  0  0  0  0  0  0  0  0  0
  -36.9245   63.2334   62.6041 O   0  0  0  0  0  0  0  0  0  0  0  0
  -41.2481   57.0288   67.3524 C   0  0  0  0  0  0  0  0  0  0  0  0
  -36.2474   65.6923   61.0988 O   0  0  0  0  0  0  0  0  0  0  0  0
  -40.9397   56.0528   66.2076 C   0  0  0  0  0  0  0  0  0  0  0  0
  -34.5230   64.9669   59.3052 O   0  0  0  0  0  0  0  0  0  0  0  0
  -41.6093   54.6701   66.3119 C   0  0  0  0  0  0  0  0  0  0  0  0
  -38.7865   66.6864   61.1867 O   0  0  0  0  0  0  0  0  0  0  0  0
  -43.1510   54.8055   66.3182 C   0  0  0  0  0  0  0  0  0  0  0  0
  -39.4547   65.4386   63.8611 O   0  0  0  0  0  0  0  0  0  0  0  0
  -43.9320   53.4723   66.4375 C   0  0  0  0  0  0  0  0  0  0  0  0
  -40.5437   67.6756   62.3121 O   0  0  0  0  0  0  0  0  0  0  0  0
  -45.4701   53.6358   66.4240 C   0  0  0  0  0  0  0  0  0  0  0  0
  -46.2342   52.3011   66.5609 C   0  0  0  0  0  0  0  0  0  0  0  0
  -47.7594   52.4565   66.5308 C   0  0  0  0  0  0  0  0  0  0  0  0
  -35.7915   63.2771   60.4988 O   0  5  0  0  0  0  0  0  0  0  0  0
  -48.3654   53.3435   67.6163 C   0  0  0  0  0  0  0  0  0  0  0  0
  -33.9724   64.4403   61.5999 O   0  0  0  0  0  0  0  0  0  0  0  0
  -47.8702   54.8028   67.5809 C   0  0  0  0  0  0  0  0  0  0  0  0
  -48.4487   55.7172   68.6714 C   0  0  0  0  0  0  0  0  0  0  0  0
  -47.9080   57.1436   68.5367 C   0  0  0  0  0  0  0  0  0  0  0  0
  -48.3902   58.1486   69.5678 C   0  0  0  0  0  0  0  0  0  0  0  0
  -40.4890   60.4819   62.3113 C   0  0  0  0  0  0  0  0  0  0  0  0
  -41.7153   60.0341   61.5727 C   0  0  0  0  0  0  0  0  0  0  0  0
  -42.3284   61.2885   60.9500 C   0  0  0  0  0  0  0  0  0  0  0  0
  -42.6761   62.2966   62.0427 C   0  0  0  0  0  0  0  0  0  0  0  0
  -43.3087   63.5861   61.5787 C   0  0  0  0  0  0  0  0  0  0  0  0
  -42.3326   64.2593   60.6196 C   0  0  0  0  0  0  0  0  0  0  0  0
  -42.8551   65.5998   60.0858 C   0  0  0  0  0  0  0  0  0  0  0  0
  -43.1195   66.6545   61.1759 C   0  0  0  0  0  0  0  0  0  0  0  0
  -44.1571   66.1901   62.2215 C   0  0  0  0  0  0  0  0  0  0  0  0
  -44.3938   67.2818   63.2691 C   0  0  0  0  0  0  0  0  0  0  0  0
  -45.3916   66.9207   64.3627 C   0  0  0  0  0  0  0  0  0  0  0  0
  -44.9500   65.7090   65.1700 C   0  0  0  0  0  0  0  0  0  0  0  0
  -43.6208   65.8477   65.9158 C   0  0  0  0  0  0  0  0  0  0  0  0
  -43.7485   66.9976   66.9058 C   0  0  0  0  0  0  0  0  0  0  0  0
  -44.8040   66.9058   67.9979 C   0  0  0  0  0  0  0  0  0  0  0  0
  -44.5554   65.6880   68.9019 C   0  0  0  0  0  0  0  0  0  0  0  0
  -43.2026   65.7039   69.6371 C   0  0  0  0  0  0  0  0  0  0  0  0
  -43.0358   66.9017   70.5693 C   0  0  0  0  0  0  0  0  0  0  0  0
  -38.5707   64.2916   63.8868 C   0  0  2  0  0  0  0  0  0  0  0  0
  -37.8007   64.3171   62.5587 C   0  0  1  0  0  0  0  0  0  0  0  0
  -36.9714   65.6028   62.3469 C   0  0  2  0  0  0  0  0  0  0  0  0
  -37.9542   66.7410   62.3427 C   0  0  2  0  0  0  0  0  0  0  0  0
  -38.7875   66.7050   63.6110 C   0  0  1  0  0  0  0  0  0  0  0  0
  -39.7042   67.9085   63.4028 C   0  0  0  0  0  0  0  0  0  0  0  0
  -35.0951   64.5857   60.6304 S   0  0  0  0  0  0  0  0  0  0  0  0
  -41.2958   59.7807   63.9778 H   0  0  0  0  0  0  0  0  0  0  0  0
  -37.8608   61.8607   65.0594 H   0  0  0  0  0  0  0  0  0  0  0  0
  -38.1940   61.6005   63.3091 H   0  0  0  0  0  0  0  0  0  0  0  0
  -38.6677   59.8099   64.6092 H   0  0  0  0  0  0  0  0  0  0  0  0
  -38.8837   61.7234   66.7113 H   0  0  0  0  0  0  0  0  0  0  0  0
  -41.0317   61.2430   65.9299 H   0  0  0  0  0  0  0  0  0  0  0  0
  -41.5295   58.8060   65.4340 H   0  0  0  0  0  0  0  0  0  0  0  0
  -39.9104   58.7238   67.9142 H   0  0  0  0  0  0  0  0  0  0  0  0
  -37.4286   62.4154   62.7369 H   0  0  0  0  0  0  0  0  0  0  0  0
  -42.3071   57.1766   67.3931 H   0  0  0  0  0  0  0  0  0  0  0  0
  -40.8602   56.5901   68.2479 H   0  0  0  0  0  0  0  0  0  0  0  0
  -39.8804   55.9040   66.1786 H   0  0  0  0  0  0  0  0  0  0  0  0
  -41.3381   56.5045   65.3232 H   0  0  0  0  0  0  0  0  0  0  0  0
  -35.2403   65.0663   58.6599 H   0  0  0  0  0  0  0  0  0  0  0  0
  -41.2951   54.1955   67.2180 H   0  0  0  0  0  0  0  0  0  0  0  0
  -41.3198   54.0839   65.4649 H   0  0  0  0  0  0  0  0  0  0  0  0
  -38.2346   66.7105   60.3894 H   0  0  0  0  0  0  0  0  0  0  0  0
  -43.4450   55.2804   65.4055 H   0  0  0  0  0  0  0  0  0  0  0  0
  -43.3950   55.3709   67.1933 H   0  0  0  0  0  0  0  0  0  0  0  0
  -43.6526   53.0007   67.3564 H   0  0  0  0  0  0  0  0  0  0  0  0
  -43.6770   52.8883   65.5779 H   0  0  0  0  0  0  0  0  0  0  0  0
  -41.1248   68.4413   62.1820 H   0  0  0  0  0  0  0  0  0  0  0  0
  -45.7535   54.0947   65.4999 H   0  0  0  0  0  0  0  0  0  0  0  0
  -45.7297   54.2347   67.2718 H   0  0  0  0  0  0  0  0  0  0  0  0
  -45.9593   51.8485   67.4907 H   0  0  0  0  0  0  0  0  0  0  0  0
  -45.9651   51.6995   65.7179 H   0  0  0  0  0  0  0  0  0  0  0  0
  -48.1894   51.4815   66.6273 H   0  0  0  0  0  0  0  0  0  0  0  0
  -47.9806   52.9439   65.6043 H   0  0  0  0  0  0  0  0  0  0  0  0
  -48.1163   52.9265   68.5697 H   0  0  0  0  0  0  0  0  0  0  0  0
  -49.4207   53.3699   67.4418 H   0  0  0  0  0  0  0  0  0  0  0  0
  -33.5125   65.2894   61.6918 H   0  0  0  0  0  0  0  0  0  0  0  0
  -48.1300   55.2173   66.6293 H   0  0  0  0  0  0  0  0  0  0  0  0
  -46.8155   54.7624   67.7563 H   0  0  0  0  0  0  0  0  0  0  0  0
  -48.1789   55.3301   69.6317 H   0  0  0  0  0  0  0  0  0  0  0  0
  -49.5128   55.7449   68.5632 H   0  0  0  0  0  0  0  0  0  0  0  0
  -48.1885   57.5082   67.5707 H   0  0  0  0  0  0  0  0  0  0  0  0
  -46.8522   57.0630   68.6905 H   0  0  0  0  0  0  0  0  0  0  0  0
  -49.4477   58.2795   69.4708 H   0  0  0  0  0  0  0  0  0  0  0  0
  -47.8988   59.0858   69.4094 H   0  0  0  0  0  0  0  0  0  0  0  0
  -48.1639   57.7887   70.5497 H   0  0  0  0  0  0  0  0  0  0  0  0
  -42.4091   59.5800   62.2489 H   0  0  0  0  0  0  0  0  0  0  0  0
  -41.4732   59.3089   60.8240 H   0  0  0  0  0  0  0  0  0  0  0  0
  -43.2176   61.0218   60.4180 H   0  0  0  0  0  0  0  0  0  0  0  0
  -41.6218   61.7286   60.2778 H   0  0  0  0  0  0  0  0  0  0  0  0
  -41.7723   62.5432   62.5598 H   0  0  0  0  0  0  0  0  0  0  0  0
  -43.4135   61.8173   62.6522 H   0  0  0  0  0  0  0  0  0  0  0  0
  -43.4945   64.2239   62.4175 H   0  0  0  0  0  0  0  0  0  0  0  0
  -44.2416   63.3932   61.0916 H   0  0  0  0  0  0  0  0  0  0  0  0
  -42.1607   63.6046   59.7909 H   0  0  0  0  0  0  0  0  0  0  0  0
  -41.4315   64.4568   61.1618 H   0  0  0  0  0  0  0  0  0  0  0  0
  -43.7720   65.4189   59.5648 H   0  0  0  0  0  0  0  0  0  0  0  0
  -42.0895   65.9977   59.4529 H   0  0  0  0  0  0  0  0  0  0  0  0
  -43.4817   67.5459   60.7079 H   0  0  0  0  0  0  0  0  0  0  0  0
  -42.1969   66.8223   61.6912 H   0  0  0  0  0  0  0  0  0  0  0  0
  -43.7953   65.3085   62.7081 H   0  0  0  0  0  0  0  0  0  0  0  0
  -45.0812   65.9854   61.7225 H   0  0  0  0  0  0  0  0  0  0  0  0
  -44.7556   68.1531   62.7643 H   0  0  0  0  0  0  0  0  0  0  0  0
  -43.4550   67.4335   63.7596 H   0  0  0  0  0  0  0  0  0  0  0  0
  -46.3367   66.7061   63.9091 H   0  0  0  0  0  0  0  0  0  0  0  0
  -45.4594   67.7529   65.0318 H   0  0  0  0  0  0  0  0  0  0  0  0
  -44.8631   64.8815   64.4973 H   0  0  0  0  0  0  0  0  0  0  0  0
  -45.6940   65.5809   65.9282 H   0  0  0  0  0  0  0  0  0  0  0  0
  -42.8348   66.0546   65.2198 H   0  0  0  0  0  0  0  0  0  0  0  0
  -43.3901   64.9393   66.4321 H   0  0  0  0  0  0  0  0  0  0  0  0
  -43.9579   67.8803   66.3384 H   0  0  0  0  0  0  0  0  0  0  0  0
  -42.8207   66.9866   67.4388 H   0  0  0  0  0  0  0  0  0  0  0  0
  -45.7692   66.8146   67.5452 H   0  0  0  0  0  0  0  0  0  0  0  0
  -44.7535   67.7912   68.5966 H   0  0  0  0  0  0  0  0  0  0  0  0
  -44.5957   64.8076   68.2951 H   0  0  0  0  0  0  0  0  0  0  0  0
  -45.3127   65.7103   69.6575 H   0  0  0  0  0  0  0  0  0  0  0  0
  -42.4200   65.7296   68.9078 H   0  0  0  0  0  0  0  0  0  0  0  0
  -43.1606   64.8228   70.2427 H   0  0  0  0  0  0  0  0  0  0  0  0
  -43.0724   67.8059   69.9982 H   0  0  0  0  0  0  0  0  0  0  0  0
  -42.0931   66.8347   71.0710 H   0  0  0  0  0  0  0  0  0  0  0  0
  -43.8250   66.9040   71.2918 H   0  0  0  0  0  0  0  0  0  0  0  0
  -37.8613   64.3371   64.6865 H   0  0  0  0  0  0  0  0  0  0  0  0
  -38.5037   64.2763   61.7531 H   0  0  0  0  0  0  0  0  0  0  0  0
  -36.2362   65.6172   63.1242 H   0  0  0  0  0  0  0  0  0  0  0  0
  -37.4139   67.6641   62.3117 H   0  0  0  0  0  0  0  0  0  0  0  0
  -38.2128   66.7722   64.5111 H   0  0  0  0  0  0  0  0  0  0  0  0
  -40.2958   68.0614   64.2812 H   0  0  0  0  0  0  0  0  0  0  0  0
  -39.1105   68.7786   63.2144 H   0  0  0  0  0  0  0  0  0  0  0  0
  1  4  1  0  0  0  0
  1 31  1  0  0  0  0
  1 56  1  0  0  0  0
  2  3  1  0  0  0  0
  2  4  1  0  0  0  0
  2 57  1  0  0  0  0
  2 58  1  0  0  0  0
  3 49  1  0  0  0  0
  4  6  1  0  0  0  0
  4 59  1  1  0  0  0
  5  6  1  0  0  0  0
  5 60  1  0  0  0  0
  6  8  1  0  0  0  0
  6 61  1  6  0  0  0
  7 31  2  0  0  0  0
  8  9  2  0  0  0  0
  8 62  1  0  0  0  0
  9 11  1  0  0  0  0
  9 63  1  0  0  0  0
 10 50  1  0  0  0  0
 10 64  1  0  0  0  0
 11 13  1  0  0  0  0
 11 65  1  0  0  0  0
 11 66  1  0  0  0  0
 12 51  1  0  0  0  0
 12 55  1  0  0  0  0
 13 15  1  0  0  0  0
 13 67  1  0  0  0  0
 13 68  1  0  0  0  0
 14 55  1  0  0  0  0
 14 69  1  0  0  0  0
 15 17  1  0  0  0  0
 15 70  1  0  0  0  0
 15 71  1  0  0  0  0
 16 52  1  0  0  0  0
 16 72  1  0  0  0  0
 17 19  1  0  0  0  0
 17 73  1  0  0  0  0
 17 74  1  0  0  0  0
 18 49  1  0  0  0  0
 18 53  1  0  0  0  0
 19 21  1  0  0  0  0
 19 75  1  0  0  0  0
 19 76  1  0  0  0  0
 20 54  1  0  0  0  0
 20 77  1  0  0  0  0
 21 22  1  0  0  0  0
 21 78  1  0  0  0  0
 21 79  1  0  0  0  0
 22 23  1  0  0  0  0
 22 80  1  0  0  0  0
 22 81  1  0  0  0  0
 23 25  1  0  0  0  0
 23 82  1  0  0  0  0
 23 83  1  0  0  0  0
 24 55  1  0  0  0  0
 25 27  1  0  0  0  0
 25 84  1  0  0  0  0
 25 85  1  0  0  0  0
 26 55  1  0  0  0  0
 26 86  1  0  0  0  0
 27 28  1  0  0  0  0
 27 87  1  0  0  0  0
 27 88  1  0  0  0  0
 28 29  1  0  0  0  0
 28 89  1  0  0  0  0
 28 90  1  0  0  0  0
 29 30  1  0  0  0  0
 29 91  1  0  0  0  0
 29 92  1  0  0  0  0
 30 93  1  0  0  0  0
 30 94  1  0  0  0  0
 30 95  1  0  0  0  0
 31 32  1  0  0  0  0
 32 33  1  0  0  0  0
 32 96  1  0  0  0  0
 32 97  1  0  0  0  0
 33 34  1  0  0  0  0
 33 98  1  0  0  0  0
 33 99  1  0  0  0  0
 34 35  1  0  0  0  0
 34100  1  0  0  0  0
 34101  1  0  0  0  0
 35 36  1  0  0  0  0
 35102  1  0  0  0  0
 35103  1  0  0  0  0
 36 37  1  0  0  0  0
 36104  1  0  0  0  0
 36105  1  0  0  0  0
 37 38  1  0  0  0  0
 37106  1  0  0  0  0
 37107  1  0  0  0  0
 38 39  1  0  0  0  0
 38108  1  0  0  0  0
 38109  1  0  0  0  0
 39 40  1  0  0  0  0
 39110  1  0  0  0  0
 39111  1  0  0  0  0
 40 41  1  0  0  0  0
 40112  1  0  0  0  0
 40113  1  0  0  0  0
 41 42  1  0  0  0  0
 41114  1  0  0  0  0
 41115  1  0  0  0  0
 42 43  1  0  0  0  0
 42116  1  0  0  0  0
 42117  1  0  0  0  0
 43 44  1  0  0  0  0
 43118  1  0  0  0  0
 43119  1  0  0  0  0
 44 45  1  0  0  0  0
 44120  1  0  0  0  0
 44121  1  0  0  0  0
 45 46  1  0  0  0  0
 45122  1  0  0  0  0
 45123  1  0  0  0  0
 46 47  1  0  0  0  0
 46124  1  0  0  0  0
 46125  1  0  0  0  0
 47 48  1  0  0  0  0
 47126  1  0  0  0  0
 47127  1  0  0  0  0
 48128  1  0  0  0  0
 48129  1  0  0  0  0
 48130  1  0  0  0  0
 49 50  1  0  0  0  0
 49131  1  1  0  0  0
 50 51  1  0  0  0  0
 50132  1  6  0  0  0
 51 52  1  0  0  0  0
 51133  1  1  0  0  0
 52 53  1  0  0  0  0
 52134  1  6  0  0  0
 53 54  1  0  0  0  0
 53135  1  1  0  0  0
 54136  1  0  0  0  0
 54137  1  0  0  0  0
M  CHG  1  24  -1
M  END
$$$$
/media/chris/experiments/cd1a-new-docking/inputs/ligands/1onq_ligand.pdb
 OpenBabel06222310383D

137137  0  0  1  0  0  0  0  0999 V2000
  -40.4920   60.2280   63.6270 N   0  0  0  0  0  0  0  0  0  0  0  0
  -38.5950   61.7730   64.2860 C   0  0  0  0  0  0  0  0  0  0  0  0
  -39.2927   63.0412   64.1953 O   0  0  0  0  0  0  0  0  0  0  0  0
  -39.4590   60.5300   64.5980 C   0  0  1  0  0  0  0  0  0  0  0  0
  -40.7577   59.2290   66.0180 O   0  0  0  0  0  0  0  0  0  0  0  0
  -40.2280   60.5370   65.9080 C   0  0  2  0  0  0  0  0  0  0  0  0
  -41.2545   59.7022   61.5559 O   0  0  0  0  0  0  0  0  0  0  0  0
  -41.3266   61.6007   65.8452 C   0  0  0  0  0  0  0  0  0  0  0  0
  -42.4907   61.4906   66.5078 C   0  0  0  0  0  0  0  0  0  0  0  0
  -41.5274   64.7916   64.5408 O   0  0  0  0  0  0  0  0  0  0  0  0
  -43.5385   62.5962   66.3929 C   0  0  0  0  0  0  0  0  0  0  0  0
  -42.9129   66.0321   62.2361 O   0  0  0  0  0  0  0  0  0  0  0  0
  -44.9849   62.0984   66.5283 C   0  0  0  0  0  0  0  0  0  0  0  0
  -44.2310   68.0419   63.2060 O   0  0  0  0  0  0  0  0  0  0  0  0
  -45.3341   61.4211   67.8665 C   0  0  0  0  0  0  0  0  0  0  0  0
  -40.8460   65.6061   60.5071 O   0  0  0  0  0  0  0  0  0  0  0  0
  -46.8080   60.9490   67.8749 C   0  0  0  0  0  0  0  0  0  0  0  0
  -39.9128   63.0603   61.8500 O   0  0  0  0  0  0  0  0  0  0  0  0
  -47.2765   60.2655   69.1845 C   0  0  0  0  0  0  0  0  0  0  0  0
  -39.5569   64.2215   59.1827 O   0  0  0  0  0  0  0  0  0  0  0  0
  -47.1868   61.1683   70.4373 C   0  0  0  0  0  0  0  0  0  0  0  0
  -47.6405   60.4683   71.7367 C   0  0  0  0  0  0  0  0  0  0  0  0
  -47.5695   61.3649   72.9786 C   0  0  0  0  0  0  0  0  0  0  0  0
  -42.5271   66.9638   64.5564 O   0  5  0  0  0  0  0  0  0  0  0  0
  -48.4325   62.6246   72.9474 C   0  0  0  0  0  0  0  0  0  0  0  0
  -44.6695   65.8854   64.2078 O   0  0  0  0  0  0  0  0  0  0  0  0
  -49.9422   62.3457   72.8103 C   0  0  0  0  0  0  0  0  0  0  0  0
  -50.3529   61.5692   71.5499 C   0  0  0  0  0  0  0  0  0  0  0  0
  -49.9421   62.3228   70.2817 C   0  0  0  0  0  0  0  0  0  0  0  0
  -50.3056   61.6690   68.9603 C   0  0  0  0  0  0  0  0  0  0  0  0
  -40.3447   59.9361   62.3275 C   0  0  0  0  0  0  0  0  0  0  0  0
  -38.9282   59.9171   61.8348 C   0  0  0  0  0  0  0  0  0  0  0  0
  -38.9924   59.5851   60.3439 C   0  0  0  0  0  0  0  0  0  0  0  0
  -39.7914   60.6559   59.6050 C   0  0  0  0  0  0  0  0  0  0  0  0
  -39.9553   60.4535   58.1182 C   0  0  0  0  0  0  0  0  0  0  0  0
  -40.7601   61.6314   57.5787 C   0  0  0  0  0  0  0  0  0  0  0  0
  -41.0122   61.5350   56.0681 C   0  0  0  0  0  0  0  0  0  0  0  0
  -41.8079   62.7164   55.4834 C   0  0  0  0  0  0  0  0  0  0  0  0
  -43.2018   62.8793   56.1283 C   0  0  0  0  0  0  0  0  0  0  0  0
  -43.0740   63.1411   57.6317 C   0  0  0  0  0  0  0  0  0  0  0  0
  -44.3957   63.3013   58.3731 C   0  0  0  0  0  0  0  0  0  0  0  0
  -45.2271   64.4534   57.8286 C   0  0  0  0  0  0  0  0  0  0  0  0
  -46.5674   64.7013   58.5245 C   0  0  0  0  0  0  0  0  0  0  0  0
  -46.2915   65.0267   59.9862 C   0  0  0  0  0  0  0  0  0  0  0  0
  -47.4710   65.3005   60.9076 C   0  0  0  0  0  0  0  0  0  0  0  0
  -46.9926   65.6250   62.3317 C   0  0  0  0  0  0  0  0  0  0  0  0
  -48.1246   65.8997   63.3386 C   0  0  0  0  0  0  0  0  0  0  0  0
  -49.0699   64.7147   63.5228 C   0  0  0  0  0  0  0  0  0  0  0  0
  -40.3719   63.2523   63.2102 C   0  0  2  0  0  0  0  0  0  0  0  0
  -41.0541   64.6276   63.2396 C   0  0  1  0  0  0  0  0  0  0  0  0
  -42.2500   64.7478   62.2697 C   0  0  2  0  0  0  0  0  0  0  0  0
  -41.6957   64.5273   60.8893 C   0  0  2  0  0  0  0  0  0  0  0  0
  -40.9480   63.2071   60.8409 C   0  0  1  0  0  0  0  0  0  0  0  0
  -40.4693   63.1856   59.3909 C   0  0  0  0  0  0  0  0  0  0  0  0
  -43.6188   66.7305   63.5725 S   0  0  0  0  0  0  0  0  0  0  0  0
  -41.4169   60.2387   63.9642 H   0  0  0  0  0  0  0  0  0  0  0  0
  -37.8608   61.8607   65.0594 H   0  0  0  0  0  0  0  0  0  0  0  0
  -38.1940   61.6005   63.3091 H   0  0  0  0  0  0  0  0  0  0  0  0
  -38.6677   59.8099   64.6092 H   0  0  0  0  0  0  0  0  0  0  0  0
  -40.0308   58.5878   66.0547 H   0  0  0  0  0  0  0  0  0  0  0  0
  -39.6247   60.7776   66.7583 H   0  0  0  0  0  0  0  0  0  0  0  0
  -41.1662   62.4408   65.2677 H   0  0  0  0  0  0  0  0  0  0  0  0
  -42.6763   60.6610   67.0928 H   0  0  0  0  0  0  0  0  0  0  0  0
  -40.7886   64.7191   65.1651 H   0  0  0  0  0  0  0  0  0  0  0  0
  -43.4313   63.0640   65.4366 H   0  0  0  0  0  0  0  0  0  0  0  0
  -43.3657   63.2735   67.2030 H   0  0  0  0  0  0  0  0  0  0  0  0
  -45.1643   61.3916   65.7452 H   0  0  0  0  0  0  0  0  0  0  0  0
  -45.6008   62.9716   66.4733 H   0  0  0  0  0  0  0  0  0  0  0  0
  -43.5608   68.6066   62.7902 H   0  0  0  0  0  0  0  0  0  0  0  0
  -45.1850   62.1200   68.6629 H   0  0  0  0  0  0  0  0  0  0  0  0
  -44.7001   60.5689   67.9954 H   0  0  0  0  0  0  0  0  0  0  0  0
  -41.3431   66.4383   60.5450 H   0  0  0  0  0  0  0  0  0  0  0  0
  -46.9365   60.2516   67.0737 H   0  0  0  0  0  0  0  0  0  0  0  0
  -47.4026   61.8328   67.7731 H   0  0  0  0  0  0  0  0  0  0  0  0
  -46.6668   59.4017   69.3489 H   0  0  0  0  0  0  0  0  0  0  0  0
  -48.3104   60.0238   69.0526 H   0  0  0  0  0  0  0  0  0  0  0  0
  -39.2544   64.2057   58.2613 H   0  0  0  0  0  0  0  0  0  0  0  0
  -47.8067   62.0264   70.2811 H   0  0  0  0  0  0  0  0  0  0  0  0
  -46.1567   61.4284   70.5639 H   0  0  0  0  0  0  0  0  0  0  0  0
  -47.0125   59.6172   71.8985 H   0  0  0  0  0  0  0  0  0  0  0  0
  -48.6676   60.1994   71.6041 H   0  0  0  0  0  0  0  0  0  0  0  0
  -46.5514   61.6690   73.1046 H   0  0  0  0  0  0  0  0  0  0  0  0
  -47.9535   60.7730   73.7830 H   0  0  0  0  0  0  0  0  0  0  0  0
  -48.1239   63.2235   72.1162 H   0  0  0  0  0  0  0  0  0  0  0  0
  -48.2926   63.1195   73.8856 H   0  0  0  0  0  0  0  0  0  0  0  0
  -45.3857   65.7282   63.5728 H   0  0  0  0  0  0  0  0  0  0  0  0
  -50.4529   63.2859   72.8007 H   0  0  0  0  0  0  0  0  0  0  0  0
  -50.2057   61.7242   73.6405 H   0  0  0  0  0  0  0  0  0  0  0  0
  -51.4148   61.4382   71.5504 H   0  0  0  0  0  0  0  0  0  0  0  0
  -49.8576   60.6208   71.5579 H   0  0  0  0  0  0  0  0  0  0  0  0
  -48.8791   62.4426   70.3040 H   0  0  0  0  0  0  0  0  0  0  0  0
  -50.4921   63.2403   70.3056 H   0  0  0  0  0  0  0  0  0  0  0  0
  -49.7867   60.7378   68.8684 H   0  0  0  0  0  0  0  0  0  0  0  0
  -50.0256   62.3145   68.1541 H   0  0  0  0  0  0  0  0  0  0  0  0
  -51.3607   61.4941   68.9272 H   0  0  0  0  0  0  0  0  0  0  0  0
  -38.3654   59.1710   62.3559 H   0  0  0  0  0  0  0  0  0  0  0  0
  -38.4475   60.8584   62.0015 H   0  0  0  0  0  0  0  0  0  0  0  0
  -39.4667   58.6350   60.2124 H   0  0  0  0  0  0  0  0  0  0  0  0
  -37.9988   59.5522   59.9480 H   0  0  0  0  0  0  0  0  0  0  0  0
  -39.2984   61.5936   59.7550 H   0  0  0  0  0  0  0  0  0  0  0  0
  -40.7798   60.6096   60.0123 H   0  0  0  0  0  0  0  0  0  0  0  0
  -40.4769   59.5384   57.9298 H   0  0  0  0  0  0  0  0  0  0  0  0
  -39.0003   60.3997   57.6386 H   0  0  0  0  0  0  0  0  0  0  0  0
  -40.2215   62.5341   57.7789 H   0  0  0  0  0  0  0  0  0  0  0  0
  -41.7125   61.6220   58.0663 H   0  0  0  0  0  0  0  0  0  0  0  0
  -41.5582   60.6351   55.8760 H   0  0  0  0  0  0  0  0  0  0  0  0
  -40.0525   61.5473   55.5952 H   0  0  0  0  0  0  0  0  0  0  0  0
  -41.9342   62.5565   54.4330 H   0  0  0  0  0  0  0  0  0  0  0  0
  -41.2537   63.6089   55.6863 H   0  0  0  0  0  0  0  0  0  0  0  0
  -43.7672   61.9839   55.9743 H   0  0  0  0  0  0  0  0  0  0  0  0
  -43.6963   63.7125   55.6743 H   0  0  0  0  0  0  0  0  0  0  0  0
  -42.5079   64.0392   57.7650 H   0  0  0  0  0  0  0  0  0  0  0  0
  -42.6019   62.2752   58.0466 H   0  0  0  0  0  0  0  0  0  0  0  0
  -44.1902   63.4839   59.4072 H   0  0  0  0  0  0  0  0  0  0  0  0
  -44.9573   62.4004   58.2395 H   0  0  0  0  0  0  0  0  0  0  0  0
  -45.4262   64.2541   56.7963 H   0  0  0  0  0  0  0  0  0  0  0  0
  -44.6456   65.3350   58.0003 H   0  0  0  0  0  0  0  0  0  0  0  0
  -47.1779   63.8251   58.4574 H   0  0  0  0  0  0  0  0  0  0  0  0
  -47.0826   65.5137   58.0558 H   0  0  0  0  0  0  0  0  0  0  0  0
  -45.6695   65.8972   60.0034 H   0  0  0  0  0  0  0  0  0  0  0  0
  -45.8596   64.1287   60.3759 H   0  0  0  0  0  0  0  0  0  0  0  0
  -48.0996   64.4351   60.9383 H   0  0  0  0  0  0  0  0  0  0  0  0
  -48.0116   66.1426   60.5290 H   0  0  0  0  0  0  0  0  0  0  0  0
  -46.3689   66.4933   62.2849 H   0  0  0  0  0  0  0  0  0  0  0  0
  -46.4756   64.7571   62.6842 H   0  0  0  0  0  0  0  0  0  0  0  0
  -48.6931   66.7367   62.9906 H   0  0  0  0  0  0  0  0  0  0  0  0
  -47.6663   66.0898   64.2866 H   0  0  0  0  0  0  0  0  0  0  0  0
  -49.5494   64.4931   62.5923 H   0  0  0  0  0  0  0  0  0  0  0  0
  -49.8098   64.9593   64.2560 H   0  0  0  0  0  0  0  0  0  0  0  0
  -48.5128   63.8614   63.8491 H   0  0  0  0  0  0  0  0  0  0  0  0
  -41.0884   62.5164   63.5101 H   0  0  0  0  0  0  0  0  0  0  0  0
  -40.3450   65.3693   62.9365 H   0  0  0  0  0  0  0  0  0  0  0  0
  -42.9797   64.0400   62.6037 H   0  0  0  0  0  0  0  0  0  0  0  0
  -42.5072   64.4892   60.1929 H   0  0  0  0  0  0  0  0  0  0  0  0
  -41.5483   62.3577   61.0920 H   0  0  0  0  0  0  0  0  0  0  0  0
  -39.9961   62.2480   59.1861 H   0  0  0  0  0  0  0  0  0  0  0  0
  -41.3075   63.3143   58.7383 H   0  0  0  0  0  0  0  0  0  0  0  0
  1  4  1  0  0  0  0
  1 31  1  0  0  0  0
  1 56  1  0  0  0  0
  2  3  1  0  0  0  0
  2  4  1  0  0  0  0
  2 57  1  0  0  0  0
  2 58  1  0  0  0  0
  3 49  1  0  0  0  0
  4  6  1  0  0  0  0
  4 59  1  1  0  0  0
  5  6  1  0  0  0  0
  5 60  1  0  0  0  0
  6  8  1  0  0  0  0
  6 61  1  1  0  0  0
  7 31  2  0  0  0  0
  8  9  2  0  0  0  0
  8 62  1  0  0  0  0
  9 11  1  0  0  0  0
  9 63  1  0  0  0  0
 10 50  1  0  0  0  0
 10 64  1  0  0  0  0
 11 13  1  0  0  0  0
 11 65  1  0  0  0  0
 11 66  1  0  0  0  0
 12 51  1  0  0  0  0
 12 55  1  0  0  0  0
 13 15  1  0  0  0  0
 13 67  1  0  0  0  0
 13 68  1  0  0  0  0
 14 55  1  0  0  0  0
 14 69  1  0  0  0  0
 15 17  1  0  0  0  0
 15 70  1  0  0  0  0
 15 71  1  0  0  0  0
 16 52  1  0  0  0  0
 16 72  1  0  0  0  0
 17 19  1  0  0  0  0
 17 73  1  0  0  0  0
 17 74  1  0  0  0  0
 18 49  1  0  0  0  0
 18 53  1  0  0  0  0
 19 21  1  0  0  0  0
 19 75  1  0  0  0  0
 19 76  1  0  0  0  0
 20 54  1  0  0  0  0
 20 77  1  0  0  0  0
 21 22  1  0  0  0  0
 21 78  1  0  0  0  0
 21 79  1  0  0  0  0
 22 23  1  0  0  0  0
 22 80  1  0  0  0  0
 22 81  1  0  0  0  0
 23 25  1  0  0  0  0
 23 82  1  0  0  0  0
 23 83  1  0  0  0  0
 24 55  1  0  0  0  0
 25 27  1  0  0  0  0
 25 84  1  0  0  0  0
 25 85  1  0  0  0  0
 26 55  1  0  0  0  0
 26 86  1  0  0  0  0
 27 28  1  0  0  0  0
 27 87  1  0  0  0  0
 27 88  1  0  0  0  0
 28 29  1  0  0  0  0
 28 89  1  0  0  0  0
 28 90  1  0  0  0  0
 29 30  1  0  0  0  0
 29 91  1  0  0  0  0
 29 92  1  0  0  0  0
 30 93  1  0  0  0  0
 30 94  1  0  0  0  0
 30 95  1  0  0  0  0
 31 32  1  0  0  0  0
 32 33  1  0  0  0  0
 32 96  1  0  0  0  0
 32 97  1  0  0  0  0
 33 34  1  0  0  0  0
 33 98  1  0  0  0  0
 33 99  1  0  0  0  0
 34 35  1  0  0  0  0
 34100  1  0  0  0  0
 34101  1  0  0  0  0
 35 36  1  0  0  0  0
 35102  1  0  0  0  0
 35103  1  0  0  0  0
 36 37  1  0  0  0  0
 36104  1  0  0  0  0
 36105  1  0  0  0  0
 37 38  1  0  0  0  0
 37106  1  0  0  0  0
 37107  1  0  0  0  0
 38 39  1  0  0  0  0
 38108  1  0  0  0  0
 38109  1  0  0  0  0
 39 40  1  0  0  0  0
 39110  1  0  0  0  0
 39111  1  0  0  0  0
 40 41  1  0  0  0  0
 40112  1  0  0  0  0
 40113  1  0  0  0  0
 41 42  1  0  0  0  0
 41114  1  0  0  0  0
 41115  1  0  0  0  0
 42 43  1  0  0  0  0
 42116  1  0  0  0  0
 42117  1  0  0  0  0
 43 44  1  0  0  0  0
 43118  1  0  0  0  0
 43119  1  0  0  0  0
 44 45  1  0  0  0  0
 44120  1  0  0  0  0
 44121  1  0  0  0  0
 45 46  1  0  0  0  0
 45122  1  0  0  0  0
 45123  1  0  0  0  0
 46 47  1  0  0  0  0
 46124  1  0  0  0  0
 46125  1  0  0  0  0
 47 48  1  0  0  0  0
 47126  1  0  0  0  0
 47127  1  0  0  0  0
 48128  1  0  0  0  0
 48129  1  0  0  0  0
 48130  1  0  0  0  0
 49 50  1  0  0  0  0
 49131  1  1  0  0  0
 50 51  1  0  0  0  0
 50132  1  6  0  0  0
 51 52  1  0  0  0  0
 51133  1  1  0  0  0
 52 53  1  0  0  0  0
 52134  1  6  0  0  0
 53 54  1  0  0  0  0
 53135  1  1  0  0  0
 54136  1  0  0  0  0
 54137  1  0  0  0  0
M  CHG  1  24  -1
M  END
$$$$
/media/chris/experiments/cd1a-new-docking/inputs/ligands/1onq_ligand.pdb
 OpenBabel06222310383D

137137  0  0  1  0  0  0  0  0999 V2000
  -40.4920   60.2280   63.6270 N   0  0  0  0  0  0  0  0  0  0  0  0
  -38.5950   61.7730   64.2860 C   0  0  0  0  0  0  0  0  0  0  0  0
  -37.8612   61.7550   63.0352 O   0  0  0  0  0  0  0  0  0  0  0  0
  -39.4590   60.5300   64.5980 C   0  0  1  0  0  0  0  0  0  0  0  0
  -41.2116   61.5409   65.7392 O   0  0  0  0  0  0  0  0  0  0  0  0
  -40.2280   60.5370   65.9080 C   0  0  2  0  0  0  0  0  0  0  0  0
  -40.9980   62.2858   62.8166 O   0  0  0  0  0  0  0  0  0  0  0  0
  -39.2689   60.8567   67.0571 C   0  0  0  0  0  0  0  0  0  0  0  0
  -39.0539   60.0187   68.0855 C   0  0  0  0  0  0  0  0  0  0  0  0
  -36.4617   63.4735   64.8422 O   0  0  0  0  0  0  0  0  0  0  0  0
  -38.0807   60.4114   69.1956 C   0  0  0  0  0  0  0  0  0  0  0  0
  -33.9514   64.8423   64.0706 O   0  0  0  0  0  0  0  0  0  0  0  0
  -37.3725   59.2176   69.8525 C   0  0  0  0  0  0  0  0  0  0  0  0
  -33.7985   67.4203   63.8529 O   0  0  0  0  0  0  0  0  0  0  0  0
  -36.3941   59.5662   70.9893 C   0  0  0  0  0  0  0  0  0  0  0  0
  -33.4515   63.1747   61.9701 O   0  0  0  0  0  0  0  0  0  0  0  0
  -37.1303   60.2819   72.1474 C   0  0  0  0  0  0  0  0  0  0  0  0
  -36.3692   62.6641   61.3521 O   0  0  0  0  0  0  0  0  0  0  0  0
  -36.2366   60.6966   73.3436 C   0  0  0  0  0  0  0  0  0  0  0  0
  -33.8767   62.4184   59.8301 O   0  0  0  0  0  0  0  0  0  0  0  0
  -35.1067   61.6873   72.9766 C   0  0  0  0  0  0  0  0  0  0  0  0
  -35.6209   63.0266   72.4058 C   0  0  0  0  0  0  0  0  0  0  0  0
  -36.5152   63.8087   73.3754 C   0  0  0  0  0  0  0  0  0  0  0  0
  -32.4014   66.0156   62.4514 O   0  5  0  0  0  0  0  0  0  0  0  0
  -35.8714   64.2227   74.6969 C   0  0  0  0  0  0  0  0  0  0  0  0
  -31.8724   66.3060   64.7988 O   0  0  0  0  0  0  0  0  0  0  0  0
  -34.6487   65.1472   74.5349 C   0  0  0  0  0  0  0  0  0  0  0  0
  -33.9678   65.5682   75.8461 C   0  0  0  0  0  0  0  0  0  0  0  0
  -34.9461   66.3122   76.7595 C   0  0  0  0  0  0  0  0  0  0  0  0
  -34.3929   66.7999   78.0868 C   0  0  0  0  0  0  0  0  0  0  0  0
  -41.1606   61.0813   62.8393 C   0  0  0  0  0  0  0  0  0  0  0  0
  -42.1710   60.4499   61.9282 C   0  0  0  0  0  0  0  0  0  0  0  0
  -42.7946   61.5868   61.1184 C   0  0  0  0  0  0  0  0  0  0  0  0
  -41.7183   62.2950   60.2992 C   0  0  0  0  0  0  0  0  0  0  0  0
  -42.1837   63.4575   59.4563 C   0  0  0  0  0  0  0  0  0  0  0  0
  -40.9686   64.0041   58.7141 C   0  0  0  0  0  0  0  0  0  0  0  0
  -39.8570   64.4744   59.6618 C   0  0  0  0  0  0  0  0  0  0  0  0
  -40.2856   65.5868   60.6362 C   0  0  0  0  0  0  0  0  0  0  0  0
  -39.1391   66.0480   61.5627 C   0  0  0  0  0  0  0  0  0  0  0  0
  -39.6246   67.1401   62.5200 C   0  0  0  0  0  0  0  0  0  0  0  0
  -40.7560   66.7242   63.4524 C   0  0  0  0  0  0  0  0  0  0  0  0
  -40.3599   65.5705   64.3619 C   0  0  0  0  0  0  0  0  0  0  0  0
  -39.1834   65.8328   65.3049 C   0  0  0  0  0  0  0  0  0  0  0  0
  -38.9300   64.5671   66.1128 C   0  0  0  0  0  0  0  0  0  0  0  0
  -37.8116   64.5721   67.1444 C   0  0  0  0  0  0  0  0  0  0  0  0
  -37.7000   63.2067   67.8410 C   0  0  0  0  0  0  0  0  0  0  0  0
  -36.6009   63.1264   68.9165 C   0  0  0  0  0  0  0  0  0  0  0  0
  -35.2031   63.4156   68.3744 C   0  0  0  0  0  0  0  0  0  0  0  0
  -36.9920   62.8817   62.6414 C   0  0  2  0  0  0  0  0  0  0  0  0
  -35.8536   63.2281   63.6117 C   0  0  1  0  0  0  0  0  0  0  0  0
  -35.0540   64.4857   63.2063 C   0  0  2  0  0  0  0  0  0  0  0  0
  -34.4510   64.1853   61.8619 C   0  0  2  0  0  0  0  0  0  0  0  0
  -35.5409   63.7659   60.8921 C   0  0  1  0  0  0  0  0  0  0  0  0
  -34.7309   63.5033   59.6245 C   0  0  0  0  0  0  0  0  0  0  0  0
  -32.9820   66.1711   63.8128 S   0  0  0  0  0  0  0  0  0  0  0  0
  -40.7322   59.2777   63.5347 H   0  0  0  0  0  0  0  0  0  0  0  0
  -39.2437   62.6238   64.2698 H   0  0  0  0  0  0  0  0  0  0  0  0
  -37.8479   61.7974   65.0516 H   0  0  0  0  0  0  0  0  0  0  0  0
  -38.6677   59.8099   64.6092 H   0  0  0  0  0  0  0  0  0  0  0  0
  -41.7964   61.3001   65.0038 H   0  0  0  0  0  0  0  0  0  0  0  0
  -40.6791   59.5963   66.1457 H   0  0  0  0  0  0  0  0  0  0  0  0
  -38.7644   61.7568   67.0415 H   0  0  0  0  0  0  0  0  0  0  0  0
  -39.5451   59.1120   68.1252 H   0  0  0  0  0  0  0  0  0  0  0  0
  -36.9694   62.6928   65.1133 H   0  0  0  0  0  0  0  0  0  0  0  0
  -38.6259   60.9373   69.9513 H   0  0  0  0  0  0  0  0  0  0  0  0
  -37.3204   61.0137   68.7437 H   0  0  0  0  0  0  0  0  0  0  0  0
  -36.8235   58.7019   69.0925 H   0  0  0  0  0  0  0  0  0  0  0  0
  -38.1457   58.6305   70.3022 H   0  0  0  0  0  0  0  0  0  0  0  0
  -34.5271   67.3509   63.2163 H   0  0  0  0  0  0  0  0  0  0  0  0
  -35.6291   60.2103   70.6086 H   0  0  0  0  0  0  0  0  0  0  0  0
  -35.9656   58.6599   71.3632 H   0  0  0  0  0  0  0  0  0  0  0  0
  -32.7664   63.4629   62.5935 H   0  0  0  0  0  0  0  0  0  0  0  0
  -37.8890   59.6227   72.5144 H   0  0  0  0  0  0  0  0  0  0  0  0
  -37.5153   61.1916   71.7361 H   0  0  0  0  0  0  0  0  0  0  0  0
  -35.7898   59.8137   73.7507 H   0  0  0  0  0  0  0  0  0  0  0  0
  -36.8718   61.1994   74.0426 H   0  0  0  0  0  0  0  0  0  0  0  0
  -33.3634   62.2536   59.0236 H   0  0  0  0  0  0  0  0  0  0  0  0
  -34.4774   61.2266   72.2441 H   0  0  0  0  0  0  0  0  0  0  0  0
  -34.5807   61.9126   73.8808 H   0  0  0  0  0  0  0  0  0  0  0  0
  -36.1831   62.8218   71.5187 H   0  0  0  0  0  0  0  0  0  0  0  0
  -34.7616   63.6347   72.2142 H   0  0  0  0  0  0  0  0  0  0  0  0
  -37.3640   63.1980   73.6023 H   0  0  0  0  0  0  0  0  0  0  0  0
  -36.7539   64.7227   72.8729 H   0  0  0  0  0  0  0  0  0  0  0  0
  -35.5586   63.3379   75.2109 H   0  0  0  0  0  0  0  0  0  0  0  0
  -36.6083   64.7758   75.2409 H   0  0  0  0  0  0  0  0  0  0  0  0
  -32.2422   66.4079   65.6898 H   0  0  0  0  0  0  0  0  0  0  0  0
  -34.9691   66.0339   74.0289 H   0  0  0  0  0  0  0  0  0  0  0  0
  -33.9205   64.5833   73.9903 H   0  0  0  0  0  0  0  0  0  0  0  0
  -33.1422   66.2106   75.6208 H   0  0  0  0  0  0  0  0  0  0  0  0
  -33.6312   64.6880   76.3528 H   0  0  0  0  0  0  0  0  0  0  0  0
  -35.7616   65.6520   76.9696 H   0  0  0  0  0  0  0  0  0  0  0  0
  -35.2191   67.1969   76.2231 H   0  0  0  0  0  0  0  0  0  0  0  0
  -34.0973   65.9600   78.6802 H   0  0  0  0  0  0  0  0  0  0  0  0
  -35.1466   67.3551   78.6050 H   0  0  0  0  0  0  0  0  0  0  0  0
  -33.5449   67.4282   77.9105 H   0  0  0  0  0  0  0  0  0  0  0  0
  -42.9228   59.9482   62.5008 H   0  0  0  0  0  0  0  0  0  0  0  0
  -41.7149   59.7236   61.2883 H   0  0  0  0  0  0  0  0  0  0  0  0
  -43.2511   62.2880   61.7854 H   0  0  0  0  0  0  0  0  0  0  0  0
  -43.5318   61.1834   60.4562 H   0  0  0  0  0  0  0  0  0  0  0  0
  -41.2770   61.5725   59.6448 H   0  0  0  0  0  0  0  0  0  0  0  0
  -41.0399   62.7115   61.0143 H   0  0  0  0  0  0  0  0  0  0  0  0
  -42.6014   64.2180   60.0824 H   0  0  0  0  0  0  0  0  0  0  0  0
  -42.9365   63.1424   58.7643 H   0  0  0  0  0  0  0  0  0  0  0  0
  -41.2792   64.8331   58.1130 H   0  0  0  0  0  0  0  0  0  0  0  0
  -40.5702   63.2099   58.1180 H   0  0  0  0  0  0  0  0  0  0  0  0
  -39.0448   64.8416   59.0699 H   0  0  0  0  0  0  0  0  0  0  0  0
  -39.5860   63.6297   60.2601 H   0  0  0  0  0  0  0  0  0  0  0  0
  -41.0876   65.2198   61.2420 H   0  0  0  0  0  0  0  0  0  0  0  0
  -40.5839   66.4305   60.0496 H   0  0  0  0  0  0  0  0  0  0  0  0
  -38.3388   66.4337   60.9663 H   0  0  0  0  0  0  0  0  0  0  0  0
  -38.8026   65.2106   62.1375 H   0  0  0  0  0  0  0  0  0  0  0  0
  -39.9652   67.9678   61.9337 H   0  0  0  0  0  0  0  0  0  0  0  0
  -38.7920   67.3781   63.1485 H   0  0  0  0  0  0  0  0  0  0  0  0
  -41.5960   66.4239   62.8615 H   0  0  0  0  0  0  0  0  0  0  0  0
  -40.9943   67.5630   64.0724 H   0  0  0  0  0  0  0  0  0  0  0  0
  -40.1025   64.7378   63.7412 H   0  0  0  0  0  0  0  0  0  0  0  0
  -41.2049   65.3997   64.9956 H   0  0  0  0  0  0  0  0  0  0  0  0
  -39.4207   66.6417   65.9639 H   0  0  0  0  0  0  0  0  0  0  0  0
  -38.3107   66.0938   64.7435 H   0  0  0  0  0  0  0  0  0  0  0  0
  -38.7115   63.7861   65.4148 H   0  0  0  0  0  0  0  0  0  0  0  0
  -39.8201   64.4467   66.6942 H   0  0  0  0  0  0  0  0  0  0  0  0
  -38.0154   65.3238   67.8781 H   0  0  0  0  0  0  0  0  0  0  0  0
  -36.8877   64.7771   66.6452 H   0  0  0  0  0  0  0  0  0  0  0  0
  -37.4930   62.4673   67.0958 H   0  0  0  0  0  0  0  0  0  0  0  0
  -38.6304   63.0448   68.3441 H   0  0  0  0  0  0  0  0  0  0  0  0
  -36.6061   62.1414   69.3345 H   0  0  0  0  0  0  0  0  0  0  0  0
  -36.8184   63.8761   69.6484 H   0  0  0  0  0  0  0  0  0  0  0  0
  -34.9483   62.6839   67.6364 H   0  0  0  0  0  0  0  0  0  0  0  0
  -34.4947   63.3760   69.1753 H   0  0  0  0  0  0  0  0  0  0  0  0
  -35.1867   64.3895   67.9315 H   0  0  0  0  0  0  0  0  0  0  0  0
  -37.6838   63.6979   62.6313 H   0  0  0  0  0  0  0  0  0  0  0  0
  -35.1546   62.4180   63.6243 H   0  0  0  0  0  0  0  0  0  0  0  0
  -35.7427   65.3038   63.2423 H   0  0  0  0  0  0  0  0  0  0  0  0
  -33.9800   65.0706   61.4887 H   0  0  0  0  0  0  0  0  0  0  0  0
  -36.3046   64.5020   60.7512 H   0  0  0  0  0  0  0  0  0  0  0  0
  -35.3964   63.2841   58.8158 H   0  0  0  0  0  0  0  0  0  0  0  0
  -34.1517   64.3711   59.3871 H   0  0  0  0  0  0  0  0  0  0  0  0
  1  4  1  0  0  0  0
  1 31  1  0  0  0  0
  1 56  1  0  0  0  0
  2  3  1  0  0  0  0
  2  4  1  0  0  0  0
  2 57  1  0  0  0  0
  2 58  1  0  0  0  0
  3 49  1  0  0  0  0
  4  6  1  0  0  0  0
  4 59  1  1  0  0  0
  5  6  1  0  0  0  0
  5 60  1  0  0  0  0
  6  8  1  0  0  0  0
  6 61  1  1  0  0  0
  7 31  2  0  0  0  0
  8  9  2  0  0  0  0
  8 62  1  0  0  0  0
  9 11  1  0  0  0  0
  9 63  1  0  0  0  0
 10 50  1  0  0  0  0
 10 64  1  0  0  0  0
 11 13  1  0  0  0  0
 11 65  1  0  0  0  0
 11 66  1  0  0  0  0
 12 51  1  0  0  0  0
 12 55  1  0  0  0  0
 13 15  1  0  0  0  0
 13 67  1  0  0  0  0
 13 68  1  0  0  0  0
 14 55  1  0  0  0  0
 14 69  1  0  0  0  0
 15 17  1  0  0  0  0
 15 70  1  0  0  0  0
 15 71  1  0  0  0  0
 16 52  1  0  0  0  0
 16 72  1  0  0  0  0
 17 19  1  0  0  0  0
 17 73  1  0  0  0  0
 17 74  1  0  0  0  0
 18 49  1  0  0  0  0
 18 53  1  0  0  0  0
 19 21  1  0  0  0  0
 19 75  1  0  0  0  0
 19 76  1  0  0  0  0
 20 54  1  0  0  0  0
 20 77  1  0  0  0  0
 21 22  1  0  0  0  0
 21 78  1  0  0  0  0
 21 79  1  0  0  0  0
 22 23  1  0  0  0  0
 22 80  1  0  0  0  0
 22 81  1  0  0  0  0
 23 25  1  0  0  0  0
 23 82  1  0  0  0  0
 23 83  1  0  0  0  0
 24 55  1  0  0  0  0
 25 27  1  0  0  0  0
 25 84  1  0  0  0  0
 25 85  1  0  0  0  0
 26 55  1  0  0  0  0
 26 86  1  0  0  0  0
 27 28  1  0  0  0  0
 27 87  1  0  0  0  0
 27 88  1  0  0  0  0
 28 29  1  0  0  0  0
 28 89  1  0  0  0  0
 28 90  1  0  0  0  0
 29 30  1  0  0  0  0
 29 91  1  0  0  0  0
 29 92  1  0  0  0  0
 30 93  1  0  0  0  0
 30 94  1  0  0  0  0
 30 95  1  0  0  0  0
 31 32  1  0  0  0  0
 32 33  1  0  0  0  0
 32 96  1  0  0  0  0
 32 97  1  0  0  0  0
 33 34  1  0  0  0  0
 33 98  1  0  0  0  0
 33 99  1  0  0  0  0
 34 35  1  0  0  0  0
 34100  1  0  0  0  0
 34101  1  0  0  0  0
 35 36  1  0  0  0  0
 35102  1  0  0  0  0
 35103  1  0  0  0  0
 36 37  1  0  0  0  0
 36104  1  0  0  0  0
 36105  1  0  0  0  0
 37 38  1  0  0  0  0
 37106  1  0  0  0  0
 37107  1  0  0  0  0
 38 39  1  0  0  0  0
 38108  1  0  0  0  0
 38109  1  0  0  0  0
 39 40  1  0  0  0  0
 39110  1  0  0  0  0
 39111  1  0  0  0  0
 40 41  1  0  0  0  0
 40112  1  0  0  0  0
 40113  1  0  0  0  0
 41 42  1  0  0  0  0
 41114  1  0  0  0  0
 41115  1  0  0  0  0
 42 43  1  0  0  0  0
 42116  1  0  0  0  0
 42117  1  0  0  0  0
 43 44  1  0  0  0  0
 43118  1  0  0  0  0
 43119  1  0  0  0  0
 44 45  1  0  0  0  0
 44120  1  0  0  0  0
 44121  1  0  0  0  0
 45 46  1  0  0  0  0
 45122  1  0  0  0  0
 45123  1  0  0  0  0
 46 47  1  0  0  0  0
 46124  1  0  0  0  0
 46125  1  0  0  0  0
 47 48  1  0  0  0  0
 47126  1  0  0  0  0
 47127  1  0  0  0  0
 48128  1  0  0  0  0
 48129  1  0  0  0  0
 48130  1  0  0  0  0
 49 50  1  0  0  0  0
 49131  1  6  0  0  0
 50 51  1  0  0  0  0
 50132  1  1  0  0  0
 51 52  1  0  0  0  0
 51133  1  6  0  0  0
 52 53  1  0  0  0  0
 52134  1  6  0  0  0
 53 54  1  0  0  0  0
 53135  1  6  0  0  0
 54136  1  0  0  0  0
 54137  1  0  0  0  0
M  CHG  1  24  -1
M  END
$$$$
/media/chris/experiments/cd1a-new-docking/inputs/ligands/1onq_ligand.pdb
 OpenBabel06222310383D

137137  0  0  1  0  0  0  0  0999 V2000
  -40.4920   60.2280   63.6270 N   0  0  0  0  0  0  0  0  0  0  0  0
  -38.5950   61.7730   64.2860 C   0  0  0  0  0  0  0  0  0  0  0  0
  -39.2927   63.0412   64.1953 O   0  0  0  0  0  0  0  0  0  0  0  0
  -39.4590   60.5300   64.5980 C   0  0  1  0  0  0  0  0  0  0  0  0
  -39.2569   60.8461   66.8904 O   0  0  0  0  0  0  0  0  0  0  0  0
  -40.2280   60.5370   65.9080 C   0  0  2  0  0  0  0  0  0  0  0  0
  -40.6436   57.9696   63.7820 O   0  0  0  0  0  0  0  0  0  0  0  0
  -40.8583   59.1606   66.1332 C   0  0  0  0  0  0  0  0  0  0  0  0
  -42.0897   58.8399   65.7007 C   0  0  0  0  0  0  0  0  0  0  0  0
  -40.3964   65.2906   62.8172 O   0  0  0  0  0  0  0  0  0  0  0  0
  -42.6490   57.4435   65.9661 C   0  0  0  0  0  0  0  0  0  0  0  0
  -39.3931   68.0416   63.2594 O   0  0  0  0  0  0  0  0  0  0  0  0
  -44.1767   57.4042   66.1175 C   0  0  0  0  0  0  0  0  0  0  0  0
  -41.2594   69.6187   62.3950 O   0  0  0  0  0  0  0  0  0  0  0  0
  -44.9803   57.8774   64.8922 C   0  0  0  0  0  0  0  0  0  0  0  0
  -38.1858   67.4358   65.6297 O   0  0  0  0  0  0  0  0  0  0  0  0
  -44.6770   56.9907   63.6605 C   0  0  0  0  0  0  0  0  0  0  0  0
  -37.5407   64.5807   64.8630 O   0  0  0  0  0  0  0  0  0  0  0  0
  -45.0292   55.4902   63.8225 C   0  0  0  0  0  0  0  0  0  0  0  0
  -34.8543   65.1971   65.8955 O   0  0  0  0  0  0  0  0  0  0  0  0
  -44.6999   54.6249   62.5833 C   0  0  0  0  0  0  0  0  0  0  0  0
  -45.0722   53.1361   62.7532 C   0  0  0  0  0  0  0  0  0  0  0  0
  -44.7318   52.2712   61.5336 C   0  0  0  0  0  0  0  0  0  0  0  0
  -41.7430   67.2649   62.7342 O   0  5  0  0  0  0  0  0  0  0  0  0
  -45.3980   52.6721   60.2192 C   0  0  0  0  0  0  0  0  0  0  0  0
  -40.4283   67.9769   60.8266 O   0  0  0  0  0  0  0  0  0  0  0  0
  -46.9386   52.6551   60.2676 C   0  0  0  0  0  0  0  0  0  0  0  0
  -47.6393   53.0376   58.9551 C   0  0  0  0  0  0  0  0  0  0  0  0
  -47.2427   54.4485   58.5110 C   0  0  0  0  0  0  0  0  0  0  0  0
  -47.5552   55.5744   59.4807 C   0  0  0  0  0  0  0  0  0  0  0  0
  -40.9921   59.0290   63.2983 C   0  0  0  0  0  0  0  0  0  0  0  0
  -42.0683   59.0516   62.2538 C   0  0  0  0  0  0  0  0  0  0  0  0
  -41.4398   59.6537   60.9970 C   0  0  0  0  0  0  0  0  0  0  0  0
  -40.9251   61.0602   61.2938 C   0  0  0  0  0  0  0  0  0  0  0  0
  -40.2893   61.7919   60.1367 C   0  0  0  0  0  0  0  0  0  0  0  0
  -41.3454   61.9348   59.0457 C   0  0  0  0  0  0  0  0  0  0  0  0
  -40.8150   62.6528   57.7975 C   0  0  0  0  0  0  0  0  0  0  0  0
  -39.6382   61.9375   57.1089 C   0  0  0  0  0  0  0  0  0  0  0  0
  -39.1184   62.6954   55.8675 C   0  0  0  0  0  0  0  0  0  0  0  0
  -37.9629   61.9323   55.2137 C   0  0  0  0  0  0  0  0  0  0  0  0
  -38.3119   60.5344   54.7176 C   0  0  0  0  0  0  0  0  0  0  0  0
  -39.4025   60.5539   53.6569 C   0  0  0  0  0  0  0  0  0  0  0  0
  -40.7389   61.1684   54.0795 C   0  0  0  0  0  0  0  0  0  0  0  0
  -41.6973   61.0807   52.8994 C   0  0  0  0  0  0  0  0  0  0  0  0
  -43.1022   61.6431   53.0574 C   0  0  0  0  0  0  0  0  0  0  0  0
  -43.8483   60.9445   54.2051 C   0  0  0  0  0  0  0  0  0  0  0  0
  -45.2890   61.4410   54.4259 C   0  0  0  0  0  0  0  0  0  0  0  0
  -45.9985   60.7410   55.5828 C   0  0  0  0  0  0  0  0  0  0  0  0
  -38.5707   64.2916   63.8868 C   0  0  2  0  0  0  0  0  0  0  0  0
  -39.4297   65.5603   63.7851 C   0  0  1  0  0  0  0  0  0  0  0  0
  -38.6385   66.8115   63.3449 C   0  0  2  0  0  0  0  0  0  0  0  0
  -37.5890   67.0373   64.3980 C   0  0  2  0  0  0  0  0  0  0  0  0
  -36.7643   65.7760   64.5802 C   0  0  1  0  0  0  0  0  0  0  0  0
  -35.7901   66.2089   65.6736 C   0  0  0  0  0  0  0  0  0  0  0  0
  -40.7155   68.2343   62.2663 S   0  0  0  0  0  0  0  0  0  0  0  0
  -40.8737   60.9998   63.1496 H   0  0  0  0  0  0  0  0  0  0  0  0
  -37.8608   61.8607   65.0594 H   0  0  0  0  0  0  0  0  0  0  0  0
  -38.1940   61.6005   63.3091 H   0  0  0  0  0  0  0  0  0  0  0  0
  -38.6677   59.8099   64.6092 H   0  0  0  0  0  0  0  0  0  0  0  0
  -38.8837   61.7234   66.7113 H   0  0  0  0  0  0  0  0  0  0  0  0
  -41.0317   61.2430   65.9299 H   0  0  0  0  0  0  0  0  0  0  0  0
  -40.3128   58.4462   66.6402 H   0  0  0  0  0  0  0  0  0  0  0  0
  -42.6561   59.5355   65.1904 H   0  0  0  0  0  0  0  0  0  0  0  0
  -40.9043   64.5062   63.0773 H   0  0  0  0  0  0  0  0  0  0  0  0
  -42.2112   57.0710   66.8686 H   0  0  0  0  0  0  0  0  0  0  0  0
  -42.4056   56.8440   65.1139 H   0  0  0  0  0  0  0  0  0  0  0  0
  -44.4414   58.0281   66.9455 H   0  0  0  0  0  0  0  0  0  0  0  0
  -44.4305   56.3736   66.2531 H   0  0  0  0  0  0  0  0  0  0  0  0
  -41.4526   69.8047   63.3272 H   0  0  0  0  0  0  0  0  0  0  0  0
  -44.7161   58.8900   64.6691 H   0  0  0  0  0  0  0  0  0  0  0  0
  -46.0238   57.8060   65.1177 H   0  0  0  0  0  0  0  0  0  0  0  0
  -38.7070   68.2420   65.4906 H   0  0  0  0  0  0  0  0  0  0  0  0
  -43.6304   57.0638   63.4501 H   0  0  0  0  0  0  0  0  0  0  0  0
  -45.2993   57.3574   62.8711 H   0  0  0  0  0  0  0  0  0  0  0  0
  -46.0782   55.4109   64.0181 H   0  0  0  0  0  0  0  0  0  0  0  0
  -44.4287   55.1181   64.6261 H   0  0  0  0  0  0  0  0  0  0  0  0
  -34.2368   65.4744   66.5903 H   0  0  0  0  0  0  0  0  0  0  0  0
  -43.6489   54.6915   62.3937 H   0  0  0  0  0  0  0  0  0  0  0  0
  -45.2844   55.0041   61.7712 H   0  0  0  0  0  0  0  0  0  0  0  0
  -46.1252   53.0696   62.9308 H   0  0  0  0  0  0  0  0  0  0  0  0
  -44.4947   52.7615   63.5724 H   0  0  0  0  0  0  0  0  0  0  0  0
  -45.0230   51.2655   61.7544 H   0  0  0  0  0  0  0  0  0  0  0  0
  -43.6814   52.3990   61.3744 H   0  0  0  0  0  0  0  0  0  0  0  0
  -45.0776   51.9918   59.4580 H   0  0  0  0  0  0  0  0  0  0  0  0
  -45.1053   53.6816   60.0185 H   0  0  0  0  0  0  0  0  0  0  0  0
  -39.7589   68.6050   60.5130 H   0  0  0  0  0  0  0  0  0  0  0  0
  -47.2535   53.3437   61.0237 H   0  0  0  0  0  0  0  0  0  0  0  0
  -47.2179   51.6420   60.4687 H   0  0  0  0  0  0  0  0  0  0  0  0
  -48.6987   53.0016   59.1009 H   0  0  0  0  0  0  0  0  0  0  0  0
  -47.3411   52.3452   58.1957 H   0  0  0  0  0  0  0  0  0  0  0  0
  -47.7540   54.6570   57.5944 H   0  0  0  0  0  0  0  0  0  0  0  0
  -46.1760   54.4315   58.4294 H   0  0  0  0  0  0  0  0  0  0  0  0
  -48.6146   55.6494   59.6108 H   0  0  0  0  0  0  0  0  0  0  0  0
  -47.1776   56.4963   59.0904 H   0  0  0  0  0  0  0  0  0  0  0  0
  -47.0935   55.3708   60.4242 H   0  0  0  0  0  0  0  0  0  0  0  0
  -42.8893   59.6543   62.5818 H   0  0  0  0  0  0  0  0  0  0  0  0
  -42.4454   58.0682   62.0651 H   0  0  0  0  0  0  0  0  0  0  0  0
  -42.1751   59.7018   60.2212 H   0  0  0  0  0  0  0  0  0  0  0  0
  -40.6219   59.0390   60.6839 H   0  0  0  0  0  0  0  0  0  0  0  0
  -40.1957   60.9838   62.0729 H   0  0  0  0  0  0  0  0  0  0  0  0
  -41.7895   61.6334   61.5566 H   0  0  0  0  0  0  0  0  0  0  0  0
  -39.4551   61.2337   59.7661 H   0  0  0  0  0  0  0  0  0  0  0  0
  -39.9376   62.7534   60.4476 H   0  0  0  0  0  0  0  0  0  0  0  0
  -42.1691   62.4939   59.4379 H   0  0  0  0  0  0  0  0  0  0  0  0
  -41.6402   60.9495   58.7506 H   0  0  0  0  0  0  0  0  0  0  0  0
  -40.4907   63.6309   58.0856 H   0  0  0  0  0  0  0  0  0  0  0  0
  -41.6180   62.6732   57.0906 H   0  0  0  0  0  0  0  0  0  0  0  0
  -39.9614   60.9641   56.8042 H   0  0  0  0  0  0  0  0  0  0  0  0
  -38.8353   61.8875   57.8144 H   0  0  0  0  0  0  0  0  0  0  0  0
  -38.7759   63.6644   56.1652 H   0  0  0  0  0  0  0  0  0  0  0  0
  -39.9159   62.7854   55.1599 H   0  0  0  0  0  0  0  0  0  0  0  0
  -37.1758   61.8422   55.9330 H   0  0  0  0  0  0  0  0  0  0  0  0
  -37.6851   62.4958   54.3476 H   0  0  0  0  0  0  0  0  0  0  0  0
  -38.6494   59.9491   55.5474 H   0  0  0  0  0  0  0  0  0  0  0  0
  -37.4326   60.1148   54.2755 H   0  0  0  0  0  0  0  0  0  0  0  0
  -39.5869   59.5430   53.3584 H   0  0  0  0  0  0  0  0  0  0  0  0
  -39.0316   61.1812   52.8734 H   0  0  0  0  0  0  0  0  0  0  0  0
  -40.5958   62.1925   54.3545 H   0  0  0  0  0  0  0  0  0  0  0  0
  -41.1388   60.6412   54.9203 H   0  0  0  0  0  0  0  0  0  0  0  0
  -41.7985   60.0446   52.6519 H   0  0  0  0  0  0  0  0  0  0  0  0
  -41.2497   61.7038   52.1535 H   0  0  0  0  0  0  0  0  0  0  0  0
  -43.6433   61.4945   52.1464 H   0  0  0  0  0  0  0  0  0  0  0  0
  -43.0287   62.6864   53.2833 H   0  0  0  0  0  0  0  0  0  0  0  0
  -43.2974   61.1048   55.1083 H   0  0  0  0  0  0  0  0  0  0  0  0
  -43.9203   59.9112   53.9368 H   0  0  0  0  0  0  0  0  0  0  0  0
  -45.8486   61.2688   53.5303 H   0  0  0  0  0  0  0  0  0  0  0  0
  -45.2317   62.4807   54.6719 H   0  0  0  0  0  0  0  0  0  0  0  0
  -46.0754   59.6946   55.3732 H   0  0  0  0  0  0  0  0  0  0  0  0
  -46.9784   61.1538   55.7024 H   0  0  0  0  0  0  0  0  0  0  0  0
  -45.4388   60.8842   56.4834 H   0  0  0  0  0  0  0  0  0  0  0  0
  -38.1706   64.0792   62.9174 H   0  0  0  0  0  0  0  0  0  0  0  0
  -39.8304   65.7822   64.7521 H   0  0  0  0  0  0  0  0  0  0  0  0
  -38.2799   66.6080   62.3576 H   0  0  0  0  0  0  0  0  0  0  0  0
  -36.9429   67.8280   64.0783 H   0  0  0  0  0  0  0  0  0  0  0  0
  -36.2694   65.4476   63.6902 H   0  0  0  0  0  0  0  0  0  0  0  0
  -35.2842   67.1006   65.3670 H   0  0  0  0  0  0  0  0  0  0  0  0
  -36.3313   66.3964   66.5774 H   0  0  0  0  0  0  0  0  0  0  0  0
  1  4  1  0  0  0  0
  1 31  1  0  0  0  0
  1 56  1  0  0  0  0
  2  3  1  0  0  0  0
  2  4  1  0  0  0  0
  2 57  1  0  0  0  0
  2 58  1  0  0  0  0
  3 49  1  0  0  0  0
  4  6  1  0  0  0  0
  4 59  1  1  0  0  0
  5  6  1  0  0  0  0
  5 60  1  0  0  0  0
  6  8  1  0  0  0  0
  6 61  1  6  0  0  0
  7 31  2  0  0  0  0
  8  9  2  0  0  0  0
  8 62  1  0  0  0  0
  9 11  1  0  0  0  0
  9 63  1  0  0  0  0
 10 50  1  0  0  0  0
 10 64  1  0  0  0  0
 11 13  1  0  0  0  0
 11 65  1  0  0  0  0
 11 66  1  0  0  0  0
 12 51  1  0  0  0  0
 12 55  1  0  0  0  0
 13 15  1  0  0  0  0
 13 67  1  0  0  0  0
 13 68  1  0  0  0  0
 14 55  1  0  0  0  0
 14 69  1  0  0  0  0
 15 17  1  0  0  0  0
 15 70  1  0  0  0  0
 15 71  1  0  0  0  0
 16 52  1  0  0  0  0
 16 72  1  0  0  0  0
 17 19  1  0  0  0  0
 17 73  1  0  0  0  0
 17 74  1  0  0  0  0
 18 49  1  0  0  0  0
 18 53  1  0  0  0  0
 19 21  1  0  0  0  0
 19 75  1  0  0  0  0
 19 76  1  0  0  0  0
 20 54  1  0  0  0  0
 20 77  1  0  0  0  0
 21 22  1  0  0  0  0
 21 78  1  0  0  0  0
 21 79  1  0  0  0  0
 22 23  1  0  0  0  0
 22 80  1  0  0  0  0
 22 81  1  0  0  0  0
 23 25  1  0  0  0  0
 23 82  1  0  0  0  0
 23 83  1  0  0  0  0
 24 55  1  0  0  0  0
 25 27  1  0  0  0  0
 25 84  1  0  0  0  0
 25 85  1  0  0  0  0
 26 55  1  0  0  0  0
 26 86  1  0  0  0  0
 27 28  1  0  0  0  0
 27 87  1  0  0  0  0
 27 88  1  0  0  0  0
 28 29  1  0  0  0  0
 28 89  1  0  0  0  0
 28 90  1  0  0  0  0
 29 30  1  0  0  0  0
 29 91  1  0  0  0  0
 29 92  1  0  0  0  0
 30 93  1  0  0  0  0
 30 94  1  0  0  0  0
 30 95  1  0  0  0  0
 31 32  1  0  0  0  0
 32 33  1  0  0  0  0
 32 96  1  0  0  0  0
 32 97  1  0  0  0  0
 33 34  1  0  0  0  0
 33 98  1  0  0  0  0
 33 99  1  0  0  0  0
 34 35  1  0  0  0  0
 34100  1  0  0  0  0
 34101  1  0  0  0  0
 35 36  1  0  0  0  0
 35102  1  0  0  0  0
 35103  1  0  0  0  0
 36 37  1  0  0  0  0
 36104  1  0  0  0  0
 36105  1  0  0  0  0
 37 38  1  0  0  0  0
 37106  1  0  0  0  0
 37107  1  0  0  0  0
 38 39  1  0  0  0  0
 38108  1  0  0  0  0
 38109  1  0  0  0  0
 39 40  1  0  0  0  0
 39110  1  0  0  0  0
 39111  1  0  0  0  0
 40 41  1  0  0  0  0
 40112  1  0  0  0  0
 40113  1  0  0  0  0
 41 42  1  0  0  0  0
 41114  1  0  0  0  0
 41115  1  0  0  0  0
 42 43  1  0  0  0  0
 42116  1  0  0  0  0
 42117  1  0  0  0  0
 43 44  1  0  0  0  0
 43118  1  0  0  0  0
 43119  1  0  0  0  0
 44 45  1  0  0  0  0
 44120  1  0  0  0  0
 44121  1  0  0  0  0
 45 46  1  0  0  0  0
 45122  1  0  0  0  0
 45123  1  0  0  0  0
 46 47  1  0  0  0  0
 46124  1  0  0  0  0
 46125  1  0  0  0  0
 47 48  1  0  0  0  0
 47126  1  0  0  0  0
 47127  1  0  0  0  0
 48128  1  0  0  0  0
 48129  1  0  0  0  0
 48130  1  0  0  0  0
 49 50  1  0  0  0  0
 49131  1  6  0  0  0
 50 51  1  0  0  0  0
 50132  1  1  0  0  0
 51 52  1  0  0  0  0
 51133  1  6  0  0  0
 52 53  1  0  0  0  0
 52134  1  6  0  0  0
 53 54  1  0  0  0  0
 53135  1  6  0  0  0
 54136  1  0  0  0  0
 54137  1  0  0  0  0
M  CHG  1  24  -1
M  END
$$$$
/media/chris/experiments/cd1a-new-docking/inputs/ligands/1onq_ligand.pdb
 OpenBabel06222310383D

137137  0  0  1  0  0  0  0  0999 V2000
  -40.4920   60.2280   63.6270 N   0  0  0  0  0  0  0  0  0  0  0  0
  -38.5950   61.7730   64.2860 C   0  0  0  0  0  0  0  0  0  0  0  0
  -37.5441   62.0867   65.2349 O   0  0  0  0  0  0  0  0  0  0  0  0
  -39.4590   60.5300   64.5980 C   0  0  1  0  0  0  0  0  0  0  0  0
  -40.7577   59.2290   66.0180 O   0  0  0  0  0  0  0  0  0  0  0  0
  -40.2280   60.5370   65.9080 C   0  0  2  0  0  0  0  0  0  0  0  0
  -40.2107   61.8855   62.1035 O   0  0  0  0  0  0  0  0  0  0  0  0
  -41.3266   61.6007   65.8452 C   0  0  0  0  0  0  0  0  0  0  0  0
  -41.3921   62.6366   66.6990 C   0  0  0  0  0  0  0  0  0  0  0  0
  -35.0677   62.0871   63.8049 O   0  0  0  0  0  0  0  0  0  0  0  0
  -42.5217   63.6569   66.5713 C   0  0  0  0  0  0  0  0  0  0  0  0
  -34.0199   64.5267   62.4933 O   0  0  0  0  0  0  0  0  0  0  0  0
  -42.1870   64.8436   65.6560 C   0  0  0  0  0  0  0  0  0  0  0  0
  -31.8452   65.6919   63.2869 O   0  0  0  0  0  0  0  0  0  0  0  0
  -40.9647   65.6825   66.0724 C   0  0  0  0  0  0  0  0  0  0  0  0
  -36.4318   65.8017   62.4860 O   0  0  0  0  0  0  0  0  0  0  0  0
  -40.7408   66.8542   65.0863 C   0  0  0  0  0  0  0  0  0  0  0  0
  -37.4137   64.5009   65.0354 O   0  0  0  0  0  0  0  0  0  0  0  0
  -40.5021   66.4415   63.6117 C   0  0  0  0  0  0  0  0  0  0  0  0
  -36.4467   68.0573   64.5825 O   0  0  0  0  0  0  0  0  0  0  0  0
  -41.6761   65.6617   62.9742 C   0  0  0  0  0  0  0  0  0  0  0  0
  -42.9980   66.4586   62.9353 C   0  0  0  0  0  0  0  0  0  0  0  0
  -42.9139   67.7555   62.1216 C   0  0  0  0  0  0  0  0  0  0  0  0
  -33.6225   67.0179   62.3011 O   0  5  0  0  0  0  0  0  0  0  0  0
  -44.1886   68.5946   62.0619 C   0  0  0  0  0  0  0  0  0  0  0  0
  -32.2187   65.6260   60.8989 O   0  0  0  0  0  0  0  0  0  0  0  0
  -44.0545   69.8774   61.2179 C   0  0  0  0  0  0  0  0  0  0  0  0
  -42.9712   70.8601   61.6878 C   0  0  0  0  0  0  0  0  0  0  0  0
  -43.2328   71.3210   63.1245 C   0  0  0  0  0  0  0  0  0  0  0  0
  -42.2403   72.3116   63.7070 C   0  0  0  0  0  0  0  0  0  0  0  0
  -40.7863   60.8910   62.5003 C   0  0  0  0  0  0  0  0  0  0  0  0
  -41.9161   60.3159   61.6986 C   0  0  0  0  0  0  0  0  0  0  0  0
  -42.9841   61.4063   61.6109 C   0  0  0  0  0  0  0  0  0  0  0  0
  -44.1866   60.8961   60.8206 C   0  0  0  0  0  0  0  0  0  0  0  0
  -45.3218   61.8736   60.6353 C   0  0  0  0  0  0  0  0  0  0  0  0
  -45.8142   62.2760   62.0215 C   0  0  0  0  0  0  0  0  0  0  0  0
  -46.3021   61.0788   62.8482 C   0  0  0  0  0  0  0  0  0  0  0  0
  -47.4618   60.2967   62.2047 C   0  0  0  0  0  0  0  0  0  0  0  0
  -48.7118   61.1701   61.9595 C   0  0  0  0  0  0  0  0  0  0  0  0
  -49.8370   60.3394   61.3357 C   0  0  0  0  0  0  0  0  0  0  0  0
  -50.3208   59.1692   62.1835 C   0  0  0  0  0  0  0  0  0  0  0  0
  -50.8804   59.6204   63.5245 C   0  0  0  0  0  0  0  0  0  0  0  0
  -51.3764   58.5092   64.4528 C   0  0  0  0  0  0  0  0  0  0  0  0
  -50.2022   57.5919   64.7663 C   0  0  0  0  0  0  0  0  0  0  0  0
  -49.4952   56.8926   63.6147 C   0  0  0  0  0  0  0  0  0  0  0  0
  -48.3540   56.0013   64.1300 C   0  0  0  0  0  0  0  0  0  0  0  0
  -47.5704   55.2659   63.0272 C   0  0  0  0  0  0  0  0  0  0  0  0
  -48.4437   54.3473   62.1757 C   0  0  0  0  0  0  0  0  0  0  0  0
  -36.6675   63.2597   65.0462 C   0  0  2  0  0  0  0  0  0  0  0  0
  -35.8119   63.2657   63.7712 C   0  0  1  0  0  0  0  0  0  0  0  0
  -34.8316   64.4561   63.6875 C   0  0  2  0  0  0  0  0  0  0  0  0
  -35.6781   65.6990   63.6916 C   0  0  2  0  0  0  0  0  0  0  0  0
  -36.5935   65.6931   64.9025 C   0  0  1  0  0  0  0  0  0  0  0  0
  -37.3535   67.0038   64.7114 C   0  0  0  0  0  0  0  0  0  0  0  0
  -32.8935   65.7229   62.2244 S   0  0  0  0  0  0  0  0  0  0  0  0
  -41.0464   59.4375   63.8192 H   0  0  0  0  0  0  0  0  0  0  0  0
  -38.1357   61.6183   63.3320 H   0  0  0  0  0  0  0  0  0  0  0  0
  -39.2690   62.6030   64.3261 H   0  0  0  0  0  0  0  0  0  0  0  0
  -38.6677   59.8099   64.6092 H   0  0  0  0  0  0  0  0  0  0  0  0
  -40.0308   58.5878   66.0547 H   0  0  0  0  0  0  0  0  0  0  0  0
  -39.6247   60.7776   66.7583 H   0  0  0  0  0  0  0  0  0  0  0  0
  -42.0502   61.5188   65.1139 H   0  0  0  0  0  0  0  0  0  0  0  0
  -40.6808   62.7424   67.4391 H   0  0  0  0  0  0  0  0  0  0  0  0
  -35.6681   61.3270   63.8576 H   0  0  0  0  0  0  0  0  0  0  0  0
  -42.7452   64.0361   67.5466 H   0  0  0  0  0  0  0  0  0  0  0  0
  -43.3521   63.1475   66.1287 H   0  0  0  0  0  0  0  0  0  0  0  0
  -43.0382   65.4915   65.6328 H   0  0  0  0  0  0  0  0  0  0  0  0
  -41.9397   64.4189   64.7055 H   0  0  0  0  0  0  0  0  0  0  0  0
  -32.2663   65.7541   64.1585 H   0  0  0  0  0  0  0  0  0  0  0  0
  -40.0959   65.0579   66.0782 H   0  0  0  0  0  0  0  0  0  0  0  0
  -41.1407   66.0844   67.0484 H   0  0  0  0  0  0  0  0  0  0  0  0
  -35.8283   65.8037   61.7266 H   0  0  0  0  0  0  0  0  0  0  0  0
  -39.8864   67.4065   65.4175 H   0  0  0  0  0  0  0  0  0  0  0  0
  -41.6471   67.4229   65.0916 H   0  0  0  0  0  0  0  0  0  0  0  0
  -39.6289   65.8244   63.5730 H   0  0  0  0  0  0  0  0  0  0  0  0
  -40.3944   67.3472   63.0522 H   0  0  0  0  0  0  0  0  0  0  0  0
  -36.9318   68.8885   64.4613 H   0  0  0  0  0  0  0  0  0  0  0  0
  -41.8361   64.7682   63.5408 H   0  0  0  0  0  0  0  0  0  0  0  0
  -41.4031   65.4567   61.9601 H   0  0  0  0  0  0  0  0  0  0  0  0
  -43.2719   66.7073   63.9394 H   0  0  0  0  0  0  0  0  0  0  0  0
  -43.7240   65.8358   62.4558 H   0  0  0  0  0  0  0  0  0  0  0  0
  -42.6463   67.4955   61.1187 H   0  0  0  0  0  0  0  0  0  0  0  0
  -42.1920   68.3644   62.6246 H   0  0  0  0  0  0  0  0  0  0  0  0
  -44.4544   68.8744   63.0598 H   0  0  0  0  0  0  0  0  0  0  0  0
  -44.9357   67.9904   61.5911 H   0  0  0  0  0  0  0  0  0  0  0  0
  -31.7406   64.7841   60.8403 H   0  0  0  0  0  0  0  0  0  0  0  0
  -44.9951   70.3870   61.2388 H   0  0  0  0  0  0  0  0  0  0  0  0
  -43.7619   69.5593   60.2391 H   0  0  0  0  0  0  0  0  0  0  0  0
  -42.9689   71.7131   61.0418 H   0  0  0  0  0  0  0  0  0  0  0  0
  -42.0241   70.3631   61.6568 H   0  0  0  0  0  0  0  0  0  0  0  0
  -43.2316   70.4530   63.7502 H   0  0  0  0  0  0  0  0  0  0  0  0
  -44.1670   71.8414   63.0904 H   0  0  0  0  0  0  0  0  0  0  0  0
  -41.2752   71.8541   63.7706 H   0  0  0  0  0  0  0  0  0  0  0  0
  -42.5612   72.6048   64.6848 H   0  0  0  0  0  0  0  0  0  0  0  0
  -42.1853   73.1741   63.0762 H   0  0  0  0  0  0  0  0  0  0  0  0
  -42.3116   59.4493   62.1859 H   0  0  0  0  0  0  0  0  0  0  0  0
  -41.5873   60.0167   60.7254 H   0  0  0  0  0  0  0  0  0  0  0  0
  -42.5751   62.2643   61.1196 H   0  0  0  0  0  0  0  0  0  0  0  0
  -43.2991   61.6700   62.5989 H   0  0  0  0  0  0  0  0  0  0  0  0
  -44.5733   60.0386   61.3306 H   0  0  0  0  0  0  0  0  0  0  0  0
  -43.8188   60.6925   59.8366 H   0  0  0  0  0  0  0  0  0  0  0  0
  -46.1154   61.4114   60.0862 H   0  0  0  0  0  0  0  0  0  0  0  0
  -44.9927   62.7328   60.0892 H   0  0  0  0  0  0  0  0  0  0  0  0
  -46.6233   62.9673   61.9099 H   0  0  0  0  0  0  0  0  0  0  0  0
  -44.9886   62.7135   62.5430 H   0  0  0  0  0  0  0  0  0  0  0  0
  -46.6291   61.4400   63.8009 H   0  0  0  0  0  0  0  0  0  0  0  0
  -45.4780   60.4004   62.9221 H   0  0  0  0  0  0  0  0  0  0  0  0
  -47.7310   59.4896   62.8535 H   0  0  0  0  0  0  0  0  0  0  0  0
  -47.1232   59.9457   61.2523 H   0  0  0  0  0  0  0  0  0  0  0  0
  -48.4569   61.9704   61.2966 H   0  0  0  0  0  0  0  0  0  0  0  0
  -49.0498   61.5589   62.8973 H   0  0  0  0  0  0  0  0  0  0  0  0
  -49.4844   59.9503   60.4035 H   0  0  0  0  0  0  0  0  0  0  0  0
  -50.6731   60.9991   61.2323 H   0  0  0  0  0  0  0  0  0  0  0  0
  -49.4981   58.5080   62.3588 H   0  0  0  0  0  0  0  0  0  0  0  0
  -51.1077   58.6804   61.6481 H   0  0  0  0  0  0  0  0  0  0  0  0
  -51.7028   60.2772   63.3317 H   0  0  0  0  0  0  0  0  0  0  0  0
  -50.0626   60.0814   64.0379 H   0  0  0  0  0  0  0  0  0  0  0  0
  -52.1519   57.9526   63.9694 H   0  0  0  0  0  0  0  0  0  0  0  0
  -51.7686   58.9292   65.3553 H   0  0  0  0  0  0  0  0  0  0  0  0
  -50.5647   56.8291   65.4233 H   0  0  0  0  0  0  0  0  0  0  0  0
  -49.4588   58.2483   65.1681 H   0  0  0  0  0  0  0  0  0  0  0  0
  -49.0918   57.6297   62.9522 H   0  0  0  0  0  0  0  0  0  0  0  0
  -50.2045   56.2767   63.1023 H   0  0  0  0  0  0  0  0  0  0  0  0
  -48.7732   55.2684   64.7874 H   0  0  0  0  0  0  0  0  0  0  0  0
  -47.6570   56.6506   64.6172 H   0  0  0  0  0  0  0  0  0  0  0  0
  -46.8065   54.6761   63.4891 H   0  0  0  0  0  0  0  0  0  0  0  0
  -47.1652   56.0116   62.3754 H   0  0  0  0  0  0  0  0  0  0  0  0
  -48.8687   53.5849   62.7946 H   0  0  0  0  0  0  0  0  0  0  0  0
  -47.8466   53.8948   61.4118 H   0  0  0  0  0  0  0  0  0  0  0  0
  -49.2278   54.9184   61.7242 H   0  0  0  0  0  0  0  0  0  0  0  0
  -36.0127   63.1808   65.8888 H   0  0  0  0  0  0  0  0  0  0  0  0
  -36.4595   63.3487   62.9234 H   0  0  0  0  0  0  0  0  0  0  0  0
  -34.1533   64.3446   64.5075 H   0  0  0  0  0  0  0  0  0  0  0  0
  -35.0370   66.5538   63.7488 H   0  0  0  0  0  0  0  0  0  0  0  0
  -36.0767   65.6460   65.8383 H   0  0  0  0  0  0  0  0  0  0  0  0
  -37.9544   66.9413   63.8283 H   0  0  0  0  0  0  0  0  0  0  0  0
  -37.9810   67.1774   65.5606 H   0  0  0  0  0  0  0  0  0  0  0  0
  1  4  1  0  0  0  0
  1 31  1  0  0  0  0
  1 56  1  0  0  0  0
  2  3  1  0  0  0  0
  2  4  1  0  0  0  0
  2 57  1  0  0  0  0
  2 58  1  0  0  0  0
  3 49  1  0  0  0  0
  4  6  1  0  0  0  0
  4 59  1  1  0  0  0
  5  6  1  0  0  0  0
  5 60  1  0  0  0  0
  6  8  1  0  0  0  0
  6 61  1  1  0  0  0
  7 31  2  0  0  0  0
  8  9  2  0  0  0  0
  8 62  1  0  0  0  0
  9 11  1  0  0  0  0
  9 63  1  0  0  0  0
 10 50  1  0  0  0  0
 10 64  1  0  0  0  0
 11 13  1  0  0  0  0
 11 65  1  0  0  0  0
 11 66  1  0  0  0  0
 12 51  1  0  0  0  0
 12 55  1  0  0  0  0
 13 15  1  0  0  0  0
 13 67  1  0  0  0  0
 13 68  1  0  0  0  0
 14 55  1  0  0  0  0
 14 69  1  0  0  0  0
 15 17  1  0  0  0  0
 15 70  1  0  0  0  0
 15 71  1  0  0  0  0
 16 52  1  0  0  0  0
 16 72  1  0  0  0  0
 17 19  1  0  0  0  0
 17 73  1  0  0  0  0
 17 74  1  0  0  0  0
 18 49  1  0  0  0  0
 18 53  1  0  0  0  0
 19 21  1  0  0  0  0
 19 75  1  0  0  0  0
 19 76  1  0  0  0  0
 20 54  1  0  0  0  0
 20 77  1  0  0  0  0
 21 22  1  0  0  0  0
 21 78  1  0  0  0  0
 21 79  1  0  0  0  0
 22 23  1  0  0  0  0
 22 80  1  0  0  0  0
 22 81  1  0  0  0  0
 23 25  1  0  0  0  0
 23 82  1  0  0  0  0
 23 83  1  0  0  0  0
 24 55  1  0  0  0  0
 25 27  1  0  0  0  0
 25 84  1  0  0  0  0
 25 85  1  0  0  0  0
 26 55  1  0  0  0  0
 26 86  1  0  0  0  0
 27 28  1  0  0  0  0
 27 87  1  0  0  0  0
 27 88  1  0  0  0  0
 28 29  1  0  0  0  0
 28 89  1  0  0  0  0
 28 90  1  0  0  0  0
 29 30  1  0  0  0  0
 29 91  1  0  0  0  0
 29 92  1  0  0  0  0
 30 93  1  0  0  0  0
 30 94  1  0  0  0  0
 30 95  1  0  0  0  0
 31 32  1  0  0  0  0
 32 33  1  0  0  0  0
 32 96  1  0  0  0  0
 32 97  1  0  0  0  0
 33 34  1  0  0  0  0
 33 98  1  0  0  0  0
 33 99  1  0  0  0  0
 34 35  1  0  0  0  0
 34100  1  0  0  0  0
 34101  1  0  0  0  0
 35 36  1  0  0  0  0
 35102  1  0  0  0  0
 35103  1  0  0  0  0
 36 37  1  0  0  0  0
 36104  1  0  0  0  0
 36105  1  0  0  0  0
 37 38  1  0  0  0  0
 37106  1  0  0  0  0
 37107  1  0  0  0  0
 38 39  1  0  0  0  0
 38108  1  0  0  0  0
 38109  1  0  0  0  0
 39 40  1  0  0  0  0
 39110  1  0  0  0  0
 39111  1  0  0  0  0
 40 41  1  0  0  0  0
 40112  1  0  0  0  0
 40113  1  0  0  0  0
 41 42  1  0  0  0  0
 41114  1  0  0  0  0
 41115  1  0  0  0  0
 42 43  1  0  0  0  0
 42116  1  0  0  0  0
 42117  1  0  0  0  0
 43 44  1  0  0  0  0
 43118  1  0  0  0  0
 43119  1  0  0  0  0
 44 45  1  0  0  0  0
 44120  1  0  0  0  0
 44121  1  0  0  0  0
 45 46  1  0  0  0  0
 45122  1  0  0  0  0
 45123  1  0  0  0  0
 46 47  1  0  0  0  0
 46124  1  0  0  0  0
 46125  1  0  0  0  0
 47 48  1  0  0  0  0
 47126  1  0  0  0  0
 47127  1  0  0  0  0
 48128  1  0  0  0  0
 48129  1  0  0  0  0
 48130  1  0  0  0  0
 49 50  1  0  0  0  0
 49131  1  1  0  0  0
 50 51  1  0  0  0  0
 50132  1  6  0  0  0
 51 52  1  0  0  0  0
 51133  1  1  0  0  0
 52 53  1  0  0  0  0
 52134  1  1  0  0  0
 53 54  1  0  0  0  0
 53135  1  1  0  0  0
 54136  1  0  0  0  0
 54137  1  0  0  0  0
M  CHG  1  24  -1
M  END
$$$$
