/media/chris/experiments/cd1a-new-docking/inputs/ligands/1onq_ligand.pdb
 OpenBabel06222310383D

137137  0  0  1  0  0  0  0  0999 V2000
  -40.4920   60.2280   63.6270 N   0  0  0  0  0  0  0  0  0  0  0  0
  -38.5950   61.7730   64.2860 C   0  0  0  0  0  0  0  0  0  0  0  0
  -39.2927   63.0412   64.1953 O   0  0  0  0  0  0  0  0  0  0  0  0
  -39.4590   60.5300   64.5980 C   0  0  1  0  0  0  0  0  0  0  0  0
  -39.2569   60.8461   66.8904 O   0  0  0  0  0  0  0  0  0  0  0  0
  -40.2280   60.5370   65.9080 C   0  0  2  0  0  0  0  0  0  0  0  0
  -39.2820   59.8772   61.7401 O   0  0  0  0  0  0  0  0  0  0  0  0
  -40.8583   59.1606   66.1332 C   0  0  0  0  0  0  0  0  0  0  0  0
  -41.2344   58.3542   65.1259 C   0  0  0  0  0  0  0  0  0  0  0  0
  -40.3964   65.2906   62.8172 O   0  0  0  0  0  0  0  0  0  0  0  0
  -41.8578   56.9940   65.4332 C   0  0  0  0  0  0  0  0  0  0  0  0
  -39.3931   68.0416   63.2594 O   0  0  0  0  0  0  0  0  0  0  0  0
  -41.9874   56.6942   66.9337 C   0  0  0  0  0  0  0  0  0  0  0  0
  -41.2594   69.6187   62.3950 O   0  0  0  0  0  0  0  0  0  0  0  0
  -42.8658   57.6724   67.7354 C   0  0  0  0  0  0  0  0  0  0  0  0
  -38.1858   67.4358   65.6297 O   0  0  0  0  0  0  0  0  0  0  0  0
  -44.3180   57.6718   67.2000 C   0  0  0  0  0  0  0  0  0  0  0  0
  -37.5407   64.5807   64.8630 O   0  0  0  0  0  0  0  0  0  0  0  0
  -45.2908   58.6364   67.9243 C   0  0  0  0  0  0  0  0  0  0  0  0
  -36.4911   66.4567   66.8552 O   0  0  0  0  0  0  0  0  0  0  0  0
  -45.4429   58.3631   69.4392 C   0  0  0  0  0  0  0  0  0  0  0  0
  -46.4281   59.3209   70.1437 C   0  0  0  0  0  0  0  0  0  0  0  0
  -46.0389   60.7998   70.0313 C   0  0  0  0  0  0  0  0  0  0  0  0
  -41.7430   67.2649   62.7342 O   0  5  0  0  0  0  0  0  0  0  0  0
  -44.6763   61.1809   70.6061 C   0  0  0  0  0  0  0  0  0  0  0  0
  -40.4283   67.9769   60.8266 O   0  0  0  0  0  0  0  0  0  0  0  0
  -44.5213   60.8697   72.1078 C   0  0  0  0  0  0  0  0  0  0  0  0
  -44.6656   59.3882   72.4878 C   0  0  0  0  0  0  0  0  0  0  0  0
  -44.5124   59.1905   73.9986 C   0  0  0  0  0  0  0  0  0  0  0  0
  -44.6176   57.7636   74.5069 C   0  0  0  0  0  0  0  0  0  0  0  0
  -40.3447   59.9361   62.3275 C   0  0  0  0  0  0  0  0  0  0  0  0
  -41.6199   59.6610   61.5872 C   0  0  0  0  0  0  0  0  0  0  0  0
  -42.4612   60.9337   61.6856 C   0  0  0  0  0  0  0  0  0  0  0  0
  -43.7942   60.7344   60.9683 C   0  0  0  0  0  0  0  0  0  0  0  0
  -44.7302   61.9186   60.9667 C   0  0  0  0  0  0  0  0  0  0  0  0
  -44.0200   63.0665   60.2569 C   0  0  0  0  0  0  0  0  0  0  0  0
  -44.8668   64.3451   60.2034 C   0  0  0  0  0  0  0  0  0  0  0  0
  -45.2412   64.9136   61.5844 C   0  0  0  0  0  0  0  0  0  0  0  0
  -44.0074   65.3000   62.4293 C   0  0  0  0  0  0  0  0  0  0  0  0
  -44.4367   65.8418   63.7957 C   0  0  0  0  0  0  0  0  0  0  0  0
  -43.2937   66.2707   64.7076 C   0  0  0  0  0  0  0  0  0  0  0  0
  -43.7888   66.7818   66.0525 C   0  0  0  0  0  0  0  0  0  0  0  0
  -44.7314   67.9867   66.0069 C   0  0  0  0  0  0  0  0  0  0  0  0
  -45.0994   68.3572   67.4373 C   0  0  0  0  0  0  0  0  0  0  0  0
  -46.0482   69.5242   67.6672 C   0  0  0  0  0  0  0  0  0  0  0  0
  -46.2838   69.7538   69.1685 C   0  0  0  0  0  0  0  0  0  0  0  0
  -45.0132   70.0920   69.9699 C   0  0  0  0  0  0  0  0  0  0  0  0
  -45.2758   70.2976   71.4600 C   0  0  0  0  0  0  0  0  0  0  0  0
  -38.5707   64.2916   63.8868 C   0  0  2  0  0  0  0  0  0  0  0  0
  -39.4297   65.5603   63.7851 C   0  0  1  0  0  0  0  0  0  0  0  0
  -38.6385   66.8115   63.3449 C   0  0  2  0  0  0  0  0  0  0  0  0
  -37.5890   67.0373   64.3980 C   0  0  2  0  0  0  0  0  0  0  0  0
  -36.7643   65.7760   64.5802 C   0  0  1  0  0  0  0  0  0  0  0  0
  -35.7901   66.2089   65.6736 C   0  0  0  0  0  0  0  0  0  0  0  0
  -40.7155   68.2343   62.2663 S   0  0  0  0  0  0  0  0  0  0  0  0
  -41.4169   60.2387   63.9642 H   0  0  0  0  0  0  0  0  0  0  0  0
  -37.8608   61.8607   65.0594 H   0  0  0  0  0  0  0  0  0  0  0  0
  -38.1940   61.6005   63.3091 H   0  0  0  0  0  0  0  0  0  0  0  0
  -38.6677   59.8099   64.6092 H   0  0  0  0  0  0  0  0  0  0  0  0
  -38.8837   61.7234   66.7113 H   0  0  0  0  0  0  0  0  0  0  0  0
  -41.0317   61.2430   65.9299 H   0  0  0  0  0  0  0  0  0  0  0  0
  -41.0010   58.8369   67.1026 H   0  0  0  0  0  0  0  0  0  0  0  0
  -41.1023   58.6533   64.1471 H   0  0  0  0  0  0  0  0  0  0  0  0
  -40.9043   64.5062   63.0773 H   0  0  0  0  0  0  0  0  0  0  0  0
  -41.2474   56.2355   64.9895 H   0  0  0  0  0  0  0  0  0  0  0  0
  -42.8499   57.0091   65.0324 H   0  0  0  0  0  0  0  0  0  0  0  0
  -41.0054   56.7102   67.3584 H   0  0  0  0  0  0  0  0  0  0  0  0
  -42.4730   55.7432   67.0008 H   0  0  0  0  0  0  0  0  0  0  0  0
  -41.4526   69.8047   63.3272 H   0  0  0  0  0  0  0  0  0  0  0  0
  -42.4607   58.6590   67.6495 H   0  0  0  0  0  0  0  0  0  0  0  0
  -42.8776   57.3627   68.7595 H   0  0  0  0  0  0  0  0  0  0  0  0
  -38.7070   68.2420   65.4906 H   0  0  0  0  0  0  0  0  0  0  0  0
  -44.7051   56.6788   67.2952 H   0  0  0  0  0  0  0  0  0  0  0  0
  -44.2606   58.0140   66.1878 H   0  0  0  0  0  0  0  0  0  0  0  0
  -46.2546   58.5461   67.4685 H   0  0  0  0  0  0  0  0  0  0  0  0
  -44.8778   59.6189   67.8289 H   0  0  0  0  0  0  0  0  0  0  0  0
  -35.8702   66.7314   67.5479 H   0  0  0  0  0  0  0  0  0  0  0  0
  -44.4827   58.4664   69.8999 H   0  0  0  0  0  0  0  0  0  0  0  0
  -45.8388   57.3743   69.5417 H   0  0  0  0  0  0  0  0  0  0  0  0
  -46.4688   59.0604   71.1807 H   0  0  0  0  0  0  0  0  0  0  0  0
  -47.3742   59.2092   69.6565 H   0  0  0  0  0  0  0  0  0  0  0  0
  -46.7823   61.3735   70.5442 H   0  0  0  0  0  0  0  0  0  0  0  0
  -45.9752   61.0015   68.9824 H   0  0  0  0  0  0  0  0  0  0  0  0
  -44.5327   62.2316   70.4635 H   0  0  0  0  0  0  0  0  0  0  0  0
  -43.9466   60.5922   70.0905 H   0  0  0  0  0  0  0  0  0  0  0  0
  -39.7589   68.6050   60.5130 H   0  0  0  0  0  0  0  0  0  0  0  0
  -45.2682   61.4218   72.6390 H   0  0  0  0  0  0  0  0  0  0  0  0
  -43.5204   61.1460   72.3663 H   0  0  0  0  0  0  0  0  0  0  0  0
  -43.9107   58.8225   71.9827 H   0  0  0  0  0  0  0  0  0  0  0  0
  -45.6405   59.0559   72.1980 H   0  0  0  0  0  0  0  0  0  0  0  0
  -45.2754   59.7651   74.4810 H   0  0  0  0  0  0  0  0  0  0  0  0
  -43.5138   59.5003   74.2259 H   0  0  0  0  0  0  0  0  0  0  0  0
  -45.5997   57.3867   74.3109 H   0  0  0  0  0  0  0  0  0  0  0  0
  -44.4325   57.7458   75.5606 H   0  0  0  0  0  0  0  0  0  0  0  0
  -43.8949   57.1529   74.0074 H   0  0  0  0  0  0  0  0  0  0  0  0
  -42.1382   58.8395   62.0360 H   0  0  0  0  0  0  0  0  0  0  0  0
  -41.4273   59.4020   60.5671 H   0  0  0  0  0  0  0  0  0  0  0  0
  -41.9317   61.7446   61.2307 H   0  0  0  0  0  0  0  0  0  0  0  0
  -42.6461   61.1540   62.7162 H   0  0  0  0  0  0  0  0  0  0  0  0
  -44.3004   59.9180   61.4397 H   0  0  0  0  0  0  0  0  0  0  0  0
  -43.5457   60.5627   59.9418 H   0  0  0  0  0  0  0  0  0  0  0  0
  -44.9641   62.2002   61.9722 H   0  0  0  0  0  0  0  0  0  0  0  0
  -45.6439   61.6749   60.4661 H   0  0  0  0  0  0  0  0  0  0  0  0
  -43.7951   62.7628   59.2558 H   0  0  0  0  0  0  0  0  0  0  0  0
  -43.1328   63.2897   60.8118 H   0  0  0  0  0  0  0  0  0  0  0  0
  -45.7708   64.1268   59.6742 H   0  0  0  0  0  0  0  0  0  0  0  0
  -44.2702   65.0883   59.7169 H   0  0  0  0  0  0  0  0  0  0  0  0
  -45.8022   64.1746   62.1173 H   0  0  0  0  0  0  0  0  0  0  0  0
  -45.8109   65.8046   61.4214 H   0  0  0  0  0  0  0  0  0  0  0  0
  -43.4491   66.0524   61.9125 H   0  0  0  0  0  0  0  0  0  0  0  0
  -43.4050   64.4283   62.5781 H   0  0  0  0  0  0  0  0  0  0  0  0
  -44.9914   65.0762   64.2967 H   0  0  0  0  0  0  0  0  0  0  0  0
  -45.0101   66.7239   63.6004 H   0  0  0  0  0  0  0  0  0  0  0  0
  -42.7424   67.0505   64.2249 H   0  0  0  0  0  0  0  0  0  0  0  0
  -42.6801   65.4131   64.8890 H   0  0  0  0  0  0  0  0  0  0  0  0
  -42.9333   67.0573   66.6331 H   0  0  0  0  0  0  0  0  0  0  0  0
  -44.3632   65.9820   66.4712 H   0  0  0  0  0  0  0  0  0  0  0  0
  -45.6153   67.7345   65.4591 H   0  0  0  0  0  0  0  0  0  0  0  0
  -44.2528   68.8122   65.5227 H   0  0  0  0  0  0  0  0  0  0  0  0
  -44.1876   68.5868   67.9479 H   0  0  0  0  0  0  0  0  0  0  0  0
  -45.6411   67.5067   67.7954 H   0  0  0  0  0  0  0  0  0  0  0  0
  -46.9844   69.3127   67.1943 H   0  0  0  0  0  0  0  0  0  0  0  0
  -45.6098   70.4074   67.2516 H   0  0  0  0  0  0  0  0  0  0  0  0
  -46.7111   68.8631   69.5797 H   0  0  0  0  0  0  0  0  0  0  0  0
  -46.9294   70.6033   69.2488 H   0  0  0  0  0  0  0  0  0  0  0  0
  -44.5902   70.9908   69.5724 H   0  0  0  0  0  0  0  0  0  0  0  0
  -44.3488   69.2584   69.8773 H   0  0  0  0  0  0  0  0  0  0  0  0
  -45.9392   71.1263   71.5942 H   0  0  0  0  0  0  0  0  0  0  0  0
  -44.3514   70.4959   71.9610 H   0  0  0  0  0  0  0  0  0  0  0  0
  -45.7209   69.4146   71.8689 H   0  0  0  0  0  0  0  0  0  0  0  0
  -38.1706   64.0792   62.9174 H   0  0  0  0  0  0  0  0  0  0  0  0
  -39.8304   65.7822   64.7521 H   0  0  0  0  0  0  0  0  0  0  0  0
  -38.2799   66.6080   62.3576 H   0  0  0  0  0  0  0  0  0  0  0  0
  -36.9429   67.8280   64.0783 H   0  0  0  0  0  0  0  0  0  0  0  0
  -36.2694   65.4476   63.6902 H   0  0  0  0  0  0  0  0  0  0  0  0
  -35.0742   65.4315   65.8407 H   0  0  0  0  0  0  0  0  0  0  0  0
  -35.2854   67.1011   65.3665 H   0  0  0  0  0  0  0  0  0  0  0  0
  1  4  1  0  0  0  0
  1 31  1  0  0  0  0
  1 56  1  0  0  0  0
  2  3  1  0  0  0  0
  2  4  1  0  0  0  0
  2 57  1  0  0  0  0
  2 58  1  0  0  0  0
  3 49  1  0  0  0  0
  4  6  1  0  0  0  0
  4 59  1  1  0  0  0
  5  6  1  0  0  0  0
  5 60  1  0  0  0  0
  6  8  1  0  0  0  0
  6 61  1  6  0  0  0
  7 31  2  0  0  0  0
  8  9  2  0  0  0  0
  8 62  1  0  0  0  0
  9 11  1  0  0  0  0
  9 63  1  0  0  0  0
 10 50  1  0  0  0  0
 10 64  1  0  0  0  0
 11 13  1  0  0  0  0
 11 65  1  0  0  0  0
 11 66  1  0  0  0  0
 12 51  1  0  0  0  0
 12 55  1  0  0  0  0
 13 15  1  0  0  0  0
 13 67  1  0  0  0  0
 13 68  1  0  0  0  0
 14 55  1  0  0  0  0
 14 69  1  0  0  0  0
 15 17  1  0  0  0  0
 15 70  1  0  0  0  0
 15 71  1  0  0  0  0
 16 52  1  0  0  0  0
 16 72  1  0  0  0  0
 17 19  1  0  0  0  0
 17 73  1  0  0  0  0
 17 74  1  0  0  0  0
 18 49  1  0  0  0  0
 18 53  1  0  0  0  0
 19 21  1  0  0  0  0
 19 75  1  0  0  0  0
 19 76  1  0  0  0  0
 20 54  1  0  0  0  0
 20 77  1  0  0  0  0
 21 22  1  0  0  0  0
 21 78  1  0  0  0  0
 21 79  1  0  0  0  0
 22 23  1  0  0  0  0
 22 80  1  0  0  0  0
 22 81  1  0  0  0  0
 23 25  1  0  0  0  0
 23 82  1  0  0  0  0
 23 83  1  0  0  0  0
 24 55  1  0  0  0  0
 25 27  1  0  0  0  0
 25 84  1  0  0  0  0
 25 85  1  0  0  0  0
 26 55  1  0  0  0  0
 26 86  1  0  0  0  0
 27 28  1  0  0  0  0
 27 87  1  0  0  0  0
 27 88  1  0  0  0  0
 28 29  1  0  0  0  0
 28 89  1  0  0  0  0
 28 90  1  0  0  0  0
 29 30  1  0  0  0  0
 29 91  1  0  0  0  0
 29 92  1  0  0  0  0
 30 93  1  0  0  0  0
 30 94  1  0  0  0  0
 30 95  1  0  0  0  0
 31 32  1  0  0  0  0
 32 33  1  0  0  0  0
 32 96  1  0  0  0  0
 32 97  1  0  0  0  0
 33 34  1  0  0  0  0
 33 98  1  0  0  0  0
 33 99  1  0  0  0  0
 34 35  1  0  0  0  0
 34100  1  0  0  0  0
 34101  1  0  0  0  0
 35 36  1  0  0  0  0
 35102  1  0  0  0  0
 35103  1  0  0  0  0
 36 37  1  0  0  0  0
 36104  1  0  0  0  0
 36105  1  0  0  0  0
 37 38  1  0  0  0  0
 37106  1  0  0  0  0
 37107  1  0  0  0  0
 38 39  1  0  0  0  0
 38108  1  0  0  0  0
 38109  1  0  0  0  0
 39 40  1  0  0  0  0
 39110  1  0  0  0  0
 39111  1  0  0  0  0
 40 41  1  0  0  0  0
 40112  1  0  0  0  0
 40113  1  0  0  0  0
 41 42  1  0  0  0  0
 41114  1  0  0  0  0
 41115  1  0  0  0  0
 42 43  1  0  0  0  0
 42116  1  0  0  0  0
 42117  1  0  0  0  0
 43 44  1  0  0  0  0
 43118  1  0  0  0  0
 43119  1  0  0  0  0
 44 45  1  0  0  0  0
 44120  1  0  0  0  0
 44121  1  0  0  0  0
 45 46  1  0  0  0  0
 45122  1  0  0  0  0
 45123  1  0  0  0  0
 46 47  1  0  0  0  0
 46124  1  0  0  0  0
 46125  1  0  0  0  0
 47 48  1  0  0  0  0
 47126  1  0  0  0  0
 47127  1  0  0  0  0
 48128  1  0  0  0  0
 48129  1  0  0  0  0
 48130  1  0  0  0  0
 49 50  1  0  0  0  0
 49131  1  6  0  0  0
 50 51  1  0  0  0  0
 50132  1  1  0  0  0
 51 52  1  0  0  0  0
 51133  1  6  0  0  0
 52 53  1  0  0  0  0
 52134  1  6  0  0  0
 53 54  1  0  0  0  0
 53135  1  6  0  0  0
 54136  1  0  0  0  0
 54137  1  0  0  0  0
M  CHG  1  24  -1
M  END
$$$$