/media/chris/experiments/cd1a-new-docking/inputs/ligands/1onq_ligand.pdb
 OpenBabel06222310383D

137137  0  0  1  0  0  0  0  0999 V2000
  -40.4920   60.2280   63.6270 N   0  0  0  0  0  0  0  0  0  0  0  0
  -38.5950   61.7730   64.2860 C   0  0  0  0  0  0  0  0  0  0  0  0
  -37.5441   62.0867   65.2349 O   0  0  0  0  0  0  0  0  0  0  0  0
  -39.4590   60.5300   64.5980 C   0  0  1  0  0  0  0  0  0  0  0  0
  -39.2569   60.8461   66.8904 O   0  0  0  0  0  0  0  0  0  0  0  0
  -40.2280   60.5370   65.9080 C   0  0  2  0  0  0  0  0  0  0  0  0
  -41.8540   58.8360   62.4630 O   0  0  0  0  0  0  0  0  0  0  0  0
  -40.8583   59.1606   66.1332 C   0  0  0  0  0  0  0  0  0  0  0  0
  -41.0723   58.6448   67.3556 C   0  0  0  0  0  0  0  0  0  0  0  0
  -34.8829   62.7993   66.0015 O   0  0  0  0  0  0  0  0  0  0  0  0
  -41.7060   57.2621   67.4971 C   0  0  0  0  0  0  0  0  0  0  0  0
  -33.1821   60.9883   67.6133 O   0  0  0  0  0  0  0  0  0  0  0  0
  -41.2535   56.4960   68.7487 C   0  0  0  0  0  0  0  0  0  0  0  0
  -31.5554   62.4291   66.2008 O   0  0  0  0  0  0  0  0  0  0  0  0
  -39.7404   56.2317   68.8576 C   0  0  0  0  0  0  0  0  0  0  0  0
  -35.2780   59.4877   68.5068 O   0  0  0  0  0  0  0  0  0  0  0  0
  -39.4124   55.4405   70.1467 C   0  0  0  0  0  0  0  0  0  0  0  0
  -36.9441   59.8674   66.0098 O   0  0  0  0  0  0  0  0  0  0  0  0
  -39.8290   56.1303   71.4704 C   0  0  0  0  0  0  0  0  0  0  0  0
  -35.2824   56.7380   67.1203 O   0  0  0  0  0  0  0  0  0  0  0  0
  -39.1763   57.5144   71.6962 C   0  0  0  0  0  0  0  0  0  0  0  0
  -39.5266   58.5479   70.6039 C   0  0  0  0  0  0  0  0  0  0  0  0
  -38.8679   59.9165   70.8144 C   0  0  0  0  0  0  0  0  0  0  0  0
  -31.3199   62.3771   68.6155 O   0  5  0  0  0  0  0  0  0  0  0  0
  -39.1923   60.9850   69.7725 C   0  0  0  0  0  0  0  0  0  0  0  0
  -33.1237   63.6323   67.5933 O   0  0  0  0  0  0  0  0  0  0  0  0
  -38.4916   62.3352   70.0216 C   0  0  0  0  0  0  0  0  0  0  0  0
  -38.8108   63.4370   68.9998 C   0  0  0  0  0  0  0  0  0  0  0  0
  -40.3075   63.7609   68.9900 C   0  0  0  0  0  0  0  0  0  0  0  0
  -40.7613   64.8264   68.0080 C   0  0  0  0  0  0  0  0  0  0  0  0
  -40.9921   59.0290   63.2983 C   0  0  0  0  0  0  0  0  0  0  0  0
  -40.4035   57.8670   64.0420 C   0  0  0  0  0  0  0  0  0  0  0  0
  -39.7820   56.9489   62.9893 C   0  0  0  0  0  0  0  0  0  0  0  0
  -39.1706   55.7225   63.6625 C   0  0  0  0  0  0  0  0  0  0  0  0
  -38.0891   55.9942   64.6799 C   0  0  0  0  0  0  0  0  0  0  0  0
  -37.6081   54.6483   65.2118 C   0  0  0  0  0  0  0  0  0  0  0  0
  -38.7315   53.8338   65.8672 C   0  0  0  0  0  0  0  0  0  0  0  0
  -38.2801   52.4745   66.4320 C   0  0  0  0  0  0  0  0  0  0  0  0
  -39.4378   51.6743   67.0683 C   0  0  0  0  0  0  0  0  0  0  0  0
  -40.5230   51.3763   66.0297 C   0  0  0  0  0  0  0  0  0  0  0  0
  -41.7251   50.6022   66.5569 C   0  0  0  0  0  0  0  0  0  0  0  0
  -42.7548   50.3257   65.4714 C   0  0  0  0  0  0  0  0  0  0  0  0
  -43.3487   51.5556   64.7808 C   0  0  0  0  0  0  0  0  0  0  0  0
  -44.0237   52.4164   65.8400 C   0  0  0  0  0  0  0  0  0  0  0  0
  -45.1519   51.8107   66.6618 C   0  0  0  0  0  0  0  0  0  0  0  0
  -46.3049   51.3488   65.7566 C   0  0  0  0  0  0  0  0  0  0  0  0
  -46.9334   52.4658   64.9031 C   0  0  0  0  0  0  0  0  0  0  0  0
  -45.9437   53.1216   63.9428 C   0  0  0  0  0  0  0  0  0  0  0  0
  -36.4503   61.1334   65.5086 C   0  0  2  0  0  0  0  0  0  0  0  0
  -35.3818   61.5997   66.5077 C   0  0  1  0  0  0  0  0  0  0  0  0
  -34.2046   60.6120   66.6632 C   0  0  2  0  0  0  0  0  0  0  0  0
  -34.7978   59.3281   67.1741 C   0  0  2  0  0  0  0  0  0  0  0  0
  -35.9120   58.8730   66.2490 C   0  0  1  0  0  0  0  0  0  0  0  0
  -36.3724   57.5915   66.9404 C   0  0  0  0  0  0  0  0  0  0  0  0
  -32.2989   62.3947   67.4949 S   0  0  0  0  0  0  0  0  0  0  0  0
  -40.8737   60.9998   63.1496 H   0  0  0  0  0  0  0  0  0  0  0  0
  -38.1357   61.6183   63.3320 H   0  0  0  0  0  0  0  0  0  0  0  0
  -39.2690   62.6030   64.3261 H   0  0  0  0  0  0  0  0  0  0  0  0
  -38.6677   59.8099   64.6092 H   0  0  0  0  0  0  0  0  0  0  0  0
  -38.8837   61.7234   66.7113 H   0  0  0  0  0  0  0  0  0  0  0  0
  -41.0317   61.2430   65.9299 H   0  0  0  0  0  0  0  0  0  0  0  0
  -41.1313   58.6032   65.3087 H   0  0  0  0  0  0  0  0  0  0  0  0
  -40.8092   59.1816   68.1968 H   0  0  0  0  0  0  0  0  0  0  0  0
  -35.6096   63.4332   65.8970 H   0  0  0  0  0  0  0  0  0  0  0  0
  -41.4471   56.6829   66.6355 H   0  0  0  0  0  0  0  0  0  0  0  0
  -42.7615   57.4118   67.5890 H   0  0  0  0  0  0  0  0  0  0  0  0
  -41.7539   55.5503   68.7544 H   0  0  0  0  0  0  0  0  0  0  0  0
  -41.5013   57.1223   69.5801 H   0  0  0  0  0  0  0  0  0  0  0  0
  -31.0119   61.6299   66.1188 H   0  0  0  0  0  0  0  0  0  0  0  0
  -39.2214   57.1671   68.8784 H   0  0  0  0  0  0  0  0  0  0  0  0
  -39.4314   55.6533   68.0121 H   0  0  0  0  0  0  0  0  0  0  0  0
  -34.5511   59.7783   69.0797 H   0  0  0  0  0  0  0  0  0  0  0  0
  -38.3549   55.2799   70.1761 H   0  0  0  0  0  0  0  0  0  0  0  0
  -39.9818   54.5362   70.0921 H   0  0  0  0  0  0  0  0  0  0  0  0
  -39.5520   55.4919   72.2832 H   0  0  0  0  0  0  0  0  0  0  0  0
  -40.8849   56.2936   71.4133 H   0  0  0  0  0  0  0  0  0  0  0  0
  -35.5774   55.9250   67.5595 H   0  0  0  0  0  0  0  0  0  0  0  0
  -38.1138   57.3885   71.7147 H   0  0  0  0  0  0  0  0  0  0  0  0
  -39.5569   57.8939   72.6214 H   0  0  0  0  0  0  0  0  0  0  0  0
  -40.5881   58.6821   70.5941 H   0  0  0  0  0  0  0  0  0  0  0  0
  -39.1547   58.1616   69.6779 H   0  0  0  0  0  0  0  0  0  0  0  0
  -37.8077   59.7724   70.8159 H   0  0  0  0  0  0  0  0  0  0  0  0
  -39.2619   60.2864   71.7379 H   0  0  0  0  0  0  0  0  0  0  0  0
  -40.2497   61.1488   69.7761 H   0  0  0  0  0  0  0  0  0  0  0  0
  -38.8357   60.6195   68.8322 H   0  0  0  0  0  0  0  0  0  0  0  0
  -33.7652   63.6520   66.8659 H   0  0  0  0  0  0  0  0  0  0  0  0
  -37.4349   62.1672   70.0077 H   0  0  0  0  0  0  0  0  0  0  0  0
  -38.8561   62.6893   70.9632 H   0  0  0  0  0  0  0  0  0  0  0  0
  -38.5184   63.1056   68.0253 H   0  0  0  0  0  0  0  0  0  0  0  0
  -38.2730   64.3208   69.2728 H   0  0  0  0  0  0  0  0  0  0  0  0
  -40.5762   64.0882   69.9726 H   0  0  0  0  0  0  0  0  0  0  0  0
  -40.7913   62.8598   68.6753 H   0  0  0  0  0  0  0  0  0  0  0  0
  -40.3118   65.7628   68.2648 H   0  0  0  0  0  0  0  0  0  0  0  0
  -41.8265   64.9189   68.0491 H   0  0  0  0  0  0  0  0  0  0  0  0
  -40.4654   64.5483   67.0180 H   0  0  0  0  0  0  0  0  0  0  0  0
  -41.1680   57.3474   64.5809 H   0  0  0  0  0  0  0  0  0  0  0  0
  -39.6724   58.1921   64.7524 H   0  0  0  0  0  0  0  0  0  0  0  0
  -39.0185   57.4809   62.4613 H   0  0  0  0  0  0  0  0  0  0  0  0
  -40.5422   56.6324   62.3061 H   0  0  0  0  0  0  0  0  0  0  0  0
  -38.7512   55.1041   62.8967 H   0  0  0  0  0  0  0  0  0  0  0  0
  -39.9698   55.2650   64.2074 H   0  0  0  0  0  0  0  0  0  0  0  0
  -38.4821   56.5840   65.4815 H   0  0  0  0  0  0  0  0  0  0  0  0
  -37.2797   56.5330   64.2333 H   0  0  0  0  0  0  0  0  0  0  0  0
  -36.8422   54.8215   65.9387 H   0  0  0  0  0  0  0  0  0  0  0  0
  -37.2435   54.0837   64.3792 H   0  0  0  0  0  0  0  0  0  0  0  0
  -39.4896   53.6569   65.1330 H   0  0  0  0  0  0  0  0  0  0  0  0
  -39.0839   54.4095   66.6974 H   0  0  0  0  0  0  0  0  0  0  0  0
  -37.5328   52.6460   67.1784 H   0  0  0  0  0  0  0  0  0  0  0  0
  -37.9011   51.8969   65.6149 H   0  0  0  0  0  0  0  0  0  0  0  0
  -39.8630   52.2459   67.8667 H   0  0  0  0  0  0  0  0  0  0  0  0
  -39.0528   50.7478   67.4399 H   0  0  0  0  0  0  0  0  0  0  0  0
  -40.0797   50.8043   65.2415 H   0  0  0  0  0  0  0  0  0  0  0  0
  -40.8970   52.3257   65.7077 H   0  0  0  0  0  0  0  0  0  0  0  0
  -42.1888   51.1738   67.3335 H   0  0  0  0  0  0  0  0  0  0  0  0
  -41.3732   49.6600   66.9221 H   0  0  0  0  0  0  0  0  0  0  0  0
  -43.5602   49.7791   65.9159 H   0  0  0  0  0  0  0  0  0  0  0  0
  -42.2314   49.7903   64.7070 H   0  0  0  0  0  0  0  0  0  0  0  0
  -44.0683   51.2489   64.0507 H   0  0  0  0  0  0  0  0  0  0  0  0
  -42.5780   52.1114   64.2888 H   0  0  0  0  0  0  0  0  0  0  0  0
  -44.4229   53.2748   65.3411 H   0  0  0  0  0  0  0  0  0  0  0  0
  -43.2507   52.6022   66.5560 H   0  0  0  0  0  0  0  0  0  0  0  0
  -45.5184   52.5451   67.3482 H   0  0  0  0  0  0  0  0  0  0  0  0
  -44.7715   50.9614   67.1899 H   0  0  0  0  0  0  0  0  0  0  0  0
  -47.0703   50.9315   66.3770 H   0  0  0  0  0  0  0  0  0  0  0  0
  -45.8887   50.6400   65.0715 H   0  0  0  0  0  0  0  0  0  0  0  0
  -47.3194   53.2179   65.5589 H   0  0  0  0  0  0  0  0  0  0  0  0
  -47.7013   52.0164   64.3087 H   0  0  0  0  0  0  0  0  0  0  0  0
  -45.1573   53.5840   64.5020 H   0  0  0  0  0  0  0  0  0  0  0  0
  -46.4500   53.8622   63.3597 H   0  0  0  0  0  0  0  0  0  0  0  0
  -45.5304   52.3780   63.2939 H   0  0  0  0  0  0  0  0  0  0  0  0
  -35.9925   61.0440   64.5457 H   0  0  0  0  0  0  0  0  0  0  0  0
  -35.8309   61.6875   67.4750 H   0  0  0  0  0  0  0  0  0  0  0  0
  -33.7257   60.5630   65.7076 H   0  0  0  0  0  0  0  0  0  0  0  0
  -34.0355   58.5774   67.1903 H   0  0  0  0  0  0  0  0  0  0  0  0
  -35.5992   58.7098   65.2389 H   0  0  0  0  0  0  0  0  0  0  0  0
  -36.7961   57.8333   67.8927 H   0  0  0  0  0  0  0  0  0  0  0  0
  -37.1076   57.1054   66.3338 H   0  0  0  0  0  0  0  0  0  0  0  0
  1  4  1  0  0  0  0
  1 31  1  0  0  0  0
  1 56  1  0  0  0  0
  2  3  1  0  0  0  0
  2  4  1  0  0  0  0
  2 57  1  0  0  0  0
  2 58  1  0  0  0  0
  3 49  1  0  0  0  0
  4  6  1  0  0  0  0
  4 59  1  1  0  0  0
  5  6  1  0  0  0  0
  5 60  1  0  0  0  0
  6  8  1  0  0  0  0
  6 61  1  6  0  0  0
  7 31  2  0  0  0  0
  8  9  2  0  0  0  0
  8 62  1  0  0  0  0
  9 11  1  0  0  0  0
  9 63  1  0  0  0  0
 10 50  1  0  0  0  0
 10 64  1  0  0  0  0
 11 13  1  0  0  0  0
 11 65  1  0  0  0  0
 11 66  1  0  0  0  0
 12 51  1  0  0  0  0
 12 55  1  0  0  0  0
 13 15  1  0  0  0  0
 13 67  1  0  0  0  0
 13 68  1  0  0  0  0
 14 55  1  0  0  0  0
 14 69  1  0  0  0  0
 15 17  1  0  0  0  0
 15 70  1  0  0  0  0
 15 71  1  0  0  0  0
 16 52  1  0  0  0  0
 16 72  1  0  0  0  0
 17 19  1  0  0  0  0
 17 73  1  0  0  0  0
 17 74  1  0  0  0  0
 18 49  1  0  0  0  0
 18 53  1  0  0  0  0
 19 21  1  0  0  0  0
 19 75  1  0  0  0  0
 19 76  1  0  0  0  0
 20 54  1  0  0  0  0
 20 77  1  0  0  0  0
 21 22  1  0  0  0  0
 21 78  1  0  0  0  0
 21 79  1  0  0  0  0
 22 23  1  0  0  0  0
 22 80  1  0  0  0  0
 22 81  1  0  0  0  0
 23 25  1  0  0  0  0
 23 82  1  0  0  0  0
 23 83  1  0  0  0  0
 24 55  1  0  0  0  0
 25 27  1  0  0  0  0
 25 84  1  0  0  0  0
 25 85  1  0  0  0  0
 26 55  1  0  0  0  0
 26 86  1  0  0  0  0
 27 28  1  0  0  0  0
 27 87  1  0  0  0  0
 27 88  1  0  0  0  0
 28 29  1  0  0  0  0
 28 89  1  0  0  0  0
 28 90  1  0  0  0  0
 29 30  1  0  0  0  0
 29 91  1  0  0  0  0
 29 92  1  0  0  0  0
 30 93  1  0  0  0  0
 30 94  1  0  0  0  0
 30 95  1  0  0  0  0
 31 32  1  0  0  0  0
 32 33  1  0  0  0  0
 32 96  1  0  0  0  0
 32 97  1  0  0  0  0
 33 34  1  0  0  0  0
 33 98  1  0  0  0  0
 33 99  1  0  0  0  0
 34 35  1  0  0  0  0
 34100  1  0  0  0  0
 34101  1  0  0  0  0
 35 36  1  0  0  0  0
 35102  1  0  0  0  0
 35103  1  0  0  0  0
 36 37  1  0  0  0  0
 36104  1  0  0  0  0
 36105  1  0  0  0  0
 37 38  1  0  0  0  0
 37106  1  0  0  0  0
 37107  1  0  0  0  0
 38 39  1  0  0  0  0
 38108  1  0  0  0  0
 38109  1  0  0  0  0
 39 40  1  0  0  0  0
 39110  1  0  0  0  0
 39111  1  0  0  0  0
 40 41  1  0  0  0  0
 40112  1  0  0  0  0
 40113  1  0  0  0  0
 41 42  1  0  0  0  0
 41114  1  0  0  0  0
 41115  1  0  0  0  0
 42 43  1  0  0  0  0
 42116  1  0  0  0  0
 42117  1  0  0  0  0
 43 44  1  0  0  0  0
 43118  1  0  0  0  0
 43119  1  0  0  0  0
 44 45  1  0  0  0  0
 44120  1  0  0  0  0
 44121  1  0  0  0  0
 45 46  1  0  0  0  0
 45122  1  0  0  0  0
 45123  1  0  0  0  0
 46 47  1  0  0  0  0
 46124  1  0  0  0  0
 46125  1  0  0  0  0
 47 48  1  0  0  0  0
 47126  1  0  0  0  0
 47127  1  0  0  0  0
 48128  1  0  0  0  0
 48129  1  0  0  0  0
 48130  1  0  0  0  0
 49 50  1  0  0  0  0
 49131  1  6  0  0  0
 50 51  1  0  0  0  0
 50132  1  1  0  0  0
 51 52  1  0  0  0  0
 51133  1  6  0  0  0
 52 53  1  0  0  0  0
 52134  1  1  0  0  0
 53 54  1  0  0  0  0
 53135  1  6  0  0  0
 54136  1  0  0  0  0
 54137  1  0  0  0  0
M  CHG  1  24  -1
M  END
$$$$