/media/chris/experiments/cd1a-new-docking/inputs/ligands/1onq_ligand.pdb
 OpenBabel06222310383D

137137  0  0  1  0  0  0  0  0999 V2000
  -40.4920   60.2280   63.6270 N   0  0  0  0  0  0  0  0  0  0  0  0
  -38.5950   61.7730   64.2860 C   0  0  0  0  0  0  0  0  0  0  0  0
  -37.5441   62.0867   65.2349 O   0  0  0  0  0  0  0  0  0  0  0  0
  -39.4590   60.5300   64.5980 C   0  0  1  0  0  0  0  0  0  0  0  0
  -40.7577   59.2290   66.0180 O   0  0  0  0  0  0  0  0  0  0  0  0
  -40.2280   60.5370   65.9080 C   0  0  2  0  0  0  0  0  0  0  0  0
  -41.6768   60.5954   61.7273 O   0  0  0  0  0  0  0  0  0  0  0  0
  -41.3266   61.6007   65.8452 C   0  0  0  0  0  0  0  0  0  0  0  0
  -41.9275   61.9655   64.6997 C   0  0  0  0  0  0  0  0  0  0  0  0
  -38.2938   64.5178   63.9293 O   0  0  0  0  0  0  0  0  0  0  0  0
  -43.0161   63.0369   64.7199 C   0  0  0  0  0  0  0  0  0  0  0  0
  -37.0206   67.1074   64.5954 O   0  0  0  0  0  0  0  0  0  0  0  0
  -44.4337   62.4793   64.9141 C   0  0  0  0  0  0  0  0  0  0  0  0
  -35.5491   68.3969   62.8957 O   0  0  0  0  0  0  0  0  0  0  0  0
  -44.9083   61.4779   63.8450 C   0  0  0  0  0  0  0  0  0  0  0  0
  -36.0508   66.2424   66.9942 O   0  0  0  0  0  0  0  0  0  0  0  0
  -46.3517   61.0032   64.1393 C   0  0  0  0  0  0  0  0  0  0  0  0
  -35.6795   63.3761   66.0987 O   0  0  0  0  0  0  0  0  0  0  0  0
  -46.5523   60.3046   65.5080 C   0  0  0  0  0  0  0  0  0  0  0  0
  -34.5625   65.0109   68.2596 O   0  0  0  0  0  0  0  0  0  0  0  0
  -47.9999   59.8254   65.7684 C   0  0  0  0  0  0  0  0  0  0  0  0
  -48.1880   59.1471   67.1426 C   0  0  0  0  0  0  0  0  0  0  0  0
  -47.3041   57.9110   67.3476 C   0  0  0  0  0  0  0  0  0  0  0  0
  -35.0811   68.5856   65.2694 O   0  5  0  0  0  0  0  0  0  0  0  0
  -45.7964   58.1457   67.2836 C   0  0  0  0  0  0  0  0  0  0  0  0
  -36.9848   69.7361   64.3068 O   0  0  0  0  0  0  0  0  0  0  0  0
  -45.2697   59.1259   68.3503 C   0  0  0  0  0  0  0  0  0  0  0  0
  -43.7583   59.3965   68.3017 C   0  0  0  0  0  0  0  0  0  0  0  0
  -42.9617   58.1013   68.4832 C   0  0  0  0  0  0  0  0  0  0  0  0
  -43.1962   57.3399   69.7758 C   0  0  0  0  0  0  0  0  0  0  0  0
  -40.7863   60.8910   62.5003 C   0  0  0  0  0  0  0  0  0  0  0  0
  -39.9258   62.0873   62.2211 C   0  0  0  0  0  0  0  0  0  0  0  0
  -39.2409   61.8250   60.8797 C   0  0  0  0  0  0  0  0  0  0  0  0
  -38.3254   62.9939   60.5241 C   0  0  0  0  0  0  0  0  0  0  0  0
  -37.2037   63.2769   61.4937 C   0  0  0  0  0  0  0  0  0  0  0  0
  -36.3216   62.0342   61.5534 C   0  0  0  0  0  0  0  0  0  0  0  0
  -35.7043   61.6794   60.1940 C   0  0  0  0  0  0  0  0  0  0  0  0
  -34.8200   60.4191   60.2109 C   0  0  0  0  0  0  0  0  0  0  0  0
  -33.6315   60.5326   61.1907 C   0  0  0  0  0  0  0  0  0  0  0  0
  -32.7780   59.2617   61.1539 C   0  0  0  0  0  0  0  0  0  0  0  0
  -32.1570   58.9408   59.7998 C   0  0  0  0  0  0  0  0  0  0  0  0
  -31.2219   60.0403   59.3184 C   0  0  0  0  0  0  0  0  0  0  0  0
  -30.5633   59.8124   57.9559 C   0  0  0  0  0  0  0  0  0  0  0  0
  -29.6594   61.0014   57.6595 C   0  0  0  0  0  0  0  0  0  0  0  0
  -30.2776   62.3905   57.6000 C   0  0  0  0  0  0  0  0  0  0  0  0
  -30.9220   62.7636   58.9444 C   0  0  0  0  0  0  0  0  0  0  0  0
  -31.5892   64.1512   58.9695 C   0  0  0  0  0  0  0  0  0  0  0  0
  -32.2052   64.5008   60.3222 C   0  0  0  0  0  0  0  0  0  0  0  0
  -36.6675   63.2597   65.0462 C   0  0  2  0  0  0  0  0  0  0  0  0
  -37.3701   64.6228   64.9685 C   0  0  1  0  0  0  0  0  0  0  0  0
  -36.4160   65.7955   64.6529 C   0  0  2  0  0  0  0  0  0  0  0  0
  -35.4210   65.8428   65.7794 C   0  0  2  0  0  0  0  0  0  0  0  0
  -34.7568   64.4868   65.9355 C   0  0  1  0  0  0  0  0  0  0  0  0
  -33.8159   64.7462   67.1101 C   0  0  0  0  0  0  0  0  0  0  0  0
  -36.1639   68.4933   64.2527 S   0  0  0  0  0  0  0  0  0  0  0  0
  -41.0464   59.4375   63.8192 H   0  0  0  0  0  0  0  0  0  0  0  0
  -38.1357   61.6183   63.3320 H   0  0  0  0  0  0  0  0  0  0  0  0
  -39.2690   62.6030   64.3261 H   0  0  0  0  0  0  0  0  0  0  0  0
  -38.6677   59.8099   64.6092 H   0  0  0  0  0  0  0  0  0  0  0  0
  -40.0308   58.5878   66.0547 H   0  0  0  0  0  0  0  0  0  0  0  0
  -39.6247   60.7776   66.7583 H   0  0  0  0  0  0  0  0  0  0  0  0
  -41.6194   62.0587   66.7224 H   0  0  0  0  0  0  0  0  0  0  0  0
  -41.6541   61.5227   63.8085 H   0  0  0  0  0  0  0  0  0  0  0  0
  -38.9026   63.7849   64.1107 H   0  0  0  0  0  0  0  0  0  0  0  0
  -42.9862   63.5652   63.7899 H   0  0  0  0  0  0  0  0  0  0  0  0
  -42.8135   63.6701   65.5583 H   0  0  0  0  0  0  0  0  0  0  0  0
  -45.1144   63.3049   64.9169 H   0  0  0  0  0  0  0  0  0  0  0  0
  -44.4097   61.9345   65.8347 H   0  0  0  0  0  0  0  0  0  0  0  0
  -35.0098   67.5924   62.8415 H   0  0  0  0  0  0  0  0  0  0  0  0
  -44.2541   60.6312   63.8424 H   0  0  0  0  0  0  0  0  0  0  0  0
  -44.8942   61.9622   62.8909 H   0  0  0  0  0  0  0  0  0  0  0  0
  -36.4678   67.1097   66.8721 H   0  0  0  0  0  0  0  0  0  0  0  0
  -46.6362   60.3143   63.3716 H   0  0  0  0  0  0  0  0  0  0  0  0
  -46.9542   61.8869   64.1668 H   0  0  0  0  0  0  0  0  0  0  0  0
  -46.2834   60.9950   66.2799 H   0  0  0  0  0  0  0  0  0  0  0  0
  -45.9354   59.4304   65.5007 H   0  0  0  0  0  0  0  0  0  0  0  0
  -33.9627   65.1753   69.0040 H   0  0  0  0  0  0  0  0  0  0  0  0
  -48.2665   59.1241   65.0055 H   0  0  0  0  0  0  0  0  0  0  0  0
  -48.6247   60.6940   65.7587 H   0  0  0  0  0  0  0  0  0  0  0  0
  -49.2116   58.8491   67.2347 H   0  0  0  0  0  0  0  0  0  0  0  0
  -47.9019   59.8621   67.8854 H   0  0  0  0  0  0  0  0  0  0  0  0
  -47.5567   57.1990   66.5898 H   0  0  0  0  0  0  0  0  0  0  0  0
  -47.5013   57.5785   68.3453 H   0  0  0  0  0  0  0  0  0  0  0  0
  -45.5576   58.5393   66.3176 H   0  0  0  0  0  0  0  0  0  0  0  0
  -45.3275   57.2024   67.4709 H   0  0  0  0  0  0  0  0  0  0  0  0
  -37.6937   69.6843   63.6467 H   0  0  0  0  0  0  0  0  0  0  0  0
  -45.5029   58.7231   69.3137 H   0  0  0  0  0  0  0  0  0  0  0  0
  -45.7455   60.0636   68.1522 H   0  0  0  0  0  0  0  0  0  0  0  0
  -43.4998   60.0787   69.0844 H   0  0  0  0  0  0  0  0  0  0  0  0
  -43.5176   59.8131   67.3459 H   0  0  0  0  0  0  0  0  0  0  0  0
  -41.9219   58.3492   68.4354 H   0  0  0  0  0  0  0  0  0  0  0  0
  -43.2980   57.4493   67.7043 H   0  0  0  0  0  0  0  0  0  0  0  0
  -42.8795   57.9381   70.6045 H   0  0  0  0  0  0  0  0  0  0  0  0
  -42.6363   56.4283   69.7594 H   0  0  0  0  0  0  0  0  0  0  0  0
  -44.2380   57.1169   69.8745 H   0  0  0  0  0  0  0  0  0  0  0  0
  -39.1942   62.2049   62.9930 H   0  0  0  0  0  0  0  0  0  0  0  0
  -40.5082   62.9844   62.1896 H   0  0  0  0  0  0  0  0  0  0  0  0
  -39.9842   61.7125   60.1183 H   0  0  0  0  0  0  0  0  0  0  0  0
  -38.6575   60.9309   60.9518 H   0  0  0  0  0  0  0  0  0  0  0  0
  -38.9299   63.8743   60.4574 H   0  0  0  0  0  0  0  0  0  0  0  0
  -37.8496   62.7178   59.6064 H   0  0  0  0  0  0  0  0  0  0  0  0
  -37.6040   63.4871   62.4635 H   0  0  0  0  0  0  0  0  0  0  0  0
  -36.6360   64.1258   61.1745 H   0  0  0  0  0  0  0  0  0  0  0  0
  -36.9158   61.2085   61.8854 H   0  0  0  0  0  0  0  0  0  0  0  0
  -35.5180   62.2408   62.2289 H   0  0  0  0  0  0  0  0  0  0  0  0
  -35.1050   62.5053   59.8721 H   0  0  0  0  0  0  0  0  0  0  0  0
  -36.5188   61.4741   59.5311 H   0  0  0  0  0  0  0  0  0  0  0  0
  -34.4359   60.2582   59.2253 H   0  0  0  0  0  0  0  0  0  0  0  0
  -35.4297   59.6031   60.5385 H   0  0  0  0  0  0  0  0  0  0  0  0
  -34.0062   60.6758   62.1827 H   0  0  0  0  0  0  0  0  0  0  0  0
  -33.0239   61.3642   60.9004 H   0  0  0  0  0  0  0  0  0  0  0  0
  -33.3981   58.4374   61.4382 H   0  0  0  0  0  0  0  0  0  0  0  0
  -31.9614   59.4308   61.8243 H   0  0  0  0  0  0  0  0  0  0  0  0
  -32.9411   58.8173   59.0822 H   0  0  0  0  0  0  0  0  0  0  0  0
  -31.5814   58.0453   59.9075 H   0  0  0  0  0  0  0  0  0  0  0  0
  -30.4433   60.1488   60.0443 H   0  0  0  0  0  0  0  0  0  0  0  0
  -31.8350   60.9093   59.2006 H   0  0  0  0  0  0  0  0  0  0  0  0
  -31.3153   59.7315   57.1991 H   0  0  0  0  0  0  0  0  0  0  0  0
  -29.9919   58.9078   57.9683 H   0  0  0  0  0  0  0  0  0  0  0  0
  -29.2006   60.8197   56.7101 H   0  0  0  0  0  0  0  0  0  0  0  0
  -29.0017   61.0451   58.5024 H   0  0  0  0  0  0  0  0  0  0  0  0
  -31.0266   62.4078   56.8360 H   0  0  0  0  0  0  0  0  0  0  0  0
  -29.5054   63.0987   57.3833 H   0  0  0  0  0  0  0  0  0  0  0  0
  -30.1609   62.7452   59.6963 H   0  0  0  0  0  0  0  0  0  0  0  0
  -31.6992   62.0490   59.1181 H   0  0  0  0  0  0  0  0  0  0  0  0
  -32.3619   64.1699   58.2295 H   0  0  0  0  0  0  0  0  0  0  0  0
  -30.8251   64.8739   58.7730 H   0  0  0  0  0  0  0  0  0  0  0  0
  -32.9772   63.7974   60.5551 H   0  0  0  0  0  0  0  0  0  0  0  0
  -32.6209   65.4859   60.2810 H   0  0  0  0  0  0  0  0  0  0  0  0
  -31.4493   64.4640   61.0786 H   0  0  0  0  0  0  0  0  0  0  0  0
  -36.2294   63.0536   64.0919 H   0  0  0  0  0  0  0  0  0  0  0  0
  -37.8075   64.8385   65.9209 H   0  0  0  0  0  0  0  0  0  0  0  0
  -36.0169   65.6040   63.6787 H   0  0  0  0  0  0  0  0  0  0  0  0
  -34.6703   66.5692   65.5474 H   0  0  0  0  0  0  0  0  0  0  0  0
  -34.2432   64.1505   65.0592 H   0  0  0  0  0  0  0  0  0  0  0  0
  -33.2045   63.8834   67.2736 H   0  0  0  0  0  0  0  0  0  0  0  0
  -33.1949   65.5888   66.8881 H   0  0  0  0  0  0  0  0  0  0  0  0
  1  4  1  0  0  0  0
  1 31  1  0  0  0  0
  1 56  1  0  0  0  0
  2  3  1  0  0  0  0
  2  4  1  0  0  0  0
  2 57  1  0  0  0  0
  2 58  1  0  0  0  0
  3 49  1  0  0  0  0
  4  6  1  0  0  0  0
  4 59  1  1  0  0  0
  5  6  1  0  0  0  0
  5 60  1  0  0  0  0
  6  8  1  0  0  0  0
  6 61  1  1  0  0  0
  7 31  2  0  0  0  0
  8  9  2  0  0  0  0
  8 62  1  0  0  0  0
  9 11  1  0  0  0  0
  9 63  1  0  0  0  0
 10 50  1  0  0  0  0
 10 64  1  0  0  0  0
 11 13  1  0  0  0  0
 11 65  1  0  0  0  0
 11 66  1  0  0  0  0
 12 51  1  0  0  0  0
 12 55  1  0  0  0  0
 13 15  1  0  0  0  0
 13 67  1  0  0  0  0
 13 68  1  0  0  0  0
 14 55  1  0  0  0  0
 14 69  1  0  0  0  0
 15 17  1  0  0  0  0
 15 70  1  0  0  0  0
 15 71  1  0  0  0  0
 16 52  1  0  0  0  0
 16 72  1  0  0  0  0
 17 19  1  0  0  0  0
 17 73  1  0  0  0  0
 17 74  1  0  0  0  0
 18 49  1  0  0  0  0
 18 53  1  0  0  0  0
 19 21  1  0  0  0  0
 19 75  1  0  0  0  0
 19 76  1  0  0  0  0
 20 54  1  0  0  0  0
 20 77  1  0  0  0  0
 21 22  1  0  0  0  0
 21 78  1  0  0  0  0
 21 79  1  0  0  0  0
 22 23  1  0  0  0  0
 22 80  1  0  0  0  0
 22 81  1  0  0  0  0
 23 25  1  0  0  0  0
 23 82  1  0  0  0  0
 23 83  1  0  0  0  0
 24 55  1  0  0  0  0
 25 27  1  0  0  0  0
 25 84  1  0  0  0  0
 25 85  1  0  0  0  0
 26 55  1  0  0  0  0
 26 86  1  0  0  0  0
 27 28  1  0  0  0  0
 27 87  1  0  0  0  0
 27 88  1  0  0  0  0
 28 29  1  0  0  0  0
 28 89  1  0  0  0  0
 28 90  1  0  0  0  0
 29 30  1  0  0  0  0
 29 91  1  0  0  0  0
 29 92  1  0  0  0  0
 30 93  1  0  0  0  0
 30 94  1  0  0  0  0
 30 95  1  0  0  0  0
 31 32  1  0  0  0  0
 32 33  1  0  0  0  0
 32 96  1  0  0  0  0
 32 97  1  0  0  0  0
 33 34  1  0  0  0  0
 33 98  1  0  0  0  0
 33 99  1  0  0  0  0
 34 35  1  0  0  0  0
 34100  1  0  0  0  0
 34101  1  0  0  0  0
 35 36  1  0  0  0  0
 35102  1  0  0  0  0
 35103  1  0  0  0  0
 36 37  1  0  0  0  0
 36104  1  0  0  0  0
 36105  1  0  0  0  0
 37 38  1  0  0  0  0
 37106  1  0  0  0  0
 37107  1  0  0  0  0
 38 39  1  0  0  0  0
 38108  1  0  0  0  0
 38109  1  0  0  0  0
 39 40  1  0  0  0  0
 39110  1  0  0  0  0
 39111  1  0  0  0  0
 40 41  1  0  0  0  0
 40112  1  0  0  0  0
 40113  1  0  0  0  0
 41 42  1  0  0  0  0
 41114  1  0  0  0  0
 41115  1  0  0  0  0
 42 43  1  0  0  0  0
 42116  1  0  0  0  0
 42117  1  0  0  0  0
 43 44  1  0  0  0  0
 43118  1  0  0  0  0
 43119  1  0  0  0  0
 44 45  1  0  0  0  0
 44120  1  0  0  0  0
 44121  1  0  0  0  0
 45 46  1  0  0  0  0
 45122  1  0  0  0  0
 45123  1  0  0  0  0
 46 47  1  0  0  0  0
 46124  1  0  0  0  0
 46125  1  0  0  0  0
 47 48  1  0  0  0  0
 47126  1  0  0  0  0
 47127  1  0  0  0  0
 48128  1  0  0  0  0
 48129  1  0  0  0  0
 48130  1  0  0  0  0
 49 50  1  0  0  0  0
 49131  1  6  0  0  0
 50 51  1  0  0  0  0
 50132  1  1  0  0  0
 51 52  1  0  0  0  0
 51133  1  6  0  0  0
 52 53  1  0  0  0  0
 52134  1  6  0  0  0
 53 54  1  0  0  0  0
 53135  1  6  0  0  0
 54136  1  0  0  0  0
 54137  1  0  0  0  0
M  CHG  1  24  -1
M  END
$$$$