/media/chris/experiments/cd1a-new-docking/inputs/ligands/1onq_ligand.pdb
 OpenBabel06222310383D

137137  0  0  1  0  0  0  0  0999 V2000
  -40.4920   60.2280   63.6270 N   0  0  0  0  0  0  0  0  0  0  0  0
  -38.5950   61.7730   64.2860 C   0  0  0  0  0  0  0  0  0  0  0  0
  -39.2927   63.0412   64.1953 O   0  0  0  0  0  0  0  0  0  0  0  0
  -39.4590   60.5300   64.5980 C   0  0  1  0  0  0  0  0  0  0  0  0
  -40.7577   59.2290   66.0180 O   0  0  0  0  0  0  0  0  0  0  0  0
  -40.2280   60.5370   65.9080 C   0  0  2  0  0  0  0  0  0  0  0  0
  -41.6768   60.5954   61.7273 O   0  0  0  0  0  0  0  0  0  0  0  0
  -41.3266   61.6007   65.8452 C   0  0  0  0  0  0  0  0  0  0  0  0
  -42.6327   61.3127   65.9778 C   0  0  0  0  0  0  0  0  0  0  0  0
  -38.1319   64.8001   66.1282 O   0  0  0  0  0  0  0  0  0  0  0  0
  -43.6696   62.4318   65.9021 C   0  0  0  0  0  0  0  0  0  0  0  0
  -35.8105   66.5213   65.4811 O   0  0  0  0  0  0  0  0  0  0  0  0
  -43.9980   63.0679   67.2607 C   0  0  0  0  0  0  0  0  0  0  0  0
  -33.9865   68.1200   66.3947 O   0  0  0  0  0  0  0  0  0  0  0  0
  -44.5543   62.1083   68.3288 C   0  0  0  0  0  0  0  0  0  0  0  0
  -35.0919   65.0709   63.2850 O   0  0  0  0  0  0  0  0  0  0  0  0
  -44.8616   62.8671   69.6423 C   0  0  0  0  0  0  0  0  0  0  0  0
  -37.9181   64.2390   62.5950 O   0  0  0  0  0  0  0  0  0  0  0  0
  -43.6507   63.5840   70.2912 C   0  0  0  0  0  0  0  0  0  0  0  0
  -35.4059   64.4089   61.0951 O   0  0  0  0  0  0  0  0  0  0  0  0
  -43.0042   64.6693   69.3984 C   0  0  0  0  0  0  0  0  0  0  0  0
  -41.7888   65.3626   70.0513 C   0  0  0  0  0  0  0  0  0  0  0  0
  -42.1149   66.0626   71.3761 C   0  0  0  0  0  0  0  0  0  0  0  0
  -36.0411   69.0408   65.4892 O   0  5  0  0  0  0  0  0  0  0  0  0
  -40.9531   66.7805   72.0597 C   0  0  0  0  0  0  0  0  0  0  0  0
  -34.3443   68.1529   64.0037 O   0  0  0  0  0  0  0  0  0  0  0  0
  -39.7669   65.8602   72.4086 C   0  0  0  0  0  0  0  0  0  0  0  0
  -40.0996   64.6906   73.3474 C   0  0  0  0  0  0  0  0  0  0  0  0
  -40.6524   65.1973   74.6826 C   0  0  0  0  0  0  0  0  0  0  0  0
  -41.0073   64.1389   75.7118 C   0  0  0  0  0  0  0  0  0  0  0  0
  -40.7863   60.8910   62.5003 C   0  0  0  0  0  0  0  0  0  0  0  0
  -39.9258   62.0873   62.2211 C   0  0  0  0  0  0  0  0  0  0  0  0
  -40.4394   62.6955   60.9159 C   0  0  0  0  0  0  0  0  0  0  0  0
  -41.8964   63.1223   61.0773 C   0  0  0  0  0  0  0  0  0  0  0  0
  -42.5489   63.7287   59.8587 C   0  0  0  0  0  0  0  0  0  0  0  0
  -43.9797   64.0968   60.2372 C   0  0  0  0  0  0  0  0  0  0  0  0
  -44.7992   62.8868   60.7053 C   0  0  0  0  0  0  0  0  0  0  0  0
  -46.2557   63.2165   61.0801 C   0  0  0  0  0  0  0  0  0  0  0  0
  -46.3624   64.2562   62.2172 C   0  0  0  0  0  0  0  0  0  0  0  0
  -47.8290   64.5328   62.5602 C   0  0  0  0  0  0  0  0  0  0  0  0
  -48.6177   63.3219   63.0437 C   0  0  0  0  0  0  0  0  0  0  0  0
  -48.0360   62.7249   64.3167 C   0  0  0  0  0  0  0  0  0  0  0  0
  -48.7545   61.4915   64.8687 C   0  0  0  0  0  0  0  0  0  0  0  0
  -50.1984   61.8744   65.1639 C   0  0  0  0  0  0  0  0  0  0  0  0
  -50.4671   62.9961   66.1563 C   0  0  0  0  0  0  0  0  0  0  0  0
  -51.9767   63.2232   66.3340 C   0  0  0  0  0  0  0  0  0  0  0  0
  -52.3415   64.3557   67.3114 C   0  0  0  0  0  0  0  0  0  0  0  0
  -53.8470   64.5462   67.4803 C   0  0  0  0  0  0  0  0  0  0  0  0
  -38.5707   64.2916   63.8868 C   0  0  2  0  0  0  0  0  0  0  0  0
  -37.4907   64.7142   64.8931 C   0  0  1  0  0  0  0  0  0  0  0  0
  -36.8543   66.0862   64.5805 C   0  0  2  0  0  0  0  0  0  0  0  0
  -36.2105   65.9527   63.2280 C   0  0  2  0  0  0  0  0  0  0  0  0
  -37.2331   65.4640   62.2183 C   0  0  1  0  0  0  0  0  0  0  0  0
  -36.3892   65.3888   60.9478 C   0  0  0  0  0  0  0  0  0  0  0  0
  -35.0154   67.9755   65.3227 S   0  0  0  0  0  0  0  0  0  0  0  0
  -41.0464   59.4375   63.8192 H   0  0  0  0  0  0  0  0  0  0  0  0
  -37.8608   61.8607   65.0594 H   0  0  0  0  0  0  0  0  0  0  0  0
  -38.1940   61.6005   63.3091 H   0  0  0  0  0  0  0  0  0  0  0  0
  -38.6677   59.8099   64.6092 H   0  0  0  0  0  0  0  0  0  0  0  0
  -40.0308   58.5878   66.0547 H   0  0  0  0  0  0  0  0  0  0  0  0
  -39.6247   60.7776   66.7583 H   0  0  0  0  0  0  0  0  0  0  0  0
  -41.0520   62.5840   65.6941 H   0  0  0  0  0  0  0  0  0  0  0  0
  -42.9343   60.3376   66.1304 H   0  0  0  0  0  0  0  0  0  0  0  0
  -38.5384   63.9457   66.3416 H   0  0  0  0  0  0  0  0  0  0  0  0
  -44.5717   62.0282   65.4920 H   0  0  0  0  0  0  0  0  0  0  0  0
  -43.2500   63.2034   65.2909 H   0  0  0  0  0  0  0  0  0  0  0  0
  -44.7253   63.8356   67.0973 H   0  0  0  0  0  0  0  0  0  0  0  0
  -43.0675   63.4278   67.6474 H   0  0  0  0  0  0  0  0  0  0  0  0
  -34.4056   68.0074   67.2623 H   0  0  0  0  0  0  0  0  0  0  0  0
  -43.8308   61.3450   68.5257 H   0  0  0  0  0  0  0  0  0  0  0  0
  -45.4616   61.6756   67.9622 H   0  0  0  0  0  0  0  0  0  0  0  0
  -34.4523   65.4016   63.9350 H   0  0  0  0  0  0  0  0  0  0  0  0
  -45.2462   62.1620   70.3493 H   0  0  0  0  0  0  0  0  0  0  0  0
  -45.5578   63.6373   69.3833 H   0  0  0  0  0  0  0  0  0  0  0  0
  -42.9070   62.8487   70.5174 H   0  0  0  0  0  0  0  0  0  0  0  0
  -44.0192   64.0824   71.1634 H   0  0  0  0  0  0  0  0  0  0  0  0
  -34.8714   64.3631   60.2870 H   0  0  0  0  0  0  0  0  0  0  0  0
  -43.7422   65.4133   69.1821 H   0  0  0  0  0  0  0  0  0  0  0  0
  -42.6496   64.1795   68.5157 H   0  0  0  0  0  0  0  0  0  0  0  0
  -41.4097   66.0934   69.3678 H   0  0  0  0  0  0  0  0  0  0  0  0
  -41.0735   64.5975   70.2703 H   0  0  0  0  0  0  0  0  0  0  0  0
  -42.4865   65.3228   72.0539 H   0  0  0  0  0  0  0  0  0  0  0  0
  -42.8215   66.8277   71.1308 H   0  0  0  0  0  0  0  0  0  0  0  0
  -41.3154   67.2206   72.9652 H   0  0  0  0  0  0  0  0  0  0  0  0
  -40.5872   67.5085   71.3661 H   0  0  0  0  0  0  0  0  0  0  0  0
  -33.6735   67.4621   63.8867 H   0  0  0  0  0  0  0  0  0  0  0  0
  -39.0122   66.4564   72.8774 H   0  0  0  0  0  0  0  0  0  0  0  0
  -39.4520   65.4195   71.4858 H   0  0  0  0  0  0  0  0  0  0  0  0
  -39.2101   64.1244   73.5295 H   0  0  0  0  0  0  0  0  0  0  0  0
  -40.8440   64.0803   72.8803 H   0  0  0  0  0  0  0  0  0  0  0  0
  -41.5386   65.7600   74.4754 H   0  0  0  0  0  0  0  0  0  0  0  0
  -39.8590   65.7657   75.1213 H   0  0  0  0  0  0  0  0  0  0  0  0
  -41.8015   63.5282   75.3361 H   0  0  0  0  0  0  0  0  0  0  0  0
  -41.3205   64.6135   76.6181 H   0  0  0  0  0  0  0  0  0  0  0  0
  -40.1499   63.5290   75.9064 H   0  0  0  0  0  0  0  0  0  0  0  0
  -38.9034   61.7905   62.1136 H   0  0  0  0  0  0  0  0  0  0  0  0
  -39.9735   62.7943   63.0229 H   0  0  0  0  0  0  0  0  0  0  0  0
  -40.3675   61.9688   60.1339 H   0  0  0  0  0  0  0  0  0  0  0  0
  -39.8473   63.5522   60.6704 H   0  0  0  0  0  0  0  0  0  0  0  0
  -41.9402   63.8448   61.8654 H   0  0  0  0  0  0  0  0  0  0  0  0
  -42.4395   62.2222   61.2765 H   0  0  0  0  0  0  0  0  0  0  0  0
  -42.5543   63.0201   59.0570 H   0  0  0  0  0  0  0  0  0  0  0  0
  -42.0106   64.5954   59.5361 H   0  0  0  0  0  0  0  0  0  0  0  0
  -44.4602   64.5256   59.3826 H   0  0  0  0  0  0  0  0  0  0  0  0
  -43.9304   64.7882   61.0523 H   0  0  0  0  0  0  0  0  0  0  0  0
  -44.3183   62.4682   61.5646 H   0  0  0  0  0  0  0  0  0  0  0  0
  -44.8410   62.2066   59.8803 H   0  0  0  0  0  0  0  0  0  0  0  0
  -46.7397   62.3156   61.3946 H   0  0  0  0  0  0  0  0  0  0  0  0
  -46.7228   63.6378   60.2145 H   0  0  0  0  0  0  0  0  0  0  0  0
  -45.8966   65.1675   61.9050 H   0  0  0  0  0  0  0  0  0  0  0  0
  -45.8726   63.8683   63.0859 H   0  0  0  0  0  0  0  0  0  0  0  0
  -48.3090   64.9125   61.6825 H   0  0  0  0  0  0  0  0  0  0  0  0
  -47.8195   65.2274   63.3741 H   0  0  0  0  0  0  0  0  0  0  0  0
  -48.6064   62.5754   62.2772 H   0  0  0  0  0  0  0  0  0  0  0  0
  -49.6145   63.6453   63.2596 H   0  0  0  0  0  0  0  0  0  0  0  0
  -48.0573   63.4818   65.0727 H   0  0  0  0  0  0  0  0  0  0  0  0
  -47.0525   62.3933   64.0565 H   0  0  0  0  0  0  0  0  0  0  0  0
  -48.2751   61.1653   65.7680 H   0  0  0  0  0  0  0  0  0  0  0  0
  -48.7219   60.6946   64.1554 H   0  0  0  0  0  0  0  0  0  0  0  0
  -50.6865   60.9989   65.5382 H   0  0  0  0  0  0  0  0  0  0  0  0
  -50.5618   62.2575   64.2333 H   0  0  0  0  0  0  0  0  0  0  0  0
  -50.0176   63.8977   65.7957 H   0  0  0  0  0  0  0  0  0  0  0  0
  -50.0495   62.7220   67.1025 H   0  0  0  0  0  0  0  0  0  0  0  0
  -52.4107   62.3152   66.6976 H   0  0  0  0  0  0  0  0  0  0  0  0
  -52.3555   63.5138   65.3764 H   0  0  0  0  0  0  0  0  0  0  0  0
  -51.9226   65.2693   66.9441 H   0  0  0  0  0  0  0  0  0  0  0  0
  -51.9465   64.0874   68.2690 H   0  0  0  0  0  0  0  0  0  0  0  0
  -54.2801   64.8166   66.5400 H   0  0  0  0  0  0  0  0  0  0  0  0
  -54.0305   65.3223   68.1937 H   0  0  0  0  0  0  0  0  0  0  0  0
  -54.2855   63.6334   67.8257 H   0  0  0  0  0  0  0  0  0  0  0  0
  -39.3601   65.0133   63.9196 H   0  0  0  0  0  0  0  0  0  0  0  0
  -36.6950   63.9994   64.8633 H   0  0  0  0  0  0  0  0  0  0  0  0
  -37.6410   66.8071   64.6593 H   0  0  0  0  0  0  0  0  0  0  0  0
  -35.8531   66.9127   62.9190 H   0  0  0  0  0  0  0  0  0  0  0  0
  -38.0829   66.1058   62.1143 H   0  0  0  0  0  0  0  0  0  0  0  0
  -37.0171   65.1411   60.1175 H   0  0  0  0  0  0  0  0  0  0  0  0
  -35.9231   66.3363   60.7746 H   0  0  0  0  0  0  0  0  0  0  0  0
  1  4  1  0  0  0  0
  1 31  1  0  0  0  0
  1 56  1  0  0  0  0
  2  3  1  0  0  0  0
  2  4  1  0  0  0  0
  2 57  1  0  0  0  0
  2 58  1  0  0  0  0
  3 49  1  0  0  0  0
  4  6  1  0  0  0  0
  4 59  1  1  0  0  0
  5  6  1  0  0  0  0
  5 60  1  0  0  0  0
  6  8  1  0  0  0  0
  6 61  1  1  0  0  0
  7 31  2  0  0  0  0
  8  9  2  0  0  0  0
  8 62  1  0  0  0  0
  9 11  1  0  0  0  0
  9 63  1  0  0  0  0
 10 50  1  0  0  0  0
 10 64  1  0  0  0  0
 11 13  1  0  0  0  0
 11 65  1  0  0  0  0
 11 66  1  0  0  0  0
 12 51  1  0  0  0  0
 12 55  1  0  0  0  0
 13 15  1  0  0  0  0
 13 67  1  0  0  0  0
 13 68  1  0  0  0  0
 14 55  1  0  0  0  0
 14 69  1  0  0  0  0
 15 17  1  0  0  0  0
 15 70  1  0  0  0  0
 15 71  1  0  0  0  0
 16 52  1  0  0  0  0
 16 72  1  0  0  0  0
 17 19  1  0  0  0  0
 17 73  1  0  0  0  0
 17 74  1  0  0  0  0
 18 49  1  0  0  0  0
 18 53  1  0  0  0  0
 19 21  1  0  0  0  0
 19 75  1  0  0  0  0
 19 76  1  0  0  0  0
 20 54  1  0  0  0  0
 20 77  1  0  0  0  0
 21 22  1  0  0  0  0
 21 78  1  0  0  0  0
 21 79  1  0  0  0  0
 22 23  1  0  0  0  0
 22 80  1  0  0  0  0
 22 81  1  0  0  0  0
 23 25  1  0  0  0  0
 23 82  1  0  0  0  0
 23 83  1  0  0  0  0
 24 55  1  0  0  0  0
 25 27  1  0  0  0  0
 25 84  1  0  0  0  0
 25 85  1  0  0  0  0
 26 55  1  0  0  0  0
 26 86  1  0  0  0  0
 27 28  1  0  0  0  0
 27 87  1  0  0  0  0
 27 88  1  0  0  0  0
 28 29  1  0  0  0  0
 28 89  1  0  0  0  0
 28 90  1  0  0  0  0
 29 30  1  0  0  0  0
 29 91  1  0  0  0  0
 29 92  1  0  0  0  0
 30 93  1  0  0  0  0
 30 94  1  0  0  0  0
 30 95  1  0  0  0  0
 31 32  1  0  0  0  0
 32 33  1  0  0  0  0
 32 96  1  0  0  0  0
 32 97  1  0  0  0  0
 33 34  1  0  0  0  0
 33 98  1  0  0  0  0
 33 99  1  0  0  0  0
 34 35  1  0  0  0  0
 34100  1  0  0  0  0
 34101  1  0  0  0  0
 35 36  1  0  0  0  0
 35102  1  0  0  0  0
 35103  1  0  0  0  0
 36 37  1  0  0  0  0
 36104  1  0  0  0  0
 36105  1  0  0  0  0
 37 38  1  0  0  0  0
 37106  1  0  0  0  0
 37107  1  0  0  0  0
 38 39  1  0  0  0  0
 38108  1  0  0  0  0
 38109  1  0  0  0  0
 39 40  1  0  0  0  0
 39110  1  0  0  0  0
 39111  1  0  0  0  0
 40 41  1  0  0  0  0
 40112  1  0  0  0  0
 40113  1  0  0  0  0
 41 42  1  0  0  0  0
 41114  1  0  0  0  0
 41115  1  0  0  0  0
 42 43  1  0  0  0  0
 42116  1  0  0  0  0
 42117  1  0  0  0  0
 43 44  1  0  0  0  0
 43118  1  0  0  0  0
 43119  1  0  0  0  0
 44 45  1  0  0  0  0
 44120  1  0  0  0  0
 44121  1  0  0  0  0
 45 46  1  0  0  0  0
 45122  1  0  0  0  0
 45123  1  0  0  0  0
 46 47  1  0  0  0  0
 46124  1  0  0  0  0
 46125  1  0  0  0  0
 47 48  1  0  0  0  0
 47126  1  0  0  0  0
 47127  1  0  0  0  0
 48128  1  0  0  0  0
 48129  1  0  0  0  0
 48130  1  0  0  0  0
 49 50  1  0  0  0  0
 49131  1  6  0  0  0
 50 51  1  0  0  0  0
 50132  1  1  0  0  0
 51 52  1  0  0  0  0
 51133  1  6  0  0  0
 52 53  1  0  0  0  0
 52134  1  6  0  0  0
 53 54  1  0  0  0  0
 53135  1  6  0  0  0
 54136  1  0  0  0  0
 54137  1  0  0  0  0
M  CHG  1  24  -1
M  END
$$$$