/media/chris/experiments/cd1a-new-docking/inputs/ligands/1onq_ligand.pdb
 OpenBabel06222310383D

137137  0  0  1  0  0  0  0  0999 V2000
  -40.4920   60.2280   63.6270 N   0  0  0  0  0  0  0  0  0  0  0  0
  -38.5950   61.7730   64.2860 C   0  0  0  0  0  0  0  0  0  0  0  0
  -37.5441   62.0867   65.2349 O   0  0  0  0  0  0  0  0  0  0  0  0
  -39.4590   60.5300   64.5980 C   0  0  1  0  0  0  0  0  0  0  0  0
  -40.7577   59.2290   66.0180 O   0  0  0  0  0  0  0  0  0  0  0  0
  -40.2280   60.5370   65.9080 C   0  0  2  0  0  0  0  0  0  0  0  0
  -39.2820   59.8772   61.7401 O   0  0  0  0  0  0  0  0  0  0  0  0
  -41.3266   61.6007   65.8452 C   0  0  0  0  0  0  0  0  0  0  0  0
  -41.3921   62.6366   66.6990 C   0  0  0  0  0  0  0  0  0  0  0  0
  -35.0677   62.0871   63.8049 O   0  0  0  0  0  0  0  0  0  0  0  0
  -42.5217   63.6569   66.5713 C   0  0  0  0  0  0  0  0  0  0  0  0
  -34.0199   64.5267   62.4933 O   0  0  0  0  0  0  0  0  0  0  0  0
  -42.1870   64.8436   65.6560 C   0  0  0  0  0  0  0  0  0  0  0  0
  -31.8452   65.6919   63.2869 O   0  0  0  0  0  0  0  0  0  0  0  0
  -40.9647   65.6825   66.0724 C   0  0  0  0  0  0  0  0  0  0  0  0
  -36.4318   65.8017   62.4860 O   0  0  0  0  0  0  0  0  0  0  0  0
  -41.1624   66.2759   67.4881 C   0  0  0  0  0  0  0  0  0  0  0  0
  -37.4137   64.5009   65.0354 O   0  0  0  0  0  0  0  0  0  0  0  0
  -39.9966   67.1563   68.0054 C   0  0  0  0  0  0  0  0  0  0  0  0
  -36.4467   68.0573   64.5825 O   0  0  0  0  0  0  0  0  0  0  0  0
  -39.7103   68.4031   67.1358 C   0  0  0  0  0  0  0  0  0  0  0  0
  -38.5355   69.2608   67.6538 C   0  0  0  0  0  0  0  0  0  0  0  0
  -38.7394   69.7922   69.0777 C   0  0  0  0  0  0  0  0  0  0  0  0
  -33.6225   67.0179   62.3011 O   0  5  0  0  0  0  0  0  0  0  0  0
  -39.9668   70.6746   69.2956 C   0  0  0  0  0  0  0  0  0  0  0  0
  -32.2187   65.6260   60.8989 O   0  0  0  0  0  0  0  0  0  0  0  0
  -39.9895   71.9426   68.4196 C   0  0  0  0  0  0  0  0  0  0  0  0
  -38.7970   72.8920   68.6107 C   0  0  0  0  0  0  0  0  0  0  0  0
  -38.9250   74.1239   67.7101 C   0  0  0  0  0  0  0  0  0  0  0  0
  -39.0006   73.8632   66.2161 C   0  0  0  0  0  0  0  0  0  0  0  0
  -40.3447   59.9361   62.3275 C   0  0  0  0  0  0  0  0  0  0  0  0
  -41.6199   59.6610   61.5872 C   0  0  0  0  0  0  0  0  0  0  0  0
  -41.7052   60.7009   60.4698 C   0  0  0  0  0  0  0  0  0  0  0  0
  -42.9913   60.5037   59.6710 C   0  0  0  0  0  0  0  0  0  0  0  0
  -43.2076   61.4525   58.5171 C   0  0  0  0  0  0  0  0  0  0  0  0
  -42.0528   61.2600   57.5396 C   0  0  0  0  0  0  0  0  0  0  0  0
  -41.9802   59.8324   56.9814 C   0  0  0  0  0  0  0  0  0  0  0  0
  -40.8154   59.5947   56.0030 C   0  0  0  0  0  0  0  0  0  0  0  0
  -40.8692   60.5217   54.7688 C   0  0  0  0  0  0  0  0  0  0  0  0
  -39.7001   60.2308   53.8235 C   0  0  0  0  0  0  0  0  0  0  0  0
  -38.3160   60.4069   54.4363 C   0  0  0  0  0  0  0  0  0  0  0  0
  -38.0868   59.4794   55.6205 C   0  0  0  0  0  0  0  0  0  0  0  0
  -36.7267   59.5977   56.3121 C   0  0  0  0  0  0  0  0  0  0  0  0
  -36.6819   58.5865   57.4497 C   0  0  0  0  0  0  0  0  0  0  0  0
  -37.7243   58.6842   58.5538 C   0  0  0  0  0  0  0  0  0  0  0  0
  -37.5053   57.5941   59.6148 C   0  0  0  0  0  0  0  0  0  0  0  0
  -36.1424   57.6619   60.3281 C   0  0  0  0  0  0  0  0  0  0  0  0
  -35.9210   58.9697   61.0845 C   0  0  0  0  0  0  0  0  0  0  0  0
  -36.6675   63.2597   65.0462 C   0  0  2  0  0  0  0  0  0  0  0  0
  -35.8119   63.2657   63.7712 C   0  0  1  0  0  0  0  0  0  0  0  0
  -34.8316   64.4561   63.6875 C   0  0  2  0  0  0  0  0  0  0  0  0
  -35.6781   65.6990   63.6916 C   0  0  2  0  0  0  0  0  0  0  0  0
  -36.5935   65.6931   64.9025 C   0  0  1  0  0  0  0  0  0  0  0  0
  -37.3535   67.0038   64.7114 C   0  0  0  0  0  0  0  0  0  0  0  0
  -32.8935   65.7229   62.2244 S   0  0  0  0  0  0  0  0  0  0  0  0
  -41.4169   60.2387   63.9642 H   0  0  0  0  0  0  0  0  0  0  0  0
  -38.1357   61.6183   63.3320 H   0  0  0  0  0  0  0  0  0  0  0  0
  -39.2690   62.6030   64.3261 H   0  0  0  0  0  0  0  0  0  0  0  0
  -38.6677   59.8099   64.6092 H   0  0  0  0  0  0  0  0  0  0  0  0
  -40.0308   58.5878   66.0547 H   0  0  0  0  0  0  0  0  0  0  0  0
  -39.6247   60.7776   66.7583 H   0  0  0  0  0  0  0  0  0  0  0  0
  -42.0502   61.5188   65.1139 H   0  0  0  0  0  0  0  0  0  0  0  0
  -40.6808   62.7424   67.4391 H   0  0  0  0  0  0  0  0  0  0  0  0
  -35.6681   61.3270   63.8576 H   0  0  0  0  0  0  0  0  0  0  0  0
  -42.7452   64.0361   67.5466 H   0  0  0  0  0  0  0  0  0  0  0  0
  -43.3521   63.1475   66.1287 H   0  0  0  0  0  0  0  0  0  0  0  0
  -43.0382   65.4915   65.6328 H   0  0  0  0  0  0  0  0  0  0  0  0
  -41.9397   64.4189   64.7055 H   0  0  0  0  0  0  0  0  0  0  0  0
  -32.2663   65.7541   64.1585 H   0  0  0  0  0  0  0  0  0  0  0  0
  -40.8323   66.4811   65.3727 H   0  0  0  0  0  0  0  0  0  0  0  0
  -40.1018   65.0499   66.0830 H   0  0  0  0  0  0  0  0  0  0  0  0
  -35.8283   65.8037   61.7266 H   0  0  0  0  0  0  0  0  0  0  0  0
  -41.2918   65.4634   68.1722 H   0  0  0  0  0  0  0  0  0  0  0  0
  -42.0138   66.9206   67.4227 H   0  0  0  0  0  0  0  0  0  0  0  0
  -39.1107   66.5569   68.0346 H   0  0  0  0  0  0  0  0  0  0  0  0
  -40.2864   67.5145   68.9711 H   0  0  0  0  0  0  0  0  0  0  0  0
  -36.9318   68.8885   64.4613 H   0  0  0  0  0  0  0  0  0  0  0  0
  -40.5905   69.0113   67.1162 H   0  0  0  0  0  0  0  0  0  0  0  0
  -39.4373   68.0515   66.1628 H   0  0  0  0  0  0  0  0  0  0  0  0
  -38.4116   70.0958   66.9964 H   0  0  0  0  0  0  0  0  0  0  0  0
  -37.6734   68.6275   67.6775 H   0  0  0  0  0  0  0  0  0  0  0  0
  -37.8743   70.3647   69.3400 H   0  0  0  0  0  0  0  0  0  0  0  0
  -38.8949   68.9273   69.6880 H   0  0  0  0  0  0  0  0  0  0  0  0
  -39.9878   70.9744   70.3225 H   0  0  0  0  0  0  0  0  0  0  0  0
  -40.8206   70.0917   69.0196 H   0  0  0  0  0  0  0  0  0  0  0  0
  -31.7406   64.7841   60.8403 H   0  0  0  0  0  0  0  0  0  0  0  0
  -40.8838   72.4850   68.6456 H   0  0  0  0  0  0  0  0  0  0  0  0
  -39.9394   71.6038   67.4059 H   0  0  0  0  0  0  0  0  0  0  0  0
  -37.8939   72.3726   68.3666 H   0  0  0  0  0  0  0  0  0  0  0  0
  -38.7798   73.2160   69.6303 H   0  0  0  0  0  0  0  0  0  0  0  0
  -38.0743   74.7478   67.8890 H   0  0  0  0  0  0  0  0  0  0  0  0
  -39.8631   74.5688   67.9688 H   0  0  0  0  0  0  0  0  0  0  0  0
  -38.0871   73.4145   65.8857 H   0  0  0  0  0  0  0  0  0  0  0  0
  -39.1508   74.7882   65.6998 H   0  0  0  0  0  0  0  0  0  0  0  0
  -39.8171   73.2030   66.0102 H   0  0  0  0  0  0  0  0  0  0  0  0
  -42.4578   59.7563   62.2459 H   0  0  0  0  0  0  0  0  0  0  0  0
  -41.6317   58.6665   61.1925 H   0  0  0  0  0  0  0  0  0  0  0  0
  -40.8632   60.5914   59.8187 H   0  0  0  0  0  0  0  0  0  0  0  0
  -41.7056   61.6804   60.9005 H   0  0  0  0  0  0  0  0  0  0  0  0
  -43.8151   60.6151   60.3447 H   0  0  0  0  0  0  0  0  0  0  0  0
  -42.9114   59.5309   59.2326 H   0  0  0  0  0  0  0  0  0  0  0  0
  -43.2208   62.4618   58.8720 H   0  0  0  0  0  0  0  0  0  0  0  0
  -44.1432   61.2538   58.0374 H   0  0  0  0  0  0  0  0  0  0  0  0
  -41.1357   61.4762   58.0466 H   0  0  0  0  0  0  0  0  0  0  0  0
  -42.2147   61.9215   56.7143 H   0  0  0  0  0  0  0  0  0  0  0  0
  -42.8963   59.6257   56.4687 H   0  0  0  0  0  0  0  0  0  0  0  0
  -41.8166   59.1840   57.8168 H   0  0  0  0  0  0  0  0  0  0  0  0
  -40.8518   58.5788   55.6689 H   0  0  0  0  0  0  0  0  0  0  0  0
  -39.9071   59.8090   56.5265 H   0  0  0  0  0  0  0  0  0  0  0  0
  -40.8151   61.5404   55.0917 H   0  0  0  0  0  0  0  0  0  0  0  0
  -41.7865   60.3468   54.2463 H   0  0  0  0  0  0  0  0  0  0  0  0
  -39.7785   60.8918   52.9857 H   0  0  0  0  0  0  0  0  0  0  0  0
  -39.7802   59.1972   53.5588 H   0  0  0  0  0  0  0  0  0  0  0  0
  -38.2124   61.4192   54.7670 H   0  0  0  0  0  0  0  0  0  0  0  0
  -37.5926   60.1649   53.6860 H   0  0  0  0  0  0  0  0  0  0  0  0
  -38.1907   58.4728   55.2728 H   0  0  0  0  0  0  0  0  0  0  0  0
  -38.8098   59.7658   56.3553 H   0  0  0  0  0  0  0  0  0  0  0  0
  -36.6031   60.5866   56.7014 H   0  0  0  0  0  0  0  0  0  0  0  0
  -35.9390   59.4040   55.6142 H   0  0  0  0  0  0  0  0  0  0  0  0
  -35.7219   58.6763   57.9137 H   0  0  0  0  0  0  0  0  0  0  0  0
  -36.8923   57.6509   56.9750 H   0  0  0  0  0  0  0  0  0  0  0  0
  -38.6984   58.5666   58.1269 H   0  0  0  0  0  0  0  0  0  0  0  0
  -37.6346   59.6411   59.0241 H   0  0  0  0  0  0  0  0  0  0  0  0
  -37.5847   56.6406   59.1356 H   0  0  0  0  0  0  0  0  0  0  0  0
  -38.2505   57.7476   60.3671 H   0  0  0  0  0  0  0  0  0  0  0  0
  -35.3699   57.5585   59.5951 H   0  0  0  0  0  0  0  0  0  0  0  0
  -36.1224   56.8715   61.0491 H   0  0  0  0  0  0  0  0  0  0  0  0
  -35.9344   59.7874   60.3946 H   0  0  0  0  0  0  0  0  0  0  0  0
  -34.9741   58.9381   61.5819 H   0  0  0  0  0  0  0  0  0  0  0  0
  -36.6993   59.0999   61.8071 H   0  0  0  0  0  0  0  0  0  0  0  0
  -36.0127   63.1808   65.8888 H   0  0  0  0  0  0  0  0  0  0  0  0
  -36.4595   63.3487   62.9234 H   0  0  0  0  0  0  0  0  0  0  0  0
  -34.1533   64.3446   64.5075 H   0  0  0  0  0  0  0  0  0  0  0  0
  -35.0370   66.5538   63.7488 H   0  0  0  0  0  0  0  0  0  0  0  0
  -36.0767   65.6460   65.8383 H   0  0  0  0  0  0  0  0  0  0  0  0
  -37.9544   66.9413   63.8283 H   0  0  0  0  0  0  0  0  0  0  0  0
  -37.9810   67.1774   65.5606 H   0  0  0  0  0  0  0  0  0  0  0  0
  1  4  1  0  0  0  0
  1 31  1  0  0  0  0
  1 56  1  0  0  0  0
  2  3  1  0  0  0  0
  2  4  1  0  0  0  0
  2 57  1  0  0  0  0
  2 58  1  0  0  0  0
  3 49  1  0  0  0  0
  4  6  1  0  0  0  0
  4 59  1  1  0  0  0
  5  6  1  0  0  0  0
  5 60  1  0  0  0  0
  6  8  1  0  0  0  0
  6 61  1  1  0  0  0
  7 31  2  0  0  0  0
  8  9  2  0  0  0  0
  8 62  1  0  0  0  0
  9 11  1  0  0  0  0
  9 63  1  0  0  0  0
 10 50  1  0  0  0  0
 10 64  1  0  0  0  0
 11 13  1  0  0  0  0
 11 65  1  0  0  0  0
 11 66  1  0  0  0  0
 12 51  1  0  0  0  0
 12 55  1  0  0  0  0
 13 15  1  0  0  0  0
 13 67  1  0  0  0  0
 13 68  1  0  0  0  0
 14 55  1  0  0  0  0
 14 69  1  0  0  0  0
 15 17  1  0  0  0  0
 15 70  1  0  0  0  0
 15 71  1  0  0  0  0
 16 52  1  0  0  0  0
 16 72  1  0  0  0  0
 17 19  1  0  0  0  0
 17 73  1  0  0  0  0
 17 74  1  0  0  0  0
 18 49  1  0  0  0  0
 18 53  1  0  0  0  0
 19 21  1  0  0  0  0
 19 75  1  0  0  0  0
 19 76  1  0  0  0  0
 20 54  1  0  0  0  0
 20 77  1  0  0  0  0
 21 22  1  0  0  0  0
 21 78  1  0  0  0  0
 21 79  1  0  0  0  0
 22 23  1  0  0  0  0
 22 80  1  0  0  0  0
 22 81  1  0  0  0  0
 23 25  1  0  0  0  0
 23 82  1  0  0  0  0
 23 83  1  0  0  0  0
 24 55  1  0  0  0  0
 25 27  1  0  0  0  0
 25 84  1  0  0  0  0
 25 85  1  0  0  0  0
 26 55  1  0  0  0  0
 26 86  1  0  0  0  0
 27 28  1  0  0  0  0
 27 87  1  0  0  0  0
 27 88  1  0  0  0  0
 28 29  1  0  0  0  0
 28 89  1  0  0  0  0
 28 90  1  0  0  0  0
 29 30  1  0  0  0  0
 29 91  1  0  0  0  0
 29 92  1  0  0  0  0
 30 93  1  0  0  0  0
 30 94  1  0  0  0  0
 30 95  1  0  0  0  0
 31 32  1  0  0  0  0
 32 33  1  0  0  0  0
 32 96  1  0  0  0  0
 32 97  1  0  0  0  0
 33 34  1  0  0  0  0
 33 98  1  0  0  0  0
 33 99  1  0  0  0  0
 34 35  1  0  0  0  0
 34100  1  0  0  0  0
 34101  1  0  0  0  0
 35 36  1  0  0  0  0
 35102  1  0  0  0  0
 35103  1  0  0  0  0
 36 37  1  0  0  0  0
 36104  1  0  0  0  0
 36105  1  0  0  0  0
 37 38  1  0  0  0  0
 37106  1  0  0  0  0
 37107  1  0  0  0  0
 38 39  1  0  0  0  0
 38108  1  0  0  0  0
 38109  1  0  0  0  0
 39 40  1  0  0  0  0
 39110  1  0  0  0  0
 39111  1  0  0  0  0
 40 41  1  0  0  0  0
 40112  1  0  0  0  0
 40113  1  0  0  0  0
 41 42  1  0  0  0  0
 41114  1  0  0  0  0
 41115  1  0  0  0  0
 42 43  1  0  0  0  0
 42116  1  0  0  0  0
 42117  1  0  0  0  0
 43 44  1  0  0  0  0
 43118  1  0  0  0  0
 43119  1  0  0  0  0
 44 45  1  0  0  0  0
 44120  1  0  0  0  0
 44121  1  0  0  0  0
 45 46  1  0  0  0  0
 45122  1  0  0  0  0
 45123  1  0  0  0  0
 46 47  1  0  0  0  0
 46124  1  0  0  0  0
 46125  1  0  0  0  0
 47 48  1  0  0  0  0
 47126  1  0  0  0  0
 47127  1  0  0  0  0
 48128  1  0  0  0  0
 48129  1  0  0  0  0
 48130  1  0  0  0  0
 49 50  1  0  0  0  0
 49131  1  1  0  0  0
 50 51  1  0  0  0  0
 50132  1  6  0  0  0
 51 52  1  0  0  0  0
 51133  1  1  0  0  0
 52 53  1  0  0  0  0
 52134  1  1  0  0  0
 53 54  1  0  0  0  0
 53135  1  1  0  0  0
 54136  1  0  0  0  0
 54137  1  0  0  0  0
M  CHG  1  24  -1
M  END
$$$$