/media/chris/experiments/cd1a-new-docking/inputs/ligands/1onq_ligand.pdb
 OpenBabel06222310383D

137137  0  0  1  0  0  0  0  0999 V2000
  -40.4920   60.2280   63.6270 N   0  0  0  0  0  0  0  0  0  0  0  0
  -38.5950   61.7730   64.2860 C   0  0  0  0  0  0  0  0  0  0  0  0
  -39.2927   63.0412   64.1953 O   0  0  0  0  0  0  0  0  0  0  0  0
  -39.4590   60.5300   64.5980 C   0  0  1  0  0  0  0  0  0  0  0  0
  -39.2569   60.8461   66.8904 O   0  0  0  0  0  0  0  0  0  0  0  0
  -40.2280   60.5370   65.9080 C   0  0  2  0  0  0  0  0  0  0  0  0
  -39.2820   59.8772   61.7401 O   0  0  0  0  0  0  0  0  0  0  0  0
  -40.8583   59.1606   66.1332 C   0  0  0  0  0  0  0  0  0  0  0  0
  -41.2344   58.3542   65.1259 C   0  0  0  0  0  0  0  0  0  0  0  0
  -40.3964   65.2906   62.8172 O   0  0  0  0  0  0  0  0  0  0  0  0
  -41.8578   56.9940   65.4332 C   0  0  0  0  0  0  0  0  0  0  0  0
  -39.3931   68.0416   63.2594 O   0  0  0  0  0  0  0  0  0  0  0  0
  -41.9874   56.6942   66.9337 C   0  0  0  0  0  0  0  0  0  0  0  0
  -41.2594   69.6187   62.3950 O   0  0  0  0  0  0  0  0  0  0  0  0
  -42.8658   57.6724   67.7354 C   0  0  0  0  0  0  0  0  0  0  0  0
  -38.1858   67.4358   65.6297 O   0  0  0  0  0  0  0  0  0  0  0  0
  -44.3180   57.6718   67.2000 C   0  0  0  0  0  0  0  0  0  0  0  0
  -37.5407   64.5807   64.8630 O   0  0  0  0  0  0  0  0  0  0  0  0
  -45.2908   58.6364   67.9243 C   0  0  0  0  0  0  0  0  0  0  0  0
  -36.4911   66.4567   66.8552 O   0  0  0  0  0  0  0  0  0  0  0  0
  -45.4429   58.3631   69.4392 C   0  0  0  0  0  0  0  0  0  0  0  0
  -45.9616   56.9450   69.7618 C   0  0  0  0  0  0  0  0  0  0  0  0
  -47.3329   56.6347   69.1496 C   0  0  0  0  0  0  0  0  0  0  0  0
  -41.7430   67.2649   62.7342 O   0  5  0  0  0  0  0  0  0  0  0  0
  -48.4788   57.5528   69.5694 C   0  0  0  0  0  0  0  0  0  0  0  0
  -40.4283   67.9769   60.8266 O   0  0  0  0  0  0  0  0  0  0  0  0
  -49.8371   57.1868   68.9392 C   0  0  0  0  0  0  0  0  0  0  0  0
  -50.3614   55.7842   69.2824 C   0  0  0  0  0  0  0  0  0  0  0  0
  -51.7030   55.5152   68.5949 C   0  0  0  0  0  0  0  0  0  0  0  0
  -52.3415   54.1644   68.8655 C   0  0  0  0  0  0  0  0  0  0  0  0
  -40.3447   59.9361   62.3275 C   0  0  0  0  0  0  0  0  0  0  0  0
  -41.6199   59.6610   61.5872 C   0  0  0  0  0  0  0  0  0  0  0  0
  -42.4612   60.9337   61.6856 C   0  0  0  0  0  0  0  0  0  0  0  0
  -42.7312   61.2685   63.1505 C   0  0  0  0  0  0  0  0  0  0  0  0
  -43.5692   62.4976   63.4065 C   0  0  0  0  0  0  0  0  0  0  0  0
  -44.9285   62.2730   62.7524 C   0  0  0  0  0  0  0  0  0  0  0  0
  -45.8755   63.4678   62.9276 C   0  0  0  0  0  0  0  0  0  0  0  0
  -45.3584   64.7801   62.3102 C   0  0  0  0  0  0  0  0  0  0  0  0
  -45.1376   64.6799   60.7848 C   0  0  0  0  0  0  0  0  0  0  0  0
  -44.6079   66.0043   60.2278 C   0  0  0  0  0  0  0  0  0  0  0  0
  -44.3698   66.0218   58.7227 C   0  0  0  0  0  0  0  0  0  0  0  0
  -43.8286   67.3592   58.2393 C   0  0  0  0  0  0  0  0  0  0  0  0
  -44.7111   68.5790   58.5140 C   0  0  0  0  0  0  0  0  0  0  0  0
  -44.0142   69.8079   57.9457 C   0  0  0  0  0  0  0  0  0  0  0  0
  -44.6843   71.1648   58.1041 C   0  0  0  0  0  0  0  0  0  0  0  0
  -43.8414   72.2735   57.4542 C   0  0  0  0  0  0  0  0  0  0  0  0
  -43.6155   72.0999   55.9409 C   0  0  0  0  0  0  0  0  0  0  0  0
  -44.9116   72.0937   55.1336 C   0  0  0  0  0  0  0  0  0  0  0  0
  -38.5707   64.2916   63.8868 C   0  0  2  0  0  0  0  0  0  0  0  0
  -39.4297   65.5603   63.7851 C   0  0  1  0  0  0  0  0  0  0  0  0
  -38.6385   66.8115   63.3449 C   0  0  2  0  0  0  0  0  0  0  0  0
  -37.5890   67.0373   64.3980 C   0  0  2  0  0  0  0  0  0  0  0  0
  -36.7643   65.7760   64.5802 C   0  0  1  0  0  0  0  0  0  0  0  0
  -35.7901   66.2089   65.6736 C   0  0  0  0  0  0  0  0  0  0  0  0
  -40.7155   68.2343   62.2663 S   0  0  0  0  0  0  0  0  0  0  0  0
  -41.4169   60.2387   63.9642 H   0  0  0  0  0  0  0  0  0  0  0  0
  -37.8608   61.8607   65.0594 H   0  0  0  0  0  0  0  0  0  0  0  0
  -38.1940   61.6005   63.3091 H   0  0  0  0  0  0  0  0  0  0  0  0
  -38.6677   59.8099   64.6092 H   0  0  0  0  0  0  0  0  0  0  0  0
  -38.8837   61.7234   66.7113 H   0  0  0  0  0  0  0  0  0  0  0  0
  -41.0317   61.2430   65.9299 H   0  0  0  0  0  0  0  0  0  0  0  0
  -41.0010   58.8369   67.1026 H   0  0  0  0  0  0  0  0  0  0  0  0
  -41.1023   58.6533   64.1471 H   0  0  0  0  0  0  0  0  0  0  0  0
  -40.9043   64.5062   63.0773 H   0  0  0  0  0  0  0  0  0  0  0  0
  -41.2474   56.2355   64.9895 H   0  0  0  0  0  0  0  0  0  0  0  0
  -42.8499   57.0091   65.0324 H   0  0  0  0  0  0  0  0  0  0  0  0
  -41.0054   56.7102   67.3584 H   0  0  0  0  0  0  0  0  0  0  0  0
  -42.4730   55.7432   67.0008 H   0  0  0  0  0  0  0  0  0  0  0  0
  -41.4526   69.8047   63.3272 H   0  0  0  0  0  0  0  0  0  0  0  0
  -42.4607   58.6590   67.6495 H   0  0  0  0  0  0  0  0  0  0  0  0
  -42.8776   57.3627   68.7595 H   0  0  0  0  0  0  0  0  0  0  0  0
  -38.7070   68.2420   65.4906 H   0  0  0  0  0  0  0  0  0  0  0  0
  -44.7051   56.6788   67.2952 H   0  0  0  0  0  0  0  0  0  0  0  0
  -44.2606   58.0140   66.1878 H   0  0  0  0  0  0  0  0  0  0  0  0
  -46.2546   58.5461   67.4685 H   0  0  0  0  0  0  0  0  0  0  0  0
  -44.8778   59.6189   67.8289 H   0  0  0  0  0  0  0  0  0  0  0  0
  -35.8702   66.7314   67.5479 H   0  0  0  0  0  0  0  0  0  0  0  0
  -46.1311   59.0753   69.8441 H   0  0  0  0  0  0  0  0  0  0  0  0
  -44.4684   58.4472   69.8730 H   0  0  0  0  0  0  0  0  0  0  0  0
  -46.0364   56.8465   70.8246 H   0  0  0  0  0  0  0  0  0  0  0  0
  -45.2656   56.2534   69.3349 H   0  0  0  0  0  0  0  0  0  0  0  0
  -47.5962   55.6353   69.4269 H   0  0  0  0  0  0  0  0  0  0  0  0
  -47.2175   56.7818   68.0961 H   0  0  0  0  0  0  0  0  0  0  0  0
  -48.2321   58.5530   69.2801 H   0  0  0  0  0  0  0  0  0  0  0  0
  -48.5895   57.4462   70.6283 H   0  0  0  0  0  0  0  0  0  0  0  0
  -39.7589   68.6050   60.5130 H   0  0  0  0  0  0  0  0  0  0  0  0
  -49.7367   57.2515   67.8759 H   0  0  0  0  0  0  0  0  0  0  0  0
  -50.5476   57.8765   69.3446 H   0  0  0  0  0  0  0  0  0  0  0  0
  -50.4900   55.7085   70.3420 H   0  0  0  0  0  0  0  0  0  0  0  0
  -49.6514   55.0616   68.9379 H   0  0  0  0  0  0  0  0  0  0  0  0
  -51.5500   55.5973   67.5391 H   0  0  0  0  0  0  0  0  0  0  0  0
  -52.3806   56.2365   69.0019 H   0  0  0  0  0  0  0  0  0  0  0  0
  -51.7120   53.3890   68.4815 H   0  0  0  0  0  0  0  0  0  0  0  0
  -53.2967   54.1188   68.3854 H   0  0  0  0  0  0  0  0  0  0  0  0
  -52.4657   54.0335   69.9201 H   0  0  0  0  0  0  0  0  0  0  0  0
  -42.1382   58.8395   62.0360 H   0  0  0  0  0  0  0  0  0  0  0  0
  -41.4273   59.4020   60.5671 H   0  0  0  0  0  0  0  0  0  0  0  0
  -43.3916   60.7835   61.1790 H   0  0  0  0  0  0  0  0  0  0  0  0
  -41.9282   61.7433   61.2324 H   0  0  0  0  0  0  0  0  0  0  0  0
  -41.7868   61.4102   63.6330 H   0  0  0  0  0  0  0  0  0  0  0  0
  -43.3006   60.4473   63.5331 H   0  0  0  0  0  0  0  0  0  0  0  0
  -43.0963   63.3571   62.9794 H   0  0  0  0  0  0  0  0  0  0  0  0
  -43.6808   62.6642   64.4576 H   0  0  0  0  0  0  0  0  0  0  0  0
  -45.3818   61.4097   63.1930 H   0  0  0  0  0  0  0  0  0  0  0  0
  -44.7643   62.1423   61.7032 H   0  0  0  0  0  0  0  0  0  0  0  0
  -46.0253   63.6262   63.9751 H   0  0  0  0  0  0  0  0  0  0  0  0
  -46.7797   63.2211   62.4115 H   0  0  0  0  0  0  0  0  0  0  0  0
  -44.4278   65.0324   62.7741 H   0  0  0  0  0  0  0  0  0  0  0  0
  -46.1031   65.5298   62.4785 H   0  0  0  0  0  0  0  0  0  0  0  0
  -46.0672   64.4455   60.3098 H   0  0  0  0  0  0  0  0  0  0  0  0
  -44.4181   63.9121   60.5906 H   0  0  0  0  0  0  0  0  0  0  0  0
  -43.6791   66.2206   60.7131 H   0  0  0  0  0  0  0  0  0  0  0  0
  -45.3674   66.7335   60.4184 H   0  0  0  0  0  0  0  0  0  0  0  0
  -45.2966   65.8255   58.2254 H   0  0  0  0  0  0  0  0  0  0  0  0
  -43.6396   65.2726   58.4981 H   0  0  0  0  0  0  0  0  0  0  0  0
  -43.6847   67.2909   57.1813 H   0  0  0  0  0  0  0  0  0  0  0  0
  -42.9286   67.5236   58.7941 H   0  0  0  0  0  0  0  0  0  0  0  0
  -44.8492   68.6961   59.5686 H   0  0  0  0  0  0  0  0  0  0  0  0
  -45.6696   68.4526   58.0556 H   0  0  0  0  0  0  0  0  0  0  0  0
  -43.8855   69.6405   56.8968 H   0  0  0  0  0  0  0  0  0  0  0  0
  -43.1185   69.8906   58.5252 H   0  0  0  0  0  0  0  0  0  0  0  0
  -44.8002   71.3785   59.1461 H   0  0  0  0  0  0  0  0  0  0  0  0
  -45.6380   71.1330   57.6200 H   0  0  0  0  0  0  0  0  0  0  0  0
  -42.8856   72.2918   57.9348 H   0  0  0  0  0  0  0  0  0  0  0  0
  -44.3893   73.1842   57.5776 H   0  0  0  0  0  0  0  0  0  0  0  0
  -43.1091   71.1716   55.7774 H   0  0  0  0  0  0  0  0  0  0  0  0
  -43.0391   72.9378   55.6084 H   0  0  0  0  0  0  0  0  0  0  0  0
  -45.5178   71.2664   55.4387 H   0  0  0  0  0  0  0  0  0  0  0  0
  -44.6827   72.0033   54.0923 H   0  0  0  0  0  0  0  0  0  0  0  0
  -45.4424   73.0069   55.3042 H   0  0  0  0  0  0  0  0  0  0  0  0
  -38.1706   64.0792   62.9174 H   0  0  0  0  0  0  0  0  0  0  0  0
  -39.8304   65.7822   64.7521 H   0  0  0  0  0  0  0  0  0  0  0  0
  -38.2799   66.6080   62.3576 H   0  0  0  0  0  0  0  0  0  0  0  0
  -36.9429   67.8280   64.0783 H   0  0  0  0  0  0  0  0  0  0  0  0
  -36.2694   65.4476   63.6902 H   0  0  0  0  0  0  0  0  0  0  0  0
  -35.0742   65.4315   65.8407 H   0  0  0  0  0  0  0  0  0  0  0  0
  -35.2854   67.1011   65.3665 H   0  0  0  0  0  0  0  0  0  0  0  0
  1  4  1  0  0  0  0
  1 31  1  0  0  0  0
  1 56  1  0  0  0  0
  2  3  1  0  0  0  0
  2  4  1  0  0  0  0
  2 57  1  0  0  0  0
  2 58  1  0  0  0  0
  3 49  1  0  0  0  0
  4  6  1  0  0  0  0
  4 59  1  1  0  0  0
  5  6  1  0  0  0  0
  5 60  1  0  0  0  0
  6  8  1  0  0  0  0
  6 61  1  6  0  0  0
  7 31  2  0  0  0  0
  8  9  2  0  0  0  0
  8 62  1  0  0  0  0
  9 11  1  0  0  0  0
  9 63  1  0  0  0  0
 10 50  1  0  0  0  0
 10 64  1  0  0  0  0
 11 13  1  0  0  0  0
 11 65  1  0  0  0  0
 11 66  1  0  0  0  0
 12 51  1  0  0  0  0
 12 55  1  0  0  0  0
 13 15  1  0  0  0  0
 13 67  1  0  0  0  0
 13 68  1  0  0  0  0
 14 55  1  0  0  0  0
 14 69  1  0  0  0  0
 15 17  1  0  0  0  0
 15 70  1  0  0  0  0
 15 71  1  0  0  0  0
 16 52  1  0  0  0  0
 16 72  1  0  0  0  0
 17 19  1  0  0  0  0
 17 73  1  0  0  0  0
 17 74  1  0  0  0  0
 18 49  1  0  0  0  0
 18 53  1  0  0  0  0
 19 21  1  0  0  0  0
 19 75  1  0  0  0  0
 19 76  1  0  0  0  0
 20 54  1  0  0  0  0
 20 77  1  0  0  0  0
 21 22  1  0  0  0  0
 21 78  1  0  0  0  0
 21 79  1  0  0  0  0
 22 23  1  0  0  0  0
 22 80  1  0  0  0  0
 22 81  1  0  0  0  0
 23 25  1  0  0  0  0
 23 82  1  0  0  0  0
 23 83  1  0  0  0  0
 24 55  1  0  0  0  0
 25 27  1  0  0  0  0
 25 84  1  0  0  0  0
 25 85  1  0  0  0  0
 26 55  1  0  0  0  0
 26 86  1  0  0  0  0
 27 28  1  0  0  0  0
 27 87  1  0  0  0  0
 27 88  1  0  0  0  0
 28 29  1  0  0  0  0
 28 89  1  0  0  0  0
 28 90  1  0  0  0  0
 29 30  1  0  0  0  0
 29 91  1  0  0  0  0
 29 92  1  0  0  0  0
 30 93  1  0  0  0  0
 30 94  1  0  0  0  0
 30 95  1  0  0  0  0
 31 32  1  0  0  0  0
 32 33  1  0  0  0  0
 32 96  1  0  0  0  0
 32 97  1  0  0  0  0
 33 34  1  0  0  0  0
 33 98  1  0  0  0  0
 33 99  1  0  0  0  0
 34 35  1  0  0  0  0
 34100  1  0  0  0  0
 34101  1  0  0  0  0
 35 36  1  0  0  0  0
 35102  1  0  0  0  0
 35103  1  0  0  0  0
 36 37  1  0  0  0  0
 36104  1  0  0  0  0
 36105  1  0  0  0  0
 37 38  1  0  0  0  0
 37106  1  0  0  0  0
 37107  1  0  0  0  0
 38 39  1  0  0  0  0
 38108  1  0  0  0  0
 38109  1  0  0  0  0
 39 40  1  0  0  0  0
 39110  1  0  0  0  0
 39111  1  0  0  0  0
 40 41  1  0  0  0  0
 40112  1  0  0  0  0
 40113  1  0  0  0  0
 41 42  1  0  0  0  0
 41114  1  0  0  0  0
 41115  1  0  0  0  0
 42 43  1  0  0  0  0
 42116  1  0  0  0  0
 42117  1  0  0  0  0
 43 44  1  0  0  0  0
 43118  1  0  0  0  0
 43119  1  0  0  0  0
 44 45  1  0  0  0  0
 44120  1  0  0  0  0
 44121  1  0  0  0  0
 45 46  1  0  0  0  0
 45122  1  0  0  0  0
 45123  1  0  0  0  0
 46 47  1  0  0  0  0
 46124  1  0  0  0  0
 46125  1  0  0  0  0
 47 48  1  0  0  0  0
 47126  1  0  0  0  0
 47127  1  0  0  0  0
 48128  1  0  0  0  0
 48129  1  0  0  0  0
 48130  1  0  0  0  0
 49 50  1  0  0  0  0
 49131  1  6  0  0  0
 50 51  1  0  0  0  0
 50132  1  1  0  0  0
 51 52  1  0  0  0  0
 51133  1  6  0  0  0
 52 53  1  0  0  0  0
 52134  1  6  0  0  0
 53 54  1  0  0  0  0
 53135  1  6  0  0  0
 54136  1  0  0  0  0
 54137  1  0  0  0  0
M  CHG  1  24  -1
M  END
$$$$