/media/chris/experiments/cd1a-new-docking/inputs/ligands/1onq_ligand.pdb
 OpenBabel06222310383D

137137  0  0  1  0  0  0  0  0999 V2000
  -40.4920   60.2280   63.6270 N   0  0  0  0  0  0  0  0  0  0  0  0
  -38.5950   61.7730   64.2860 C   0  0  0  0  0  0  0  0  0  0  0  0
  -37.5441   62.0867   65.2349 O   0  0  0  0  0  0  0  0  0  0  0  0
  -39.4590   60.5300   64.5980 C   0  0  1  0  0  0  0  0  0  0  0  0
  -41.2116   61.5409   65.7392 O   0  0  0  0  0  0  0  0  0  0  0  0
  -40.2280   60.5370   65.9080 C   0  0  2  0  0  0  0  0  0  0  0  0
  -41.8540   58.8360   62.4630 O   0  0  0  0  0  0  0  0  0  0  0  0
  -39.2689   60.8567   67.0571 C   0  0  0  0  0  0  0  0  0  0  0  0
  -39.6528   61.4987   68.1737 C   0  0  0  0  0  0  0  0  0  0  0  0
  -36.3260   63.5957   67.3365 O   0  0  0  0  0  0  0  0  0  0  0  0
  -38.6341   61.7818   69.2762 C   0  0  0  0  0  0  0  0  0  0  0  0
  -33.7882   65.0685   66.9357 O   0  0  0  0  0  0  0  0  0  0  0  0
  -37.9747   60.5202   69.8522 C   0  0  0  0  0  0  0  0  0  0  0  0
  -32.0570   66.4929   65.6354 O   0  0  0  0  0  0  0  0  0  0  0  0
  -38.9353   59.4930   70.4793 C   0  0  0  0  0  0  0  0  0  0  0  0
  -33.0907   63.6620   64.7045 O   0  0  0  0  0  0  0  0  0  0  0  0
  -38.1537   58.2796   71.0378 C   0  0  0  0  0  0  0  0  0  0  0  0
  -35.9395   63.1998   63.7956 O   0  0  0  0  0  0  0  0  0  0  0  0
  -37.3061   57.5032   69.9984 C   0  0  0  0  0  0  0  0  0  0  0  0
  -33.4262   65.4161   62.1957 O   0  0  0  0  0  0  0  0  0  0  0  0
  -36.2052   58.3508   69.3186 C   0  0  0  0  0  0  0  0  0  0  0  0
  -35.1645   58.9193   70.3075 C   0  0  0  0  0  0  0  0  0  0  0  0
  -34.3946   57.8421   71.0810 C   0  0  0  0  0  0  0  0  0  0  0  0
  -31.8719   66.2910   68.0467 O   0  5  0  0  0  0  0  0  0  0  0  0
  -33.3623   58.3467   72.0871 C   0  0  0  0  0  0  0  0  0  0  0  0
  -33.5831   67.7019   67.0691 O   0  0  0  0  0  0  0  0  0  0  0  0
  -32.6057   57.2239   72.8240 C   0  0  0  0  0  0  0  0  0  0  0  0
  -31.5716   57.6990   73.8558 C   0  0  0  0  0  0  0  0  0  0  0  0
  -32.2369   58.5233   74.9618 C   0  0  0  0  0  0  0  0  0  0  0  0
  -31.3195   59.0697   76.0413 C   0  0  0  0  0  0  0  0  0  0  0  0
  -40.9921   59.0290   63.2983 C   0  0  0  0  0  0  0  0  0  0  0  0
  -40.4035   57.8670   64.0420 C   0  0  0  0  0  0  0  0  0  0  0  0
  -39.7820   56.9489   62.9893 C   0  0  0  0  0  0  0  0  0  0  0  0
  -39.1706   55.7225   63.6625 C   0  0  0  0  0  0  0  0  0  0  0  0
  -38.0891   55.9942   64.6799 C   0  0  0  0  0  0  0  0  0  0  0  0
  -37.6081   54.6483   65.2118 C   0  0  0  0  0  0  0  0  0  0  0  0
  -38.7315   53.8338   65.8672 C   0  0  0  0  0  0  0  0  0  0  0  0
  -39.4083   54.5353   67.0590 C   0  0  0  0  0  0  0  0  0  0  0  0
  -40.5213   53.6814   67.7051 C   0  0  0  0  0  0  0  0  0  0  0  0
  -41.1703   54.4328   68.8710 C   0  0  0  0  0  0  0  0  0  0  0  0
  -42.2749   53.6717   69.5939 C   0  0  0  0  0  0  0  0  0  0  0  0
  -42.8869   54.4809   70.7278 C   0  0  0  0  0  0  0  0  0  0  0  0
  -43.9961   53.7889   71.5235 C   0  0  0  0  0  0  0  0  0  0  0  0
  -43.4133   52.5342   72.1597 C   0  0  0  0  0  0  0  0  0  0  0  0
  -42.2599   52.6824   73.1409 C   0  0  0  0  0  0  0  0  0  0  0  0
  -41.7999   51.3108   73.6600 C   0  0  0  0  0  0  0  0  0  0  0  0
  -42.8924   50.5031   74.3845 C   0  0  0  0  0  0  0  0  0  0  0  0
  -43.4664   51.2214   75.6035 C   0  0  0  0  0  0  0  0  0  0  0  0
  -36.6675   63.2597   65.0462 C   0  0  2  0  0  0  0  0  0  0  0  0
  -35.6170   63.5011   66.1397 C   0  0  1  0  0  0  0  0  0  0  0  0
  -34.8113   64.8049   65.9489 C   0  0  2  0  0  0  0  0  0  0  0  0
  -34.0971   64.6690   64.6325 C   0  0  2  0  0  0  0  0  0  0  0  0
  -35.0980   64.3555   63.5351 C   0  0  1  0  0  0  0  0  0  0  0  0
  -34.1843   64.2500   62.3160 C   0  0  0  0  0  0  0  0  0  0  0  0
  -32.8264   66.4273   66.9131 S   0  0  0  0  0  0  0  0  0  0  0  0
  -40.8737   60.9998   63.1496 H   0  0  0  0  0  0  0  0  0  0  0  0
  -38.1357   61.6183   63.3320 H   0  0  0  0  0  0  0  0  0  0  0  0
  -39.2690   62.6030   64.3261 H   0  0  0  0  0  0  0  0  0  0  0  0
  -38.6677   59.8099   64.6092 H   0  0  0  0  0  0  0  0  0  0  0  0
  -41.7964   61.3001   65.0038 H   0  0  0  0  0  0  0  0  0  0  0  0
  -40.6791   59.5963   66.1457 H   0  0  0  0  0  0  0  0  0  0  0  0
  -38.2825   60.5660   66.9706 H   0  0  0  0  0  0  0  0  0  0  0  0
  -40.6335   61.7997   68.2859 H   0  0  0  0  0  0  0  0  0  0  0  0
  -36.8391   62.7839   67.4733 H   0  0  0  0  0  0  0  0  0  0  0  0
  -39.1327   62.2947   70.0720 H   0  0  0  0  0  0  0  0  0  0  0  0
  -37.8540   62.3669   68.8358 H   0  0  0  0  0  0  0  0  0  0  0  0
  -37.2819   60.8269   70.6078 H   0  0  0  0  0  0  0  0  0  0  0  0
  -37.5180   60.0240   69.0214 H   0  0  0  0  0  0  0  0  0  0  0  0
  -31.5570   65.6703   65.5164 H   0  0  0  0  0  0  0  0  0  0  0  0
  -39.6227   59.1541   69.7326 H   0  0  0  0  0  0  0  0  0  0  0  0
  -39.4615   59.9622   71.2842 H   0  0  0  0  0  0  0  0  0  0  0  0
  -32.4632   63.8819   65.4108 H   0  0  0  0  0  0  0  0  0  0  0  0
  -38.8606   57.5983   71.4633 H   0  0  0  0  0  0  0  0  0  0  0  0
  -37.4596   58.6764   71.7489 H   0  0  0  0  0  0  0  0  0  0  0  0
  -37.9626   57.1338   69.2385 H   0  0  0  0  0  0  0  0  0  0  0  0
  -36.8071   56.7207   70.5310 H   0  0  0  0  0  0  0  0  0  0  0  0
  -32.8469   65.3466   61.4208 H   0  0  0  0  0  0  0  0  0  0  0  0
  -36.6727   59.1691   68.8119 H   0  0  0  0  0  0  0  0  0  0  0  0
  -35.6800   57.7037   68.6476 H   0  0  0  0  0  0  0  0  0  0  0  0
  -35.6740   59.5421   71.0128 H   0  0  0  0  0  0  0  0  0  0  0  0
  -34.4463   59.4606   69.7279 H   0  0  0  0  0  0  0  0  0  0  0  0
  -33.8838   57.2295   70.3678 H   0  0  0  0  0  0  0  0  0  0  0  0
  -35.1298   57.3225   71.6593 H   0  0  0  0  0  0  0  0  0  0  0  0
  -33.8671   58.9466   72.8153 H   0  0  0  0  0  0  0  0  0  0  0  0
  -32.6333   58.8995   71.5324 H   0  0  0  0  0  0  0  0  0  0  0  0
  -34.2082   67.7988   66.3338 H   0  0  0  0  0  0  0  0  0  0  0  0
  -32.0956   56.6331   72.0921 H   0  0  0  0  0  0  0  0  0  0  0  0
  -33.3448   56.6795   73.3738 H   0  0  0  0  0  0  0  0  0  0  0  0
  -30.8379   58.3023   73.3633 H   0  0  0  0  0  0  0  0  0  0  0  0
  -31.1142   56.8397   74.3000 H   0  0  0  0  0  0  0  0  0  0  0  0
  -32.9654   57.9010   75.4380 H   0  0  0  0  0  0  0  0  0  0  0  0
  -32.6417   59.3834   74.4707 H   0  0  0  0  0  0  0  0  0  0  0  0
  -30.8760   58.2569   76.5775 H   0  0  0  0  0  0  0  0  0  0  0  0
  -31.8856   59.6761   76.7171 H   0  0  0  0  0  0  0  0  0  0  0  0
  -30.5504   59.6611   75.5900 H   0  0  0  0  0  0  0  0  0  0  0  0
  -41.1680   57.3474   64.5809 H   0  0  0  0  0  0  0  0  0  0  0  0
  -39.6724   58.1921   64.7524 H   0  0  0  0  0  0  0  0  0  0  0  0
  -39.0185   57.4809   62.4613 H   0  0  0  0  0  0  0  0  0  0  0  0
  -40.5422   56.6324   62.3061 H   0  0  0  0  0  0  0  0  0  0  0  0
  -38.7512   55.1041   62.8967 H   0  0  0  0  0  0  0  0  0  0  0  0
  -39.9698   55.2650   64.2074 H   0  0  0  0  0  0  0  0  0  0  0  0
  -38.4821   56.5840   65.4815 H   0  0  0  0  0  0  0  0  0  0  0  0
  -37.2797   56.5330   64.2333 H   0  0  0  0  0  0  0  0  0  0  0  0
  -36.8422   54.8215   65.9387 H   0  0  0  0  0  0  0  0  0  0  0  0
  -37.2435   54.0837   64.3792 H   0  0  0  0  0  0  0  0  0  0  0  0
  -38.3179   52.9095   66.2128 H   0  0  0  0  0  0  0  0  0  0  0  0
  -39.4869   53.6976   65.1217 H   0  0  0  0  0  0  0  0  0  0  0  0
  -39.8378   55.4533   66.7160 H   0  0  0  0  0  0  0  0  0  0  0  0
  -38.6574   54.7008   67.8031 H   0  0  0  0  0  0  0  0  0  0  0  0
  -40.0979   52.7682   68.0678 H   0  0  0  0  0  0  0  0  0  0  0  0
  -41.2697   53.4762   66.9684 H   0  0  0  0  0  0  0  0  0  0  0  0
  -41.5882   55.3408   68.4890 H   0  0  0  0  0  0  0  0  0  0  0  0
  -40.3958   54.5915   69.5921 H   0  0  0  0  0  0  0  0  0  0  0  0
  -41.8642   52.7698   69.9974 H   0  0  0  0  0  0  0  0  0  0  0  0
  -43.0487   53.4653   68.8842 H   0  0  0  0  0  0  0  0  0  0  0  0
  -43.2951   55.3763   70.3077 H   0  0  0  0  0  0  0  0  0  0  0  0
  -42.0924   54.6468   71.4250 H   0  0  0  0  0  0  0  0  0  0  0  0
  -44.7997   53.5234   70.8689 H   0  0  0  0  0  0  0  0  0  0  0  0
  -44.3734   54.4456   72.2794 H   0  0  0  0  0  0  0  0  0  0  0  0
  -43.0711   51.9068   71.3634 H   0  0  0  0  0  0  0  0  0  0  0  0
  -44.2141   52.1484   72.7554 H   0  0  0  0  0  0  0  0  0  0  0  0
  -42.5789   53.2808   73.9685 H   0  0  0  0  0  0  0  0  0  0  0  0
  -41.4399   53.1486   72.6358 H   0  0  0  0  0  0  0  0  0  0  0  0
  -40.9909   51.4661   74.3428 H   0  0  0  0  0  0  0  0  0  0  0  0
  -41.5183   50.7391   72.8005 H   0  0  0  0  0  0  0  0  0  0  0  0
  -42.4709   49.5734   74.7054 H   0  0  0  0  0  0  0  0  0  0  0  0
  -43.6957   50.3637   73.6914 H   0  0  0  0  0  0  0  0  0  0  0  0
  -42.6900   51.3796   76.3226 H   0  0  0  0  0  0  0  0  0  0  0  0
  -44.2393   50.6231   76.0389 H   0  0  0  0  0  0  0  0  0  0  0  0
  -43.8721   52.1649   75.3033 H   0  0  0  0  0  0  0  0  0  0  0  0
  -37.3714   64.0651   65.0741 H   0  0  0  0  0  0  0  0  0  0  0  0
  -34.9062   62.7017   66.1156 H   0  0  0  0  0  0  0  0  0  0  0  0
  -35.5159   65.6067   66.0228 H   0  0  0  0  0  0  0  0  0  0  0  0
  -33.6145   65.5961   64.4038 H   0  0  0  0  0  0  0  0  0  0  0  0
  -35.8616   65.0958   63.4182 H   0  0  0  0  0  0  0  0  0  0  0  0
  -33.5307   63.4109   62.4325 H   0  0  0  0  0  0  0  0  0  0  0  0
  -34.7797   64.1214   61.4363 H   0  0  0  0  0  0  0  0  0  0  0  0
  1  4  1  0  0  0  0
  1 31  1  0  0  0  0
  1 56  1  0  0  0  0
  2  3  1  0  0  0  0
  2  4  1  0  0  0  0
  2 57  1  0  0  0  0
  2 58  1  0  0  0  0
  3 49  1  0  0  0  0
  4  6  1  0  0  0  0
  4 59  1  1  0  0  0
  5  6  1  0  0  0  0
  5 60  1  0  0  0  0
  6  8  1  0  0  0  0
  6 61  1  1  0  0  0
  7 31  2  0  0  0  0
  8  9  2  0  0  0  0
  8 62  1  0  0  0  0
  9 11  1  0  0  0  0
  9 63  1  0  0  0  0
 10 50  1  0  0  0  0
 10 64  1  0  0  0  0
 11 13  1  0  0  0  0
 11 65  1  0  0  0  0
 11 66  1  0  0  0  0
 12 51  1  0  0  0  0
 12 55  1  0  0  0  0
 13 15  1  0  0  0  0
 13 67  1  0  0  0  0
 13 68  1  0  0  0  0
 14 55  1  0  0  0  0
 14 69  1  0  0  0  0
 15 17  1  0  0  0  0
 15 70  1  0  0  0  0
 15 71  1  0  0  0  0
 16 52  1  0  0  0  0
 16 72  1  0  0  0  0
 17 19  1  0  0  0  0
 17 73  1  0  0  0  0
 17 74  1  0  0  0  0
 18 49  1  0  0  0  0
 18 53  1  0  0  0  0
 19 21  1  0  0  0  0
 19 75  1  0  0  0  0
 19 76  1  0  0  0  0
 20 54  1  0  0  0  0
 20 77  1  0  0  0  0
 21 22  1  0  0  0  0
 21 78  1  0  0  0  0
 21 79  1  0  0  0  0
 22 23  1  0  0  0  0
 22 80  1  0  0  0  0
 22 81  1  0  0  0  0
 23 25  1  0  0  0  0
 23 82  1  0  0  0  0
 23 83  1  0  0  0  0
 24 55  1  0  0  0  0
 25 27  1  0  0  0  0
 25 84  1  0  0  0  0
 25 85  1  0  0  0  0
 26 55  1  0  0  0  0
 26 86  1  0  0  0  0
 27 28  1  0  0  0  0
 27 87  1  0  0  0  0
 27 88  1  0  0  0  0
 28 29  1  0  0  0  0
 28 89  1  0  0  0  0
 28 90  1  0  0  0  0
 29 30  1  0  0  0  0
 29 91  1  0  0  0  0
 29 92  1  0  0  0  0
 30 93  1  0  0  0  0
 30 94  1  0  0  0  0
 30 95  1  0  0  0  0
 31 32  1  0  0  0  0
 32 33  1  0  0  0  0
 32 96  1  0  0  0  0
 32 97  1  0  0  0  0
 33 34  1  0  0  0  0
 33 98  1  0  0  0  0
 33 99  1  0  0  0  0
 34 35  1  0  0  0  0
 34100  1  0  0  0  0
 34101  1  0  0  0  0
 35 36  1  0  0  0  0
 35102  1  0  0  0  0
 35103  1  0  0  0  0
 36 37  1  0  0  0  0
 36104  1  0  0  0  0
 36105  1  0  0  0  0
 37 38  1  0  0  0  0
 37106  1  0  0  0  0
 37107  1  0  0  0  0
 38 39  1  0  0  0  0
 38108  1  0  0  0  0
 38109  1  0  0  0  0
 39 40  1  0  0  0  0
 39110  1  0  0  0  0
 39111  1  0  0  0  0
 40 41  1  0  0  0  0
 40112  1  0  0  0  0
 40113  1  0  0  0  0
 41 42  1  0  0  0  0
 41114  1  0  0  0  0
 41115  1  0  0  0  0
 42 43  1  0  0  0  0
 42116  1  0  0  0  0
 42117  1  0  0  0  0
 43 44  1  0  0  0  0
 43118  1  0  0  0  0
 43119  1  0  0  0  0
 44 45  1  0  0  0  0
 44120  1  0  0  0  0
 44121  1  0  0  0  0
 45 46  1  0  0  0  0
 45122  1  0  0  0  0
 45123  1  0  0  0  0
 46 47  1  0  0  0  0
 46124  1  0  0  0  0
 46125  1  0  0  0  0
 47 48  1  0  0  0  0
 47126  1  0  0  0  0
 47127  1  0  0  0  0
 48128  1  0  0  0  0
 48129  1  0  0  0  0
 48130  1  0  0  0  0
 49 50  1  0  0  0  0
 49131  1  6  0  0  0
 50 51  1  0  0  0  0
 50132  1  1  0  0  0
 51 52  1  0  0  0  0
 51133  1  6  0  0  0
 52 53  1  0  0  0  0
 52134  1  6  0  0  0
 53 54  1  0  0  0  0
 53135  1  6  0  0  0
 54136  1  0  0  0  0
 54137  1  0  0  0  0
M  CHG  1  24  -1
M  END
$$$$