/media/chris/experiments/cd1a-new-docking/inputs/ligands/1onq_ligand.pdb
 OpenBabel06222310383D

137137  0  0  1  0  0  0  0  0999 V2000
  -40.4920   60.2280   63.6270 N   0  0  0  0  0  0  0  0  0  0  0  0
  -38.5950   61.7730   64.2860 C   0  0  0  0  0  0  0  0  0  0  0  0
  -37.5441   62.0867   65.2349 O   0  0  0  0  0  0  0  0  0  0  0  0
  -39.4590   60.5300   64.5980 C   0  0  1  0  0  0  0  0  0  0  0  0
  -40.7577   59.2290   66.0180 O   0  0  0  0  0  0  0  0  0  0  0  0
  -40.2280   60.5370   65.9080 C   0  0  2  0  0  0  0  0  0  0  0  0
  -39.2820   59.8772   61.7401 O   0  0  0  0  0  0  0  0  0  0  0  0
  -41.3266   61.6007   65.8452 C   0  0  0  0  0  0  0  0  0  0  0  0
  -41.3921   62.6366   66.6990 C   0  0  0  0  0  0  0  0  0  0  0  0
  -37.5806   60.0646   67.2565 O   0  0  0  0  0  0  0  0  0  0  0  0
  -42.5217   63.6569   66.5713 C   0  0  0  0  0  0  0  0  0  0  0  0
  -36.0104   57.5670   66.9984 O   0  0  0  0  0  0  0  0  0  0  0  0
  -42.9351   64.2968   67.9046 C   0  0  0  0  0  0  0  0  0  0  0  0
  -38.2735   57.9493   68.2022 O   0  0  0  0  0  0  0  0  0  0  0  0
  -43.4282   63.3200   68.9881 C   0  0  0  0  0  0  0  0  0  0  0  0
  -35.6857   57.8125   64.3008 O   0  0  0  0  0  0  0  0  0  0  0  0
  -42.3201   62.3046   69.3577 C   0  0  0  0  0  0  0  0  0  0  0  0
  -35.6754   60.8382   64.3212 O   0  0  0  0  0  0  0  0  0  0  0  0
  -42.7128   61.2581   70.4310 C   0  0  0  0  0  0  0  0  0  0  0  0
  -33.2939   60.5713   62.6125 O   0  0  0  0  0  0  0  0  0  0  0  0
  -43.1368   61.8698   71.7870 C   0  0  0  0  0  0  0  0  0  0  0  0
  -43.5084   60.8147   72.8513 C   0  0  0  0  0  0  0  0  0  0  0  0
  -42.3599   59.8620   73.2041 C   0  0  0  0  0  0  0  0  0  0  0  0
  -36.2081   58.0655   69.4709 O   0  5  0  0  0  0  0  0  0  0  0  0
  -41.1050   60.5097   73.7856 C   0  0  0  0  0  0  0  0  0  0  0  0
  -37.0865   55.9195   68.7655 O   0  0  0  0  0  0  0  0  0  0  0  0
  -39.9761   59.5103   74.1063 C   0  0  0  0  0  0  0  0  0  0  0  0
  -40.3418   58.4109   75.1151 C   0  0  0  0  0  0  0  0  0  0  0  0
  -39.1500   57.4854   75.3758 C   0  0  0  0  0  0  0  0  0  0  0  0
  -38.5841   56.7571   74.1696 C   0  0  0  0  0  0  0  0  0  0  0  0
  -40.3447   59.9361   62.3275 C   0  0  0  0  0  0  0  0  0  0  0  0
  -41.6199   59.6610   61.5872 C   0  0  0  0  0  0  0  0  0  0  0  0
  -41.2235   59.3375   60.1466 C   0  0  0  0  0  0  0  0  0  0  0  0
  -40.4705   60.5167   59.5355 C   0  0  0  0  0  0  0  0  0  0  0  0
  -40.0267   60.3496   58.1025 C   0  0  0  0  0  0  0  0  0  0  0  0
  -39.2866   61.6203   57.6981 C   0  0  0  0  0  0  0  0  0  0  0  0
  -40.1579   62.8778   57.8186 C   0  0  0  0  0  0  0  0  0  0  0  0
  -39.4497   64.1799   57.4021 C   0  0  0  0  0  0  0  0  0  0  0  0
  -38.1840   64.4690   58.2387 C   0  0  0  0  0  0  0  0  0  0  0  0
  -37.1590   63.3432   58.0740 C   0  0  0  0  0  0  0  0  0  0  0  0
  -35.8734   63.5195   58.8730 C   0  0  0  0  0  0  0  0  0  0  0  0
  -36.1292   63.5839   60.3715 C   0  0  0  0  0  0  0  0  0  0  0  0
  -36.7832   62.3484   60.9944 C   0  0  0  0  0  0  0  0  0  0  0  0
  -35.8614   61.1575   60.7689 C   0  0  0  0  0  0  0  0  0  0  0  0
  -35.5067   60.7699   59.3409 C   0  0  0  0  0  0  0  0  0  0  0  0
  -34.5854   59.5400   59.3177 C   0  0  0  0  0  0  0  0  0  0  0  0
  -34.1607   59.0867   57.9087 C   0  0  0  0  0  0  0  0  0  0  0  0
  -33.2605   57.8534   57.9167 C   0  0  0  0  0  0  0  0  0  0  0  0
  -36.4503   61.1334   65.5086 C   0  0  2  0  0  0  0  0  0  0  0  0
  -36.8674   59.7764   66.0936 C   0  0  1  0  0  0  0  0  0  0  0  0
  -35.6748   58.8694   66.4682 C   0  0  2  0  0  0  0  0  0  0  0  0
  -34.9197   58.6193   65.1921 C   0  0  2  0  0  0  0  0  0  0  0  0
  -34.5533   59.9423   64.5442 C   0  0  1  0  0  0  0  0  0  0  0  0
  -33.8212   59.4704   63.2899 C   0  0  0  0  0  0  0  0  0  0  0  0
  -36.9180   57.3486   68.3770 S   0  0  0  0  0  0  0  0  0  0  0  0
  -41.4169   60.2387   63.9642 H   0  0  0  0  0  0  0  0  0  0  0  0
  -38.1357   61.6183   63.3320 H   0  0  0  0  0  0  0  0  0  0  0  0
  -39.2690   62.6030   64.3261 H   0  0  0  0  0  0  0  0  0  0  0  0
  -38.6677   59.8099   64.6092 H   0  0  0  0  0  0  0  0  0  0  0  0
  -40.0308   58.5878   66.0547 H   0  0  0  0  0  0  0  0  0  0  0  0
  -39.6247   60.7776   66.7583 H   0  0  0  0  0  0  0  0  0  0  0  0
  -42.0502   61.5188   65.1139 H   0  0  0  0  0  0  0  0  0  0  0  0
  -40.6808   62.7424   67.4391 H   0  0  0  0  0  0  0  0  0  0  0  0
  -38.3351   60.6345   67.0402 H   0  0  0  0  0  0  0  0  0  0  0  0
  -43.3754   63.1642   66.1549 H   0  0  0  0  0  0  0  0  0  0  0  0
  -42.1584   64.4464   65.9471 H   0  0  0  0  0  0  0  0  0  0  0  0
  -43.7234   64.9923   67.7053 H   0  0  0  0  0  0  0  0  0  0  0  0
  -42.0488   64.7479   68.2994 H   0  0  0  0  0  0  0  0  0  0  0  0
  -38.1839   58.8813   67.9487 H   0  0  0  0  0  0  0  0  0  0  0  0
  -44.2816   62.7896   68.6203 H   0  0  0  0  0  0  0  0  0  0  0  0
  -43.6863   63.8797   69.8628 H   0  0  0  0  0  0  0  0  0  0  0  0
  -35.9083   56.9738   64.7342 H   0  0  0  0  0  0  0  0  0  0  0  0
  -41.4775   62.8533   69.7236 H   0  0  0  0  0  0  0  0  0  0  0  0
  -42.1161   61.7511   68.4650 H   0  0  0  0  0  0  0  0  0  0  0  0
  -41.8718   60.6184   70.5996 H   0  0  0  0  0  0  0  0  0  0  0  0
  -43.5637   60.7321   70.0512 H   0  0  0  0  0  0  0  0  0  0  0  0
  -32.8294   60.2690   61.8164 H   0  0  0  0  0  0  0  0  0  0  0  0
  -43.9864   62.4993   71.6234 H   0  0  0  0  0  0  0  0  0  0  0  0
  -42.2951   62.4127   72.1635 H   0  0  0  0  0  0  0  0  0  0  0  0
  -44.3266   60.2340   72.4795 H   0  0  0  0  0  0  0  0  0  0  0  0
  -43.7578   61.3474   73.7451 H   0  0  0  0  0  0  0  0  0  0  0  0
  -42.0773   59.3455   72.3107 H   0  0  0  0  0  0  0  0  0  0  0  0
  -42.7401   59.2268   73.9767 H   0  0  0  0  0  0  0  0  0  0  0  0
  -41.3747   61.0144   74.6897 H   0  0  0  0  0  0  0  0  0  0  0  0
  -40.7261   61.1765   73.0395 H   0  0  0  0  0  0  0  0  0  0  0  0
  -37.5488   55.4443   68.0574 H   0  0  0  0  0  0  0  0  0  0  0  0
  -39.1490   60.0614   74.5028 H   0  0  0  0  0  0  0  0  0  0  0  0
  -39.7546   59.0082   73.1877 H   0  0  0  0  0  0  0  0  0  0  0  0
  -41.1538   57.8339   74.7244 H   0  0  0  0  0  0  0  0  0  0  0  0
  -40.6209   58.8749   76.0380 H   0  0  0  0  0  0  0  0  0  0  0  0
  -39.4603   56.7472   76.0856 H   0  0  0  0  0  0  0  0  0  0  0  0
  -38.3628   58.1248   75.7169 H   0  0  0  0  0  0  0  0  0  0  0  0
  -39.3246   56.0940   73.7735 H   0  0  0  0  0  0  0  0  0  0  0  0
  -37.7228   56.1948   74.4642 H   0  0  0  0  0  0  0  0  0  0  0  0
  -38.3062   57.4694   73.4210 H   0  0  0  0  0  0  0  0  0  0  0  0
  -42.2547   60.5220   61.6116 H   0  0  0  0  0  0  0  0  0  0  0  0
  -42.1587   58.8505   62.0319 H   0  0  0  0  0  0  0  0  0  0  0  0
  -42.1047   59.1433   59.5716 H   0  0  0  0  0  0  0  0  0  0  0  0
  -40.5899   58.4752   60.1416 H   0  0  0  0  0  0  0  0  0  0  0  0
  -39.5979   60.6910   60.1299 H   0  0  0  0  0  0  0  0  0  0  0  0
  -41.1661   61.3297   59.5283 H   0  0  0  0  0  0  0  0  0  0  0  0
  -40.8786   60.2068   57.4710 H   0  0  0  0  0  0  0  0  0  0  0  0
  -39.3894   59.4958   58.0034 H   0  0  0  0  0  0  0  0  0  0  0  0
  -38.9672   61.5215   56.6816 H   0  0  0  0  0  0  0  0  0  0  0  0
  -38.4575   61.7369   58.3643 H   0  0  0  0  0  0  0  0  0  0  0  0
  -40.4667   62.9753   58.8384 H   0  0  0  0  0  0  0  0  0  0  0  0
  -40.9802   62.7471   57.1466 H   0  0  0  0  0  0  0  0  0  0  0  0
  -40.1329   64.9943   57.5239 H   0  0  0  0  0  0  0  0  0  0  0  0
  -39.1426   64.0670   56.3834 H   0  0  0  0  0  0  0  0  0  0  0  0
  -38.4554   64.5490   59.2706 H   0  0  0  0  0  0  0  0  0  0  0  0
  -37.7476   65.3847   57.8982 H   0  0  0  0  0  0  0  0  0  0  0  0
  -36.8996   63.2797   57.0379 H   0  0  0  0  0  0  0  0  0  0  0  0
  -37.6256   62.4571   58.4508 H   0  0  0  0  0  0  0  0  0  0  0  0
  -35.3990   64.4279   58.5655 H   0  0  0  0  0  0  0  0  0  0  0  0
  -35.2510   62.6700   58.6833 H   0  0  0  0  0  0  0  0  0  0  0  0
  -36.7678   64.4218   60.5588 H   0  0  0  0  0  0  0  0  0  0  0  0
  -35.1634   63.6590   60.8259 H   0  0  0  0  0  0  0  0  0  0  0  0
  -37.7299   62.1667   60.5300 H   0  0  0  0  0  0  0  0  0  0  0  0
  -36.9398   62.5014   62.0417 H   0  0  0  0  0  0  0  0  0  0  0  0
  -36.3291   60.3071   61.2193 H   0  0  0  0  0  0  0  0  0  0  0  0
  -34.9292   61.4655   61.1944 H   0  0  0  0  0  0  0  0  0  0  0  0
  -35.0073   61.5904   58.8693 H   0  0  0  0  0  0  0  0  0  0  0  0
  -36.4090   60.5304   58.8181 H   0  0  0  0  0  0  0  0  0  0  0  0
  -35.0994   58.7285   59.7891 H   0  0  0  0  0  0  0  0  0  0  0  0
  -33.6891   59.8215   59.8298 H   0  0  0  0  0  0  0  0  0  0  0  0
  -33.6326   59.8897   57.4384 H   0  0  0  0  0  0  0  0  0  0  0  0
  -35.0522   58.8249   57.3779 H   0  0  0  0  0  0  0  0  0  0  0  0
  -32.3547   58.0764   58.4409 H   0  0  0  0  0  0  0  0  0  0  0  0
  -33.0303   57.5733   56.9100 H   0  0  0  0  0  0  0  0  0  0  0  0
  -33.7656   57.0463   58.4049 H   0  0  0  0  0  0  0  0  0  0  0  0
  -35.8838   61.6578   66.2495 H   0  0  0  0  0  0  0  0  0  0  0  0
  -37.4312   59.2434   65.3568 H   0  0  0  0  0  0  0  0  0  0  0  0
  -35.1395   59.3811   67.2406 H   0  0  0  0  0  0  0  0  0  0  0  0
  -34.0200   58.0873   65.4213 H   0  0  0  0  0  0  0  0  0  0  0  0
  -33.9522   60.5771   65.1611 H   0  0  0  0  0  0  0  0  0  0  0  0
  -33.0268   58.8100   63.5686 H   0  0  0  0  0  0  0  0  0  0  0  0
  -34.5077   58.9557   62.6506 H   0  0  0  0  0  0  0  0  0  0  0  0
  1  4  1  0  0  0  0
  1 31  1  0  0  0  0
  1 56  1  0  0  0  0
  2  3  1  0  0  0  0
  2  4  1  0  0  0  0
  2 57  1  0  0  0  0
  2 58  1  0  0  0  0
  3 49  1  0  0  0  0
  4  6  1  0  0  0  0
  4 59  1  1  0  0  0
  5  6  1  0  0  0  0
  5 60  1  0  0  0  0
  6  8  1  0  0  0  0
  6 61  1  1  0  0  0
  7 31  2  0  0  0  0
  8  9  2  0  0  0  0
  8 62  1  0  0  0  0
  9 11  1  0  0  0  0
  9 63  1  0  0  0  0
 10 50  1  0  0  0  0
 10 64  1  0  0  0  0
 11 13  1  0  0  0  0
 11 65  1  0  0  0  0
 11 66  1  0  0  0  0
 12 51  1  0  0  0  0
 12 55  1  0  0  0  0
 13 15  1  0  0  0  0
 13 67  1  0  0  0  0
 13 68  1  0  0  0  0
 14 55  1  0  0  0  0
 14 69  1  0  0  0  0
 15 17  1  0  0  0  0
 15 70  1  0  0  0  0
 15 71  1  0  0  0  0
 16 52  1  0  0  0  0
 16 72  1  0  0  0  0
 17 19  1  0  0  0  0
 17 73  1  0  0  0  0
 17 74  1  0  0  0  0
 18 49  1  0  0  0  0
 18 53  1  0  0  0  0
 19 21  1  0  0  0  0
 19 75  1  0  0  0  0
 19 76  1  0  0  0  0
 20 54  1  0  0  0  0
 20 77  1  0  0  0  0
 21 22  1  0  0  0  0
 21 78  1  0  0  0  0
 21 79  1  0  0  0  0
 22 23  1  0  0  0  0
 22 80  1  0  0  0  0
 22 81  1  0  0  0  0
 23 25  1  0  0  0  0
 23 82  1  0  0  0  0
 23 83  1  0  0  0  0
 24 55  1  0  0  0  0
 25 27  1  0  0  0  0
 25 84  1  0  0  0  0
 25 85  1  0  0  0  0
 26 55  1  0  0  0  0
 26 86  1  0  0  0  0
 27 28  1  0  0  0  0
 27 87  1  0  0  0  0
 27 88  1  0  0  0  0
 28 29  1  0  0  0  0
 28 89  1  0  0  0  0
 28 90  1  0  0  0  0
 29 30  1  0  0  0  0
 29 91  1  0  0  0  0
 29 92  1  0  0  0  0
 30 93  1  0  0  0  0
 30 94  1  0  0  0  0
 30 95  1  0  0  0  0
 31 32  1  0  0  0  0
 32 33  1  0  0  0  0
 32 96  1  0  0  0  0
 32 97  1  0  0  0  0
 33 34  1  0  0  0  0
 33 98  1  0  0  0  0
 33 99  1  0  0  0  0
 34 35  1  0  0  0  0
 34100  1  0  0  0  0
 34101  1  0  0  0  0
 35 36  1  0  0  0  0
 35102  1  0  0  0  0
 35103  1  0  0  0  0
 36 37  1  0  0  0  0
 36104  1  0  0  0  0
 36105  1  0  0  0  0
 37 38  1  0  0  0  0
 37106  1  0  0  0  0
 37107  1  0  0  0  0
 38 39  1  0  0  0  0
 38108  1  0  0  0  0
 38109  1  0  0  0  0
 39 40  1  0  0  0  0
 39110  1  0  0  0  0
 39111  1  0  0  0  0
 40 41  1  0  0  0  0
 40112  1  0  0  0  0
 40113  1  0  0  0  0
 41 42  1  0  0  0  0
 41114  1  0  0  0  0
 41115  1  0  0  0  0
 42 43  1  0  0  0  0
 42116  1  0  0  0  0
 42117  1  0  0  0  0
 43 44  1  0  0  0  0
 43118  1  0  0  0  0
 43119  1  0  0  0  0
 44 45  1  0  0  0  0
 44120  1  0  0  0  0
 44121  1  0  0  0  0
 45 46  1  0  0  0  0
 45122  1  0  0  0  0
 45123  1  0  0  0  0
 46 47  1  0  0  0  0
 46124  1  0  0  0  0
 46125  1  0  0  0  0
 47 48  1  0  0  0  0
 47126  1  0  0  0  0
 47127  1  0  0  0  0
 48128  1  0  0  0  0
 48129  1  0  0  0  0
 48130  1  0  0  0  0
 49 50  1  0  0  0  0
 49131  1  1  0  0  0
 50 51  1  0  0  0  0
 50132  1  6  0  0  0
 51 52  1  0  0  0  0
 51133  1  1  0  0  0
 52 53  1  0  0  0  0
 52134  1  1  0  0  0
 53 54  1  0  0  0  0
 53135  1  1  0  0  0
 54136  1  0  0  0  0
 54137  1  0  0  0  0
M  CHG  1  24  -1
M  END
$$$$