/media/chris/experiments/cd1a-new-docking/inputs/ligands/1onq_ligand.pdb
 OpenBabel06222310383D

137137  0  0  1  0  0  0  0  0999 V2000
  -40.4920   60.2280   63.6270 N   0  0  0  0  0  0  0  0  0  0  0  0
  -38.5950   61.7730   64.2860 C   0  0  0  0  0  0  0  0  0  0  0  0
  -39.2927   63.0412   64.1953 O   0  0  0  0  0  0  0  0  0  0  0  0
  -39.4590   60.5300   64.5980 C   0  0  1  0  0  0  0  0  0  0  0  0
  -39.2569   60.8461   66.8904 O   0  0  0  0  0  0  0  0  0  0  0  0
  -40.2280   60.5370   65.9080 C   0  0  2  0  0  0  0  0  0  0  0  0
  -39.5856   61.0253   61.7060 O   0  0  0  0  0  0  0  0  0  0  0  0
  -40.8583   59.1606   66.1332 C   0  0  0  0  0  0  0  0  0  0  0  0
  -40.5775   58.3927   67.1998 C   0  0  0  0  0  0  0  0  0  0  0  0
  -36.9245   63.2334   62.6041 O   0  0  0  0  0  0  0  0  0  0  0  0
  -41.2481   57.0288   67.3524 C   0  0  0  0  0  0  0  0  0  0  0  0
  -36.2474   65.6923   61.0988 O   0  0  0  0  0  0  0  0  0  0  0  0
  -40.9397   56.0528   66.2076 C   0  0  0  0  0  0  0  0  0  0  0  0
  -34.5230   64.9669   59.3052 O   0  0  0  0  0  0  0  0  0  0  0  0
  -41.6093   54.6701   66.3119 C   0  0  0  0  0  0  0  0  0  0  0  0
  -38.7865   66.6864   61.1867 O   0  0  0  0  0  0  0  0  0  0  0  0
  -43.1510   54.8055   66.3182 C   0  0  0  0  0  0  0  0  0  0  0  0
  -39.4547   65.4386   63.8611 O   0  0  0  0  0  0  0  0  0  0  0  0
  -43.9320   53.4723   66.4375 C   0  0  0  0  0  0  0  0  0  0  0  0
  -40.5437   67.6756   62.3121 O   0  0  0  0  0  0  0  0  0  0  0  0
  -45.4701   53.6358   66.4240 C   0  0  0  0  0  0  0  0  0  0  0  0
  -46.2342   52.3011   66.5609 C   0  0  0  0  0  0  0  0  0  0  0  0
  -47.7594   52.4565   66.5308 C   0  0  0  0  0  0  0  0  0  0  0  0
  -35.7915   63.2771   60.4988 O   0  5  0  0  0  0  0  0  0  0  0  0
  -48.3654   53.3435   67.6163 C   0  0  0  0  0  0  0  0  0  0  0  0
  -33.9724   64.4403   61.5999 O   0  0  0  0  0  0  0  0  0  0  0  0
  -47.8702   54.8028   67.5809 C   0  0  0  0  0  0  0  0  0  0  0  0
  -48.4487   55.7172   68.6714 C   0  0  0  0  0  0  0  0  0  0  0  0
  -47.9080   57.1436   68.5367 C   0  0  0  0  0  0  0  0  0  0  0  0
  -48.3902   58.1486   69.5678 C   0  0  0  0  0  0  0  0  0  0  0  0
  -40.4890   60.4819   62.3113 C   0  0  0  0  0  0  0  0  0  0  0  0
  -41.7153   60.0341   61.5727 C   0  0  0  0  0  0  0  0  0  0  0  0
  -42.3284   61.2885   60.9500 C   0  0  0  0  0  0  0  0  0  0  0  0
  -42.6761   62.2966   62.0427 C   0  0  0  0  0  0  0  0  0  0  0  0
  -43.3087   63.5861   61.5787 C   0  0  0  0  0  0  0  0  0  0  0  0
  -42.3326   64.2593   60.6196 C   0  0  0  0  0  0  0  0  0  0  0  0
  -42.8551   65.5998   60.0858 C   0  0  0  0  0  0  0  0  0  0  0  0
  -43.1195   66.6545   61.1759 C   0  0  0  0  0  0  0  0  0  0  0  0
  -44.1571   66.1901   62.2215 C   0  0  0  0  0  0  0  0  0  0  0  0
  -44.3938   67.2818   63.2691 C   0  0  0  0  0  0  0  0  0  0  0  0
  -45.3916   66.9207   64.3627 C   0  0  0  0  0  0  0  0  0  0  0  0
  -44.9500   65.7090   65.1700 C   0  0  0  0  0  0  0  0  0  0  0  0
  -43.6208   65.8477   65.9158 C   0  0  0  0  0  0  0  0  0  0  0  0
  -43.7485   66.9976   66.9058 C   0  0  0  0  0  0  0  0  0  0  0  0
  -44.8040   66.9058   67.9979 C   0  0  0  0  0  0  0  0  0  0  0  0
  -44.5554   65.6880   68.9019 C   0  0  0  0  0  0  0  0  0  0  0  0
  -43.2026   65.7039   69.6371 C   0  0  0  0  0  0  0  0  0  0  0  0
  -43.0358   66.9017   70.5693 C   0  0  0  0  0  0  0  0  0  0  0  0
  -38.5707   64.2916   63.8868 C   0  0  2  0  0  0  0  0  0  0  0  0
  -37.8007   64.3171   62.5587 C   0  0  1  0  0  0  0  0  0  0  0  0
  -36.9714   65.6028   62.3469 C   0  0  2  0  0  0  0  0  0  0  0  0
  -37.9542   66.7410   62.3427 C   0  0  2  0  0  0  0  0  0  0  0  0
  -38.7875   66.7050   63.6110 C   0  0  1  0  0  0  0  0  0  0  0  0
  -39.7042   67.9085   63.4028 C   0  0  0  0  0  0  0  0  0  0  0  0
  -35.0951   64.5857   60.6304 S   0  0  0  0  0  0  0  0  0  0  0  0
  -41.2958   59.7807   63.9778 H   0  0  0  0  0  0  0  0  0  0  0  0
  -37.8608   61.8607   65.0594 H   0  0  0  0  0  0  0  0  0  0  0  0
  -38.1940   61.6005   63.3091 H   0  0  0  0  0  0  0  0  0  0  0  0
  -38.6677   59.8099   64.6092 H   0  0  0  0  0  0  0  0  0  0  0  0
  -38.8837   61.7234   66.7113 H   0  0  0  0  0  0  0  0  0  0  0  0
  -41.0317   61.2430   65.9299 H   0  0  0  0  0  0  0  0  0  0  0  0
  -41.5295   58.8060   65.4340 H   0  0  0  0  0  0  0  0  0  0  0  0
  -39.9104   58.7238   67.9142 H   0  0  0  0  0  0  0  0  0  0  0  0
  -37.4286   62.4154   62.7369 H   0  0  0  0  0  0  0  0  0  0  0  0
  -42.3071   57.1766   67.3931 H   0  0  0  0  0  0  0  0  0  0  0  0
  -40.8602   56.5901   68.2479 H   0  0  0  0  0  0  0  0  0  0  0  0
  -39.8804   55.9040   66.1786 H   0  0  0  0  0  0  0  0  0  0  0  0
  -41.3381   56.5045   65.3232 H   0  0  0  0  0  0  0  0  0  0  0  0
  -35.2403   65.0663   58.6599 H   0  0  0  0  0  0  0  0  0  0  0  0
  -41.2951   54.1955   67.2180 H   0  0  0  0  0  0  0  0  0  0  0  0
  -41.3198   54.0839   65.4649 H   0  0  0  0  0  0  0  0  0  0  0  0
  -38.2346   66.7105   60.3894 H   0  0  0  0  0  0  0  0  0  0  0  0
  -43.4450   55.2804   65.4055 H   0  0  0  0  0  0  0  0  0  0  0  0
  -43.3950   55.3709   67.1933 H   0  0  0  0  0  0  0  0  0  0  0  0
  -43.6526   53.0007   67.3564 H   0  0  0  0  0  0  0  0  0  0  0  0
  -43.6770   52.8883   65.5779 H   0  0  0  0  0  0  0  0  0  0  0  0
  -41.1248   68.4413   62.1820 H   0  0  0  0  0  0  0  0  0  0  0  0
  -45.7535   54.0947   65.4999 H   0  0  0  0  0  0  0  0  0  0  0  0
  -45.7297   54.2347   67.2718 H   0  0  0  0  0  0  0  0  0  0  0  0
  -45.9593   51.8485   67.4907 H   0  0  0  0  0  0  0  0  0  0  0  0
  -45.9651   51.6995   65.7179 H   0  0  0  0  0  0  0  0  0  0  0  0
  -48.1894   51.4815   66.6273 H   0  0  0  0  0  0  0  0  0  0  0  0
  -47.9806   52.9439   65.6043 H   0  0  0  0  0  0  0  0  0  0  0  0
  -48.1163   52.9265   68.5697 H   0  0  0  0  0  0  0  0  0  0  0  0
  -49.4207   53.3699   67.4418 H   0  0  0  0  0  0  0  0  0  0  0  0
  -33.5125   65.2894   61.6918 H   0  0  0  0  0  0  0  0  0  0  0  0
  -48.1300   55.2173   66.6293 H   0  0  0  0  0  0  0  0  0  0  0  0
  -46.8155   54.7624   67.7563 H   0  0  0  0  0  0  0  0  0  0  0  0
  -48.1789   55.3301   69.6317 H   0  0  0  0  0  0  0  0  0  0  0  0
  -49.5128   55.7449   68.5632 H   0  0  0  0  0  0  0  0  0  0  0  0
  -48.1885   57.5082   67.5707 H   0  0  0  0  0  0  0  0  0  0  0  0
  -46.8522   57.0630   68.6905 H   0  0  0  0  0  0  0  0  0  0  0  0
  -49.4477   58.2795   69.4708 H   0  0  0  0  0  0  0  0  0  0  0  0
  -47.8988   59.0858   69.4094 H   0  0  0  0  0  0  0  0  0  0  0  0
  -48.1639   57.7887   70.5497 H   0  0  0  0  0  0  0  0  0  0  0  0
  -42.4091   59.5800   62.2489 H   0  0  0  0  0  0  0  0  0  0  0  0
  -41.4732   59.3089   60.8240 H   0  0  0  0  0  0  0  0  0  0  0  0
  -43.2176   61.0218   60.4180 H   0  0  0  0  0  0  0  0  0  0  0  0
  -41.6218   61.7286   60.2778 H   0  0  0  0  0  0  0  0  0  0  0  0
  -41.7723   62.5432   62.5598 H   0  0  0  0  0  0  0  0  0  0  0  0
  -43.4135   61.8173   62.6522 H   0  0  0  0  0  0  0  0  0  0  0  0
  -43.4945   64.2239   62.4175 H   0  0  0  0  0  0  0  0  0  0  0  0
  -44.2416   63.3932   61.0916 H   0  0  0  0  0  0  0  0  0  0  0  0
  -42.1607   63.6046   59.7909 H   0  0  0  0  0  0  0  0  0  0  0  0
  -41.4315   64.4568   61.1618 H   0  0  0  0  0  0  0  0  0  0  0  0
  -43.7720   65.4189   59.5648 H   0  0  0  0  0  0  0  0  0  0  0  0
  -42.0895   65.9977   59.4529 H   0  0  0  0  0  0  0  0  0  0  0  0
  -43.4817   67.5459   60.7079 H   0  0  0  0  0  0  0  0  0  0  0  0
  -42.1969   66.8223   61.6912 H   0  0  0  0  0  0  0  0  0  0  0  0
  -43.7953   65.3085   62.7081 H   0  0  0  0  0  0  0  0  0  0  0  0
  -45.0812   65.9854   61.7225 H   0  0  0  0  0  0  0  0  0  0  0  0
  -44.7556   68.1531   62.7643 H   0  0  0  0  0  0  0  0  0  0  0  0
  -43.4550   67.4335   63.7596 H   0  0  0  0  0  0  0  0  0  0  0  0
  -46.3367   66.7061   63.9091 H   0  0  0  0  0  0  0  0  0  0  0  0
  -45.4594   67.7529   65.0318 H   0  0  0  0  0  0  0  0  0  0  0  0
  -44.8631   64.8815   64.4973 H   0  0  0  0  0  0  0  0  0  0  0  0
  -45.6940   65.5809   65.9282 H   0  0  0  0  0  0  0  0  0  0  0  0
  -42.8348   66.0546   65.2198 H   0  0  0  0  0  0  0  0  0  0  0  0
  -43.3901   64.9393   66.4321 H   0  0  0  0  0  0  0  0  0  0  0  0
  -43.9579   67.8803   66.3384 H   0  0  0  0  0  0  0  0  0  0  0  0
  -42.8207   66.9866   67.4388 H   0  0  0  0  0  0  0  0  0  0  0  0
  -45.7692   66.8146   67.5452 H   0  0  0  0  0  0  0  0  0  0  0  0
  -44.7535   67.7912   68.5966 H   0  0  0  0  0  0  0  0  0  0  0  0
  -44.5957   64.8076   68.2951 H   0  0  0  0  0  0  0  0  0  0  0  0
  -45.3127   65.7103   69.6575 H   0  0  0  0  0  0  0  0  0  0  0  0
  -42.4200   65.7296   68.9078 H   0  0  0  0  0  0  0  0  0  0  0  0
  -43.1606   64.8228   70.2427 H   0  0  0  0  0  0  0  0  0  0  0  0
  -43.0724   67.8059   69.9982 H   0  0  0  0  0  0  0  0  0  0  0  0
  -42.0931   66.8347   71.0710 H   0  0  0  0  0  0  0  0  0  0  0  0
  -43.8250   66.9040   71.2918 H   0  0  0  0  0  0  0  0  0  0  0  0
  -37.8613   64.3371   64.6865 H   0  0  0  0  0  0  0  0  0  0  0  0
  -38.5037   64.2763   61.7531 H   0  0  0  0  0  0  0  0  0  0  0  0
  -36.2362   65.6172   63.1242 H   0  0  0  0  0  0  0  0  0  0  0  0
  -37.4139   67.6641   62.3117 H   0  0  0  0  0  0  0  0  0  0  0  0
  -38.2128   66.7722   64.5111 H   0  0  0  0  0  0  0  0  0  0  0  0
  -40.2958   68.0614   64.2812 H   0  0  0  0  0  0  0  0  0  0  0  0
  -39.1105   68.7786   63.2144 H   0  0  0  0  0  0  0  0  0  0  0  0
  1  4  1  0  0  0  0
  1 31  1  0  0  0  0
  1 56  1  0  0  0  0
  2  3  1  0  0  0  0
  2  4  1  0  0  0  0
  2 57  1  0  0  0  0
  2 58  1  0  0  0  0
  3 49  1  0  0  0  0
  4  6  1  0  0  0  0
  4 59  1  1  0  0  0
  5  6  1  0  0  0  0
  5 60  1  0  0  0  0
  6  8  1  0  0  0  0
  6 61  1  6  0  0  0
  7 31  2  0  0  0  0
  8  9  2  0  0  0  0
  8 62  1  0  0  0  0
  9 11  1  0  0  0  0
  9 63  1  0  0  0  0
 10 50  1  0  0  0  0
 10 64  1  0  0  0  0
 11 13  1  0  0  0  0
 11 65  1  0  0  0  0
 11 66  1  0  0  0  0
 12 51  1  0  0  0  0
 12 55  1  0  0  0  0
 13 15  1  0  0  0  0
 13 67  1  0  0  0  0
 13 68  1  0  0  0  0
 14 55  1  0  0  0  0
 14 69  1  0  0  0  0
 15 17  1  0  0  0  0
 15 70  1  0  0  0  0
 15 71  1  0  0  0  0
 16 52  1  0  0  0  0
 16 72  1  0  0  0  0
 17 19  1  0  0  0  0
 17 73  1  0  0  0  0
 17 74  1  0  0  0  0
 18 49  1  0  0  0  0
 18 53  1  0  0  0  0
 19 21  1  0  0  0  0
 19 75  1  0  0  0  0
 19 76  1  0  0  0  0
 20 54  1  0  0  0  0
 20 77  1  0  0  0  0
 21 22  1  0  0  0  0
 21 78  1  0  0  0  0
 21 79  1  0  0  0  0
 22 23  1  0  0  0  0
 22 80  1  0  0  0  0
 22 81  1  0  0  0  0
 23 25  1  0  0  0  0
 23 82  1  0  0  0  0
 23 83  1  0  0  0  0
 24 55  1  0  0  0  0
 25 27  1  0  0  0  0
 25 84  1  0  0  0  0
 25 85  1  0  0  0  0
 26 55  1  0  0  0  0
 26 86  1  0  0  0  0
 27 28  1  0  0  0  0
 27 87  1  0  0  0  0
 27 88  1  0  0  0  0
 28 29  1  0  0  0  0
 28 89  1  0  0  0  0
 28 90  1  0  0  0  0
 29 30  1  0  0  0  0
 29 91  1  0  0  0  0
 29 92  1  0  0  0  0
 30 93  1  0  0  0  0
 30 94  1  0  0  0  0
 30 95  1  0  0  0  0
 31 32  1  0  0  0  0
 32 33  1  0  0  0  0
 32 96  1  0  0  0  0
 32 97  1  0  0  0  0
 33 34  1  0  0  0  0
 33 98  1  0  0  0  0
 33 99  1  0  0  0  0
 34 35  1  0  0  0  0
 34100  1  0  0  0  0
 34101  1  0  0  0  0
 35 36  1  0  0  0  0
 35102  1  0  0  0  0
 35103  1  0  0  0  0
 36 37  1  0  0  0  0
 36104  1  0  0  0  0
 36105  1  0  0  0  0
 37 38  1  0  0  0  0
 37106  1  0  0  0  0
 37107  1  0  0  0  0
 38 39  1  0  0  0  0
 38108  1  0  0  0  0
 38109  1  0  0  0  0
 39 40  1  0  0  0  0
 39110  1  0  0  0  0
 39111  1  0  0  0  0
 40 41  1  0  0  0  0
 40112  1  0  0  0  0
 40113  1  0  0  0  0
 41 42  1  0  0  0  0
 41114  1  0  0  0  0
 41115  1  0  0  0  0
 42 43  1  0  0  0  0
 42116  1  0  0  0  0
 42117  1  0  0  0  0
 43 44  1  0  0  0  0
 43118  1  0  0  0  0
 43119  1  0  0  0  0
 44 45  1  0  0  0  0
 44120  1  0  0  0  0
 44121  1  0  0  0  0
 45 46  1  0  0  0  0
 45122  1  0  0  0  0
 45123  1  0  0  0  0
 46 47  1  0  0  0  0
 46124  1  0  0  0  0
 46125  1  0  0  0  0
 47 48  1  0  0  0  0
 47126  1  0  0  0  0
 47127  1  0  0  0  0
 48128  1  0  0  0  0
 48129  1  0  0  0  0
 48130  1  0  0  0  0
 49 50  1  0  0  0  0
 49131  1  1  0  0  0
 50 51  1  0  0  0  0
 50132  1  6  0  0  0
 51 52  1  0  0  0  0
 51133  1  1  0  0  0
 52 53  1  0  0  0  0
 52134  1  6  0  0  0
 53 54  1  0  0  0  0
 53135  1  1  0  0  0
 54136  1  0  0  0  0
 54137  1  0  0  0  0
M  CHG  1  24  -1
M  END
$$$$