/media/chris/experiments/cd1a-new-docking/inputs/ligands/1onq_ligand.pdb
 OpenBabel06222310383D

137137  0  0  1  0  0  0  0  0999 V2000
  -40.4920   60.2280   63.6270 N   0  0  0  0  0  0  0  0  0  0  0  0
  -38.5950   61.7730   64.2860 C   0  0  0  0  0  0  0  0  0  0  0  0
  -37.5441   62.0867   65.2349 O   0  0  0  0  0  0  0  0  0  0  0  0
  -39.4590   60.5300   64.5980 C   0  0  1  0  0  0  0  0  0  0  0  0
  -40.7577   59.2290   66.0180 O   0  0  0  0  0  0  0  0  0  0  0  0
  -40.2280   60.5370   65.9080 C   0  0  2  0  0  0  0  0  0  0  0  0
  -40.2107   61.8855   62.1035 O   0  0  0  0  0  0  0  0  0  0  0  0
  -41.3266   61.6007   65.8452 C   0  0  0  0  0  0  0  0  0  0  0  0
  -41.3921   62.6366   66.6990 C   0  0  0  0  0  0  0  0  0  0  0  0
  -35.0677   62.0871   63.8049 O   0  0  0  0  0  0  0  0  0  0  0  0
  -42.5217   63.6569   66.5713 C   0  0  0  0  0  0  0  0  0  0  0  0
  -34.0199   64.5267   62.4933 O   0  0  0  0  0  0  0  0  0  0  0  0
  -42.1870   64.8436   65.6560 C   0  0  0  0  0  0  0  0  0  0  0  0
  -31.8452   65.6919   63.2869 O   0  0  0  0  0  0  0  0  0  0  0  0
  -40.9647   65.6825   66.0724 C   0  0  0  0  0  0  0  0  0  0  0  0
  -36.4318   65.8017   62.4860 O   0  0  0  0  0  0  0  0  0  0  0  0
  -40.7408   66.8542   65.0863 C   0  0  0  0  0  0  0  0  0  0  0  0
  -37.4137   64.5009   65.0354 O   0  0  0  0  0  0  0  0  0  0  0  0
  -40.5021   66.4415   63.6117 C   0  0  0  0  0  0  0  0  0  0  0  0
  -36.4467   68.0573   64.5825 O   0  0  0  0  0  0  0  0  0  0  0  0
  -41.6761   65.6617   62.9742 C   0  0  0  0  0  0  0  0  0  0  0  0
  -42.9980   66.4586   62.9353 C   0  0  0  0  0  0  0  0  0  0  0  0
  -42.9139   67.7555   62.1216 C   0  0  0  0  0  0  0  0  0  0  0  0
  -33.6225   67.0179   62.3011 O   0  5  0  0  0  0  0  0  0  0  0  0
  -44.1886   68.5946   62.0619 C   0  0  0  0  0  0  0  0  0  0  0  0
  -32.2187   65.6260   60.8989 O   0  0  0  0  0  0  0  0  0  0  0  0
  -44.0545   69.8774   61.2179 C   0  0  0  0  0  0  0  0  0  0  0  0
  -42.9712   70.8601   61.6878 C   0  0  0  0  0  0  0  0  0  0  0  0
  -43.2328   71.3210   63.1245 C   0  0  0  0  0  0  0  0  0  0  0  0
  -42.2403   72.3116   63.7070 C   0  0  0  0  0  0  0  0  0  0  0  0
  -40.7863   60.8910   62.5003 C   0  0  0  0  0  0  0  0  0  0  0  0
  -41.9161   60.3159   61.6986 C   0  0  0  0  0  0  0  0  0  0  0  0
  -42.9841   61.4063   61.6109 C   0  0  0  0  0  0  0  0  0  0  0  0
  -44.1866   60.8961   60.8206 C   0  0  0  0  0  0  0  0  0  0  0  0
  -45.3218   61.8736   60.6353 C   0  0  0  0  0  0  0  0  0  0  0  0
  -45.8142   62.2760   62.0215 C   0  0  0  0  0  0  0  0  0  0  0  0
  -46.3021   61.0788   62.8482 C   0  0  0  0  0  0  0  0  0  0  0  0
  -47.4618   60.2967   62.2047 C   0  0  0  0  0  0  0  0  0  0  0  0
  -48.7118   61.1701   61.9595 C   0  0  0  0  0  0  0  0  0  0  0  0
  -49.8370   60.3394   61.3357 C   0  0  0  0  0  0  0  0  0  0  0  0
  -50.3208   59.1692   62.1835 C   0  0  0  0  0  0  0  0  0  0  0  0
  -50.8804   59.6204   63.5245 C   0  0  0  0  0  0  0  0  0  0  0  0
  -51.3764   58.5092   64.4528 C   0  0  0  0  0  0  0  0  0  0  0  0
  -50.2022   57.5919   64.7663 C   0  0  0  0  0  0  0  0  0  0  0  0
  -49.4952   56.8926   63.6147 C   0  0  0  0  0  0  0  0  0  0  0  0
  -48.3540   56.0013   64.1300 C   0  0  0  0  0  0  0  0  0  0  0  0
  -47.5704   55.2659   63.0272 C   0  0  0  0  0  0  0  0  0  0  0  0
  -48.4437   54.3473   62.1757 C   0  0  0  0  0  0  0  0  0  0  0  0
  -36.6675   63.2597   65.0462 C   0  0  2  0  0  0  0  0  0  0  0  0
  -35.8119   63.2657   63.7712 C   0  0  1  0  0  0  0  0  0  0  0  0
  -34.8316   64.4561   63.6875 C   0  0  2  0  0  0  0  0  0  0  0  0
  -35.6781   65.6990   63.6916 C   0  0  2  0  0  0  0  0  0  0  0  0
  -36.5935   65.6931   64.9025 C   0  0  1  0  0  0  0  0  0  0  0  0
  -37.3535   67.0038   64.7114 C   0  0  0  0  0  0  0  0  0  0  0  0
  -32.8935   65.7229   62.2244 S   0  0  0  0  0  0  0  0  0  0  0  0
  -41.0464   59.4375   63.8192 H   0  0  0  0  0  0  0  0  0  0  0  0
  -38.1357   61.6183   63.3320 H   0  0  0  0  0  0  0  0  0  0  0  0
  -39.2690   62.6030   64.3261 H   0  0  0  0  0  0  0  0  0  0  0  0
  -38.6677   59.8099   64.6092 H   0  0  0  0  0  0  0  0  0  0  0  0
  -40.0308   58.5878   66.0547 H   0  0  0  0  0  0  0  0  0  0  0  0
  -39.6247   60.7776   66.7583 H   0  0  0  0  0  0  0  0  0  0  0  0
  -42.0502   61.5188   65.1139 H   0  0  0  0  0  0  0  0  0  0  0  0
  -40.6808   62.7424   67.4391 H   0  0  0  0  0  0  0  0  0  0  0  0
  -35.6681   61.3270   63.8576 H   0  0  0  0  0  0  0  0  0  0  0  0
  -42.7452   64.0361   67.5466 H   0  0  0  0  0  0  0  0  0  0  0  0
  -43.3521   63.1475   66.1287 H   0  0  0  0  0  0  0  0  0  0  0  0
  -43.0382   65.4915   65.6328 H   0  0  0  0  0  0  0  0  0  0  0  0
  -41.9397   64.4189   64.7055 H   0  0  0  0  0  0  0  0  0  0  0  0
  -32.2663   65.7541   64.1585 H   0  0  0  0  0  0  0  0  0  0  0  0
  -40.0959   65.0579   66.0782 H   0  0  0  0  0  0  0  0  0  0  0  0
  -41.1407   66.0844   67.0484 H   0  0  0  0  0  0  0  0  0  0  0  0
  -35.8283   65.8037   61.7266 H   0  0  0  0  0  0  0  0  0  0  0  0
  -39.8864   67.4065   65.4175 H   0  0  0  0  0  0  0  0  0  0  0  0
  -41.6471   67.4229   65.0916 H   0  0  0  0  0  0  0  0  0  0  0  0
  -39.6289   65.8244   63.5730 H   0  0  0  0  0  0  0  0  0  0  0  0
  -40.3944   67.3472   63.0522 H   0  0  0  0  0  0  0  0  0  0  0  0
  -36.9318   68.8885   64.4613 H   0  0  0  0  0  0  0  0  0  0  0  0
  -41.8361   64.7682   63.5408 H   0  0  0  0  0  0  0  0  0  0  0  0
  -41.4031   65.4567   61.9601 H   0  0  0  0  0  0  0  0  0  0  0  0
  -43.2719   66.7073   63.9394 H   0  0  0  0  0  0  0  0  0  0  0  0
  -43.7240   65.8358   62.4558 H   0  0  0  0  0  0  0  0  0  0  0  0
  -42.6463   67.4955   61.1187 H   0  0  0  0  0  0  0  0  0  0  0  0
  -42.1920   68.3644   62.6246 H   0  0  0  0  0  0  0  0  0  0  0  0
  -44.4544   68.8744   63.0598 H   0  0  0  0  0  0  0  0  0  0  0  0
  -44.9357   67.9904   61.5911 H   0  0  0  0  0  0  0  0  0  0  0  0
  -31.7406   64.7841   60.8403 H   0  0  0  0  0  0  0  0  0  0  0  0
  -44.9951   70.3870   61.2388 H   0  0  0  0  0  0  0  0  0  0  0  0
  -43.7619   69.5593   60.2391 H   0  0  0  0  0  0  0  0  0  0  0  0
  -42.9689   71.7131   61.0418 H   0  0  0  0  0  0  0  0  0  0  0  0
  -42.0241   70.3631   61.6568 H   0  0  0  0  0  0  0  0  0  0  0  0
  -43.2316   70.4530   63.7502 H   0  0  0  0  0  0  0  0  0  0  0  0
  -44.1670   71.8414   63.0904 H   0  0  0  0  0  0  0  0  0  0  0  0
  -41.2752   71.8541   63.7706 H   0  0  0  0  0  0  0  0  0  0  0  0
  -42.5612   72.6048   64.6848 H   0  0  0  0  0  0  0  0  0  0  0  0
  -42.1853   73.1741   63.0762 H   0  0  0  0  0  0  0  0  0  0  0  0
  -42.3116   59.4493   62.1859 H   0  0  0  0  0  0  0  0  0  0  0  0
  -41.5873   60.0167   60.7254 H   0  0  0  0  0  0  0  0  0  0  0  0
  -42.5751   62.2643   61.1196 H   0  0  0  0  0  0  0  0  0  0  0  0
  -43.2991   61.6700   62.5989 H   0  0  0  0  0  0  0  0  0  0  0  0
  -44.5733   60.0386   61.3306 H   0  0  0  0  0  0  0  0  0  0  0  0
  -43.8188   60.6925   59.8366 H   0  0  0  0  0  0  0  0  0  0  0  0
  -46.1154   61.4114   60.0862 H   0  0  0  0  0  0  0  0  0  0  0  0
  -44.9927   62.7328   60.0892 H   0  0  0  0  0  0  0  0  0  0  0  0
  -46.6233   62.9673   61.9099 H   0  0  0  0  0  0  0  0  0  0  0  0
  -44.9886   62.7135   62.5430 H   0  0  0  0  0  0  0  0  0  0  0  0
  -46.6291   61.4400   63.8009 H   0  0  0  0  0  0  0  0  0  0  0  0
  -45.4780   60.4004   62.9221 H   0  0  0  0  0  0  0  0  0  0  0  0
  -47.7310   59.4896   62.8535 H   0  0  0  0  0  0  0  0  0  0  0  0
  -47.1232   59.9457   61.2523 H   0  0  0  0  0  0  0  0  0  0  0  0
  -48.4569   61.9704   61.2966 H   0  0  0  0  0  0  0  0  0  0  0  0
  -49.0498   61.5589   62.8973 H   0  0  0  0  0  0  0  0  0  0  0  0
  -49.4844   59.9503   60.4035 H   0  0  0  0  0  0  0  0  0  0  0  0
  -50.6731   60.9991   61.2323 H   0  0  0  0  0  0  0  0  0  0  0  0
  -49.4981   58.5080   62.3588 H   0  0  0  0  0  0  0  0  0  0  0  0
  -51.1077   58.6804   61.6481 H   0  0  0  0  0  0  0  0  0  0  0  0
  -51.7028   60.2772   63.3317 H   0  0  0  0  0  0  0  0  0  0  0  0
  -50.0626   60.0814   64.0379 H   0  0  0  0  0  0  0  0  0  0  0  0
  -52.1519   57.9526   63.9694 H   0  0  0  0  0  0  0  0  0  0  0  0
  -51.7686   58.9292   65.3553 H   0  0  0  0  0  0  0  0  0  0  0  0
  -50.5647   56.8291   65.4233 H   0  0  0  0  0  0  0  0  0  0  0  0
  -49.4588   58.2483   65.1681 H   0  0  0  0  0  0  0  0  0  0  0  0
  -49.0918   57.6297   62.9522 H   0  0  0  0  0  0  0  0  0  0  0  0
  -50.2045   56.2767   63.1023 H   0  0  0  0  0  0  0  0  0  0  0  0
  -48.7732   55.2684   64.7874 H   0  0  0  0  0  0  0  0  0  0  0  0
  -47.6570   56.6506   64.6172 H   0  0  0  0  0  0  0  0  0  0  0  0
  -46.8065   54.6761   63.4891 H   0  0  0  0  0  0  0  0  0  0  0  0
  -47.1652   56.0116   62.3754 H   0  0  0  0  0  0  0  0  0  0  0  0
  -48.8687   53.5849   62.7946 H   0  0  0  0  0  0  0  0  0  0  0  0
  -47.8466   53.8948   61.4118 H   0  0  0  0  0  0  0  0  0  0  0  0
  -49.2278   54.9184   61.7242 H   0  0  0  0  0  0  0  0  0  0  0  0
  -36.0127   63.1808   65.8888 H   0  0  0  0  0  0  0  0  0  0  0  0
  -36.4595   63.3487   62.9234 H   0  0  0  0  0  0  0  0  0  0  0  0
  -34.1533   64.3446   64.5075 H   0  0  0  0  0  0  0  0  0  0  0  0
  -35.0370   66.5538   63.7488 H   0  0  0  0  0  0  0  0  0  0  0  0
  -36.0767   65.6460   65.8383 H   0  0  0  0  0  0  0  0  0  0  0  0
  -37.9544   66.9413   63.8283 H   0  0  0  0  0  0  0  0  0  0  0  0
  -37.9810   67.1774   65.5606 H   0  0  0  0  0  0  0  0  0  0  0  0
  1  4  1  0  0  0  0
  1 31  1  0  0  0  0
  1 56  1  0  0  0  0
  2  3  1  0  0  0  0
  2  4  1  0  0  0  0
  2 57  1  0  0  0  0
  2 58  1  0  0  0  0
  3 49  1  0  0  0  0
  4  6  1  0  0  0  0
  4 59  1  1  0  0  0
  5  6  1  0  0  0  0
  5 60  1  0  0  0  0
  6  8  1  0  0  0  0
  6 61  1  1  0  0  0
  7 31  2  0  0  0  0
  8  9  2  0  0  0  0
  8 62  1  0  0  0  0
  9 11  1  0  0  0  0
  9 63  1  0  0  0  0
 10 50  1  0  0  0  0
 10 64  1  0  0  0  0
 11 13  1  0  0  0  0
 11 65  1  0  0  0  0
 11 66  1  0  0  0  0
 12 51  1  0  0  0  0
 12 55  1  0  0  0  0
 13 15  1  0  0  0  0
 13 67  1  0  0  0  0
 13 68  1  0  0  0  0
 14 55  1  0  0  0  0
 14 69  1  0  0  0  0
 15 17  1  0  0  0  0
 15 70  1  0  0  0  0
 15 71  1  0  0  0  0
 16 52  1  0  0  0  0
 16 72  1  0  0  0  0
 17 19  1  0  0  0  0
 17 73  1  0  0  0  0
 17 74  1  0  0  0  0
 18 49  1  0  0  0  0
 18 53  1  0  0  0  0
 19 21  1  0  0  0  0
 19 75  1  0  0  0  0
 19 76  1  0  0  0  0
 20 54  1  0  0  0  0
 20 77  1  0  0  0  0
 21 22  1  0  0  0  0
 21 78  1  0  0  0  0
 21 79  1  0  0  0  0
 22 23  1  0  0  0  0
 22 80  1  0  0  0  0
 22 81  1  0  0  0  0
 23 25  1  0  0  0  0
 23 82  1  0  0  0  0
 23 83  1  0  0  0  0
 24 55  1  0  0  0  0
 25 27  1  0  0  0  0
 25 84  1  0  0  0  0
 25 85  1  0  0  0  0
 26 55  1  0  0  0  0
 26 86  1  0  0  0  0
 27 28  1  0  0  0  0
 27 87  1  0  0  0  0
 27 88  1  0  0  0  0
 28 29  1  0  0  0  0
 28 89  1  0  0  0  0
 28 90  1  0  0  0  0
 29 30  1  0  0  0  0
 29 91  1  0  0  0  0
 29 92  1  0  0  0  0
 30 93  1  0  0  0  0
 30 94  1  0  0  0  0
 30 95  1  0  0  0  0
 31 32  1  0  0  0  0
 32 33  1  0  0  0  0
 32 96  1  0  0  0  0
 32 97  1  0  0  0  0
 33 34  1  0  0  0  0
 33 98  1  0  0  0  0
 33 99  1  0  0  0  0
 34 35  1  0  0  0  0
 34100  1  0  0  0  0
 34101  1  0  0  0  0
 35 36  1  0  0  0  0
 35102  1  0  0  0  0
 35103  1  0  0  0  0
 36 37  1  0  0  0  0
 36104  1  0  0  0  0
 36105  1  0  0  0  0
 37 38  1  0  0  0  0
 37106  1  0  0  0  0
 37107  1  0  0  0  0
 38 39  1  0  0  0  0
 38108  1  0  0  0  0
 38109  1  0  0  0  0
 39 40  1  0  0  0  0
 39110  1  0  0  0  0
 39111  1  0  0  0  0
 40 41  1  0  0  0  0
 40112  1  0  0  0  0
 40113  1  0  0  0  0
 41 42  1  0  0  0  0
 41114  1  0  0  0  0
 41115  1  0  0  0  0
 42 43  1  0  0  0  0
 42116  1  0  0  0  0
 42117  1  0  0  0  0
 43 44  1  0  0  0  0
 43118  1  0  0  0  0
 43119  1  0  0  0  0
 44 45  1  0  0  0  0
 44120  1  0  0  0  0
 44121  1  0  0  0  0
 45 46  1  0  0  0  0
 45122  1  0  0  0  0
 45123  1  0  0  0  0
 46 47  1  0  0  0  0
 46124  1  0  0  0  0
 46125  1  0  0  0  0
 47 48  1  0  0  0  0
 47126  1  0  0  0  0
 47127  1  0  0  0  0
 48128  1  0  0  0  0
 48129  1  0  0  0  0
 48130  1  0  0  0  0
 49 50  1  0  0  0  0
 49131  1  1  0  0  0
 50 51  1  0  0  0  0
 50132  1  6  0  0  0
 51 52  1  0  0  0  0
 51133  1  1  0  0  0
 52 53  1  0  0  0  0
 52134  1  1  0  0  0
 53 54  1  0  0  0  0
 53135  1  1  0  0  0
 54136  1  0  0  0  0
 54137  1  0  0  0  0
M  CHG  1  24  -1
M  END
$$$$