/media/chris/experiments/cd1a-new-docking/inputs/ligands/1onq_ligand.pdb
 OpenBabel06222310383D

137137  0  0  1  0  0  0  0  0999 V2000
  -40.4920   60.2280   63.6270 N   0  0  0  0  0  0  0  0  0  0  0  0
  -38.5950   61.7730   64.2860 C   0  0  0  0  0  0  0  0  0  0  0  0
  -39.2927   63.0412   64.1953 O   0  0  0  0  0  0  0  0  0  0  0  0
  -39.4590   60.5300   64.5980 C   0  0  1  0  0  0  0  0  0  0  0  0
  -39.2569   60.8461   66.8904 O   0  0  0  0  0  0  0  0  0  0  0  0
  -40.2280   60.5370   65.9080 C   0  0  2  0  0  0  0  0  0  0  0  0
  -42.2618   61.3924   64.4390 O   0  0  0  0  0  0  0  0  0  0  0  0
  -40.8583   59.1606   66.1332 C   0  0  0  0  0  0  0  0  0  0  0  0
  -42.0897   58.8399   65.7007 C   0  0  0  0  0  0  0  0  0  0  0  0
  -36.9245   63.2334   62.6041 O   0  0  0  0  0  0  0  0  0  0  0  0
  -42.6490   57.4435   65.9661 C   0  0  0  0  0  0  0  0  0  0  0  0
  -36.2474   65.6923   61.0988 O   0  0  0  0  0  0  0  0  0  0  0  0
  -44.1767   57.4042   66.1175 C   0  0  0  0  0  0  0  0  0  0  0  0
  -35.7017   63.2262   60.5177 O   0  0  0  0  0  0  0  0  0  0  0  0
  -44.9803   57.8774   64.8922 C   0  0  0  0  0  0  0  0  0  0  0  0
  -38.7865   66.6864   61.1867 O   0  0  0  0  0  0  0  0  0  0  0  0
  -44.6770   56.9907   63.6605 C   0  0  0  0  0  0  0  0  0  0  0  0
  -39.4547   65.4386   63.8611 O   0  0  0  0  0  0  0  0  0  0  0  0
  -45.0292   55.4902   63.8225 C   0  0  0  0  0  0  0  0  0  0  0  0
  -38.9348   69.0474   63.1582 O   0  0  0  0  0  0  0  0  0  0  0  0
  -44.6999   54.6249   62.5833 C   0  0  0  0  0  0  0  0  0  0  0  0
  -45.0722   53.1361   62.7532 C   0  0  0  0  0  0  0  0  0  0  0  0
  -44.7318   52.2712   61.5336 C   0  0  0  0  0  0  0  0  0  0  0  0
  -34.0628   64.5679   61.7022 O   0  5  0  0  0  0  0  0  0  0  0  0
  -45.3980   52.6721   60.2192 C   0  0  0  0  0  0  0  0  0  0  0  0
  -34.4390   64.9139   59.3330 O   0  0  0  0  0  0  0  0  0  0  0  0
  -46.9386   52.6551   60.2676 C   0  0  0  0  0  0  0  0  0  0  0  0
  -47.6393   53.0376   58.9551 C   0  0  0  0  0  0  0  0  0  0  0  0
  -47.2427   54.4485   58.5110 C   0  0  0  0  0  0  0  0  0  0  0  0
  -47.8808   54.9576   57.2306 C   0  0  0  0  0  0  0  0  0  0  0  0
  -41.7615   60.6565   63.6107 C   0  0  0  0  0  0  0  0  0  0  0  0
  -42.5847   60.1680   62.4559 C   0  0  0  0  0  0  0  0  0  0  0  0
  -42.6099   58.6428   62.5563 C   0  0  0  0  0  0  0  0  0  0  0  0
  -41.1870   58.0925   62.4955 C   0  0  0  0  0  0  0  0  0  0  0  0
  -41.0530   56.5907   62.5667 C   0  0  0  0  0  0  0  0  0  0  0  0
  -41.6712   56.1348   63.8843 C   0  0  0  0  0  0  0  0  0  0  0  0
  -41.5823   54.6163   64.0869 C   0  0  0  0  0  0  0  0  0  0  0  0
  -40.1448   54.0660   64.1205 C   0  0  0  0  0  0  0  0  0  0  0  0
  -39.3007   54.6611   65.2689 C   0  0  0  0  0  0  0  0  0  0  0  0
  -37.8787   54.0935   65.2442 C   0  0  0  0  0  0  0  0  0  0  0  0
  -37.0912   54.3817   63.9718 C   0  0  0  0  0  0  0  0  0  0  0  0
  -36.9091   55.8730   63.7310 C   0  0  0  0  0  0  0  0  0  0  0  0
  -36.1426   56.2595   62.4640 C   0  0  0  0  0  0  0  0  0  0  0  0
  -36.0498   57.7784   62.4089 C   0  0  0  0  0  0  0  0  0  0  0  0
  -35.3423   58.4234   61.2263 C   0  0  0  0  0  0  0  0  0  0  0  0
  -33.8829   57.9504   61.1339 C   0  0  0  0  0  0  0  0  0  0  0  0
  -33.0837   58.5682   59.9718 C   0  0  0  0  0  0  0  0  0  0  0  0
  -33.6878   58.2754   58.6004 C   0  0  0  0  0  0  0  0  0  0  0  0
  -38.5707   64.2916   63.8868 C   0  0  2  0  0  0  0  0  0  0  0  0
  -37.8007   64.3171   62.5587 C   0  0  1  0  0  0  0  0  0  0  0  0
  -36.9714   65.6028   62.3469 C   0  0  2  0  0  0  0  0  0  0  0  0
  -37.9542   66.7410   62.3427 C   0  0  2  0  0  0  0  0  0  0  0  0
  -38.7875   66.7050   63.6110 C   0  0  1  0  0  0  0  0  0  0  0  0
  -39.7042   67.9085   63.4028 C   0  0  0  0  0  0  0  0  0  0  0  0
  -35.0951   64.5857   60.6304 S   0  0  0  0  0  0  0  0  0  0  0  0
  -40.2280   59.6342   62.8875 H   0  0  0  0  0  0  0  0  0  0  0  0
  -37.8608   61.8607   65.0594 H   0  0  0  0  0  0  0  0  0  0  0  0
  -38.1940   61.6005   63.3091 H   0  0  0  0  0  0  0  0  0  0  0  0
  -38.6677   59.8099   64.6092 H   0  0  0  0  0  0  0  0  0  0  0  0
  -38.8837   61.7234   66.7113 H   0  0  0  0  0  0  0  0  0  0  0  0
  -41.0317   61.2430   65.9299 H   0  0  0  0  0  0  0  0  0  0  0  0
  -40.3128   58.4462   66.6402 H   0  0  0  0  0  0  0  0  0  0  0  0
  -42.6561   59.5355   65.1904 H   0  0  0  0  0  0  0  0  0  0  0  0
  -37.4286   62.4154   62.7369 H   0  0  0  0  0  0  0  0  0  0  0  0
  -42.2112   57.0710   66.8686 H   0  0  0  0  0  0  0  0  0  0  0  0
  -42.4056   56.8440   65.1139 H   0  0  0  0  0  0  0  0  0  0  0  0
  -44.4414   58.0281   66.9455 H   0  0  0  0  0  0  0  0  0  0  0  0
  -44.4305   56.3736   66.2531 H   0  0  0  0  0  0  0  0  0  0  0  0
  -36.1343   62.9948   61.3545 H   0  0  0  0  0  0  0  0  0  0  0  0
  -44.7161   58.8900   64.6691 H   0  0  0  0  0  0  0  0  0  0  0  0
  -46.0238   57.8060   65.1177 H   0  0  0  0  0  0  0  0  0  0  0  0
  -38.2346   66.7105   60.3894 H   0  0  0  0  0  0  0  0  0  0  0  0
  -43.6304   57.0638   63.4501 H   0  0  0  0  0  0  0  0  0  0  0  0
  -45.2993   57.3574   62.8711 H   0  0  0  0  0  0  0  0  0  0  0  0
  -46.0782   55.4109   64.0181 H   0  0  0  0  0  0  0  0  0  0  0  0
  -44.4287   55.1181   64.6261 H   0  0  0  0  0  0  0  0  0  0  0  0
  -39.5192   69.8103   63.0264 H   0  0  0  0  0  0  0  0  0  0  0  0
  -43.6489   54.6915   62.3937 H   0  0  0  0  0  0  0  0  0  0  0  0
  -45.2844   55.0041   61.7712 H   0  0  0  0  0  0  0  0  0  0  0  0
  -46.1252   53.0696   62.9308 H   0  0  0  0  0  0  0  0  0  0  0  0
  -44.4947   52.7615   63.5724 H   0  0  0  0  0  0  0  0  0  0  0  0
  -45.0230   51.2655   61.7544 H   0  0  0  0  0  0  0  0  0  0  0  0
  -43.6814   52.3990   61.3744 H   0  0  0  0  0  0  0  0  0  0  0  0
  -45.0776   51.9918   59.4580 H   0  0  0  0  0  0  0  0  0  0  0  0
  -45.1053   53.6816   60.0185 H   0  0  0  0  0  0  0  0  0  0  0  0
  -35.1052   64.9276   58.6281 H   0  0  0  0  0  0  0  0  0  0  0  0
  -47.2535   53.3437   61.0237 H   0  0  0  0  0  0  0  0  0  0  0  0
  -47.2179   51.6420   60.4687 H   0  0  0  0  0  0  0  0  0  0  0  0
  -48.6987   53.0016   59.1009 H   0  0  0  0  0  0  0  0  0  0  0  0
  -47.3411   52.3452   58.1957 H   0  0  0  0  0  0  0  0  0  0  0  0
  -46.1818   54.4602   58.3729 H   0  0  0  0  0  0  0  0  0  0  0  0
  -47.5964   55.0994   59.2831 H   0  0  0  0  0  0  0  0  0  0  0  0
  -47.5681   54.3474   56.4092 H   0  0  0  0  0  0  0  0  0  0  0  0
  -47.5779   55.9694   57.0590 H   0  0  0  0  0  0  0  0  0  0  0  0
  -48.9461   54.9147   57.3215 H   0  0  0  0  0  0  0  0  0  0  0  0
  -42.1401   60.4704   61.5308 H   0  0  0  0  0  0  0  0  0  0  0  0
  -43.5740   60.5745   62.4862 H   0  0  0  0  0  0  0  0  0  0  0  0
  -43.1794   58.2434   61.7432 H   0  0  0  0  0  0  0  0  0  0  0  0
  -43.0571   58.3590   63.4860 H   0  0  0  0  0  0  0  0  0  0  0  0
  -40.6400   58.5089   63.3154 H   0  0  0  0  0  0  0  0  0  0  0  0
  -40.8124   58.3694   61.5322 H   0  0  0  0  0  0  0  0  0  0  0  0
  -40.0197   56.3146   62.5336 H   0  0  0  0  0  0  0  0  0  0  0  0
  -41.5496   56.1292   61.7389 H   0  0  0  0  0  0  0  0  0  0  0  0
  -42.7019   56.4219   63.8961 H   0  0  0  0  0  0  0  0  0  0  0  0
  -41.1217   56.5990   64.6764 H   0  0  0  0  0  0  0  0  0  0  0  0
  -42.1052   54.1397   63.2843 H   0  0  0  0  0  0  0  0  0  0  0  0
  -42.0130   54.4086   65.0442 H   0  0  0  0  0  0  0  0  0  0  0  0
  -39.6685   54.2981   63.1909 H   0  0  0  0  0  0  0  0  0  0  0  0
  -40.2085   53.0102   64.2822 H   0  0  0  0  0  0  0  0  0  0  0  0
  -39.7597   54.4186   66.2046 H   0  0  0  0  0  0  0  0  0  0  0  0
  -39.2501   55.7227   65.1450 H   0  0  0  0  0  0  0  0  0  0  0  0
  -37.9432   53.0318   65.3610 H   0  0  0  0  0  0  0  0  0  0  0  0
  -37.3500   54.5775   66.0386 H   0  0  0  0  0  0  0  0  0  0  0  0
  -37.6156   53.9603   63.1397 H   0  0  0  0  0  0  0  0  0  0  0  0
  -36.1199   53.9469   64.0823 H   0  0  0  0  0  0  0  0  0  0  0  0
  -36.3814   56.2778   64.5691 H   0  0  0  0  0  0  0  0  0  0  0  0
  -37.8956   56.2670   63.6027 H   0  0  0  0  0  0  0  0  0  0  0  0
  -36.6619   55.8968   61.6016 H   0  0  0  0  0  0  0  0  0  0  0  0
  -35.1628   55.8297   62.4791 H   0  0  0  0  0  0  0  0  0  0  0  0
  -35.5380   58.0953   63.2935 H   0  0  0  0  0  0  0  0  0  0  0  0
  -37.0662   58.0980   62.3101 H   0  0  0  0  0  0  0  0  0  0  0  0
  -35.3587   59.4866   61.3459 H   0  0  0  0  0  0  0  0  0  0  0  0
  -35.8505   58.1398   60.3284 H   0  0  0  0  0  0  0  0  0  0  0  0
  -33.8833   56.8874   61.0114 H   0  0  0  0  0  0  0  0  0  0  0  0
  -33.4026   58.2674   62.0360 H   0  0  0  0  0  0  0  0  0  0  0  0
  -32.0893   58.1738   59.9961 H   0  0  0  0  0  0  0  0  0  0  0  0
  -33.0998   59.6297   60.1051 H   0  0  0  0  0  0  0  0  0  0  0  0
  -33.6892   57.2191   58.4294 H   0  0  0  0  0  0  0  0  0  0  0  0
  -33.1056   58.7584   57.8437 H   0  0  0  0  0  0  0  0  0  0  0  0
  -34.6920   58.6434   58.5670 H   0  0  0  0  0  0  0  0  0  0  0  0
  -37.8613   64.3371   64.6865 H   0  0  0  0  0  0  0  0  0  0  0  0
  -38.5037   64.2763   61.7531 H   0  0  0  0  0  0  0  0  0  0  0  0
  -36.2362   65.6172   63.1242 H   0  0  0  0  0  0  0  0  0  0  0  0
  -37.4139   67.6641   62.3117 H   0  0  0  0  0  0  0  0  0  0  0  0
  -38.2128   66.7722   64.5111 H   0  0  0  0  0  0  0  0  0  0  0  0
  -40.3464   67.7264   62.5666 H   0  0  0  0  0  0  0  0  0  0  0  0
  -40.2948   68.0612   64.2819 H   0  0  0  0  0  0  0  0  0  0  0  0
  1  4  1  0  0  0  0
  1 31  1  0  0  0  0
  1 56  1  0  0  0  0
  2  3  1  0  0  0  0
  2  4  1  0  0  0  0
  2 57  1  0  0  0  0
  2 58  1  0  0  0  0
  3 49  1  0  0  0  0
  4  6  1  0  0  0  0
  4 59  1  1  0  0  0
  5  6  1  0  0  0  0
  5 60  1  0  0  0  0
  6  8  1  0  0  0  0
  6 61  1  6  0  0  0
  7 31  2  0  0  0  0
  8  9  2  0  0  0  0
  8 62  1  0  0  0  0
  9 11  1  0  0  0  0
  9 63  1  0  0  0  0
 10 50  1  0  0  0  0
 10 64  1  0  0  0  0
 11 13  1  0  0  0  0
 11 65  1  0  0  0  0
 11 66  1  0  0  0  0
 12 51  1  0  0  0  0
 12 55  1  0  0  0  0
 13 15  1  0  0  0  0
 13 67  1  0  0  0  0
 13 68  1  0  0  0  0
 14 55  1  0  0  0  0
 14 69  1  0  0  0  0
 15 17  1  0  0  0  0
 15 70  1  0  0  0  0
 15 71  1  0  0  0  0
 16 52  1  0  0  0  0
 16 72  1  0  0  0  0
 17 19  1  0  0  0  0
 17 73  1  0  0  0  0
 17 74  1  0  0  0  0
 18 49  1  0  0  0  0
 18 53  1  0  0  0  0
 19 21  1  0  0  0  0
 19 75  1  0  0  0  0
 19 76  1  0  0  0  0
 20 54  1  0  0  0  0
 20 77  1  0  0  0  0
 21 22  1  0  0  0  0
 21 78  1  0  0  0  0
 21 79  1  0  0  0  0
 22 23  1  0  0  0  0
 22 80  1  0  0  0  0
 22 81  1  0  0  0  0
 23 25  1  0  0  0  0
 23 82  1  0  0  0  0
 23 83  1  0  0  0  0
 24 55  1  0  0  0  0
 25 27  1  0  0  0  0
 25 84  1  0  0  0  0
 25 85  1  0  0  0  0
 26 55  1  0  0  0  0
 26 86  1  0  0  0  0
 27 28  1  0  0  0  0
 27 87  1  0  0  0  0
 27 88  1  0  0  0  0
 28 29  1  0  0  0  0
 28 89  1  0  0  0  0
 28 90  1  0  0  0  0
 29 30  1  0  0  0  0
 29 91  1  0  0  0  0
 29 92  1  0  0  0  0
 30 93  1  0  0  0  0
 30 94  1  0  0  0  0
 30 95  1  0  0  0  0
 31 32  1  0  0  0  0
 32 33  1  0  0  0  0
 32 96  1  0  0  0  0
 32 97  1  0  0  0  0
 33 34  1  0  0  0  0
 33 98  1  0  0  0  0
 33 99  1  0  0  0  0
 34 35  1  0  0  0  0
 34100  1  0  0  0  0
 34101  1  0  0  0  0
 35 36  1  0  0  0  0
 35102  1  0  0  0  0
 35103  1  0  0  0  0
 36 37  1  0  0  0  0
 36104  1  0  0  0  0
 36105  1  0  0  0  0
 37 38  1  0  0  0  0
 37106  1  0  0  0  0
 37107  1  0  0  0  0
 38 39  1  0  0  0  0
 38108  1  0  0  0  0
 38109  1  0  0  0  0
 39 40  1  0  0  0  0
 39110  1  0  0  0  0
 39111  1  0  0  0  0
 40 41  1  0  0  0  0
 40112  1  0  0  0  0
 40113  1  0  0  0  0
 41 42  1  0  0  0  0
 41114  1  0  0  0  0
 41115  1  0  0  0  0
 42 43  1  0  0  0  0
 42116  1  0  0  0  0
 42117  1  0  0  0  0
 43 44  1  0  0  0  0
 43118  1  0  0  0  0
 43119  1  0  0  0  0
 44 45  1  0  0  0  0
 44120  1  0  0  0  0
 44121  1  0  0  0  0
 45 46  1  0  0  0  0
 45122  1  0  0  0  0
 45123  1  0  0  0  0
 46 47  1  0  0  0  0
 46124  1  0  0  0  0
 46125  1  0  0  0  0
 47 48  1  0  0  0  0
 47126  1  0  0  0  0
 47127  1  0  0  0  0
 48128  1  0  0  0  0
 48129  1  0  0  0  0
 48130  1  0  0  0  0
 49 50  1  0  0  0  0
 49131  1  1  0  0  0
 50 51  1  0  0  0  0
 50132  1  6  0  0  0
 51 52  1  0  0  0  0
 51133  1  1  0  0  0
 52 53  1  0  0  0  0
 52134  1  6  0  0  0
 53 54  1  0  0  0  0
 53135  1  1  0  0  0
 54136  1  0  0  0  0
 54137  1  0  0  0  0
M  CHG  1  24  -1
M  END
$$$$