/media/chris/experiments/cd1a-new-docking/inputs/ligands/1onq_ligand.pdb
 OpenBabel06222310383D

137137  0  0  1  0  0  0  0  0999 V2000
  -40.4920   60.2280   63.6270 N   0  0  0  0  0  0  0  0  0  0  0  0
  -38.5950   61.7730   64.2860 C   0  0  0  0  0  0  0  0  0  0  0  0
  -37.5441   62.0867   65.2349 O   0  0  0  0  0  0  0  0  0  0  0  0
  -39.4590   60.5300   64.5980 C   0  0  1  0  0  0  0  0  0  0  0  0
  -41.2116   61.5409   65.7392 O   0  0  0  0  0  0  0  0  0  0  0  0
  -40.2280   60.5370   65.9080 C   0  0  2  0  0  0  0  0  0  0  0  0
  -40.9980   62.2858   62.8166 O   0  0  0  0  0  0  0  0  0  0  0  0
  -39.2689   60.8567   67.0571 C   0  0  0  0  0  0  0  0  0  0  0  0
  -39.0539   60.0187   68.0855 C   0  0  0  0  0  0  0  0  0  0  0  0
  -38.2938   64.5178   63.9293 O   0  0  0  0  0  0  0  0  0  0  0  0
  -38.0807   60.4114   69.1956 C   0  0  0  0  0  0  0  0  0  0  0  0
  -37.0206   67.1074   64.5954 O   0  0  0  0  0  0  0  0  0  0  0  0
  -37.9260   59.3472   70.2919 C   0  0  0  0  0  0  0  0  0  0  0  0
  -35.5491   68.3969   62.8957 O   0  0  0  0  0  0  0  0  0  0  0  0
  -37.3921   57.9808   69.8238 C   0  0  0  0  0  0  0  0  0  0  0  0
  -36.0508   66.2424   66.9942 O   0  0  0  0  0  0  0  0  0  0  0  0
  -35.9813   58.1254   69.2040 C   0  0  0  0  0  0  0  0  0  0  0  0
  -35.6795   63.3761   66.0987 O   0  0  0  0  0  0  0  0  0  0  0  0
  -35.3503   56.8102   68.6809 C   0  0  0  0  0  0  0  0  0  0  0  0
  -34.5625   65.0109   68.2596 O   0  0  0  0  0  0  0  0  0  0  0  0
  -33.9341   56.9812   68.0828 C   0  0  0  0  0  0  0  0  0  0  0  0
  -33.8817   57.9598   66.8895 C   0  0  0  0  0  0  0  0  0  0  0  0
  -34.3233   59.3857   67.2402 C   0  0  0  0  0  0  0  0  0  0  0  0
  -35.0811   68.5856   65.2694 O   0  5  0  0  0  0  0  0  0  0  0  0
  -33.4979   60.1008   68.3078 C   0  0  0  0  0  0  0  0  0  0  0  0
  -36.9848   69.7361   64.3068 O   0  0  0  0  0  0  0  0  0  0  0  0
  -33.9944   61.5231   68.6343 C   0  0  0  0  0  0  0  0  0  0  0  0
  -35.4286   61.6072   69.1783 C   0  0  0  0  0  0  0  0  0  0  0  0
  -35.8283   63.0598   69.4528 C   0  0  0  0  0  0  0  0  0  0  0  0
  -37.2224   63.2824   70.0116 C   0  0  0  0  0  0  0  0  0  0  0  0
  -41.1606   61.0813   62.8393 C   0  0  0  0  0  0  0  0  0  0  0  0
  -42.1710   60.4499   61.9282 C   0  0  0  0  0  0  0  0  0  0  0  0
  -42.7946   61.5868   61.1184 C   0  0  0  0  0  0  0  0  0  0  0  0
  -43.4490   62.5977   62.0570 C   0  0  0  0  0  0  0  0  0  0  0  0
  -44.1249   63.7750   61.3970 C   0  0  0  0  0  0  0  0  0  0  0  0
  -44.6912   64.6603   62.5022 C   0  0  0  0  0  0  0  0  0  0  0  0
  -45.7025   63.9247   63.3916 C   0  0  0  0  0  0  0  0  0  0  0  0
  -46.3095   64.7921   64.5095 C   0  0  0  0  0  0  0  0  0  0  0  0
  -47.3090   64.0165   65.3955 C   0  0  0  0  0  0  0  0  0  0  0  0
  -47.8935   64.9298   66.4769 C   0  0  0  0  0  0  0  0  0  0  0  0
  -46.8697   65.5491   67.4205 C   0  0  0  0  0  0  0  0  0  0  0  0
  -45.8640   66.4243   66.6873 C   0  0  0  0  0  0  0  0  0  0  0  0
  -44.7844   67.0766   67.5540 C   0  0  0  0  0  0  0  0  0  0  0  0
  -43.8935   67.9184   66.6505 C   0  0  0  0  0  0  0  0  0  0  0  0
  -43.1578   67.2333   65.5084 C   0  0  0  0  0  0  0  0  0  0  0  0
  -42.3004   68.2396   64.7245 C   0  0  0  0  0  0  0  0  0  0  0  0
  -41.2089   68.9349   65.5590 C   0  0  0  0  0  0  0  0  0  0  0  0
  -40.1934   67.9628   66.1551 C   0  0  0  0  0  0  0  0  0  0  0  0
  -36.6675   63.2597   65.0462 C   0  0  2  0  0  0  0  0  0  0  0  0
  -37.3701   64.6228   64.9685 C   0  0  1  0  0  0  0  0  0  0  0  0
  -36.4160   65.7955   64.6529 C   0  0  2  0  0  0  0  0  0  0  0  0
  -35.4210   65.8428   65.7794 C   0  0  2  0  0  0  0  0  0  0  0  0
  -34.7568   64.4868   65.9355 C   0  0  1  0  0  0  0  0  0  0  0  0
  -33.8159   64.7462   67.1101 C   0  0  0  0  0  0  0  0  0  0  0  0
  -36.1639   68.4933   64.2527 S   0  0  0  0  0  0  0  0  0  0  0  0
  -40.7322   59.2777   63.5347 H   0  0  0  0  0  0  0  0  0  0  0  0
  -38.1357   61.6183   63.3320 H   0  0  0  0  0  0  0  0  0  0  0  0
  -39.2690   62.6030   64.3261 H   0  0  0  0  0  0  0  0  0  0  0  0
  -38.6677   59.8099   64.6092 H   0  0  0  0  0  0  0  0  0  0  0  0
  -41.7964   61.3001   65.0038 H   0  0  0  0  0  0  0  0  0  0  0  0
  -40.6791   59.5963   66.1457 H   0  0  0  0  0  0  0  0  0  0  0  0
  -38.7644   61.7568   67.0415 H   0  0  0  0  0  0  0  0  0  0  0  0
  -39.5451   59.1120   68.1252 H   0  0  0  0  0  0  0  0  0  0  0  0
  -38.9026   63.7849   64.1107 H   0  0  0  0  0  0  0  0  0  0  0  0
  -38.4335   61.3139   69.6494 H   0  0  0  0  0  0  0  0  0  0  0  0
  -37.1201   60.5296   68.7394 H   0  0  0  0  0  0  0  0  0  0  0  0
  -38.8867   59.1904   70.7360 H   0  0  0  0  0  0  0  0  0  0  0  0
  -37.1926   59.7308   70.9700 H   0  0  0  0  0  0  0  0  0  0  0  0
  -35.0098   67.5924   62.8415 H   0  0  0  0  0  0  0  0  0  0  0  0
  -38.0578   57.5766   69.0901 H   0  0  0  0  0  0  0  0  0  0  0  0
  -37.3300   57.3286   70.6698 H   0  0  0  0  0  0  0  0  0  0  0  0
  -36.4678   67.1097   66.8721 H   0  0  0  0  0  0  0  0  0  0  0  0
  -35.3314   58.5293   69.9520 H   0  0  0  0  0  0  0  0  0  0  0  0
  -36.0968   58.7588   68.3494 H   0  0  0  0  0  0  0  0  0  0  0  0
  -35.9893   56.4101   67.9217 H   0  0  0  0  0  0  0  0  0  0  0  0
  -35.2516   56.1594   69.5245 H   0  0  0  0  0  0  0  0  0  0  0  0
  -33.9627   65.1753   69.0040 H   0  0  0  0  0  0  0  0  0  0  0  0
  -33.5891   56.0242   67.7510 H   0  0  0  0  0  0  0  0  0  0  0  0
  -33.3153   57.3919   68.8531 H   0  0  0  0  0  0  0  0  0  0  0  0
  -34.5240   57.5873   66.1191 H   0  0  0  0  0  0  0  0  0  0  0  0
  -32.8598   58.0173   66.5777 H   0  0  0  0  0  0  0  0  0  0  0  0
  -35.3349   59.3391   67.5857 H   0  0  0  0  0  0  0  0  0  0  0  0
  -34.1913   59.9561   66.3446 H   0  0  0  0  0  0  0  0  0  0  0  0
  -32.4872   60.1679   67.9630 H   0  0  0  0  0  0  0  0  0  0  0  0
  -33.5890   59.5267   69.2062 H   0  0  0  0  0  0  0  0  0  0  0  0
  -37.6937   69.6843   63.6467 H   0  0  0  0  0  0  0  0  0  0  0  0
  -33.9460   62.1045   67.7373 H   0  0  0  0  0  0  0  0  0  0  0  0
  -33.3593   61.8870   69.4148 H   0  0  0  0  0  0  0  0  0  0  0  0
  -35.4904   61.0493   70.0892 H   0  0  0  0  0  0  0  0  0  0  0  0
  -36.0950   61.2035   68.4449 H   0  0  0  0  0  0  0  0  0  0  0  0
  -35.7579   63.5967   68.5299 H   0  0  0  0  0  0  0  0  0  0  0  0
  -35.1589   63.3995   70.2153 H   0  0  0  0  0  0  0  0  0  0  0  0
  -37.9494   62.9617   69.2949 H   0  0  0  0  0  0  0  0  0  0  0  0
  -37.3614   64.3227   70.2196 H   0  0  0  0  0  0  0  0  0  0  0  0
  -37.3390   62.7195   70.9141 H   0  0  0  0  0  0  0  0  0  0  0  0
  -42.9228   59.9482   62.5008 H   0  0  0  0  0  0  0  0  0  0  0  0
  -41.7149   59.7236   61.2883 H   0  0  0  0  0  0  0  0  0  0  0  0
  -43.5344   61.1866   60.4570 H   0  0  0  0  0  0  0  0  0  0  0  0
  -42.0294   62.0764   60.5530 H   0  0  0  0  0  0  0  0  0  0  0  0
  -42.6900   62.9789   62.7077 H   0  0  0  0  0  0  0  0  0  0  0  0
  -44.2283   62.0624   62.5582 H   0  0  0  0  0  0  0  0  0  0  0  0
  -44.9155   63.4331   60.7623 H   0  0  0  0  0  0  0  0  0  0  0  0
  -43.4270   64.3217   60.7979 H   0  0  0  0  0  0  0  0  0  0  0  0
  -45.1784   65.4999   62.0521 H   0  0  0  0  0  0  0  0  0  0  0  0
  -43.8745   64.9628   63.1239 H   0  0  0  0  0  0  0  0  0  0  0  0
  -45.2069   63.0919   63.8450 H   0  0  0  0  0  0  0  0  0  0  0  0
  -46.5124   63.6307   62.7572 H   0  0  0  0  0  0  0  0  0  0  0  0
  -46.8203   65.6186   64.0613 H   0  0  0  0  0  0  0  0  0  0  0  0
  -45.5059   65.1145   65.1382 H   0  0  0  0  0  0  0  0  0  0  0  0
  -46.8028   63.1979   65.8627 H   0  0  0  0  0  0  0  0  0  0  0  0
  -48.1071   63.6564   64.7804 H   0  0  0  0  0  0  0  0  0  0  0  0
  -48.5788   64.3536   67.0628 H   0  0  0  0  0  0  0  0  0  0  0  0
  -48.3560   65.7453   65.9611 H   0  0  0  0  0  0  0  0  0  0  0  0
  -46.3424   64.7633   67.9199 H   0  0  0  0  0  0  0  0  0  0  0  0
  -47.3975   66.1684   68.1153 H   0  0  0  0  0  0  0  0  0  0  0  0
  -46.4063   67.2055   66.1967 H   0  0  0  0  0  0  0  0  0  0  0  0
  -45.3424   65.7686   66.0218 H   0  0  0  0  0  0  0  0  0  0  0  0
  -44.2006   66.3202   68.0355 H   0  0  0  0  0  0  0  0  0  0  0  0
  -45.2349   67.6910   68.3053 H   0  0  0  0  0  0  0  0  0  0  0  0
  -43.1529   68.3740   67.2742 H   0  0  0  0  0  0  0  0  0  0  0  0
  -44.5736   68.5834   66.1605 H   0  0  0  0  0  0  0  0  0  0  0  0
  -43.8730   66.7921   64.8460 H   0  0  0  0  0  0  0  0  0  0  0  0
  -42.5144   66.4830   65.9182 H   0  0  0  0  0  0  0  0  0  0  0  0
  -42.9484   68.9929   64.3276 H   0  0  0  0  0  0  0  0  0  0  0  0
  -41.7936   67.6812   63.9654 H   0  0  0  0  0  0  0  0  0  0  0  0
  -41.6802   69.4667   66.3590 H   0  0  0  0  0  0  0  0  0  0  0  0
  -40.6744   69.5875   64.9007 H   0  0  0  0  0  0  0  0  0  0  0  0
  -40.6919   67.2907   66.8220 H   0  0  0  0  0  0  0  0  0  0  0  0
  -39.4480   68.5109   66.6925 H   0  0  0  0  0  0  0  0  0  0  0  0
  -39.7287   67.4057   65.3686 H   0  0  0  0  0  0  0  0  0  0  0  0
  -36.2294   63.0536   64.0919 H   0  0  0  0  0  0  0  0  0  0  0  0
  -37.8075   64.8385   65.9209 H   0  0  0  0  0  0  0  0  0  0  0  0
  -36.0169   65.6040   63.6787 H   0  0  0  0  0  0  0  0  0  0  0  0
  -34.6703   66.5692   65.5474 H   0  0  0  0  0  0  0  0  0  0  0  0
  -34.2432   64.1505   65.0592 H   0  0  0  0  0  0  0  0  0  0  0  0
  -33.2045   63.8834   67.2736 H   0  0  0  0  0  0  0  0  0  0  0  0
  -33.1949   65.5888   66.8881 H   0  0  0  0  0  0  0  0  0  0  0  0
  1  4  1  0  0  0  0
  1 31  1  0  0  0  0
  1 56  1  0  0  0  0
  2  3  1  0  0  0  0
  2  4  1  0  0  0  0
  2 57  1  0  0  0  0
  2 58  1  0  0  0  0
  3 49  1  0  0  0  0
  4  6  1  0  0  0  0
  4 59  1  1  0  0  0
  5  6  1  0  0  0  0
  5 60  1  0  0  0  0
  6  8  1  0  0  0  0
  6 61  1  1  0  0  0
  7 31  2  0  0  0  0
  8  9  2  0  0  0  0
  8 62  1  0  0  0  0
  9 11  1  0  0  0  0
  9 63  1  0  0  0  0
 10 50  1  0  0  0  0
 10 64  1  0  0  0  0
 11 13  1  0  0  0  0
 11 65  1  0  0  0  0
 11 66  1  0  0  0  0
 12 51  1  0  0  0  0
 12 55  1  0  0  0  0
 13 15  1  0  0  0  0
 13 67  1  0  0  0  0
 13 68  1  0  0  0  0
 14 55  1  0  0  0  0
 14 69  1  0  0  0  0
 15 17  1  0  0  0  0
 15 70  1  0  0  0  0
 15 71  1  0  0  0  0
 16 52  1  0  0  0  0
 16 72  1  0  0  0  0
 17 19  1  0  0  0  0
 17 73  1  0  0  0  0
 17 74  1  0  0  0  0
 18 49  1  0  0  0  0
 18 53  1  0  0  0  0
 19 21  1  0  0  0  0
 19 75  1  0  0  0  0
 19 76  1  0  0  0  0
 20 54  1  0  0  0  0
 20 77  1  0  0  0  0
 21 22  1  0  0  0  0
 21 78  1  0  0  0  0
 21 79  1  0  0  0  0
 22 23  1  0  0  0  0
 22 80  1  0  0  0  0
 22 81  1  0  0  0  0
 23 25  1  0  0  0  0
 23 82  1  0  0  0  0
 23 83  1  0  0  0  0
 24 55  1  0  0  0  0
 25 27  1  0  0  0  0
 25 84  1  0  0  0  0
 25 85  1  0  0  0  0
 26 55  1  0  0  0  0
 26 86  1  0  0  0  0
 27 28  1  0  0  0  0
 27 87  1  0  0  0  0
 27 88  1  0  0  0  0
 28 29  1  0  0  0  0
 28 89  1  0  0  0  0
 28 90  1  0  0  0  0
 29 30  1  0  0  0  0
 29 91  1  0  0  0  0
 29 92  1  0  0  0  0
 30 93  1  0  0  0  0
 30 94  1  0  0  0  0
 30 95  1  0  0  0  0
 31 32  1  0  0  0  0
 32 33  1  0  0  0  0
 32 96  1  0  0  0  0
 32 97  1  0  0  0  0
 33 34  1  0  0  0  0
 33 98  1  0  0  0  0
 33 99  1  0  0  0  0
 34 35  1  0  0  0  0
 34100  1  0  0  0  0
 34101  1  0  0  0  0
 35 36  1  0  0  0  0
 35102  1  0  0  0  0
 35103  1  0  0  0  0
 36 37  1  0  0  0  0
 36104  1  0  0  0  0
 36105  1  0  0  0  0
 37 38  1  0  0  0  0
 37106  1  0  0  0  0
 37107  1  0  0  0  0
 38 39  1  0  0  0  0
 38108  1  0  0  0  0
 38109  1  0  0  0  0
 39 40  1  0  0  0  0
 39110  1  0  0  0  0
 39111  1  0  0  0  0
 40 41  1  0  0  0  0
 40112  1  0  0  0  0
 40113  1  0  0  0  0
 41 42  1  0  0  0  0
 41114  1  0  0  0  0
 41115  1  0  0  0  0
 42 43  1  0  0  0  0
 42116  1  0  0  0  0
 42117  1  0  0  0  0
 43 44  1  0  0  0  0
 43118  1  0  0  0  0
 43119  1  0  0  0  0
 44 45  1  0  0  0  0
 44120  1  0  0  0  0
 44121  1  0  0  0  0
 45 46  1  0  0  0  0
 45122  1  0  0  0  0
 45123  1  0  0  0  0
 46 47  1  0  0  0  0
 46124  1  0  0  0  0
 46125  1  0  0  0  0
 47 48  1  0  0  0  0
 47126  1  0  0  0  0
 47127  1  0  0  0  0
 48128  1  0  0  0  0
 48129  1  0  0  0  0
 48130  1  0  0  0  0
 49 50  1  0  0  0  0
 49131  1  6  0  0  0
 50 51  1  0  0  0  0
 50132  1  1  0  0  0
 51 52  1  0  0  0  0
 51133  1  6  0  0  0
 52 53  1  0  0  0  0
 52134  1  6  0  0  0
 53 54  1  0  0  0  0
 53135  1  6  0  0  0
 54136  1  0  0  0  0
 54137  1  0  0  0  0
M  CHG  1  24  -1
M  END
$$$$