/media/chris/experiments/cd1a-new-docking/inputs/ligands/1onq_ligand.pdb
 OpenBabel06222310383D

137137  0  0  1  0  0  0  0  0999 V2000
  -40.4920   60.2280   63.6270 N   0  0  0  0  0  0  0  0  0  0  0  0
  -38.5950   61.7730   64.2860 C   0  0  0  0  0  0  0  0  0  0  0  0
  -39.2927   63.0412   64.1953 O   0  0  0  0  0  0  0  0  0  0  0  0
  -39.4590   60.5300   64.5980 C   0  0  1  0  0  0  0  0  0  0  0  0
  -39.2569   60.8461   66.8904 O   0  0  0  0  0  0  0  0  0  0  0  0
  -40.2280   60.5370   65.9080 C   0  0  2  0  0  0  0  0  0  0  0  0
  -39.5856   61.0253   61.7060 O   0  0  0  0  0  0  0  0  0  0  0  0
  -40.8583   59.1606   66.1332 C   0  0  0  0  0  0  0  0  0  0  0  0
  -40.5775   58.3927   67.1998 C   0  0  0  0  0  0  0  0  0  0  0  0
  -36.9245   63.2334   62.6041 O   0  0  0  0  0  0  0  0  0  0  0  0
  -41.2481   57.0288   67.3524 C   0  0  0  0  0  0  0  0  0  0  0  0
  -36.2474   65.6923   61.0988 O   0  0  0  0  0  0  0  0  0  0  0  0
  -40.9397   56.0528   66.2076 C   0  0  0  0  0  0  0  0  0  0  0  0
  -34.5230   64.9669   59.3052 O   0  0  0  0  0  0  0  0  0  0  0  0
  -39.4539   55.6946   66.0193 C   0  0  0  0  0  0  0  0  0  0  0  0
  -38.7865   66.6864   61.1867 O   0  0  0  0  0  0  0  0  0  0  0  0
  -38.8877   55.0144   67.2890 C   0  0  0  0  0  0  0  0  0  0  0  0
  -39.4547   65.4386   63.8611 O   0  0  0  0  0  0  0  0  0  0  0  0
  -37.3896   54.6242   67.2185 C   0  0  0  0  0  0  0  0  0  0  0  0
  -40.5437   67.6756   62.3121 O   0  0  0  0  0  0  0  0  0  0  0  0
  -36.8549   53.9311   68.4938 C   0  0  0  0  0  0  0  0  0  0  0  0
  -35.3572   53.5639   68.4154 C   0  0  0  0  0  0  0  0  0  0  0  0
  -34.8268   52.8611   69.6708 C   0  0  0  0  0  0  0  0  0  0  0  0
  -35.7915   63.2771   60.4988 O   0  5  0  0  0  0  0  0  0  0  0  0
  -34.9494   53.6402   70.9787 C   0  0  0  0  0  0  0  0  0  0  0  0
  -33.9724   64.4403   61.5999 O   0  0  0  0  0  0  0  0  0  0  0  0
  -36.4002   53.9882   71.3662 C   0  0  0  0  0  0  0  0  0  0  0  0
  -36.5562   54.7871   72.6691 C   0  0  0  0  0  0  0  0  0  0  0  0
  -35.9701   54.0200   73.8579 C   0  0  0  0  0  0  0  0  0  0  0  0
  -36.0748   54.6943   75.2144 C   0  0  0  0  0  0  0  0  0  0  0  0
  -40.4890   60.4819   62.3113 C   0  0  0  0  0  0  0  0  0  0  0  0
  -41.7153   60.0341   61.5727 C   0  0  0  0  0  0  0  0  0  0  0  0
  -42.3284   61.2885   60.9500 C   0  0  0  0  0  0  0  0  0  0  0  0
  -42.6761   62.2966   62.0427 C   0  0  0  0  0  0  0  0  0  0  0  0
  -43.3087   63.5861   61.5787 C   0  0  0  0  0  0  0  0  0  0  0  0
  -44.6169   63.2321   60.8793 C   0  0  0  0  0  0  0  0  0  0  0  0
  -45.3545   64.4657   60.3415 C   0  0  0  0  0  0  0  0  0  0  0  0
  -44.5604   65.2716   59.2973 C   0  0  0  0  0  0  0  0  0  0  0  0
  -43.2136   65.7966   59.8413 C   0  0  0  0  0  0  0  0  0  0  0  0
  -42.4758   66.6035   58.7691 C   0  0  0  0  0  0  0  0  0  0  0  0
  -41.1215   67.1565   59.1961 C   0  0  0  0  0  0  0  0  0  0  0  0
  -40.1444   66.0560   59.5825 C   0  0  0  0  0  0  0  0  0  0  0  0
  -39.8005   65.0476   58.4838 C   0  0  0  0  0  0  0  0  0  0  0  0
  -39.1579   65.8035   57.3286 C   0  0  0  0  0  0  0  0  0  0  0  0
  -37.8644   66.5630   57.5837 C   0  0  0  0  0  0  0  0  0  0  0  0
  -36.7498   65.6110   58.0458 C   0  0  0  0  0  0  0  0  0  0  0  0
  -36.3881   64.5109   57.0308 C   0  0  0  0  0  0  0  0  0  0  0  0
  -35.2906   63.5710   57.5244 C   0  0  0  0  0  0  0  0  0  0  0  0
  -38.5707   64.2916   63.8868 C   0  0  2  0  0  0  0  0  0  0  0  0
  -37.8007   64.3171   62.5587 C   0  0  1  0  0  0  0  0  0  0  0  0
  -36.9714   65.6028   62.3469 C   0  0  2  0  0  0  0  0  0  0  0  0
  -37.9542   66.7410   62.3427 C   0  0  2  0  0  0  0  0  0  0  0  0
  -38.7875   66.7050   63.6110 C   0  0  1  0  0  0  0  0  0  0  0  0
  -39.7042   67.9085   63.4028 C   0  0  0  0  0  0  0  0  0  0  0  0
  -35.0951   64.5857   60.6304 S   0  0  0  0  0  0  0  0  0  0  0  0
  -41.2958   59.7807   63.9778 H   0  0  0  0  0  0  0  0  0  0  0  0
  -37.8608   61.8607   65.0594 H   0  0  0  0  0  0  0  0  0  0  0  0
  -38.1940   61.6005   63.3091 H   0  0  0  0  0  0  0  0  0  0  0  0
  -38.6677   59.8099   64.6092 H   0  0  0  0  0  0  0  0  0  0  0  0
  -38.8837   61.7234   66.7113 H   0  0  0  0  0  0  0  0  0  0  0  0
  -41.0317   61.2430   65.9299 H   0  0  0  0  0  0  0  0  0  0  0  0
  -41.5295   58.8060   65.4340 H   0  0  0  0  0  0  0  0  0  0  0  0
  -39.9104   58.7238   67.9142 H   0  0  0  0  0  0  0  0  0  0  0  0
  -37.4286   62.4154   62.7369 H   0  0  0  0  0  0  0  0  0  0  0  0
  -42.3071   57.1766   67.3931 H   0  0  0  0  0  0  0  0  0  0  0  0
  -40.8602   56.5901   68.2479 H   0  0  0  0  0  0  0  0  0  0  0  0
  -41.2900   56.4923   65.2972 H   0  0  0  0  0  0  0  0  0  0  0  0
  -41.4307   55.1373   66.4638 H   0  0  0  0  0  0  0  0  0  0  0  0
  -35.2403   65.0663   58.6599 H   0  0  0  0  0  0  0  0  0  0  0  0
  -38.8996   56.5886   65.8233 H   0  0  0  0  0  0  0  0  0  0  0  0
  -39.3663   55.0146   65.1978 H   0  0  0  0  0  0  0  0  0  0  0  0
  -38.2346   66.7105   60.3894 H   0  0  0  0  0  0  0  0  0  0  0  0
  -39.4534   54.1238   67.4672 H   0  0  0  0  0  0  0  0  0  0  0  0
  -38.9687   55.7376   68.0735 H   0  0  0  0  0  0  0  0  0  0  0  0
  -36.8182   55.5140   67.0554 H   0  0  0  0  0  0  0  0  0  0  0  0
  -37.2928   53.9177   66.4207 H   0  0  0  0  0  0  0  0  0  0  0  0
  -41.1248   68.4413   62.1820 H   0  0  0  0  0  0  0  0  0  0  0  0
  -37.4156   53.0335   68.6515 H   0  0  0  0  0  0  0  0  0  0  0  0
  -36.9659   54.6266   69.2993 H   0  0  0  0  0  0  0  0  0  0  0  0
  -34.7963   54.4634   68.2696 H   0  0  0  0  0  0  0  0  0  0  0  0
  -35.2465   52.8767   67.6027 H   0  0  0  0  0  0  0  0  0  0  0  0
  -33.7902   52.6481   69.5130 H   0  0  0  0  0  0  0  0  0  0  0  0
  -35.4395   51.9927   69.7948 H   0  0  0  0  0  0  0  0  0  0  0  0
  -34.3992   54.5526   70.8799 H   0  0  0  0  0  0  0  0  0  0  0  0
  -34.5646   53.0094   71.7526 H   0  0  0  0  0  0  0  0  0  0  0  0
  -33.5125   65.2894   61.6918 H   0  0  0  0  0  0  0  0  0  0  0  0
  -36.9430   53.0723   71.4727 H   0  0  0  0  0  0  0  0  0  0  0  0
  -36.7728   54.6181   70.5857 H   0  0  0  0  0  0  0  0  0  0  0  0
  -37.5959   54.9665   72.8470 H   0  0  0  0  0  0  0  0  0  0  0  0
  -36.0278   55.7118   72.5668 H   0  0  0  0  0  0  0  0  0  0  0  0
  -34.9327   53.8517   73.6573 H   0  0  0  0  0  0  0  0  0  0  0  0
  -36.5564   53.1285   73.9378 H   0  0  0  0  0  0  0  0  0  0  0  0
  -35.5070   55.6012   75.2066 H   0  0  0  0  0  0  0  0  0  0  0  0
  -35.6911   54.0397   75.9687 H   0  0  0  0  0  0  0  0  0  0  0  0
  -37.1002   54.9174   75.4236 H   0  0  0  0  0  0  0  0  0  0  0  0
  -42.4091   59.5800   62.2489 H   0  0  0  0  0  0  0  0  0  0  0  0
  -41.4732   59.3089   60.8240 H   0  0  0  0  0  0  0  0  0  0  0  0
  -43.2176   61.0218   60.4180 H   0  0  0  0  0  0  0  0  0  0  0  0
  -41.6218   61.7286   60.2778 H   0  0  0  0  0  0  0  0  0  0  0  0
  -41.7723   62.5432   62.5598 H   0  0  0  0  0  0  0  0  0  0  0  0
  -43.4135   61.8173   62.6522 H   0  0  0  0  0  0  0  0  0  0  0  0
  -42.6548   64.0887   60.8970 H   0  0  0  0  0  0  0  0  0  0  0  0
  -43.4904   64.2358   62.4093 H   0  0  0  0  0  0  0  0  0  0  0  0
  -45.2535   62.7303   61.5778 H   0  0  0  0  0  0  0  0  0  0  0  0
  -44.3776   62.6090   60.0430 H   0  0  0  0  0  0  0  0  0  0  0  0
  -45.5748   65.1107   61.1663 H   0  0  0  0  0  0  0  0  0  0  0  0
  -46.2339   64.1070   59.8487 H   0  0  0  0  0  0  0  0  0  0  0  0
  -45.1529   66.1073   58.9882 H   0  0  0  0  0  0  0  0  0  0  0  0
  -44.3432   64.6144   58.4814 H   0  0  0  0  0  0  0  0  0  0  0  0
  -42.6063   64.9665   60.1365 H   0  0  0  0  0  0  0  0  0  0  0  0
  -43.4052   66.4325   60.6802 H   0  0  0  0  0  0  0  0  0  0  0  0
  -43.0972   67.4281   58.4883 H   0  0  0  0  0  0  0  0  0  0  0  0
  -42.2812   65.9245   57.9654 H   0  0  0  0  0  0  0  0  0  0  0  0
  -41.2631   67.8020   60.0376 H   0  0  0  0  0  0  0  0  0  0  0  0
  -40.7065   67.6852   58.3635 H   0  0  0  0  0  0  0  0  0  0  0  0
  -40.5685   65.5148   60.4024 H   0  0  0  0  0  0  0  0  0  0  0  0
  -39.2263   66.5540   59.8146 H   0  0  0  0  0  0  0  0  0  0  0  0
  -40.6919   64.5609   58.1470 H   0  0  0  0  0  0  0  0  0  0  0  0
  -39.1273   64.3061   58.8603 H   0  0  0  0  0  0  0  0  0  0  0  0
  -39.8769   66.5143   56.9783 H   0  0  0  0  0  0  0  0  0  0  0  0
  -38.8771   65.0352   56.6388 H   0  0  0  0  0  0  0  0  0  0  0  0
  -38.0338   67.2980   58.3426 H   0  0  0  0  0  0  0  0  0  0  0  0
  -37.5575   67.0305   56.6715 H   0  0  0  0  0  0  0  0  0  0  0  0
  -37.0681   65.1385   58.9515 H   0  0  0  0  0  0  0  0  0  0  0  0
  -35.8717   66.2091   58.1721 H   0  0  0  0  0  0  0  0  0  0  0  0
  -36.0544   64.9783   56.1280 H   0  0  0  0  0  0  0  0  0  0  0  0
  -37.2666   63.9196   56.8779 H   0  0  0  0  0  0  0  0  0  0  0  0
  -34.3919   64.1278   57.6896 H   0  0  0  0  0  0  0  0  0  0  0  0
  -35.1115   62.8146   56.7891 H   0  0  0  0  0  0  0  0  0  0  0  0
  -35.5993   63.1121   58.4403 H   0  0  0  0  0  0  0  0  0  0  0  0
  -37.8613   64.3371   64.6865 H   0  0  0  0  0  0  0  0  0  0  0  0
  -38.5037   64.2763   61.7531 H   0  0  0  0  0  0  0  0  0  0  0  0
  -36.2362   65.6172   63.1242 H   0  0  0  0  0  0  0  0  0  0  0  0
  -37.4139   67.6641   62.3117 H   0  0  0  0  0  0  0  0  0  0  0  0
  -38.2128   66.7722   64.5111 H   0  0  0  0  0  0  0  0  0  0  0  0
  -40.2958   68.0614   64.2812 H   0  0  0  0  0  0  0  0  0  0  0  0
  -39.1105   68.7786   63.2144 H   0  0  0  0  0  0  0  0  0  0  0  0
  1  4  1  0  0  0  0
  1 31  1  0  0  0  0
  1 56  1  0  0  0  0
  2  3  1  0  0  0  0
  2  4  1  0  0  0  0
  2 57  1  0  0  0  0
  2 58  1  0  0  0  0
  3 49  1  0  0  0  0
  4  6  1  0  0  0  0
  4 59  1  1  0  0  0
  5  6  1  0  0  0  0
  5 60  1  0  0  0  0
  6  8  1  0  0  0  0
  6 61  1  6  0  0  0
  7 31  2  0  0  0  0
  8  9  2  0  0  0  0
  8 62  1  0  0  0  0
  9 11  1  0  0  0  0
  9 63  1  0  0  0  0
 10 50  1  0  0  0  0
 10 64  1  0  0  0  0
 11 13  1  0  0  0  0
 11 65  1  0  0  0  0
 11 66  1  0  0  0  0
 12 51  1  0  0  0  0
 12 55  1  0  0  0  0
 13 15  1  0  0  0  0
 13 67  1  0  0  0  0
 13 68  1  0  0  0  0
 14 55  1  0  0  0  0
 14 69  1  0  0  0  0
 15 17  1  0  0  0  0
 15 70  1  0  0  0  0
 15 71  1  0  0  0  0
 16 52  1  0  0  0  0
 16 72  1  0  0  0  0
 17 19  1  0  0  0  0
 17 73  1  0  0  0  0
 17 74  1  0  0  0  0
 18 49  1  0  0  0  0
 18 53  1  0  0  0  0
 19 21  1  0  0  0  0
 19 75  1  0  0  0  0
 19 76  1  0  0  0  0
 20 54  1  0  0  0  0
 20 77  1  0  0  0  0
 21 22  1  0  0  0  0
 21 78  1  0  0  0  0
 21 79  1  0  0  0  0
 22 23  1  0  0  0  0
 22 80  1  0  0  0  0
 22 81  1  0  0  0  0
 23 25  1  0  0  0  0
 23 82  1  0  0  0  0
 23 83  1  0  0  0  0
 24 55  1  0  0  0  0
 25 27  1  0  0  0  0
 25 84  1  0  0  0  0
 25 85  1  0  0  0  0
 26 55  1  0  0  0  0
 26 86  1  0  0  0  0
 27 28  1  0  0  0  0
 27 87  1  0  0  0  0
 27 88  1  0  0  0  0
 28 29  1  0  0  0  0
 28 89  1  0  0  0  0
 28 90  1  0  0  0  0
 29 30  1  0  0  0  0
 29 91  1  0  0  0  0
 29 92  1  0  0  0  0
 30 93  1  0  0  0  0
 30 94  1  0  0  0  0
 30 95  1  0  0  0  0
 31 32  1  0  0  0  0
 32 33  1  0  0  0  0
 32 96  1  0  0  0  0
 32 97  1  0  0  0  0
 33 34  1  0  0  0  0
 33 98  1  0  0  0  0
 33 99  1  0  0  0  0
 34 35  1  0  0  0  0
 34100  1  0  0  0  0
 34101  1  0  0  0  0
 35 36  1  0  0  0  0
 35102  1  0  0  0  0
 35103  1  0  0  0  0
 36 37  1  0  0  0  0
 36104  1  0  0  0  0
 36105  1  0  0  0  0
 37 38  1  0  0  0  0
 37106  1  0  0  0  0
 37107  1  0  0  0  0
 38 39  1  0  0  0  0
 38108  1  0  0  0  0
 38109  1  0  0  0  0
 39 40  1  0  0  0  0
 39110  1  0  0  0  0
 39111  1  0  0  0  0
 40 41  1  0  0  0  0
 40112  1  0  0  0  0
 40113  1  0  0  0  0
 41 42  1  0  0  0  0
 41114  1  0  0  0  0
 41115  1  0  0  0  0
 42 43  1  0  0  0  0
 42116  1  0  0  0  0
 42117  1  0  0  0  0
 43 44  1  0  0  0  0
 43118  1  0  0  0  0
 43119  1  0  0  0  0
 44 45  1  0  0  0  0
 44120  1  0  0  0  0
 44121  1  0  0  0  0
 45 46  1  0  0  0  0
 45122  1  0  0  0  0
 45123  1  0  0  0  0
 46 47  1  0  0  0  0
 46124  1  0  0  0  0
 46125  1  0  0  0  0
 47 48  1  0  0  0  0
 47126  1  0  0  0  0
 47127  1  0  0  0  0
 48128  1  0  0  0  0
 48129  1  0  0  0  0
 48130  1  0  0  0  0
 49 50  1  0  0  0  0
 49131  1  1  0  0  0
 50 51  1  0  0  0  0
 50132  1  6  0  0  0
 51 52  1  0  0  0  0
 51133  1  1  0  0  0
 52 53  1  0  0  0  0
 52134  1  6  0  0  0
 53 54  1  0  0  0  0
 53135  1  1  0  0  0
 54136  1  0  0  0  0
 54137  1  0  0  0  0
M  CHG  1  24  -1
M  END
$$$$