/media/chris/experiments/cd1a-new-docking/inputs/ligands/1onq_ligand.pdb
 OpenBabel06222310383D

137137  0  0  1  0  0  0  0  0999 V2000
  -40.4920   60.2280   63.6270 N   0  0  0  0  0  0  0  0  0  0  0  0
  -38.5950   61.7730   64.2860 C   0  0  0  0  0  0  0  0  0  0  0  0
  -37.8612   61.7550   63.0352 O   0  0  0  0  0  0  0  0  0  0  0  0
  -39.4590   60.5300   64.5980 C   0  0  1  0  0  0  0  0  0  0  0  0
  -41.2116   61.5409   65.7392 O   0  0  0  0  0  0  0  0  0  0  0  0
  -40.2280   60.5370   65.9080 C   0  0  2  0  0  0  0  0  0  0  0  0
  -40.9980   62.2858   62.8166 O   0  0  0  0  0  0  0  0  0  0  0  0
  -39.2689   60.8567   67.0571 C   0  0  0  0  0  0  0  0  0  0  0  0
  -39.0539   60.0187   68.0855 C   0  0  0  0  0  0  0  0  0  0  0  0
  -36.4617   63.4735   64.8422 O   0  0  0  0  0  0  0  0  0  0  0  0
  -38.0807   60.4114   69.1956 C   0  0  0  0  0  0  0  0  0  0  0  0
  -33.9514   64.8423   64.0706 O   0  0  0  0  0  0  0  0  0  0  0  0
  -37.3725   59.2176   69.8525 C   0  0  0  0  0  0  0  0  0  0  0  0
  -33.7985   67.4203   63.8529 O   0  0  0  0  0  0  0  0  0  0  0  0
  -36.3941   59.5662   70.9893 C   0  0  0  0  0  0  0  0  0  0  0  0
  -33.4515   63.1747   61.9701 O   0  0  0  0  0  0  0  0  0  0  0  0
  -37.1303   60.2819   72.1474 C   0  0  0  0  0  0  0  0  0  0  0  0
  -36.3692   62.6641   61.3521 O   0  0  0  0  0  0  0  0  0  0  0  0
  -36.2366   60.6966   73.3436 C   0  0  0  0  0  0  0  0  0  0  0  0
  -33.8767   62.4184   59.8301 O   0  0  0  0  0  0  0  0  0  0  0  0
  -35.1067   61.6873   72.9766 C   0  0  0  0  0  0  0  0  0  0  0  0
  -35.6209   63.0266   72.4058 C   0  0  0  0  0  0  0  0  0  0  0  0
  -36.5152   63.8087   73.3754 C   0  0  0  0  0  0  0  0  0  0  0  0
  -32.4014   66.0156   62.4514 O   0  5  0  0  0  0  0  0  0  0  0  0
  -35.8714   64.2227   74.6969 C   0  0  0  0  0  0  0  0  0  0  0  0
  -31.8724   66.3060   64.7988 O   0  0  0  0  0  0  0  0  0  0  0  0
  -34.6487   65.1472   74.5349 C   0  0  0  0  0  0  0  0  0  0  0  0
  -33.9678   65.5682   75.8461 C   0  0  0  0  0  0  0  0  0  0  0  0
  -34.9461   66.3122   76.7595 C   0  0  0  0  0  0  0  0  0  0  0  0
  -36.1763   65.5403   77.2026 C   0  0  0  0  0  0  0  0  0  0  0  0
  -41.1606   61.0813   62.8393 C   0  0  0  0  0  0  0  0  0  0  0  0
  -42.1710   60.4499   61.9282 C   0  0  0  0  0  0  0  0  0  0  0  0
  -42.7946   61.5868   61.1184 C   0  0  0  0  0  0  0  0  0  0  0  0
  -41.7183   62.2950   60.2992 C   0  0  0  0  0  0  0  0  0  0  0  0
  -40.5825   62.9062   61.0834 C   0  0  0  0  0  0  0  0  0  0  0  0
  -39.6392   63.5708   60.0862 C   0  0  0  0  0  0  0  0  0  0  0  0
  -39.0742   62.5838   59.0559 C   0  0  0  0  0  0  0  0  0  0  0  0
  -38.2783   61.4169   59.6687 C   0  0  0  0  0  0  0  0  0  0  0  0
  -37.7100   60.4532   58.6039 C   0  0  0  0  0  0  0  0  0  0  0  0
  -36.9446   59.3051   59.2682 C   0  0  0  0  0  0  0  0  0  0  0  0
  -37.7740   58.4325   60.2024 C   0  0  0  0  0  0  0  0  0  0  0  0
  -38.9294   57.7524   59.4829 C   0  0  0  0  0  0  0  0  0  0  0  0
  -39.9409   58.6824   58.8090 C   0  0  0  0  0  0  0  0  0  0  0  0
  -41.0206   57.8237   58.1643 C   0  0  0  0  0  0  0  0  0  0  0  0
  -42.1467   58.5137   57.4086 C   0  0  0  0  0  0  0  0  0  0  0  0
  -43.1425   57.4864   56.8474 C   0  0  0  0  0  0  0  0  0  0  0  0
  -44.3096   58.0978   56.0504 C   0  0  0  0  0  0  0  0  0  0  0  0
  -45.1554   59.0708   56.8685 C   0  0  0  0  0  0  0  0  0  0  0  0
  -36.9920   62.8817   62.6414 C   0  0  2  0  0  0  0  0  0  0  0  0
  -35.8536   63.2281   63.6117 C   0  0  1  0  0  0  0  0  0  0  0  0
  -35.0540   64.4857   63.2063 C   0  0  2  0  0  0  0  0  0  0  0  0
  -34.4510   64.1853   61.8619 C   0  0  2  0  0  0  0  0  0  0  0  0
  -35.5409   63.7659   60.8921 C   0  0  1  0  0  0  0  0  0  0  0  0
  -34.7309   63.5033   59.6245 C   0  0  0  0  0  0  0  0  0  0  0  0
  -32.9820   66.1711   63.8128 S   0  0  0  0  0  0  0  0  0  0  0  0
  -40.7322   59.2777   63.5347 H   0  0  0  0  0  0  0  0  0  0  0  0
  -39.2437   62.6238   64.2698 H   0  0  0  0  0  0  0  0  0  0  0  0
  -37.8479   61.7974   65.0516 H   0  0  0  0  0  0  0  0  0  0  0  0
  -38.6677   59.8099   64.6092 H   0  0  0  0  0  0  0  0  0  0  0  0
  -41.7964   61.3001   65.0038 H   0  0  0  0  0  0  0  0  0  0  0  0
  -40.6791   59.5963   66.1457 H   0  0  0  0  0  0  0  0  0  0  0  0
  -38.7644   61.7568   67.0415 H   0  0  0  0  0  0  0  0  0  0  0  0
  -39.5451   59.1120   68.1252 H   0  0  0  0  0  0  0  0  0  0  0  0
  -36.9694   62.6928   65.1133 H   0  0  0  0  0  0  0  0  0  0  0  0
  -38.6259   60.9373   69.9513 H   0  0  0  0  0  0  0  0  0  0  0  0
  -37.3204   61.0137   68.7437 H   0  0  0  0  0  0  0  0  0  0  0  0
  -36.8235   58.7019   69.0925 H   0  0  0  0  0  0  0  0  0  0  0  0
  -38.1457   58.6305   70.3022 H   0  0  0  0  0  0  0  0  0  0  0  0
  -34.5271   67.3509   63.2163 H   0  0  0  0  0  0  0  0  0  0  0  0
  -35.6291   60.2103   70.6086 H   0  0  0  0  0  0  0  0  0  0  0  0
  -35.9656   58.6599   71.3632 H   0  0  0  0  0  0  0  0  0  0  0  0
  -32.7664   63.4629   62.5935 H   0  0  0  0  0  0  0  0  0  0  0  0
  -37.8890   59.6227   72.5144 H   0  0  0  0  0  0  0  0  0  0  0  0
  -37.5153   61.1916   71.7361 H   0  0  0  0  0  0  0  0  0  0  0  0
  -35.7898   59.8137   73.7507 H   0  0  0  0  0  0  0  0  0  0  0  0
  -36.8718   61.1994   74.0426 H   0  0  0  0  0  0  0  0  0  0  0  0
  -33.3634   62.2536   59.0236 H   0  0  0  0  0  0  0  0  0  0  0  0
  -34.4774   61.2266   72.2441 H   0  0  0  0  0  0  0  0  0  0  0  0
  -34.5807   61.9126   73.8808 H   0  0  0  0  0  0  0  0  0  0  0  0
  -36.1831   62.8218   71.5187 H   0  0  0  0  0  0  0  0  0  0  0  0
  -34.7616   63.6347   72.2142 H   0  0  0  0  0  0  0  0  0  0  0  0
  -37.3640   63.1980   73.6023 H   0  0  0  0  0  0  0  0  0  0  0  0
  -36.7539   64.7227   72.8729 H   0  0  0  0  0  0  0  0  0  0  0  0
  -35.5586   63.3379   75.2109 H   0  0  0  0  0  0  0  0  0  0  0  0
  -36.6083   64.7758   75.2409 H   0  0  0  0  0  0  0  0  0  0  0  0
  -32.2422   66.4079   65.6898 H   0  0  0  0  0  0  0  0  0  0  0  0
  -34.9691   66.0339   74.0289 H   0  0  0  0  0  0  0  0  0  0  0  0
  -33.9205   64.5833   73.9903 H   0  0  0  0  0  0  0  0  0  0  0  0
  -33.1422   66.2106   75.6208 H   0  0  0  0  0  0  0  0  0  0  0  0
  -33.6312   64.6880   76.3528 H   0  0  0  0  0  0  0  0  0  0  0  0
  -35.2798   67.1846   76.2374 H   0  0  0  0  0  0  0  0  0  0  0  0
  -34.3993   66.5148   77.6566 H   0  0  0  0  0  0  0  0  0  0  0  0
  -36.7748   65.3022   76.3482 H   0  0  0  0  0  0  0  0  0  0  0  0
  -36.7468   66.1380   77.8823 H   0  0  0  0  0  0  0  0  0  0  0  0
  -35.8742   64.6366   77.6894 H   0  0  0  0  0  0  0  0  0  0  0  0
  -42.9228   59.9482   62.5008 H   0  0  0  0  0  0  0  0  0  0  0  0
  -41.7149   59.7236   61.2883 H   0  0  0  0  0  0  0  0  0  0  0  0
  -43.2511   62.2880   61.7854 H   0  0  0  0  0  0  0  0  0  0  0  0
  -43.5318   61.1834   60.4562 H   0  0  0  0  0  0  0  0  0  0  0  0
  -42.1916   63.0783   59.7449 H   0  0  0  0  0  0  0  0  0  0  0  0
  -41.2725   61.5352   59.6919 H   0  0  0  0  0  0  0  0  0  0  0  0
  -40.0623   62.1447   61.6260 H   0  0  0  0  0  0  0  0  0  0  0  0
  -40.9535   63.6235   61.7853 H   0  0  0  0  0  0  0  0  0  0  0  0
  -38.8241   64.0072   60.6248 H   0  0  0  0  0  0  0  0  0  0  0  0
  -40.2012   64.3083   59.5523 H   0  0  0  0  0  0  0  0  0  0  0  0
  -38.4261   63.1219   58.3962 H   0  0  0  0  0  0  0  0  0  0  0  0
  -39.9136   62.1518   58.5521 H   0  0  0  0  0  0  0  0  0  0  0  0
  -38.9261   60.8652   60.3176 H   0  0  0  0  0  0  0  0  0  0  0  0
  -37.4485   61.8367   60.1978 H   0  0  0  0  0  0  0  0  0  0  0  0
  -37.0463   60.9922   57.9605 H   0  0  0  0  0  0  0  0  0  0  0  0
  -38.5225   60.0448   58.0400 H   0  0  0  0  0  0  0  0  0  0  0  0
  -36.1405   59.7264   59.8346 H   0  0  0  0  0  0  0  0  0  0  0  0
  -36.6171   58.6661   58.4749 H   0  0  0  0  0  0  0  0  0  0  0  0
  -38.1691   59.0453   60.9854 H   0  0  0  0  0  0  0  0  0  0  0  0
  -37.1340   57.6676   60.5901 H   0  0  0  0  0  0  0  0  0  0  0  0
  -39.4574   57.1589   60.1997 H   0  0  0  0  0  0  0  0  0  0  0  0
  -38.4837   57.1883   58.6904 H   0  0  0  0  0  0  0  0  0  0  0  0
  -39.4506   59.2698   58.0610 H   0  0  0  0  0  0  0  0  0  0  0  0
  -40.3752   59.3417   59.5313 H   0  0  0  0  0  0  0  0  0  0  0  0
  -41.4718   57.2465   58.9442 H   0  0  0  0  0  0  0  0  0  0  0  0
  -40.4993   57.2732   57.4093 H   0  0  0  0  0  0  0  0  0  0  0  0
  -41.7313   59.0770   56.5992 H   0  0  0  0  0  0  0  0  0  0  0  0
  -42.6669   59.1588   58.0855 H   0  0  0  0  0  0  0  0  0  0  0  0
  -43.5511   56.9343   57.6678 H   0  0  0  0  0  0  0  0  0  0  0  0
  -42.5942   56.8739   56.1625 H   0  0  0  0  0  0  0  0  0  0  0  0
  -44.9403   57.3038   55.7088 H   0  0  0  0  0  0  0  0  0  0  0  0
  -43.8841   58.6518   55.2399 H   0  0  0  0  0  0  0  0  0  0  0  0
  -45.5997   58.5519   57.6920 H   0  0  0  0  0  0  0  0  0  0  0  0
  -45.9248   59.4824   56.2493 H   0  0  0  0  0  0  0  0  0  0  0  0
  -44.5343   59.8601   57.2375 H   0  0  0  0  0  0  0  0  0  0  0  0
  -37.6838   63.6979   62.6313 H   0  0  0  0  0  0  0  0  0  0  0  0
  -35.1546   62.4180   63.6243 H   0  0  0  0  0  0  0  0  0  0  0  0
  -35.7427   65.3038   63.2423 H   0  0  0  0  0  0  0  0  0  0  0  0
  -33.9800   65.0706   61.4887 H   0  0  0  0  0  0  0  0  0  0  0  0
  -36.3046   64.5020   60.7512 H   0  0  0  0  0  0  0  0  0  0  0  0
  -35.3964   63.2841   58.8158 H   0  0  0  0  0  0  0  0  0  0  0  0
  -34.1517   64.3711   59.3871 H   0  0  0  0  0  0  0  0  0  0  0  0
  1  4  1  0  0  0  0
  1 31  1  0  0  0  0
  1 56  1  0  0  0  0
  2  3  1  0  0  0  0
  2  4  1  0  0  0  0
  2 57  1  0  0  0  0
  2 58  1  0  0  0  0
  3 49  1  0  0  0  0
  4  6  1  0  0  0  0
  4 59  1  1  0  0  0
  5  6  1  0  0  0  0
  5 60  1  0  0  0  0
  6  8  1  0  0  0  0
  6 61  1  1  0  0  0
  7 31  2  0  0  0  0
  8  9  2  0  0  0  0
  8 62  1  0  0  0  0
  9 11  1  0  0  0  0
  9 63  1  0  0  0  0
 10 50  1  0  0  0  0
 10 64  1  0  0  0  0
 11 13  1  0  0  0  0
 11 65  1  0  0  0  0
 11 66  1  0  0  0  0
 12 51  1  0  0  0  0
 12 55  1  0  0  0  0
 13 15  1  0  0  0  0
 13 67  1  0  0  0  0
 13 68  1  0  0  0  0
 14 55  1  0  0  0  0
 14 69  1  0  0  0  0
 15 17  1  0  0  0  0
 15 70  1  0  0  0  0
 15 71  1  0  0  0  0
 16 52  1  0  0  0  0
 16 72  1  0  0  0  0
 17 19  1  0  0  0  0
 17 73  1  0  0  0  0
 17 74  1  0  0  0  0
 18 49  1  0  0  0  0
 18 53  1  0  0  0  0
 19 21  1  0  0  0  0
 19 75  1  0  0  0  0
 19 76  1  0  0  0  0
 20 54  1  0  0  0  0
 20 77  1  0  0  0  0
 21 22  1  0  0  0  0
 21 78  1  0  0  0  0
 21 79  1  0  0  0  0
 22 23  1  0  0  0  0
 22 80  1  0  0  0  0
 22 81  1  0  0  0  0
 23 25  1  0  0  0  0
 23 82  1  0  0  0  0
 23 83  1  0  0  0  0
 24 55  1  0  0  0  0
 25 27  1  0  0  0  0
 25 84  1  0  0  0  0
 25 85  1  0  0  0  0
 26 55  1  0  0  0  0
 26 86  1  0  0  0  0
 27 28  1  0  0  0  0
 27 87  1  0  0  0  0
 27 88  1  0  0  0  0
 28 29  1  0  0  0  0
 28 89  1  0  0  0  0
 28 90  1  0  0  0  0
 29 30  1  0  0  0  0
 29 91  1  0  0  0  0
 29 92  1  0  0  0  0
 30 93  1  0  0  0  0
 30 94  1  0  0  0  0
 30 95  1  0  0  0  0
 31 32  1  0  0  0  0
 32 33  1  0  0  0  0
 32 96  1  0  0  0  0
 32 97  1  0  0  0  0
 33 34  1  0  0  0  0
 33 98  1  0  0  0  0
 33 99  1  0  0  0  0
 34 35  1  0  0  0  0
 34100  1  0  0  0  0
 34101  1  0  0  0  0
 35 36  1  0  0  0  0
 35102  1  0  0  0  0
 35103  1  0  0  0  0
 36 37  1  0  0  0  0
 36104  1  0  0  0  0
 36105  1  0  0  0  0
 37 38  1  0  0  0  0
 37106  1  0  0  0  0
 37107  1  0  0  0  0
 38 39  1  0  0  0  0
 38108  1  0  0  0  0
 38109  1  0  0  0  0
 39 40  1  0  0  0  0
 39110  1  0  0  0  0
 39111  1  0  0  0  0
 40 41  1  0  0  0  0
 40112  1  0  0  0  0
 40113  1  0  0  0  0
 41 42  1  0  0  0  0
 41114  1  0  0  0  0
 41115  1  0  0  0  0
 42 43  1  0  0  0  0
 42116  1  0  0  0  0
 42117  1  0  0  0  0
 43 44  1  0  0  0  0
 43118  1  0  0  0  0
 43119  1  0  0  0  0
 44 45  1  0  0  0  0
 44120  1  0  0  0  0
 44121  1  0  0  0  0
 45 46  1  0  0  0  0
 45122  1  0  0  0  0
 45123  1  0  0  0  0
 46 47  1  0  0  0  0
 46124  1  0  0  0  0
 46125  1  0  0  0  0
 47 48  1  0  0  0  0
 47126  1  0  0  0  0
 47127  1  0  0  0  0
 48128  1  0  0  0  0
 48129  1  0  0  0  0
 48130  1  0  0  0  0
 49 50  1  0  0  0  0
 49131  1  6  0  0  0
 50 51  1  0  0  0  0
 50132  1  1  0  0  0
 51 52  1  0  0  0  0
 51133  1  6  0  0  0
 52 53  1  0  0  0  0
 52134  1  6  0  0  0
 53 54  1  0  0  0  0
 53135  1  6  0  0  0
 54136  1  0  0  0  0
 54137  1  0  0  0  0
M  CHG  1  24  -1
M  END
$$$$