/media/chris/experiments/cd1a-new-docking/inputs/ligands/1onq_ligand.pdb
 OpenBabel06222310383D

137137  0  0  1  0  0  0  0  0999 V2000
  -40.4920   60.2280   63.6270 N   0  0  0  0  0  0  0  0  0  0  0  0
  -38.5950   61.7730   64.2860 C   0  0  0  0  0  0  0  0  0  0  0  0
  -37.5441   62.0867   65.2349 O   0  0  0  0  0  0  0  0  0  0  0  0
  -39.4590   60.5300   64.5980 C   0  0  1  0  0  0  0  0  0  0  0  0
  -41.2116   61.5409   65.7392 O   0  0  0  0  0  0  0  0  0  0  0  0
  -40.2280   60.5370   65.9080 C   0  0  2  0  0  0  0  0  0  0  0  0
  -41.6768   60.5954   61.7273 O   0  0  0  0  0  0  0  0  0  0  0  0
  -39.2689   60.8567   67.0571 C   0  0  0  0  0  0  0  0  0  0  0  0
  -39.0539   60.0187   68.0855 C   0  0  0  0  0  0  0  0  0  0  0  0
  -35.0677   62.0871   63.8049 O   0  0  0  0  0  0  0  0  0  0  0  0
  -38.0807   60.4114   69.1956 C   0  0  0  0  0  0  0  0  0  0  0  0
  -34.0199   64.5267   62.4933 O   0  0  0  0  0  0  0  0  0  0  0  0
  -36.9007   59.4424   69.3594 C   0  0  0  0  0  0  0  0  0  0  0  0
  -31.8452   65.6919   63.2869 O   0  0  0  0  0  0  0  0  0  0  0  0
  -35.9873   59.2905   68.1290 C   0  0  0  0  0  0  0  0  0  0  0  0
  -36.4318   65.8017   62.4860 O   0  0  0  0  0  0  0  0  0  0  0  0
  -34.8505   58.2786   68.4105 C   0  0  0  0  0  0  0  0  0  0  0  0
  -37.4137   64.5009   65.0354 O   0  0  0  0  0  0  0  0  0  0  0  0
  -33.9226   58.6394   69.5981 C   0  0  0  0  0  0  0  0  0  0  0  0
  -36.4467   68.0573   64.5825 O   0  0  0  0  0  0  0  0  0  0  0  0
  -32.7856   57.6203   69.8459 C   0  0  0  0  0  0  0  0  0  0  0  0
  -31.8802   57.9840   71.0426 C   0  0  0  0  0  0  0  0  0  0  0  0
  -30.7413   56.9855   71.2814 C   0  0  0  0  0  0  0  0  0  0  0  0
  -33.6225   67.0179   62.3011 O   0  5  0  0  0  0  0  0  0  0  0  0
  -29.8223   57.2855   72.4637 C   0  0  0  0  0  0  0  0  0  0  0  0
  -32.2187   65.6260   60.8989 O   0  0  0  0  0  0  0  0  0  0  0  0
  -28.6854   56.2612   72.6485 C   0  0  0  0  0  0  0  0  0  0  0  0
  -29.1406   54.8117   72.8760 C   0  0  0  0  0  0  0  0  0  0  0  0
  -27.9391   53.8812   73.0644 C   0  0  0  0  0  0  0  0  0  0  0  0
  -28.2511   52.4112   73.2824 C   0  0  0  0  0  0  0  0  0  0  0  0
  -40.7863   60.8910   62.5003 C   0  0  0  0  0  0  0  0  0  0  0  0
  -39.9258   62.0873   62.2211 C   0  0  0  0  0  0  0  0  0  0  0  0
  -39.2409   61.8250   60.8797 C   0  0  0  0  0  0  0  0  0  0  0  0
  -38.3254   62.9939   60.5241 C   0  0  0  0  0  0  0  0  0  0  0  0
  -37.5895   62.8845   59.2107 C   0  0  0  0  0  0  0  0  0  0  0  0
  -36.7275   64.1336   59.0600 C   0  0  0  0  0  0  0  0  0  0  0  0
  -37.5514   65.4281   59.0764 C   0  0  0  0  0  0  0  0  0  0  0  0
  -36.7166   66.7110   58.9093 C   0  0  0  0  0  0  0  0  0  0  0  0
  -35.6509   66.8820   60.0140 C   0  0  0  0  0  0  0  0  0  0  0  0
  -34.8638   68.1795   59.8089 C   0  0  0  0  0  0  0  0  0  0  0  0
  -34.1280   68.2840   58.4786 C   0  0  0  0  0  0  0  0  0  0  0  0
  -35.0745   68.2218   57.2889 C   0  0  0  0  0  0  0  0  0  0  0  0
  -36.1306   69.3268   57.2131 C   0  0  0  0  0  0  0  0  0  0  0  0
  -35.4120   70.6660   57.1181 C   0  0  0  0  0  0  0  0  0  0  0  0
  -34.4649   71.0665   58.2396 C   0  0  0  0  0  0  0  0  0  0  0  0
  -33.8522   72.4508   57.9738 C   0  0  0  0  0  0  0  0  0  0  0  0
  -32.8646   72.9300   59.0536 C   0  0  0  0  0  0  0  0  0  0  0  0
  -32.2858   74.3145   58.7711 C   0  0  0  0  0  0  0  0  0  0  0  0
  -36.6675   63.2597   65.0462 C   0  0  2  0  0  0  0  0  0  0  0  0
  -35.8119   63.2657   63.7712 C   0  0  1  0  0  0  0  0  0  0  0  0
  -34.8316   64.4561   63.6875 C   0  0  2  0  0  0  0  0  0  0  0  0
  -35.6781   65.6990   63.6916 C   0  0  2  0  0  0  0  0  0  0  0  0
  -36.5935   65.6931   64.9025 C   0  0  1  0  0  0  0  0  0  0  0  0
  -37.3535   67.0038   64.7114 C   0  0  0  0  0  0  0  0  0  0  0  0
  -32.8935   65.7229   62.2244 S   0  0  0  0  0  0  0  0  0  0  0  0
  -41.0464   59.4375   63.8192 H   0  0  0  0  0  0  0  0  0  0  0  0
  -38.1357   61.6183   63.3320 H   0  0  0  0  0  0  0  0  0  0  0  0
  -39.2690   62.6030   64.3261 H   0  0  0  0  0  0  0  0  0  0  0  0
  -38.6677   59.8099   64.6092 H   0  0  0  0  0  0  0  0  0  0  0  0
  -41.7964   61.3001   65.0038 H   0  0  0  0  0  0  0  0  0  0  0  0
  -40.6791   59.5963   66.1457 H   0  0  0  0  0  0  0  0  0  0  0  0
  -38.7644   61.7568   67.0415 H   0  0  0  0  0  0  0  0  0  0  0  0
  -39.5451   59.1120   68.1252 H   0  0  0  0  0  0  0  0  0  0  0  0
  -35.6681   61.3270   63.8576 H   0  0  0  0  0  0  0  0  0  0  0  0
  -38.6194   60.4456   70.1195 H   0  0  0  0  0  0  0  0  0  0  0  0
  -37.6680   61.3609   68.9256 H   0  0  0  0  0  0  0  0  0  0  0  0
  -37.2979   58.4773   69.5954 H   0  0  0  0  0  0  0  0  0  0  0  0
  -36.2859   59.8582   70.1301 H   0  0  0  0  0  0  0  0  0  0  0  0
  -32.2663   65.7541   64.1585 H   0  0  0  0  0  0  0  0  0  0  0  0
  -35.5593   60.2416   67.8901 H   0  0  0  0  0  0  0  0  0  0  0  0
  -36.5729   58.9294   67.3094 H   0  0  0  0  0  0  0  0  0  0  0  0
  -35.8283   65.8037   61.7266 H   0  0  0  0  0  0  0  0  0  0  0  0
  -34.2472   58.2057   67.5298 H   0  0  0  0  0  0  0  0  0  0  0  0
  -35.3307   57.3607   68.6781 H   0  0  0  0  0  0  0  0  0  0  0  0
  -34.5193   58.6986   70.4843 H   0  0  0  0  0  0  0  0  0  0  0  0
  -33.4541   59.5692   69.3512 H   0  0  0  0  0  0  0  0  0  0  0  0
  -36.9318   68.8885   64.4613 H   0  0  0  0  0  0  0  0  0  0  0  0
  -32.1791   57.5694   68.9658 H   0  0  0  0  0  0  0  0  0  0  0  0
  -33.2483   56.6832   70.0756 H   0  0  0  0  0  0  0  0  0  0  0  0
  -32.4854   58.0230   71.9241 H   0  0  0  0  0  0  0  0  0  0  0  0
  -31.4268   58.9262   70.8158 H   0  0  0  0  0  0  0  0  0  0  0  0
  -30.1389   56.9589   70.3975 H   0  0  0  0  0  0  0  0  0  0  0  0
  -31.2176   56.0565   71.5159 H   0  0  0  0  0  0  0  0  0  0  0  0
  -30.4136   57.2967   73.3554 H   0  0  0  0  0  0  0  0  0  0  0  0
  -29.3597   58.2297   72.2650 H   0  0  0  0  0  0  0  0  0  0  0  0
  -31.7406   64.7841   60.8403 H   0  0  0  0  0  0  0  0  0  0  0  0
  -28.1034   56.5619   73.4945 H   0  0  0  0  0  0  0  0  0  0  0  0
  -28.1360   56.2589   71.7303 H   0  0  0  0  0  0  0  0  0  0  0  0
  -29.7059   54.4855   72.0281 H   0  0  0  0  0  0  0  0  0  0  0  0
  -29.7396   54.7780   73.7620 H   0  0  0  0  0  0  0  0  0  0  0  0
  -27.3898   54.2269   73.9151 H   0  0  0  0  0  0  0  0  0  0  0  0
  -27.3994   53.9233   72.1414 H   0  0  0  0  0  0  0  0  0  0  0  0
  -28.7951   52.2938   74.1963 H   0  0  0  0  0  0  0  0  0  0  0  0
  -27.3375   51.8570   73.3373 H   0  0  0  0  0  0  0  0  0  0  0  0
  -28.8407   52.0471   72.4671 H   0  0  0  0  0  0  0  0  0  0  0  0
  -39.1942   62.2049   62.9930 H   0  0  0  0  0  0  0  0  0  0  0  0
  -40.5082   62.9844   62.1896 H   0  0  0  0  0  0  0  0  0  0  0  0
  -39.9842   61.7125   60.1183 H   0  0  0  0  0  0  0  0  0  0  0  0
  -38.6575   60.9309   60.9518 H   0  0  0  0  0  0  0  0  0  0  0  0
  -37.5956   63.0859   61.3012 H   0  0  0  0  0  0  0  0  0  0  0  0
  -38.9687   63.8430   60.4236 H   0  0  0  0  0  0  0  0  0  0  0  0
  -38.2898   62.8249   58.4039 H   0  0  0  0  0  0  0  0  0  0  0  0
  -36.9819   62.0040   59.1925 H   0  0  0  0  0  0  0  0  0  0  0  0
  -36.2002   64.0754   58.1307 H   0  0  0  0  0  0  0  0  0  0  0  0
  -36.0580   64.1664   59.8939 H   0  0  0  0  0  0  0  0  0  0  0  0
  -38.0691   65.4843   60.0111 H   0  0  0  0  0  0  0  0  0  0  0  0
  -38.2136   65.3813   58.2373 H   0  0  0  0  0  0  0  0  0  0  0  0
  -37.3757   67.5534   58.9371 H   0  0  0  0  0  0  0  0  0  0  0  0
  -36.2014   66.6396   57.9742 H   0  0  0  0  0  0  0  0  0  0  0  0
  -34.9756   66.0526   59.9825 H   0  0  0  0  0  0  0  0  0  0  0  0
  -36.1425   66.9237   60.9635 H   0  0  0  0  0  0  0  0  0  0  0  0
  -34.1415   68.2571   60.5945 H   0  0  0  0  0  0  0  0  0  0  0  0
  -35.5848   68.9701   59.8143 H   0  0  0  0  0  0  0  0  0  0  0  0
  -33.4310   67.4753   58.4064 H   0  0  0  0  0  0  0  0  0  0  0  0
  -33.6313   69.2314   58.4527 H   0  0  0  0  0  0  0  0  0  0  0  0
  -35.5856   67.2825   57.3260 H   0  0  0  0  0  0  0  0  0  0  0  0
  -34.4587   68.3515   56.4235 H   0  0  0  0  0  0  0  0  0  0  0  0
  -36.7414   69.3050   58.0913 H   0  0  0  0  0  0  0  0  0  0  0  0
  -36.7565   69.1818   56.3575 H   0  0  0  0  0  0  0  0  0  0  0  0
  -36.1647   71.4239   57.0555 H   0  0  0  0  0  0  0  0  0  0  0  0
  -34.7751   70.5599   56.2649 H   0  0  0  0  0  0  0  0  0  0  0  0
  -33.6792   70.3435   58.3093 H   0  0  0  0  0  0  0  0  0  0  0  0
  -35.0178   71.1081   59.1548 H   0  0  0  0  0  0  0  0  0  0  0  0
  -34.6489   73.1622   57.9101 H   0  0  0  0  0  0  0  0  0  0  0  0
  -33.2928   72.3666   57.0656 H   0  0  0  0  0  0  0  0  0  0  0  0
  -32.0576   72.2297   59.1106 H   0  0  0  0  0  0  0  0  0  0  0  0
  -33.4076   72.9952   59.9733 H   0  0  0  0  0  0  0  0  0  0  0  0
  -31.7332   74.2899   57.8552 H   0  0  0  0  0  0  0  0  0  0  0  0
  -31.6363   74.5998   59.5720 H   0  0  0  0  0  0  0  0  0  0  0  0
  -33.0825   75.0239   58.6880 H   0  0  0  0  0  0  0  0  0  0  0  0
  -36.0127   63.1808   65.8888 H   0  0  0  0  0  0  0  0  0  0  0  0
  -36.4595   63.3487   62.9234 H   0  0  0  0  0  0  0  0  0  0  0  0
  -34.1533   64.3446   64.5075 H   0  0  0  0  0  0  0  0  0  0  0  0
  -35.0370   66.5538   63.7488 H   0  0  0  0  0  0  0  0  0  0  0  0
  -36.0767   65.6460   65.8383 H   0  0  0  0  0  0  0  0  0  0  0  0
  -37.9544   66.9413   63.8283 H   0  0  0  0  0  0  0  0  0  0  0  0
  -37.9810   67.1774   65.5606 H   0  0  0  0  0  0  0  0  0  0  0  0
  1  4  1  0  0  0  0
  1 31  1  0  0  0  0
  1 56  1  0  0  0  0
  2  3  1  0  0  0  0
  2  4  1  0  0  0  0
  2 57  1  0  0  0  0
  2 58  1  0  0  0  0
  3 49  1  0  0  0  0
  4  6  1  0  0  0  0
  4 59  1  1  0  0  0
  5  6  1  0  0  0  0
  5 60  1  0  0  0  0
  6  8  1  0  0  0  0
  6 61  1  1  0  0  0
  7 31  2  0  0  0  0
  8  9  2  0  0  0  0
  8 62  1  0  0  0  0
  9 11  1  0  0  0  0
  9 63  1  0  0  0  0
 10 50  1  0  0  0  0
 10 64  1  0  0  0  0
 11 13  1  0  0  0  0
 11 65  1  0  0  0  0
 11 66  1  0  0  0  0
 12 51  1  0  0  0  0
 12 55  1  0  0  0  0
 13 15  1  0  0  0  0
 13 67  1  0  0  0  0
 13 68  1  0  0  0  0
 14 55  1  0  0  0  0
 14 69  1  0  0  0  0
 15 17  1  0  0  0  0
 15 70  1  0  0  0  0
 15 71  1  0  0  0  0
 16 52  1  0  0  0  0
 16 72  1  0  0  0  0
 17 19  1  0  0  0  0
 17 73  1  0  0  0  0
 17 74  1  0  0  0  0
 18 49  1  0  0  0  0
 18 53  1  0  0  0  0
 19 21  1  0  0  0  0
 19 75  1  0  0  0  0
 19 76  1  0  0  0  0
 20 54  1  0  0  0  0
 20 77  1  0  0  0  0
 21 22  1  0  0  0  0
 21 78  1  0  0  0  0
 21 79  1  0  0  0  0
 22 23  1  0  0  0  0
 22 80  1  0  0  0  0
 22 81  1  0  0  0  0
 23 25  1  0  0  0  0
 23 82  1  0  0  0  0
 23 83  1  0  0  0  0
 24 55  1  0  0  0  0
 25 27  1  0  0  0  0
 25 84  1  0  0  0  0
 25 85  1  0  0  0  0
 26 55  1  0  0  0  0
 26 86  1  0  0  0  0
 27 28  1  0  0  0  0
 27 87  1  0  0  0  0
 27 88  1  0  0  0  0
 28 29  1  0  0  0  0
 28 89  1  0  0  0  0
 28 90  1  0  0  0  0
 29 30  1  0  0  0  0
 29 91  1  0  0  0  0
 29 92  1  0  0  0  0
 30 93  1  0  0  0  0
 30 94  1  0  0  0  0
 30 95  1  0  0  0  0
 31 32  1  0  0  0  0
 32 33  1  0  0  0  0
 32 96  1  0  0  0  0
 32 97  1  0  0  0  0
 33 34  1  0  0  0  0
 33 98  1  0  0  0  0
 33 99  1  0  0  0  0
 34 35  1  0  0  0  0
 34100  1  0  0  0  0
 34101  1  0  0  0  0
 35 36  1  0  0  0  0
 35102  1  0  0  0  0
 35103  1  0  0  0  0
 36 37  1  0  0  0  0
 36104  1  0  0  0  0
 36105  1  0  0  0  0
 37 38  1  0  0  0  0
 37106  1  0  0  0  0
 37107  1  0  0  0  0
 38 39  1  0  0  0  0
 38108  1  0  0  0  0
 38109  1  0  0  0  0
 39 40  1  0  0  0  0
 39110  1  0  0  0  0
 39111  1  0  0  0  0
 40 41  1  0  0  0  0
 40112  1  0  0  0  0
 40113  1  0  0  0  0
 41 42  1  0  0  0  0
 41114  1  0  0  0  0
 41115  1  0  0  0  0
 42 43  1  0  0  0  0
 42116  1  0  0  0  0
 42117  1  0  0  0  0
 43 44  1  0  0  0  0
 43118  1  0  0  0  0
 43119  1  0  0  0  0
 44 45  1  0  0  0  0
 44120  1  0  0  0  0
 44121  1  0  0  0  0
 45 46  1  0  0  0  0
 45122  1  0  0  0  0
 45123  1  0  0  0  0
 46 47  1  0  0  0  0
 46124  1  0  0  0  0
 46125  1  0  0  0  0
 47 48  1  0  0  0  0
 47126  1  0  0  0  0
 47127  1  0  0  0  0
 48128  1  0  0  0  0
 48129  1  0  0  0  0
 48130  1  0  0  0  0
 49 50  1  0  0  0  0
 49131  1  1  0  0  0
 50 51  1  0  0  0  0
 50132  1  6  0  0  0
 51 52  1  0  0  0  0
 51133  1  1  0  0  0
 52 53  1  0  0  0  0
 52134  1  1  0  0  0
 53 54  1  0  0  0  0
 53135  1  1  0  0  0
 54136  1  0  0  0  0
 54137  1  0  0  0  0
M  CHG  1  24  -1
M  END
$$$$