/media/chris/experiments/cd1a-new-docking/inputs/ligands/1onq_ligand.pdb
 OpenBabel06222310383D

137137  0  0  1  0  0  0  0  0999 V2000
  -40.4920   60.2280   63.6270 N   0  0  0  0  0  0  0  0  0  0  0  0
  -38.5950   61.7730   64.2860 C   0  0  0  0  0  0  0  0  0  0  0  0
  -39.2927   63.0412   64.1953 O   0  0  0  0  0  0  0  0  0  0  0  0
  -39.4590   60.5300   64.5980 C   0  0  1  0  0  0  0  0  0  0  0  0
  -39.2569   60.8461   66.8904 O   0  0  0  0  0  0  0  0  0  0  0  0
  -40.2280   60.5370   65.9080 C   0  0  2  0  0  0  0  0  0  0  0  0
  -42.2618   61.3924   64.4390 O   0  0  0  0  0  0  0  0  0  0  0  0
  -40.8583   59.1606   66.1332 C   0  0  0  0  0  0  0  0  0  0  0  0
  -42.0897   58.8399   65.7007 C   0  0  0  0  0  0  0  0  0  0  0  0
  -41.5274   64.7916   64.5408 O   0  0  0  0  0  0  0  0  0  0  0  0
  -42.6490   57.4435   65.9661 C   0  0  0  0  0  0  0  0  0  0  0  0
  -42.9129   66.0321   62.2361 O   0  0  0  0  0  0  0  0  0  0  0  0
  -41.5751   56.3488   66.0477 C   0  0  0  0  0  0  0  0  0  0  0  0
  -44.2310   68.0419   63.2060 O   0  0  0  0  0  0  0  0  0  0  0  0
  -40.5271   56.5251   67.1621 C   0  0  0  0  0  0  0  0  0  0  0  0
  -40.8460   65.6061   60.5071 O   0  0  0  0  0  0  0  0  0  0  0  0
  -41.2018   56.5289   68.5550 C   0  0  0  0  0  0  0  0  0  0  0  0
  -39.9128   63.0603   61.8500 O   0  0  0  0  0  0  0  0  0  0  0  0
  -40.2403   56.7179   69.7555 C   0  0  0  0  0  0  0  0  0  0  0  0
  -39.8506   61.9640   59.1193 O   0  0  0  0  0  0  0  0  0  0  0  0
  -40.9390   56.7005   71.1355 C   0  0  0  0  0  0  0  0  0  0  0  0
  -39.9708   56.9071   72.3205 C   0  0  0  0  0  0  0  0  0  0  0  0
  -38.8657   55.8476   72.4073 C   0  0  0  0  0  0  0  0  0  0  0  0
  -42.5271   66.9638   64.5564 O   0  5  0  0  0  0  0  0  0  0  0  0
  -37.9258   55.7580   71.2069 C   0  0  0  0  0  0  0  0  0  0  0  0
  -44.6695   65.8854   64.2078 O   0  0  0  0  0  0  0  0  0  0  0  0
  -37.1387   57.0542   70.9302 C   0  0  0  0  0  0  0  0  0  0  0  0
  -36.1963   57.0018   69.7182 C   0  0  0  0  0  0  0  0  0  0  0  0
  -35.1505   55.8953   69.8821 C   0  0  0  0  0  0  0  0  0  0  0  0
  -34.1425   55.7467   68.7562 C   0  0  0  0  0  0  0  0  0  0  0  0
  -41.7615   60.6565   63.6107 C   0  0  0  0  0  0  0  0  0  0  0  0
  -42.5847   60.1680   62.4559 C   0  0  0  0  0  0  0  0  0  0  0  0
  -42.6099   58.6428   62.5563 C   0  0  0  0  0  0  0  0  0  0  0  0
  -41.1870   58.0925   62.4955 C   0  0  0  0  0  0  0  0  0  0  0  0
  -40.4007   58.4226   61.2500 C   0  0  0  0  0  0  0  0  0  0  0  0
  -39.0290   57.7696   61.3844 C   0  0  0  0  0  0  0  0  0  0  0  0
  -38.1197   58.0469   60.1798 C   0  0  0  0  0  0  0  0  0  0  0  0
  -37.8194   59.5385   59.9446 C   0  0  0  0  0  0  0  0  0  0  0  0
  -37.0961   60.2008   61.1378 C   0  0  0  0  0  0  0  0  0  0  0  0
  -36.8385   61.6841   60.8573 C   0  0  0  0  0  0  0  0  0  0  0  0
  -36.1116   62.4336   61.9673 C   0  0  0  0  0  0  0  0  0  0  0  0
  -34.7325   61.8550   62.2473 C   0  0  0  0  0  0  0  0  0  0  0  0
  -34.6950   60.3854   62.6726 C   0  0  0  0  0  0  0  0  0  0  0  0
  -33.2433   59.9992   62.9220 C   0  0  0  0  0  0  0  0  0  0  0  0
  -32.9308   58.5712   63.3444 C   0  0  0  0  0  0  0  0  0  0  0  0
  -31.4216   58.3807   63.5642 C   0  0  0  0  0  0  0  0  0  0  0  0
  -30.8182   59.2762   64.6619 C   0  0  0  0  0  0  0  0  0  0  0  0
  -31.4299   59.0374   66.0404 C   0  0  0  0  0  0  0  0  0  0  0  0
  -40.3719   63.2523   63.2102 C   0  0  2  0  0  0  0  0  0  0  0  0
  -41.0541   64.6276   63.2396 C   0  0  1  0  0  0  0  0  0  0  0  0
  -42.2500   64.7478   62.2697 C   0  0  2  0  0  0  0  0  0  0  0  0
  -41.6957   64.5273   60.8893 C   0  0  2  0  0  0  0  0  0  0  0  0
  -40.9480   63.2071   60.8409 C   0  0  1  0  0  0  0  0  0  0  0  0
  -40.4693   63.1856   59.3909 C   0  0  0  0  0  0  0  0  0  0  0  0
  -43.6188   66.7305   63.5725 S   0  0  0  0  0  0  0  0  0  0  0  0
  -40.2280   59.6342   62.8875 H   0  0  0  0  0  0  0  0  0  0  0  0
  -37.8608   61.8607   65.0594 H   0  0  0  0  0  0  0  0  0  0  0  0
  -38.1940   61.6005   63.3091 H   0  0  0  0  0  0  0  0  0  0  0  0
  -38.6677   59.8099   64.6092 H   0  0  0  0  0  0  0  0  0  0  0  0
  -38.8837   61.7234   66.7113 H   0  0  0  0  0  0  0  0  0  0  0  0
  -41.0317   61.2430   65.9299 H   0  0  0  0  0  0  0  0  0  0  0  0
  -40.3128   58.4462   66.6402 H   0  0  0  0  0  0  0  0  0  0  0  0
  -42.6561   59.5355   65.1904 H   0  0  0  0  0  0  0  0  0  0  0  0
  -40.7886   64.7191   65.1651 H   0  0  0  0  0  0  0  0  0  0  0  0
  -43.3242   57.1948   65.1742 H   0  0  0  0  0  0  0  0  0  0  0  0
  -43.1310   57.4779   66.9208 H   0  0  0  0  0  0  0  0  0  0  0  0
  -41.0584   56.3244   65.1111 H   0  0  0  0  0  0  0  0  0  0  0  0
  -42.0974   55.4438   66.2782 H   0  0  0  0  0  0  0  0  0  0  0  0
  -43.5608   68.6066   62.7902 H   0  0  0  0  0  0  0  0  0  0  0  0
  -40.0145   57.4531   67.0180 H   0  0  0  0  0  0  0  0  0  0  0  0
  -39.8377   55.7080   67.1171 H   0  0  0  0  0  0  0  0  0  0  0  0
  -41.3431   66.4383   60.5450 H   0  0  0  0  0  0  0  0  0  0  0  0
  -41.7073   55.5941   68.6801 H   0  0  0  0  0  0  0  0  0  0  0  0
  -41.8570   57.3748   68.5643 H   0  0  0  0  0  0  0  0  0  0  0  0
  -39.7433   57.6587   69.6427 H   0  0  0  0  0  0  0  0  0  0  0  0
  -39.5646   55.8883   69.7422 H   0  0  0  0  0  0  0  0  0  0  0  0
  -39.5475   61.9528   58.1979 H   0  0  0  0  0  0  0  0  0  0  0  0
  -41.4252   55.7551   71.2567 H   0  0  0  0  0  0  0  0  0  0  0  0
  -41.6296   57.5176   71.1481 H   0  0  0  0  0  0  0  0  0  0  0  0
  -40.5372   56.8793   73.2279 H   0  0  0  0  0  0  0  0  0  0  0  0
  -39.4881   57.8498   72.1684 H   0  0  0  0  0  0  0  0  0  0  0  0
  -39.3358   54.8938   72.5265 H   0  0  0  0  0  0  0  0  0  0  0  0
  -38.2510   56.1401   73.2328 H   0  0  0  0  0  0  0  0  0  0  0  0
  -38.5082   55.5262   70.3398 H   0  0  0  0  0  0  0  0  0  0  0  0
  -37.2052   55.0001   71.4333 H   0  0  0  0  0  0  0  0  0  0  0  0
  -45.3857   65.7282   63.5728 H   0  0  0  0  0  0  0  0  0  0  0  0
  -36.5513   57.2759   71.7967 H   0  0  0  0  0  0  0  0  0  0  0  0
  -37.8695   57.8028   70.7057 H   0  0  0  0  0  0  0  0  0  0  0  0
  -35.6971   57.9434   69.6224 H   0  0  0  0  0  0  0  0  0  0  0  0
  -36.7773   56.7943   68.8439 H   0  0  0  0  0  0  0  0  0  0  0  0
  -35.6720   54.9659   69.9769 H   0  0  0  0  0  0  0  0  0  0  0  0
  -34.5771   56.1714   70.7423 H   0  0  0  0  0  0  0  0  0  0  0  0
  -34.6510   55.4690   67.8567 H   0  0  0  0  0  0  0  0  0  0  0  0
  -33.4311   54.9896   69.0121 H   0  0  0  0  0  0  0  0  0  0  0  0
  -33.6352   56.6769   68.6066 H   0  0  0  0  0  0  0  0  0  0  0  0
  -42.1401   60.4704   61.5308 H   0  0  0  0  0  0  0  0  0  0  0  0
  -43.5740   60.5745   62.4862 H   0  0  0  0  0  0  0  0  0  0  0  0
  -43.1794   58.2434   61.7432 H   0  0  0  0  0  0  0  0  0  0  0  0
  -43.0571   58.3590   63.4860 H   0  0  0  0  0  0  0  0  0  0  0  0
  -41.2449   57.0269   62.5728 H   0  0  0  0  0  0  0  0  0  0  0  0
  -40.6620   58.5630   63.3004 H   0  0  0  0  0  0  0  0  0  0  0  0
  -40.2925   59.4830   61.1571 H   0  0  0  0  0  0  0  0  0  0  0  0
  -40.9060   58.0599   60.3793 H   0  0  0  0  0  0  0  0  0  0  0  0
  -39.1612   56.7118   61.4771 H   0  0  0  0  0  0  0  0  0  0  0  0
  -38.5561   58.1868   62.2488 H   0  0  0  0  0  0  0  0  0  0  0  0
  -38.5957   57.6584   59.3038 H   0  0  0  0  0  0  0  0  0  0  0  0
  -37.1825   57.5740   60.3873 H   0  0  0  0  0  0  0  0  0  0  0  0
  -38.7439   60.0510   59.7785 H   0  0  0  0  0  0  0  0  0  0  0  0
  -37.1694   59.6057   59.0973 H   0  0  0  0  0  0  0  0  0  0  0  0
  -36.1612   59.7064   61.3004 H   0  0  0  0  0  0  0  0  0  0  0  0
  -37.7157   60.1169   62.0060 H   0  0  0  0  0  0  0  0  0  0  0  0
  -37.7833   62.1607   60.6988 H   0  0  0  0  0  0  0  0  0  0  0  0
  -36.1957   61.7192   60.0027 H   0  0  0  0  0  0  0  0  0  0  0  0
  -36.6967   62.3767   62.8613 H   0  0  0  0  0  0  0  0  0  0  0  0
  -35.9830   63.4468   61.6484 H   0  0  0  0  0  0  0  0  0  0  0  0
  -34.2875   62.4336   63.0297 H   0  0  0  0  0  0  0  0  0  0  0  0
  -34.2067   61.8994   61.3165 H   0  0  0  0  0  0  0  0  0  0  0  0
  -35.1045   59.7731   61.8965 H   0  0  0  0  0  0  0  0  0  0  0  0
  -35.2733   60.2429   63.5615 H   0  0  0  0  0  0  0  0  0  0  0  0
  -32.8735   60.6437   63.6919 H   0  0  0  0  0  0  0  0  0  0  0  0
  -32.7800   60.0942   61.9622 H   0  0  0  0  0  0  0  0  0  0  0  0
  -33.2606   57.8997   62.5794 H   0  0  0  0  0  0  0  0  0  0  0  0
  -33.4379   58.3687   64.2645 H   0  0  0  0  0  0  0  0  0  0  0  0
  -30.9200   58.5961   62.6440 H   0  0  0  0  0  0  0  0  0  0  0  0
  -31.2865   57.3698   63.8878 H   0  0  0  0  0  0  0  0  0  0  0  0
  -30.9783   60.2991   64.3919 H   0  0  0  0  0  0  0  0  0  0  0  0
  -29.7779   59.0356   64.7309 H   0  0  0  0  0  0  0  0  0  0  0  0
  -32.4744   59.2680   66.0119 H   0  0  0  0  0  0  0  0  0  0  0  0
  -30.9456   59.6648   66.7592 H   0  0  0  0  0  0  0  0  0  0  0  0
  -31.2986   58.0119   66.3161 H   0  0  0  0  0  0  0  0  0  0  0  0
  -41.0884   62.5164   63.5101 H   0  0  0  0  0  0  0  0  0  0  0  0
  -40.3450   65.3693   62.9365 H   0  0  0  0  0  0  0  0  0  0  0  0
  -42.9797   64.0400   62.6037 H   0  0  0  0  0  0  0  0  0  0  0  0
  -42.5072   64.4892   60.1929 H   0  0  0  0  0  0  0  0  0  0  0  0
  -41.5483   62.3577   61.0920 H   0  0  0  0  0  0  0  0  0  0  0  0
  -41.3070   63.3133   58.7375 H   0  0  0  0  0  0  0  0  0  0  0  0
  -39.7695   63.9801   59.2362 H   0  0  0  0  0  0  0  0  0  0  0  0
  1  4  1  0  0  0  0
  1 31  1  0  0  0  0
  1 56  1  0  0  0  0
  2  3  1  0  0  0  0
  2  4  1  0  0  0  0
  2 57  1  0  0  0  0
  2 58  1  0  0  0  0
  3 49  1  0  0  0  0
  4  6  1  0  0  0  0
  4 59  1  1  0  0  0
  5  6  1  0  0  0  0
  5 60  1  0  0  0  0
  6  8  1  0  0  0  0
  6 61  1  6  0  0  0
  7 31  2  0  0  0  0
  8  9  2  0  0  0  0
  8 62  1  0  0  0  0
  9 11  1  0  0  0  0
  9 63  1  0  0  0  0
 10 50  1  0  0  0  0
 10 64  1  0  0  0  0
 11 13  1  0  0  0  0
 11 65  1  0  0  0  0
 11 66  1  0  0  0  0
 12 51  1  0  0  0  0
 12 55  1  0  0  0  0
 13 15  1  0  0  0  0
 13 67  1  0  0  0  0
 13 68  1  0  0  0  0
 14 55  1  0  0  0  0
 14 69  1  0  0  0  0
 15 17  1  0  0  0  0
 15 70  1  0  0  0  0
 15 71  1  0  0  0  0
 16 52  1  0  0  0  0
 16 72  1  0  0  0  0
 17 19  1  0  0  0  0
 17 73  1  0  0  0  0
 17 74  1  0  0  0  0
 18 49  1  0  0  0  0
 18 53  1  0  0  0  0
 19 21  1  0  0  0  0
 19 75  1  0  0  0  0
 19 76  1  0  0  0  0
 20 54  1  0  0  0  0
 20 77  1  0  0  0  0
 21 22  1  0  0  0  0
 21 78  1  0  0  0  0
 21 79  1  0  0  0  0
 22 23  1  0  0  0  0
 22 80  1  0  0  0  0
 22 81  1  0  0  0  0
 23 25  1  0  0  0  0
 23 82  1  0  0  0  0
 23 83  1  0  0  0  0
 24 55  1  0  0  0  0
 25 27  1  0  0  0  0
 25 84  1  0  0  0  0
 25 85  1  0  0  0  0
 26 55  1  0  0  0  0
 26 86  1  0  0  0  0
 27 28  1  0  0  0  0
 27 87  1  0  0  0  0
 27 88  1  0  0  0  0
 28 29  1  0  0  0  0
 28 89  1  0  0  0  0
 28 90  1  0  0  0  0
 29 30  1  0  0  0  0
 29 91  1  0  0  0  0
 29 92  1  0  0  0  0
 30 93  1  0  0  0  0
 30 94  1  0  0  0  0
 30 95  1  0  0  0  0
 31 32  1  0  0  0  0
 32 33  1  0  0  0  0
 32 96  1  0  0  0  0
 32 97  1  0  0  0  0
 33 34  1  0  0  0  0
 33 98  1  0  0  0  0
 33 99  1  0  0  0  0
 34 35  1  0  0  0  0
 34100  1  0  0  0  0
 34101  1  0  0  0  0
 35 36  1  0  0  0  0
 35102  1  0  0  0  0
 35103  1  0  0  0  0
 36 37  1  0  0  0  0
 36104  1  0  0  0  0
 36105  1  0  0  0  0
 37 38  1  0  0  0  0
 37106  1  0  0  0  0
 37107  1  0  0  0  0
 38 39  1  0  0  0  0
 38108  1  0  0  0  0
 38109  1  0  0  0  0
 39 40  1  0  0  0  0
 39110  1  0  0  0  0
 39111  1  0  0  0  0
 40 41  1  0  0  0  0
 40112  1  0  0  0  0
 40113  1  0  0  0  0
 41 42  1  0  0  0  0
 41114  1  0  0  0  0
 41115  1  0  0  0  0
 42 43  1  0  0  0  0
 42116  1  0  0  0  0
 42117  1  0  0  0  0
 43 44  1  0  0  0  0
 43118  1  0  0  0  0
 43119  1  0  0  0  0
 44 45  1  0  0  0  0
 44120  1  0  0  0  0
 44121  1  0  0  0  0
 45 46  1  0  0  0  0
 45122  1  0  0  0  0
 45123  1  0  0  0  0
 46 47  1  0  0  0  0
 46124  1  0  0  0  0
 46125  1  0  0  0  0
 47 48  1  0  0  0  0
 47126  1  0  0  0  0
 47127  1  0  0  0  0
 48128  1  0  0  0  0
 48129  1  0  0  0  0
 48130  1  0  0  0  0
 49 50  1  0  0  0  0
 49131  1  1  0  0  0
 50 51  1  0  0  0  0
 50132  1  6  0  0  0
 51 52  1  0  0  0  0
 51133  1  1  0  0  0
 52 53  1  0  0  0  0
 52134  1  6  0  0  0
 53 54  1  0  0  0  0
 53135  1  1  0  0  0
 54136  1  0  0  0  0
 54137  1  0  0  0  0
M  CHG  1  24  -1
M  END
$$$$