/media/chris/experiments/cd1a-new-docking/inputs/ligands/1onq_ligand.pdb
 OpenBabel06222310383D

137137  0  0  1  0  0  0  0  0999 V2000
  -40.4920   60.2280   63.6270 N   0  0  0  0  0  0  0  0  0  0  0  0
  -38.5950   61.7730   64.2860 C   0  0  0  0  0  0  0  0  0  0  0  0
  -37.8612   61.7550   63.0352 O   0  0  0  0  0  0  0  0  0  0  0  0
  -39.4590   60.5300   64.5980 C   0  0  1  0  0  0  0  0  0  0  0  0
  -41.2116   61.5409   65.7392 O   0  0  0  0  0  0  0  0  0  0  0  0
  -40.2280   60.5370   65.9080 C   0  0  2  0  0  0  0  0  0  0  0  0
  -41.8540   58.8360   62.4630 O   0  0  0  0  0  0  0  0  0  0  0  0
  -39.2689   60.8567   67.0571 C   0  0  0  0  0  0  0  0  0  0  0  0
  -39.4194   61.9233   67.8608 C   0  0  0  0  0  0  0  0  0  0  0  0
  -35.5100   61.5437   61.4214 O   0  0  0  0  0  0  0  0  0  0  0  0
  -38.4178   62.1745   68.9864 C   0  0  0  0  0  0  0  0  0  0  0  0
  -34.5500   63.7954   59.7545 O   0  0  0  0  0  0  0  0  0  0  0  0
  -38.8021   61.5155   70.3191 C   0  0  0  0  0  0  0  0  0  0  0  0
  -32.8948   64.5688   57.9163 O   0  0  0  0  0  0  0  0  0  0  0  0
  -40.1549   61.9507   70.9122 C   0  0  0  0  0  0  0  0  0  0  0  0
  -36.9424   65.1061   59.7916 O   0  0  0  0  0  0  0  0  0  0  0  0
  -40.1772   63.4771   71.1671 C   0  0  0  0  0  0  0  0  0  0  0  0
  -37.7250   64.1271   62.5456 O   0  0  0  0  0  0  0  0  0  0  0  0
  -41.4896   64.0263   71.7817 C   0  0  0  0  0  0  0  0  0  0  0  0
  -38.5454   66.3797   60.8597 O   0  0  0  0  0  0  0  0  0  0  0  0
  -41.4906   65.5562   72.0097 C   0  0  0  0  0  0  0  0  0  0  0  0
  -41.3085   66.3740   70.7127 C   0  0  0  0  0  0  0  0  0  0  0  0
  -42.4135   66.1412   69.6754 C   0  0  0  0  0  0  0  0  0  0  0  0
  -32.3309   64.9039   60.2527 O   0  5  0  0  0  0  0  0  0  0  0  0
  -42.5839   64.7043   69.1868 C   0  0  0  0  0  0  0  0  0  0  0  0
  -33.9858   66.3154   59.1833 O   0  0  0  0  0  0  0  0  0  0  0  0
  -43.6956   64.5291   68.1335 C   0  0  0  0  0  0  0  0  0  0  0  0
  -43.9035   63.0913   67.6339 C   0  0  0  0  0  0  0  0  0  0  0  0
  -45.0144   63.0300   66.5817 C   0  0  0  0  0  0  0  0  0  0  0  0
  -46.3868   63.5096   67.0201 C   0  0  0  0  0  0  0  0  0  0  0  0
  -40.9921   59.0290   63.2983 C   0  0  0  0  0  0  0  0  0  0  0  0
  -40.4035   57.8670   64.0420 C   0  0  0  0  0  0  0  0  0  0  0  0
  -41.5596   57.1980   64.7856 C   0  0  0  0  0  0  0  0  0  0  0  0
  -41.0433   56.0066   65.5887 C   0  0  0  0  0  0  0  0  0  0  0  0
  -40.3619   54.9174   64.7962 C   0  0  0  0  0  0  0  0  0  0  0  0
  -39.9434   53.8270   65.7769 C   0  0  0  0  0  0  0  0  0  0  0  0
  -39.2183   52.6605   65.0925 C   0  0  0  0  0  0  0  0  0  0  0  0
  -38.7949   51.5308   66.0491 C   0  0  0  0  0  0  0  0  0  0  0  0
  -38.0533   50.3822   65.3307 C   0  0  0  0  0  0  0  0  0  0  0  0
  -36.7715   50.8971   64.6697 C   0  0  0  0  0  0  0  0  0  0  0  0
  -35.9674   49.8451   63.9154 C   0  0  0  0  0  0  0  0  0  0  0  0
  -36.7586   49.2216   62.7752 C   0  0  0  0  0  0  0  0  0  0  0  0
  -36.0357   48.1396   61.9697 C   0  0  0  0  0  0  0  0  0  0  0  0
  -34.7786   48.7539   61.3688 C   0  0  0  0  0  0  0  0  0  0  0  0
  -33.8836   47.8815   60.5011 C   0  0  0  0  0  0  0  0  0  0  0  0
  -33.3724   46.6643   61.2880 C   0  0  0  0  0  0  0  0  0  0  0  0
  -32.4423   45.7325   60.4896 C   0  0  0  0  0  0  0  0  0  0  0  0
  -31.9646   44.5240   61.2915 C   0  0  0  0  0  0  0  0  0  0  0  0
  -36.9920   62.8817   62.6414 C   0  0  2  0  0  0  0  0  0  0  0  0
  -36.2434   62.7243   61.3101 C   0  0  1  0  0  0  0  0  0  0  0  0
  -35.2621   63.8785   61.0099 C   0  0  2  0  0  0  0  0  0  0  0  0
  -36.0938   65.1292   60.9367 C   0  0  2  0  0  0  0  0  0  0  0  0
  -36.9073   65.2804   62.2094 C   0  0  1  0  0  0  0  0  0  0  0  0
  -37.6681   66.5742   61.9281 C   0  0  0  0  0  0  0  0  0  0  0  0
  -33.4381   64.9312   59.2587 S   0  0  0  0  0  0  0  0  0  0  0  0
  -40.8737   60.9998   63.1496 H   0  0  0  0  0  0  0  0  0  0  0  0
  -39.2437   62.6238   64.2698 H   0  0  0  0  0  0  0  0  0  0  0  0
  -37.8479   61.7974   65.0516 H   0  0  0  0  0  0  0  0  0  0  0  0
  -38.6677   59.8099   64.6092 H   0  0  0  0  0  0  0  0  0  0  0  0
  -41.7964   61.3001   65.0038 H   0  0  0  0  0  0  0  0  0  0  0  0
  -40.6791   59.5963   66.1457 H   0  0  0  0  0  0  0  0  0  0  0  0
  -38.4702   60.2244   67.2223 H   0  0  0  0  0  0  0  0  0  0  0  0
  -40.2099   62.5712   67.7177 H   0  0  0  0  0  0  0  0  0  0  0  0
  -36.1111   60.8062   61.6103 H   0  0  0  0  0  0  0  0  0  0  0  0
  -38.3434   63.2306   69.1418 H   0  0  0  0  0  0  0  0  0  0  0  0
  -37.4901   61.7383   68.6800 H   0  0  0  0  0  0  0  0  0  0  0  0
  -38.0398   61.7480   71.0330 H   0  0  0  0  0  0  0  0  0  0  0  0
  -38.8969   60.4701   70.1115 H   0  0  0  0  0  0  0  0  0  0  0  0
  -32.5332   63.6692   57.9459 H   0  0  0  0  0  0  0  0  0  0  0  0
  -40.3133   61.4381   71.8380 H   0  0  0  0  0  0  0  0  0  0  0  0
  -40.9293   61.7079   70.2150 H   0  0  0  0  0  0  0  0  0  0  0  0
  -36.4029   65.0090   58.9913 H   0  0  0  0  0  0  0  0  0  0  0  0
  -40.0184   63.9710   70.2313 H   0  0  0  0  0  0  0  0  0  0  0  0
  -39.4100   63.6682   71.8880 H   0  0  0  0  0  0  0  0  0  0  0  0
  -41.6449   63.5462   72.7253 H   0  0  0  0  0  0  0  0  0  0  0  0
  -42.2689   63.8194   71.0784 H   0  0  0  0  0  0  0  0  0  0  0  0
  -39.0273   67.2028   60.6831 H   0  0  0  0  0  0  0  0  0  0  0  0
  -40.6911   65.7993   72.6780 H   0  0  0  0  0  0  0  0  0  0  0  0
  -42.4485   65.8133   72.4111 H   0  0  0  0  0  0  0  0  0  0  0  0
  -40.3708   66.1051   70.2730 H   0  0  0  0  0  0  0  0  0  0  0  0
  -41.3503   67.4074   70.9868 H   0  0  0  0  0  0  0  0  0  0  0  0
  -42.1971   66.7526   68.8243 H   0  0  0  0  0  0  0  0  0  0  0  0
  -43.3295   66.3871   70.1708 H   0  0  0  0  0  0  0  0  0  0  0  0
  -42.8182   64.0878   70.0293 H   0  0  0  0  0  0  0  0  0  0  0  0
  -41.6642   64.4258   68.7161 H   0  0  0  0  0  0  0  0  0  0  0  0
  -34.7086   66.3423   58.5371 H   0  0  0  0  0  0  0  0  0  0  0  0
  -43.4515   65.1404   67.2899 H   0  0  0  0  0  0  0  0  0  0  0  0
  -44.6083   64.8104   68.6159 H   0  0  0  0  0  0  0  0  0  0  0  0
  -44.1713   62.4687   68.4619 H   0  0  0  0  0  0  0  0  0  0  0  0
  -42.9926   62.7509   67.1875 H   0  0  0  0  0  0  0  0  0  0  0  0
  -45.1103   62.0114   66.2686 H   0  0  0  0  0  0  0  0  0  0  0  0
  -44.7111   63.7047   65.8086 H   0  0  0  0  0  0  0  0  0  0  0  0
  -46.7545   62.8747   67.7989 H   0  0  0  0  0  0  0  0  0  0  0  0
  -47.0582   63.4784   66.1876 H   0  0  0  0  0  0  0  0  0  0  0  0
  -46.3146   64.5137   67.3827 H   0  0  0  0  0  0  0  0  0  0  0  0
  -39.6651   58.2085   64.7370 H   0  0  0  0  0  0  0  0  0  0  0  0
  -39.9248   57.1820   63.3737 H   0  0  0  0  0  0  0  0  0  0  0  0
  -42.2876   56.8597   64.0781 H   0  0  0  0  0  0  0  0  0  0  0  0
  -42.0045   57.9058   65.4534 H   0  0  0  0  0  0  0  0  0  0  0  0
  -41.8769   55.5686   66.0967 H   0  0  0  0  0  0  0  0  0  0  0  0
  -40.2915   56.4023   66.2392 H   0  0  0  0  0  0  0  0  0  0  0  0
  -39.5002   55.3121   64.2997 H   0  0  0  0  0  0  0  0  0  0  0  0
  -41.0240   54.5220   64.0545 H   0  0  0  0  0  0  0  0  0  0  0  0
  -40.8189   53.4485   66.2618 H   0  0  0  0  0  0  0  0  0  0  0  0
  -39.2619   54.2654   66.4756 H   0  0  0  0  0  0  0  0  0  0  0  0
  -38.3398   53.0443   64.6171 H   0  0  0  0  0  0  0  0  0  0  0  0
  -39.9118   52.2321   64.3994 H   0  0  0  0  0  0  0  0  0  0  0  0
  -39.6713   51.1322   66.5159 H   0  0  0  0  0  0  0  0  0  0  0  0
  -38.1195   51.9517   66.7644 H   0  0  0  0  0  0  0  0  0  0  0  0
  -38.6927   49.9658   64.5807 H   0  0  0  0  0  0  0  0  0  0  0  0
  -37.7931   49.6358   66.0520 H   0  0  0  0  0  0  0  0  0  0  0  0
  -36.1457   51.3077   65.4344 H   0  0  0  0  0  0  0  0  0  0  0  0
  -37.0800   51.6168   63.9404 H   0  0  0  0  0  0  0  0  0  0  0  0
  -35.6833   49.0731   64.5997 H   0  0  0  0  0  0  0  0  0  0  0  0
  -35.1107   50.3281   63.4938 H   0  0  0  0  0  0  0  0  0  0  0  0
  -37.0318   50.0050   62.0996 H   0  0  0  0  0  0  0  0  0  0  0  0
  -37.5903   48.7308   63.2360 H   0  0  0  0  0  0  0  0  0  0  0  0
  -36.6736   47.7828   61.1882 H   0  0  0  0  0  0  0  0  0  0  0  0
  -35.7783   47.3168   62.6035 H   0  0  0  0  0  0  0  0  0  0  0  0
  -34.1807   49.1077   62.1826 H   0  0  0  0  0  0  0  0  0  0  0  0
  -35.1489   49.4983   60.6952 H   0  0  0  0  0  0  0  0  0  0  0  0
  -33.0470   48.4599   60.1686 H   0  0  0  0  0  0  0  0  0  0  0  0
  -34.4535   47.5328   59.6654 H   0  0  0  0  0  0  0  0  0  0  0  0
  -34.2192   46.0951   61.6103 H   0  0  0  0  0  0  0  0  0  0  0  0
  -32.7929   47.0490   62.1010 H   0  0  0  0  0  0  0  0  0  0  0  0
  -31.5859   46.2932   60.1778 H   0  0  0  0  0  0  0  0  0  0  0  0
  -33.0042   45.3595   59.6589 H   0  0  0  0  0  0  0  0  0  0  0  0
  -31.3962   44.8575   62.1345 H   0  0  0  0  0  0  0  0  0  0  0  0
  -31.3521   43.9037   60.6711 H   0  0  0  0  0  0  0  0  0  0  0  0
  -32.8109   43.9641   61.6309 H   0  0  0  0  0  0  0  0  0  0  0  0
  -36.2714   62.8884   63.4323 H   0  0  0  0  0  0  0  0  0  0  0  0
  -36.9572   62.7210   60.5129 H   0  0  0  0  0  0  0  0  0  0  0  0
  -34.5202   63.8498   61.7804 H   0  0  0  0  0  0  0  0  0  0  0  0
  -35.4422   65.9726   60.8423 H   0  0  0  0  0  0  0  0  0  0  0  0
  -36.3163   65.3320   63.0999 H   0  0  0  0  0  0  0  0  0  0  0  0
  -38.2236   66.8568   62.7979 H   0  0  0  0  0  0  0  0  0  0  0  0
  -36.9725   67.3484   61.6798 H   0  0  0  0  0  0  0  0  0  0  0  0
  1  4  1  0  0  0  0
  1 31  1  0  0  0  0
  1 56  1  0  0  0  0
  2  3  1  0  0  0  0
  2  4  1  0  0  0  0
  2 57  1  0  0  0  0
  2 58  1  0  0  0  0
  3 49  1  0  0  0  0
  4  6  1  0  0  0  0
  4 59  1  1  0  0  0
  5  6  1  0  0  0  0
  5 60  1  0  0  0  0
  6  8  1  0  0  0  0
  6 61  1  1  0  0  0
  7 31  2  0  0  0  0
  8  9  2  0  0  0  0
  8 62  1  0  0  0  0
  9 11  1  0  0  0  0
  9 63  1  0  0  0  0
 10 50  1  0  0  0  0
 10 64  1  0  0  0  0
 11 13  1  0  0  0  0
 11 65  1  0  0  0  0
 11 66  1  0  0  0  0
 12 51  1  0  0  0  0
 12 55  1  0  0  0  0
 13 15  1  0  0  0  0
 13 67  1  0  0  0  0
 13 68  1  0  0  0  0
 14 55  1  0  0  0  0
 14 69  1  0  0  0  0
 15 17  1  0  0  0  0
 15 70  1  0  0  0  0
 15 71  1  0  0  0  0
 16 52  1  0  0  0  0
 16 72  1  0  0  0  0
 17 19  1  0  0  0  0
 17 73  1  0  0  0  0
 17 74  1  0  0  0  0
 18 49  1  0  0  0  0
 18 53  1  0  0  0  0
 19 21  1  0  0  0  0
 19 75  1  0  0  0  0
 19 76  1  0  0  0  0
 20 54  1  0  0  0  0
 20 77  1  0  0  0  0
 21 22  1  0  0  0  0
 21 78  1  0  0  0  0
 21 79  1  0  0  0  0
 22 23  1  0  0  0  0
 22 80  1  0  0  0  0
 22 81  1  0  0  0  0
 23 25  1  0  0  0  0
 23 82  1  0  0  0  0
 23 83  1  0  0  0  0
 24 55  1  0  0  0  0
 25 27  1  0  0  0  0
 25 84  1  0  0  0  0
 25 85  1  0  0  0  0
 26 55  1  0  0  0  0
 26 86  1  0  0  0  0
 27 28  1  0  0  0  0
 27 87  1  0  0  0  0
 27 88  1  0  0  0  0
 28 29  1  0  0  0  0
 28 89  1  0  0  0  0
 28 90  1  0  0  0  0
 29 30  1  0  0  0  0
 29 91  1  0  0  0  0
 29 92  1  0  0  0  0
 30 93  1  0  0  0  0
 30 94  1  0  0  0  0
 30 95  1  0  0  0  0
 31 32  1  0  0  0  0
 32 33  1  0  0  0  0
 32 96  1  0  0  0  0
 32 97  1  0  0  0  0
 33 34  1  0  0  0  0
 33 98  1  0  0  0  0
 33 99  1  0  0  0  0
 34 35  1  0  0  0  0
 34100  1  0  0  0  0
 34101  1  0  0  0  0
 35 36  1  0  0  0  0
 35102  1  0  0  0  0
 35103  1  0  0  0  0
 36 37  1  0  0  0  0
 36104  1  0  0  0  0
 36105  1  0  0  0  0
 37 38  1  0  0  0  0
 37106  1  0  0  0  0
 37107  1  0  0  0  0
 38 39  1  0  0  0  0
 38108  1  0  0  0  0
 38109  1  0  0  0  0
 39 40  1  0  0  0  0
 39110  1  0  0  0  0
 39111  1  0  0  0  0
 40 41  1  0  0  0  0
 40112  1  0  0  0  0
 40113  1  0  0  0  0
 41 42  1  0  0  0  0
 41114  1  0  0  0  0
 41115  1  0  0  0  0
 42 43  1  0  0  0  0
 42116  1  0  0  0  0
 42117  1  0  0  0  0
 43 44  1  0  0  0  0
 43118  1  0  0  0  0
 43119  1  0  0  0  0
 44 45  1  0  0  0  0
 44120  1  0  0  0  0
 44121  1  0  0  0  0
 45 46  1  0  0  0  0
 45122  1  0  0  0  0
 45123  1  0  0  0  0
 46 47  1  0  0  0  0
 46124  1  0  0  0  0
 46125  1  0  0  0  0
 47 48  1  0  0  0  0
 47126  1  0  0  0  0
 47127  1  0  0  0  0
 48128  1  0  0  0  0
 48129  1  0  0  0  0
 48130  1  0  0  0  0
 49 50  1  0  0  0  0
 49131  1  1  0  0  0
 50 51  1  0  0  0  0
 50132  1  6  0  0  0
 51 52  1  0  0  0  0
 51133  1  1  0  0  0
 52 53  1  0  0  0  0
 52134  1  6  0  0  0
 53 54  1  0  0  0  0
 53135  1  1  0  0  0
 54136  1  0  0  0  0
 54137  1  0  0  0  0
M  CHG  1  24  -1
M  END
$$$$