/media/chris/experiments/cd1a-new-docking/inputs/ligands/1onq_ligand.pdb
 OpenBabel06222310383D

137137  0  0  1  0  0  0  0  0999 V2000
  -40.4920   60.2280   63.6270 N   0  0  0  0  0  0  0  0  0  0  0  0
  -38.5950   61.7730   64.2860 C   0  0  0  0  0  0  0  0  0  0  0  0
  -37.5441   62.0867   65.2349 O   0  0  0  0  0  0  0  0  0  0  0  0
  -39.4590   60.5300   64.5980 C   0  0  1  0  0  0  0  0  0  0  0  0
  -41.2116   61.5409   65.7392 O   0  0  0  0  0  0  0  0  0  0  0  0
  -40.2280   60.5370   65.9080 C   0  0  2  0  0  0  0  0  0  0  0  0
  -40.9980   62.2858   62.8166 O   0  0  0  0  0  0  0  0  0  0  0  0
  -39.2689   60.8567   67.0571 C   0  0  0  0  0  0  0  0  0  0  0  0
  -39.0539   60.0187   68.0855 C   0  0  0  0  0  0  0  0  0  0  0  0
  -38.2938   64.5178   63.9293 O   0  0  0  0  0  0  0  0  0  0  0  0
  -38.0807   60.4114   69.1956 C   0  0  0  0  0  0  0  0  0  0  0  0
  -37.0206   67.1074   64.5954 O   0  0  0  0  0  0  0  0  0  0  0  0
  -37.9260   59.3472   70.2919 C   0  0  0  0  0  0  0  0  0  0  0  0
  -35.5491   68.3969   62.8957 O   0  0  0  0  0  0  0  0  0  0  0  0
  -37.3921   57.9808   69.8238 C   0  0  0  0  0  0  0  0  0  0  0  0
  -36.0508   66.2424   66.9942 O   0  0  0  0  0  0  0  0  0  0  0  0
  -35.9813   58.1254   69.2040 C   0  0  0  0  0  0  0  0  0  0  0  0
  -35.6795   63.3761   66.0987 O   0  0  0  0  0  0  0  0  0  0  0  0
  -35.3503   56.8102   68.6809 C   0  0  0  0  0  0  0  0  0  0  0  0
  -33.0018   65.8439   66.8253 O   0  0  0  0  0  0  0  0  0  0  0  0
  -36.1612   56.1215   67.5581 C   0  0  0  0  0  0  0  0  0  0  0  0
  -36.3268   56.9915   66.2933 C   0  0  0  0  0  0  0  0  0  0  0  0
  -34.9991   57.3725   65.6274 C   0  0  0  0  0  0  0  0  0  0  0  0
  -35.0811   68.5856   65.2694 O   0  5  0  0  0  0  0  0  0  0  0  0
  -34.1372   56.2116   65.1357 C   0  0  0  0  0  0  0  0  0  0  0  0
  -36.9848   69.7361   64.3068 O   0  0  0  0  0  0  0  0  0  0  0  0
  -34.8189   55.3347   64.0669 C   0  0  0  0  0  0  0  0  0  0  0  0
  -33.9837   54.1476   63.5638 C   0  0  0  0  0  0  0  0  0  0  0  0
  -34.7426   53.3545   62.4960 C   0  0  0  0  0  0  0  0  0  0  0  0
  -34.0324   52.1401   61.9248 C   0  0  0  0  0  0  0  0  0  0  0  0
  -41.1606   61.0813   62.8393 C   0  0  0  0  0  0  0  0  0  0  0  0
  -42.1710   60.4499   61.9282 C   0  0  0  0  0  0  0  0  0  0  0  0
  -42.7946   61.5868   61.1184 C   0  0  0  0  0  0  0  0  0  0  0  0
  -41.7183   62.2950   60.2992 C   0  0  0  0  0  0  0  0  0  0  0  0
  -42.1837   63.4575   59.4563 C   0  0  0  0  0  0  0  0  0  0  0  0
  -43.2349   62.9308   58.4851 C   0  0  0  0  0  0  0  0  0  0  0  0
  -42.6955   61.8222   57.5713 C   0  0  0  0  0  0  0  0  0  0  0  0
  -43.7244   61.2766   56.5642 C   0  0  0  0  0  0  0  0  0  0  0  0
  -43.1540   60.1515   55.6730 C   0  0  0  0  0  0  0  0  0  0  0  0
  -44.2119   59.6595   54.6811 C   0  0  0  0  0  0  0  0  0  0  0  0
  -45.4826   59.1065   55.3150 C   0  0  0  0  0  0  0  0  0  0  0  0
  -46.2066   60.1459   56.1580 C   0  0  0  0  0  0  0  0  0  0  0  0
  -47.4882   59.6748   56.8492 C   0  0  0  0  0  0  0  0  0  0  0  0
  -48.0709   60.8499   57.6227 C   0  0  0  0  0  0  0  0  0  0  0  0
  -47.2245   61.5014   58.7064 C   0  0  0  0  0  0  0  0  0  0  0  0
  -47.9871   62.6519   59.3824 C   0  0  0  0  0  0  0  0  0  0  0  0
  -47.1966   63.3816   60.4840 C   0  0  0  0  0  0  0  0  0  0  0  0
  -46.7619   62.4638   61.6243 C   0  0  0  0  0  0  0  0  0  0  0  0
  -36.6675   63.2597   65.0462 C   0  0  2  0  0  0  0  0  0  0  0  0
  -37.3701   64.6228   64.9685 C   0  0  1  0  0  0  0  0  0  0  0  0
  -36.4160   65.7955   64.6529 C   0  0  2  0  0  0  0  0  0  0  0  0
  -35.4210   65.8428   65.7794 C   0  0  2  0  0  0  0  0  0  0  0  0
  -34.7568   64.4868   65.9355 C   0  0  1  0  0  0  0  0  0  0  0  0
  -33.8159   64.7462   67.1101 C   0  0  0  0  0  0  0  0  0  0  0  0
  -36.1639   68.4933   64.2527 S   0  0  0  0  0  0  0  0  0  0  0  0
  -40.7322   59.2777   63.5347 H   0  0  0  0  0  0  0  0  0  0  0  0
  -38.1357   61.6183   63.3320 H   0  0  0  0  0  0  0  0  0  0  0  0
  -39.2690   62.6030   64.3261 H   0  0  0  0  0  0  0  0  0  0  0  0
  -38.6677   59.8099   64.6092 H   0  0  0  0  0  0  0  0  0  0  0  0
  -41.7964   61.3001   65.0038 H   0  0  0  0  0  0  0  0  0  0  0  0
  -40.6791   59.5963   66.1457 H   0  0  0  0  0  0  0  0  0  0  0  0
  -38.7644   61.7568   67.0415 H   0  0  0  0  0  0  0  0  0  0  0  0
  -39.5451   59.1120   68.1252 H   0  0  0  0  0  0  0  0  0  0  0  0
  -38.9026   63.7849   64.1107 H   0  0  0  0  0  0  0  0  0  0  0  0
  -38.4335   61.3139   69.6494 H   0  0  0  0  0  0  0  0  0  0  0  0
  -37.1201   60.5296   68.7394 H   0  0  0  0  0  0  0  0  0  0  0  0
  -38.8867   59.1904   70.7360 H   0  0  0  0  0  0  0  0  0  0  0  0
  -37.1926   59.7308   70.9700 H   0  0  0  0  0  0  0  0  0  0  0  0
  -35.0098   67.5924   62.8415 H   0  0  0  0  0  0  0  0  0  0  0  0
  -38.0578   57.5766   69.0901 H   0  0  0  0  0  0  0  0  0  0  0  0
  -37.3300   57.3286   70.6698 H   0  0  0  0  0  0  0  0  0  0  0  0
  -36.4678   67.1097   66.8721 H   0  0  0  0  0  0  0  0  0  0  0  0
  -35.3314   58.5293   69.9520 H   0  0  0  0  0  0  0  0  0  0  0  0
  -36.0968   58.7588   68.3494 H   0  0  0  0  0  0  0  0  0  0  0  0
  -35.2669   56.1284   69.5013 H   0  0  0  0  0  0  0  0  0  0  0  0
  -34.4015   57.0701   68.2602 H   0  0  0  0  0  0  0  0  0  0  0  0
  -32.4053   66.0066   67.5727 H   0  0  0  0  0  0  0  0  0  0  0  0
  -37.1339   55.8877   67.9377 H   0  0  0  0  0  0  0  0  0  0  0  0
  -35.6168   55.2470   67.2686 H   0  0  0  0  0  0  0  0  0  0  0  0
  -36.8376   57.8910   66.5668 H   0  0  0  0  0  0  0  0  0  0  0  0
  -36.8761   56.4089   65.5834 H   0  0  0  0  0  0  0  0  0  0  0  0
  -34.4244   57.9283   66.3384 H   0  0  0  0  0  0  0  0  0  0  0  0
  -35.2653   57.9247   64.7504 H   0  0  0  0  0  0  0  0  0  0  0  0
  -33.8955   55.5929   65.9746 H   0  0  0  0  0  0  0  0  0  0  0  0
  -33.2706   56.6410   64.6779 H   0  0  0  0  0  0  0  0  0  0  0  0
  -37.6937   69.6843   63.6467 H   0  0  0  0  0  0  0  0  0  0  0  0
  -35.0499   55.9563   63.2271 H   0  0  0  0  0  0  0  0  0  0  0  0
  -35.6823   54.9120   64.5366 H   0  0  0  0  0  0  0  0  0  0  0  0
  -33.7621   53.5018   64.3876 H   0  0  0  0  0  0  0  0  0  0  0  0
  -33.0815   54.5256   63.1300 H   0  0  0  0  0  0  0  0  0  0  0  0
  -34.9535   54.0198   61.6849 H   0  0  0  0  0  0  0  0  0  0  0  0
  -35.6100   52.9699   62.9907 H   0  0  0  0  0  0  0  0  0  0  0  0
  -33.1473   52.4533   61.4115 H   0  0  0  0  0  0  0  0  0  0  0  0
  -34.6822   51.6361   61.2403 H   0  0  0  0  0  0  0  0  0  0  0  0
  -33.7671   51.4753   62.7201 H   0  0  0  0  0  0  0  0  0  0  0  0
  -42.9228   59.9482   62.5008 H   0  0  0  0  0  0  0  0  0  0  0  0
  -41.7149   59.7236   61.2883 H   0  0  0  0  0  0  0  0  0  0  0  0
  -43.2511   62.2880   61.7854 H   0  0  0  0  0  0  0  0  0  0  0  0
  -43.5318   61.1834   60.4562 H   0  0  0  0  0  0  0  0  0  0  0  0
  -41.2770   61.5725   59.6448 H   0  0  0  0  0  0  0  0  0  0  0  0
  -41.0399   62.7115   61.0143 H   0  0  0  0  0  0  0  0  0  0  0  0
  -41.3582   63.8680   58.9132 H   0  0  0  0  0  0  0  0  0  0  0  0
  -42.5950   64.2285   60.0737 H   0  0  0  0  0  0  0  0  0  0  0  0
  -43.5744   63.7419   57.8753 H   0  0  0  0  0  0  0  0  0  0  0  0
  -44.0301   62.5121   59.0659 H   0  0  0  0  0  0  0  0  0  0  0  0
  -42.3659   61.0112   58.1865 H   0  0  0  0  0  0  0  0  0  0  0  0
  -41.9038   62.2559   56.9969 H   0  0  0  0  0  0  0  0  0  0  0  0
  -44.0462   62.0803   55.9354 H   0  0  0  0  0  0  0  0  0  0  0  0
  -44.5351   60.8617   57.1259 H   0  0  0  0  0  0  0  0  0  0  0  0
  -42.8458   59.3349   56.2920 H   0  0  0  0  0  0  0  0  0  0  0  0
  -42.3197   60.5361   55.1243 H   0  0  0  0  0  0  0  0  0  0  0  0
  -43.7741   58.8855   54.0860 H   0  0  0  0  0  0  0  0  0  0  0  0
  -44.5098   60.5158   54.1130 H   0  0  0  0  0  0  0  0  0  0  0  0
  -45.2230   58.2772   55.9393 H   0  0  0  0  0  0  0  0  0  0  0  0
  -46.1403   58.8099   54.5248 H   0  0  0  0  0  0  0  0  0  0  0  0
  -46.4615   60.9656   55.5192 H   0  0  0  0  0  0  0  0  0  0  0  0
  -45.5299   60.3995   56.9470 H   0  0  0  0  0  0  0  0  0  0  0  0
  -47.2634   58.8739   57.5222 H   0  0  0  0  0  0  0  0  0  0  0  0
  -48.1922   59.3244   56.1236 H   0  0  0  0  0  0  0  0  0  0  0  0
  -48.9699   60.5053   58.0896 H   0  0  0  0  0  0  0  0  0  0  0  0
  -48.1848   61.6166   56.8850 H   0  0  0  0  0  0  0  0  0  0  0  0
  -46.3283   61.8863   58.2664 H   0  0  0  0  0  0  0  0  0  0  0  0
  -46.9918   60.7648   59.4467 H   0  0  0  0  0  0  0  0  0  0  0  0
  -48.8776   62.2511   59.8197 H   0  0  0  0  0  0  0  0  0  0  0  0
  -48.1847   63.3757   58.6195 H   0  0  0  0  0  0  0  0  0  0  0  0
  -47.8138   64.1566   60.8883 H   0  0  0  0  0  0  0  0  0  0  0  0
  -46.3072   63.7688   60.0323 H   0  0  0  0  0  0  0  0  0  0  0  0
  -47.6273   62.0553   62.1029 H   0  0  0  0  0  0  0  0  0  0  0  0
  -46.1921   63.0242   62.3357 H   0  0  0  0  0  0  0  0  0  0  0  0
  -46.1619   61.6689   61.2333 H   0  0  0  0  0  0  0  0  0  0  0  0
  -36.2294   63.0536   64.0919 H   0  0  0  0  0  0  0  0  0  0  0  0
  -37.8075   64.8385   65.9209 H   0  0  0  0  0  0  0  0  0  0  0  0
  -36.0169   65.6040   63.6787 H   0  0  0  0  0  0  0  0  0  0  0  0
  -34.6703   66.5692   65.5474 H   0  0  0  0  0  0  0  0  0  0  0  0
  -34.2432   64.1505   65.0592 H   0  0  0  0  0  0  0  0  0  0  0  0
  -34.3913   64.9482   67.9892 H   0  0  0  0  0  0  0  0  0  0  0  0
  -33.2043   63.8833   67.2723 H   0  0  0  0  0  0  0  0  0  0  0  0
  1  4  1  0  0  0  0
  1 31  1  0  0  0  0
  1 56  1  0  0  0  0
  2  3  1  0  0  0  0
  2  4  1  0  0  0  0
  2 57  1  0  0  0  0
  2 58  1  0  0  0  0
  3 49  1  0  0  0  0
  4  6  1  0  0  0  0
  4 59  1  1  0  0  0
  5  6  1  0  0  0  0
  5 60  1  0  0  0  0
  6  8  1  0  0  0  0
  6 61  1  1  0  0  0
  7 31  2  0  0  0  0
  8  9  2  0  0  0  0
  8 62  1  0  0  0  0
  9 11  1  0  0  0  0
  9 63  1  0  0  0  0
 10 50  1  0  0  0  0
 10 64  1  0  0  0  0
 11 13  1  0  0  0  0
 11 65  1  0  0  0  0
 11 66  1  0  0  0  0
 12 51  1  0  0  0  0
 12 55  1  0  0  0  0
 13 15  1  0  0  0  0
 13 67  1  0  0  0  0
 13 68  1  0  0  0  0
 14 55  1  0  0  0  0
 14 69  1  0  0  0  0
 15 17  1  0  0  0  0
 15 70  1  0  0  0  0
 15 71  1  0  0  0  0
 16 52  1  0  0  0  0
 16 72  1  0  0  0  0
 17 19  1  0  0  0  0
 17 73  1  0  0  0  0
 17 74  1  0  0  0  0
 18 49  1  0  0  0  0
 18 53  1  0  0  0  0
 19 21  1  0  0  0  0
 19 75  1  0  0  0  0
 19 76  1  0  0  0  0
 20 54  1  0  0  0  0
 20 77  1  0  0  0  0
 21 22  1  0  0  0  0
 21 78  1  0  0  0  0
 21 79  1  0  0  0  0
 22 23  1  0  0  0  0
 22 80  1  0  0  0  0
 22 81  1  0  0  0  0
 23 25  1  0  0  0  0
 23 82  1  0  0  0  0
 23 83  1  0  0  0  0
 24 55  1  0  0  0  0
 25 27  1  0  0  0  0
 25 84  1  0  0  0  0
 25 85  1  0  0  0  0
 26 55  1  0  0  0  0
 26 86  1  0  0  0  0
 27 28  1  0  0  0  0
 27 87  1  0  0  0  0
 27 88  1  0  0  0  0
 28 29  1  0  0  0  0
 28 89  1  0  0  0  0
 28 90  1  0  0  0  0
 29 30  1  0  0  0  0
 29 91  1  0  0  0  0
 29 92  1  0  0  0  0
 30 93  1  0  0  0  0
 30 94  1  0  0  0  0
 30 95  1  0  0  0  0
 31 32  1  0  0  0  0
 32 33  1  0  0  0  0
 32 96  1  0  0  0  0
 32 97  1  0  0  0  0
 33 34  1  0  0  0  0
 33 98  1  0  0  0  0
 33 99  1  0  0  0  0
 34 35  1  0  0  0  0
 34100  1  0  0  0  0
 34101  1  0  0  0  0
 35 36  1  0  0  0  0
 35102  1  0  0  0  0
 35103  1  0  0  0  0
 36 37  1  0  0  0  0
 36104  1  0  0  0  0
 36105  1  0  0  0  0
 37 38  1  0  0  0  0
 37106  1  0  0  0  0
 37107  1  0  0  0  0
 38 39  1  0  0  0  0
 38108  1  0  0  0  0
 38109  1  0  0  0  0
 39 40  1  0  0  0  0
 39110  1  0  0  0  0
 39111  1  0  0  0  0
 40 41  1  0  0  0  0
 40112  1  0  0  0  0
 40113  1  0  0  0  0
 41 42  1  0  0  0  0
 41114  1  0  0  0  0
 41115  1  0  0  0  0
 42 43  1  0  0  0  0
 42116  1  0  0  0  0
 42117  1  0  0  0  0
 43 44  1  0  0  0  0
 43118  1  0  0  0  0
 43119  1  0  0  0  0
 44 45  1  0  0  0  0
 44120  1  0  0  0  0
 44121  1  0  0  0  0
 45 46  1  0  0  0  0
 45122  1  0  0  0  0
 45123  1  0  0  0  0
 46 47  1  0  0  0  0
 46124  1  0  0  0  0
 46125  1  0  0  0  0
 47 48  1  0  0  0  0
 47126  1  0  0  0  0
 47127  1  0  0  0  0
 48128  1  0  0  0  0
 48129  1  0  0  0  0
 48130  1  0  0  0  0
 49 50  1  0  0  0  0
 49131  1  6  0  0  0
 50 51  1  0  0  0  0
 50132  1  1  0  0  0
 51 52  1  0  0  0  0
 51133  1  6  0  0  0
 52 53  1  0  0  0  0
 52134  1  6  0  0  0
 53 54  1  0  0  0  0
 53135  1  6  0  0  0
 54136  1  0  0  0  0
 54137  1  0  0  0  0
M  CHG  1  24  -1
M  END
$$$$