/media/chris/experiments/cd1a-new-docking/inputs/ligands/1onq_ligand.pdb
 OpenBabel06222310383D

137137  0  0  1  0  0  0  0  0999 V2000
  -40.4920   60.2280   63.6270 N   0  0  0  0  0  0  0  0  0  0  0  0
  -38.5950   61.7730   64.2860 C   0  0  0  0  0  0  0  0  0  0  0  0
  -37.8612   61.7550   63.0352 O   0  0  0  0  0  0  0  0  0  0  0  0
  -39.4590   60.5300   64.5980 C   0  0  1  0  0  0  0  0  0  0  0  0
  -39.2569   60.8461   66.8904 O   0  0  0  0  0  0  0  0  0  0  0  0
  -40.2280   60.5370   65.9080 C   0  0  2  0  0  0  0  0  0  0  0  0
  -39.5856   61.0253   61.7060 O   0  0  0  0  0  0  0  0  0  0  0  0
  -40.8583   59.1606   66.1332 C   0  0  0  0  0  0  0  0  0  0  0  0
  -42.0897   58.8399   65.7007 C   0  0  0  0  0  0  0  0  0  0  0  0
  -35.0763   61.8852   63.6713 O   0  0  0  0  0  0  0  0  0  0  0  0
  -42.6490   57.4435   65.9661 C   0  0  0  0  0  0  0  0  0  0  0  0
  -33.4668   59.4465   64.1535 O   0  0  0  0  0  0  0  0  0  0  0  0
  -41.8027   56.3106   65.3673 C   0  0  0  0  0  0  0  0  0  0  0  0
  -31.2016   58.4787   64.9591 O   0  0  0  0  0  0  0  0  0  0  0  0
  -42.3390   54.8854   65.5963 C   0  0  0  0  0  0  0  0  0  0  0  0
  -35.6387   57.8611   64.6143 O   0  0  0  0  0  0  0  0  0  0  0  0
  -41.3944   53.8350   64.9640 C   0  0  0  0  0  0  0  0  0  0  0  0
  -37.4637   59.3802   62.7389 O   0  0  0  0  0  0  0  0  0  0  0  0
  -41.8460   52.3607   65.1190 C   0  0  0  0  0  0  0  0  0  0  0  0
  -37.4860   56.6829   63.8849 O   0  0  0  0  0  0  0  0  0  0  0  0
  -40.8752   51.3318   64.4931 C   0  0  0  0  0  0  0  0  0  0  0  0
  -40.6555   51.5323   62.9780 C   0  0  0  0  0  0  0  0  0  0  0  0
  -39.7072   50.5040   62.3498 C   0  0  0  0  0  0  0  0  0  0  0  0
  -31.5793   58.8261   62.5872 O   0  5  0  0  0  0  0  0  0  0  0  0
  -38.2936   50.4546   62.9260 C   0  0  0  0  0  0  0  0  0  0  0  0
  -32.6385   56.9705   63.7315 O   0  0  0  0  0  0  0  0  0  0  0  0
  -37.3774   49.4168   62.2480 C   0  0  0  0  0  0  0  0  0  0  0  0
  -35.9529   49.3306   62.8166 C   0  0  0  0  0  0  0  0  0  0  0  0
  -35.2317   50.6764   62.6994 C   0  0  0  0  0  0  0  0  0  0  0  0
  -35.8621   51.8464   63.4336 C   0  0  0  0  0  0  0  0  0  0  0  0
  -40.4890   60.4819   62.3113 C   0  0  0  0  0  0  0  0  0  0  0  0
  -41.7153   60.0341   61.5727 C   0  0  0  0  0  0  0  0  0  0  0  0
  -42.2522   58.8152   62.3232 C   0  0  0  0  0  0  0  0  0  0  0  0
  -43.4997   58.2802   61.6242 C   0  0  0  0  0  0  0  0  0  0  0  0
  -44.1553   57.0803   62.2636 C   0  0  0  0  0  0  0  0  0  0  0  0
  -43.1249   55.9565   62.2990 C   0  0  0  0  0  0  0  0  0  0  0  0
  -42.6151   55.5752   60.9027 C   0  0  0  0  0  0  0  0  0  0  0  0
  -43.7155   55.1015   59.9356 C   0  0  0  0  0  0  0  0  0  0  0  0
  -43.1659   54.7097   58.5464 C   0  0  0  0  0  0  0  0  0  0  0  0
  -42.1655   53.5565   58.6671 C   0  0  0  0  0  0  0  0  0  0  0  0
  -41.5464   53.0995   57.3518 C   0  0  0  0  0  0  0  0  0  0  0  0
  -40.7650   54.2098   56.6649 C   0  0  0  0  0  0  0  0  0  0  0  0
  -39.5821   54.7821   57.4493 C   0  0  0  0  0  0  0  0  0  0  0  0
  -38.5899   53.6553   57.7034 C   0  0  0  0  0  0  0  0  0  0  0  0
  -37.3220   53.9628   58.4864 C   0  0  0  0  0  0  0  0  0  0  0  0
  -37.6567   54.4637   59.9003 C   0  0  0  0  0  0  0  0  0  0  0  0
  -38.4410   53.4592   60.7646 C   0  0  0  0  0  0  0  0  0  0  0  0
  -37.6911   52.1500   60.9995 C   0  0  0  0  0  0  0  0  0  0  0  0
  -36.8691   60.7008   62.7449 C   0  0  2  0  0  0  0  0  0  0  0  0
  -35.6676   60.6228   63.6978 C   0  0  1  0  0  0  0  0  0  0  0  0
  -34.6077   59.5817   63.2759 C   0  0  2  0  0  0  0  0  0  0  0  0
  -35.3019   58.2478   63.2843 C   0  0  2  0  0  0  0  0  0  0  0  0
  -36.5404   58.3078   62.4087 C   0  0  1  0  0  0  0  0  0  0  0  0
  -37.0870   56.8902   62.5633 C   0  0  0  0  0  0  0  0  0  0  0  0
  -32.2113   58.3924   63.8628 S   0  0  0  0  0  0  0  0  0  0  0  0
  -41.2958   59.7807   63.9778 H   0  0  0  0  0  0  0  0  0  0  0  0
  -39.2437   62.6238   64.2698 H   0  0  0  0  0  0  0  0  0  0  0  0
  -37.8479   61.7974   65.0516 H   0  0  0  0  0  0  0  0  0  0  0  0
  -38.6677   59.8099   64.6092 H   0  0  0  0  0  0  0  0  0  0  0  0
  -38.8837   61.7234   66.7113 H   0  0  0  0  0  0  0  0  0  0  0  0
  -41.0317   61.2430   65.9299 H   0  0  0  0  0  0  0  0  0  0  0  0
  -40.3128   58.4462   66.6402 H   0  0  0  0  0  0  0  0  0  0  0  0
  -42.6561   59.5355   65.1904 H   0  0  0  0  0  0  0  0  0  0  0  0
  -35.7286   62.5534   63.9341 H   0  0  0  0  0  0  0  0  0  0  0  0
  -43.6315   57.3885   65.5458 H   0  0  0  0  0  0  0  0  0  0  0  0
  -42.6481   57.3047   67.0271 H   0  0  0  0  0  0  0  0  0  0  0  0
  -40.8249   56.3674   65.7982 H   0  0  0  0  0  0  0  0  0  0  0  0
  -41.8189   56.4623   64.3082 H   0  0  0  0  0  0  0  0  0  0  0  0
  -30.9111   59.3987   65.0595 H   0  0  0  0  0  0  0  0  0  0  0  0
  -43.3079   54.7993   65.1506 H   0  0  0  0  0  0  0  0  0  0  0  0
  -42.3962   54.7055   66.6495 H   0  0  0  0  0  0  0  0  0  0  0  0
  -34.8342   57.8293   65.1553 H   0  0  0  0  0  0  0  0  0  0  0  0
  -40.4330   53.9363   65.4225 H   0  0  0  0  0  0  0  0  0  0  0  0
  -41.3909   54.0346   63.9128 H   0  0  0  0  0  0  0  0  0  0  0  0
  -42.8007   52.2508   64.6485 H   0  0  0  0  0  0  0  0  0  0  0  0
  -41.8756   52.1567   66.1689 H   0  0  0  0  0  0  0  0  0  0  0  0
  -37.8327   55.7820   63.9805 H   0  0  0  0  0  0  0  0  0  0  0  0
  -41.2739   50.3513   64.6503 H   0  0  0  0  0  0  0  0  0  0  0  0
  -39.9261   51.4659   64.9685 H   0  0  0  0  0  0  0  0  0  0  0  0
  -40.2457   52.5085   62.8226 H   0  0  0  0  0  0  0  0  0  0  0  0
  -41.6075   51.4084   62.5054 H   0  0  0  0  0  0  0  0  0  0  0  0
  -39.6274   50.7273   61.3064 H   0  0  0  0  0  0  0  0  0  0  0  0
  -40.1380   49.5479   62.5623 H   0  0  0  0  0  0  0  0  0  0  0  0
  -38.3624   50.2142   63.9664 H   0  0  0  0  0  0  0  0  0  0  0  0
  -37.8548   51.4151   62.7537 H   0  0  0  0  0  0  0  0  0  0  0  0
  -33.0518   56.6794   64.5593 H   0  0  0  0  0  0  0  0  0  0  0  0
  -37.3049   49.6673   61.2103 H   0  0  0  0  0  0  0  0  0  0  0  0
  -37.8266   48.4624   62.4274 H   0  0  0  0  0  0  0  0  0  0  0  0
  -35.4034   48.5909   62.2726 H   0  0  0  0  0  0  0  0  0  0  0  0
  -36.0148   49.0665   63.8516 H   0  0  0  0  0  0  0  0  0  0  0  0
  -35.1842   50.9310   61.6612 H   0  0  0  0  0  0  0  0  0  0  0  0
  -34.2789   50.5296   63.1637 H   0  0  0  0  0  0  0  0  0  0  0  0
  -36.8266   52.0506   63.0176 H   0  0  0  0  0  0  0  0  0  0  0  0
  -35.2390   52.7100   63.3301 H   0  0  0  0  0  0  0  0  0  0  0  0
  -35.9652   51.6031   64.4705 H   0  0  0  0  0  0  0  0  0  0  0  0
  -41.4647   59.7683   60.5670 H   0  0  0  0  0  0  0  0  0  0  0  0
  -42.4465   60.8140   61.5273 H   0  0  0  0  0  0  0  0  0  0  0  0
  -42.5007   59.0970   63.3250 H   0  0  0  0  0  0  0  0  0  0  0  0
  -41.5022   58.0522   62.3365 H   0  0  0  0  0  0  0  0  0  0  0  0
  -43.2246   58.0095   60.6262 H   0  0  0  0  0  0  0  0  0  0  0  0
  -44.2219   59.0676   61.6820 H   0  0  0  0  0  0  0  0  0  0  0  0
  -45.0049   56.7784   61.6874 H   0  0  0  0  0  0  0  0  0  0  0  0
  -44.4881   57.3164   63.2527 H   0  0  0  0  0  0  0  0  0  0  0  0
  -43.5739   55.0945   62.7465 H   0  0  0  0  0  0  0  0  0  0  0  0
  -42.2863   56.3050   62.8648 H   0  0  0  0  0  0  0  0  0  0  0  0
  -41.9009   54.7858   61.0105 H   0  0  0  0  0  0  0  0  0  0  0  0
  -42.1931   56.4616   60.4773 H   0  0  0  0  0  0  0  0  0  0  0  0
  -44.4248   55.8929   59.8114 H   0  0  0  0  0  0  0  0  0  0  0  0
  -44.1639   54.2285   60.3617 H   0  0  0  0  0  0  0  0  0  0  0  0
  -42.6764   55.5555   58.1107 H   0  0  0  0  0  0  0  0  0  0  0  0
  -43.9815   54.3950   57.9294 H   0  0  0  0  0  0  0  0  0  0  0  0
  -42.6730   52.7213   59.1028 H   0  0  0  0  0  0  0  0  0  0  0  0
  -41.3580   53.9232   59.2657 H   0  0  0  0  0  0  0  0  0  0  0  0
  -42.3285   52.7739   56.6981 H   0  0  0  0  0  0  0  0  0  0  0  0
  -40.8635   52.3052   57.5699 H   0  0  0  0  0  0  0  0  0  0  0  0
  -41.4439   55.0122   56.4646 H   0  0  0  0  0  0  0  0  0  0  0  0
  -40.3419   53.7650   55.7886 H   0  0  0  0  0  0  0  0  0  0  0  0
  -39.9243   55.1806   58.3815 H   0  0  0  0  0  0  0  0  0  0  0  0
  -39.1148   55.5675   56.8926 H   0  0  0  0  0  0  0  0  0  0  0  0
  -38.2873   53.2803   56.7481 H   0  0  0  0  0  0  0  0  0  0  0  0
  -39.1250   52.9739   58.3314 H   0  0  0  0  0  0  0  0  0  0  0  0
  -36.7661   54.7174   57.9701 H   0  0  0  0  0  0  0  0  0  0  0  0
  -36.7462   53.0648   58.5698 H   0  0  0  0  0  0  0  0  0  0  0  0
  -38.2421   55.3547   59.8093 H   0  0  0  0  0  0  0  0  0  0  0  0
  -36.7219   54.6259   60.3949 H   0  0  0  0  0  0  0  0  0  0  0  0
  -39.3654   53.2377   60.2734 H   0  0  0  0  0  0  0  0  0  0  0  0
  -38.5916   53.9142   61.7213 H   0  0  0  0  0  0  0  0  0  0  0  0
  -37.5209   51.6633   60.0619 H   0  0  0  0  0  0  0  0  0  0  0  0
  -38.2746   51.5132   61.6312 H   0  0  0  0  0  0  0  0  0  0  0  0
  -36.7525   52.3560   61.4700 H   0  0  0  0  0  0  0  0  0  0  0  0
  -36.5129   60.9958   61.7800 H   0  0  0  0  0  0  0  0  0  0  0  0
  -36.0149   60.3239   64.6648 H   0  0  0  0  0  0  0  0  0  0  0  0
  -34.2252   59.9085   62.3316 H   0  0  0  0  0  0  0  0  0  0  0  0
  -34.6362   57.5092   62.8890 H   0  0  0  0  0  0  0  0  0  0  0  0
  -36.3408   58.5664   61.3898 H   0  0  0  0  0  0  0  0  0  0  0  0
  -37.9268   56.7597   61.9133 H   0  0  0  0  0  0  0  0  0  0  0  0
  -36.3233   56.1855   62.3083 H   0  0  0  0  0  0  0  0  0  0  0  0
  1  4  1  0  0  0  0
  1 31  1  0  0  0  0
  1 56  1  0  0  0  0
  2  3  1  0  0  0  0
  2  4  1  0  0  0  0
  2 57  1  0  0  0  0
  2 58  1  0  0  0  0
  3 49  1  0  0  0  0
  4  6  1  0  0  0  0
  4 59  1  1  0  0  0
  5  6  1  0  0  0  0
  5 60  1  0  0  0  0
  6  8  1  0  0  0  0
  6 61  1  6  0  0  0
  7 31  2  0  0  0  0
  8  9  2  0  0  0  0
  8 62  1  0  0  0  0
  9 11  1  0  0  0  0
  9 63  1  0  0  0  0
 10 50  1  0  0  0  0
 10 64  1  0  0  0  0
 11 13  1  0  0  0  0
 11 65  1  0  0  0  0
 11 66  1  0  0  0  0
 12 51  1  0  0  0  0
 12 55  1  0  0  0  0
 13 15  1  0  0  0  0
 13 67  1  0  0  0  0
 13 68  1  0  0  0  0
 14 55  1  0  0  0  0
 14 69  1  0  0  0  0
 15 17  1  0  0  0  0
 15 70  1  0  0  0  0
 15 71  1  0  0  0  0
 16 52  1  0  0  0  0
 16 72  1  0  0  0  0
 17 19  1  0  0  0  0
 17 73  1  0  0  0  0
 17 74  1  0  0  0  0
 18 49  1  0  0  0  0
 18 53  1  0  0  0  0
 19 21  1  0  0  0  0
 19 75  1  0  0  0  0
 19 76  1  0  0  0  0
 20 54  1  0  0  0  0
 20 77  1  0  0  0  0
 21 22  1  0  0  0  0
 21 78  1  0  0  0  0
 21 79  1  0  0  0  0
 22 23  1  0  0  0  0
 22 80  1  0  0  0  0
 22 81  1  0  0  0  0
 23 25  1  0  0  0  0
 23 82  1  0  0  0  0
 23 83  1  0  0  0  0
 24 55  1  0  0  0  0
 25 27  1  0  0  0  0
 25 84  1  0  0  0  0
 25 85  1  0  0  0  0
 26 55  1  0  0  0  0
 26 86  1  0  0  0  0
 27 28  1  0  0  0  0
 27 87  1  0  0  0  0
 27 88  1  0  0  0  0
 28 29  1  0  0  0  0
 28 89  1  0  0  0  0
 28 90  1  0  0  0  0
 29 30  1  0  0  0  0
 29 91  1  0  0  0  0
 29 92  1  0  0  0  0
 30 93  1  0  0  0  0
 30 94  1  0  0  0  0
 30 95  1  0  0  0  0
 31 32  1  0  0  0  0
 32 33  1  0  0  0  0
 32 96  1  0  0  0  0
 32 97  1  0  0  0  0
 33 34  1  0  0  0  0
 33 98  1  0  0  0  0
 33 99  1  0  0  0  0
 34 35  1  0  0  0  0
 34100  1  0  0  0  0
 34101  1  0  0  0  0
 35 36  1  0  0  0  0
 35102  1  0  0  0  0
 35103  1  0  0  0  0
 36 37  1  0  0  0  0
 36104  1  0  0  0  0
 36105  1  0  0  0  0
 37 38  1  0  0  0  0
 37106  1  0  0  0  0
 37107  1  0  0  0  0
 38 39  1  0  0  0  0
 38108  1  0  0  0  0
 38109  1  0  0  0  0
 39 40  1  0  0  0  0
 39110  1  0  0  0  0
 39111  1  0  0  0  0
 40 41  1  0  0  0  0
 40112  1  0  0  0  0
 40113  1  0  0  0  0
 41 42  1  0  0  0  0
 41114  1  0  0  0  0
 41115  1  0  0  0  0
 42 43  1  0  0  0  0
 42116  1  0  0  0  0
 42117  1  0  0  0  0
 43 44  1  0  0  0  0
 43118  1  0  0  0  0
 43119  1  0  0  0  0
 44 45  1  0  0  0  0
 44120  1  0  0  0  0
 44121  1  0  0  0  0
 45 46  1  0  0  0  0
 45122  1  0  0  0  0
 45123  1  0  0  0  0
 46 47  1  0  0  0  0
 46124  1  0  0  0  0
 46125  1  0  0  0  0
 47 48  1  0  0  0  0
 47126  1  0  0  0  0
 47127  1  0  0  0  0
 48128  1  0  0  0  0
 48129  1  0  0  0  0
 48130  1  0  0  0  0
 49 50  1  0  0  0  0
 49131  1  6  0  0  0
 50 51  1  0  0  0  0
 50132  1  1  0  0  0
 51 52  1  0  0  0  0
 51133  1  6  0  0  0
 52 53  1  0  0  0  0
 52134  1  6  0  0  0
 53 54  1  0  0  0  0
 53135  1  6  0  0  0
 54136  1  0  0  0  0
 54137  1  0  0  0  0
M  CHG  1  24  -1
M  END
$$$$