/media/chris/experiments/cd1a-new-docking/inputs/ligands/4x6c_ligand.pdb


 37 36  0  0  0  0  0  0  0  0999 V2000
  -42.0555   58.5915   66.0791 O   0  0  0  0  0  0  0  0  0  0  0  0
  -42.7257   59.0813   65.2223 C   0  0  0  0  0  0  0  0  0  0  0  0
  -44.2189   59.1202   65.2343 C   0  0  0  0  0  0  0  0  0  0  0  0
  -44.8474   57.8203   64.7687 C   0  0  0  0  0  0  0  0  0  0  0  0
  -46.0287   57.4003   65.6164 C   0  0  0  0  0  0  0  0  0  0  0  0
  -46.5796   58.4896   66.5063 C   0  0  0  0  0  0  0  0  0  0  0  0
  -47.8624   59.0995   66.0016 C   0  0  0  0  0  0  0  0  0  0  0  0
  -48.7060   58.1131   65.2395 C   0  0  0  0  0  0  0  0  0  0  0  0
  -50.1843   58.3649   65.2781 C   0  0  0  0  0  0  0  0  0  0  0  0
  -50.5465   59.7570   64.9747 C   0  0  0  0  0  0  0  0  0  0  0  0
  -50.9541   60.2551   63.8282 C   0  0  0  0  0  0  0  0  0  0  0  0
  -51.1764   59.5373   62.5478 C   0  0  0  0  0  0  0  0  0  0  0  0
  -49.9303   59.2489   61.7357 C   0  0  0  0  0  0  0  0  0  0  0  0
  -49.8044   57.7983   61.3593 C   0  0  0  0  0  0  0  0  0  0  0  0
  -50.4738   57.4243   60.0615 C   0  0  0  0  0  0  0  0  0  0  0  0
  -49.4816   57.1593   58.9507 C   0  0  0  0  0  0  0  0  0  0  0  0
  -48.3697   56.2125   59.3072 C   0  0  0  0  0  0  0  0  0  0  0  0
  -47.1132   56.4928   58.5848 C   0  0  0  0  0  0  0  0  0  0  0  0
  -47.3094   56.7568   57.1607 C   0  0  0  0  0  0  0  0  0  0  0  0
  -42.2269   59.6564   64.1281 O   0  0  0  0  0  0  0  0  0  0  0  0
  -41.6960   60.9939   64.2596 C   0  0  0  0  0  0  0  0  0  0  0  0
  -40.1893   60.8755   64.2540 C   0  0  0  0  0  0  0  0  0  0  0  0
  -39.6575   61.6174   63.1564 O   0  0  0  0  0  0  0  0  0  0  0  0
  -39.8613   62.5586   63.2733 H   0  0  0  0  0  0  0  0  0  0  0  0
  -39.5073   61.3408   65.5177 C   0  0  0  0  0  0  0  0  0  0  0  0
  -38.3330   60.5315   65.7300 O   0  0  0  0  0  0  0  0  0  0  0  0
  -36.8905   61.1741   65.5412 P   0  0  0  0  0  0  0  0  0  0  0  0
  -36.9816   62.1169   64.4080 O   0  0  0  0  0  0  0  0  0  0  0  0
  -36.4702   61.6772   66.8637 O   0  0  0  0  0  0  0  0  0  0  0  0
  -37.0672   62.3888   67.1435 H   0  0  0  0  0  0  0  0  0  0  0  0
  -35.8823   60.0176   65.1373 O   0  0  0  0  0  0  0  0  0  0  0  0
  -36.3627   58.6584   65.0125 C   0  0  0  0  0  0  0  0  0  0  0  0
  -36.0701   58.2450   63.5879 C   0  0  0  0  0  0  0  0  0  0  0  0
  -37.2731   58.0583   62.6848 N   0  0  0  0  0  0  0  0  0  0  0  0
  -37.5625   59.3026   61.9084 C   0  0  0  0  0  0  0  0  0  0  0  0
  -38.4720   57.7214   63.5120 C   0  0  0  0  0  0  0  0  0  0  0  0
  -37.0086   56.9439   61.7215 C   0  0  0  0  0  0  0  0  0  0  0  0
 34 33  1  0  0  0
 34 35  1  0  0  0
 34 36  1  0  0  0
 34 37  1  0  0  0
 22 23  1  0  0  0
 22 25  1  0  0  0
 22 21  1  0  0  0
 23 24  1  0  0  0
 27 26  1  0  0  0
 27 28  2  0  0  0
 27 31  1  0  0  0
 27 29  1  0  0  0
 25 26  1  0  0  0
 32 33  1  0  0  0
 32 31  1  0  0  0
 29 30  1  0  0  0
 20 21  1  0  0  0
 20  2  1  0  0  0
  1  2  2  0  0  0
  2  3  1  0  0  0
  3  4  1  0  0  0
  4  5  1  0  0  0
  5  6  1  0  0  0
  6  7  1  0  0  0
  7  8  1  0  0  0
  8  9  1  0  0  0
  9 10  1  0  0  0
 10 11  2  0  0  0
 11 12  1  0  0  0
 12 13  1  0  0  0
 13 14  1  0  0  0
 14 15  1  0  0  0
 15 16  1  0  0  0
 16 17  1  0  0  0
 17 18  1  0  0  0
 18 19  1  0  0  0
M  CHG 1  28  -1
M  END
> <minimizedAffinity>
-7.96712

> <CNNscore>
0.8541338444

> <CNNaffinity>
7.1705055237

> <CNN_VS>
6.1245713234

> <CNNaffinity_variance>
0.4736374021

$$$$
/media/chris/experiments/cd1a-new-docking/inputs/ligands/4x6c_ligand.pdb


 37 36  0  0  0  0  0  0  0  0999 V2000
  -38.9853   61.9809   65.7500 O   0  0  0  0  0  0  0  0  0  0  0  0
  -39.6301   61.3279   64.9878 C   0  0  0  0  0  0  0  0  0  0  0  0
  -41.1061   61.1221   65.0883 C   0  0  0  0  0  0  0  0  0  0  0  0
  -41.4765   59.8592   65.8429 C   0  0  0  0  0  0  0  0  0  0  0  0
  -42.9235   59.8405   66.2859 C   0  0  0  0  0  0  0  0  0  0  0  0
  -43.9229   59.7510   65.1568 C   0  0  0  0  0  0  0  0  0  0  0  0
  -44.3951   58.3486   64.8694 C   0  0  0  0  0  0  0  0  0  0  0  0
  -45.7777   58.0877   65.4041 C   0  0  0  0  0  0  0  0  0  0  0  0
  -46.8920   58.2445   64.4121 C   0  0  0  0  0  0  0  0  0  0  0  0
  -48.2150   57.9227   64.9661 C   0  0  0  0  0  0  0  0  0  0  0  0
  -49.3900   58.0798   64.3974 C   0  0  0  0  0  0  0  0  0  0  0  0
  -49.6850   58.6019   63.0392 C   0  0  0  0  0  0  0  0  0  0  0  0
  -49.7540   57.5614   61.9401 C   0  0  0  0  0  0  0  0  0  0  0  0
  -50.2218   58.1307   60.6291 C   0  0  0  0  0  0  0  0  0  0  0  0
  -49.7328   57.3900   59.4108 C   0  0  0  0  0  0  0  0  0  0  0  0
  -48.9722   56.1304   59.7623 C   0  0  0  0  0  0  0  0  0  0  0  0
  -47.9769   55.6823   58.7288 C   0  0  0  0  0  0  0  0  0  0  0  0
  -47.9068   56.5820   57.5605 C   0  0  0  0  0  0  0  0  0  0  0  0
  -46.5720   57.1308   57.3303 C   0  0  0  0  0  0  0  0  0  0  0  0
  -39.1132   60.6837   63.9415 O   0  0  0  0  0  0  0  0  0  0  0  0
  -39.8027   60.8022   62.6772 C   0  0  0  0  0  0  0  0  0  0  0  0
  -38.7450   60.8597   61.5990 C   0  0  0  0  0  0  0  0  0  0  0  0
  -37.5352   61.3840   62.1463 O   0  0  0  0  0  0  0  0  0  0  0  0
  -37.2020   60.7818   62.8301 H   0  0  0  0  0  0  0  0  0  0  0  0
  -38.4347   59.5387   60.9377 C   0  0  0  0  0  0  0  0  0  0  0  0
  -37.2226   59.0110   61.5133 O   0  0  0  0  0  0  0  0  0  0  0  0
  -37.2561   57.6143   62.2732 P   0  0  0  0  0  0  0  0  0  0  0  0
  -38.5213   57.5654   63.0336 O   0  0  0  0  0  0  0  0  0  0  0  0
  -36.9825   56.5721   61.2642 O   0  0  0  0  0  0  0  0  0  0  0  0
  -37.6982   56.5601   60.6096 H   0  0  0  0  0  0  0  0  0  0  0  0
  -36.0577   57.5870   63.3125 O   0  0  0  0  0  0  0  0  0  0  0  0
  -35.2210   58.7566   63.4733 C   0  0  0  0  0  0  0  0  0  0  0  0
  -33.8981   58.4112   62.8281 C   0  0  0  0  0  0  0  0  0  0  0  0
  -32.6625   59.0036   63.4762 N   0  0  0  0  0  0  0  0  0  0  0  0
  -32.8309   60.4691   63.7184 C   0  0  0  0  0  0  0  0  0  0  0  0
  -31.4820   58.7997   62.5817 C   0  0  0  0  0  0  0  0  0  0  0  0
  -32.4112   58.3276   64.7875 C   0  0  0  0  0  0  0  0  0  0  0  0
 34 33  1  0  0  0
 34 35  1  0  0  0
 34 36  1  0  0  0
 34 37  1  0  0  0
 22 23  1  0  0  0
 22 25  1  0  0  0
 22 21  1  0  0  0
 23 24  1  0  0  0
 27 26  1  0  0  0
 27 28  2  0  0  0
 27 31  1  0  0  0
 27 29  1  0  0  0
 25 26  1  0  0  0
 32 33  1  0  0  0
 32 31  1  0  0  0
 29 30  1  0  0  0
 20 21  1  0  0  0
 20  2  1  0  0  0
  1  2  2  0  0  0
  2  3  1  0  0  0
  3  4  1  0  0  0
  4  5  1  0  0  0
  5  6  1  0  0  0
  6  7  1  0  0  0
  7  8  1  0  0  0
  8  9  1  0  0  0
  9 10  1  0  0  0
 10 11  2  0  0  0
 11 12  1  0  0  0
 12 13  1  0  0  0
 13 14  1  0  0  0
 14 15  1  0  0  0
 15 16  1  0  0  0
 16 17  1  0  0  0
 17 18  1  0  0  0
 18 19  1  0  0  0
M  CHG 1  28  -1
M  END
> <minimizedAffinity>
-7.77560

> <CNNscore>
0.7732248902

> <CNNaffinity>
6.8353080750

> <CNN_VS>
5.2852301598

> <CNNaffinity_variance>
0.8553858995

$$$$
/media/chris/experiments/cd1a-new-docking/inputs/ligands/4x6c_ligand.pdb


 37 36  0  0  0  0  0  0  0  0999 V2000
  -42.2496   58.0159   65.9896 O   0  0  0  0  0  0  0  0  0  0  0  0
  -42.7529   59.0632   65.7194 C   0  0  0  0  0  0  0  0  0  0  0  0
  -44.0634   59.2168   65.0194 C   0  0  0  0  0  0  0  0  0  0  0  0
  -44.6270   57.8981   64.5246 C   0  0  0  0  0  0  0  0  0  0  0  0
  -45.6320   57.2915   65.4796 C   0  0  0  0  0  0  0  0  0  0  0  0
  -46.8810   58.1167   65.6817 C   0  0  0  0  0  0  0  0  0  0  0  0
  -47.9139   57.9358   64.5988 C   0  0  0  0  0  0  0  0  0  0  0  0
  -49.3198   58.0787   65.1170 C   0  0  0  0  0  0  0  0  0  0  0  0
  -49.7461   59.4791   65.4447 C   0  0  0  0  0  0  0  0  0  0  0  0
  -50.8899   59.9422   64.6458 C   0  0  0  0  0  0  0  0  0  0  0  0
  -50.9037   60.2859   63.3768 C   0  0  0  0  0  0  0  0  0  0  0  0
  -49.7729   60.2744   62.4148 C   0  0  0  0  0  0  0  0  0  0  0  0
  -49.9644   59.4006   61.1920 C   0  0  0  0  0  0  0  0  0  0  0  0
  -50.5248   58.0459   61.5275 C   0  0  0  0  0  0  0  0  0  0  0  0
  -50.4513   57.0394   60.4079 C   0  0  0  0  0  0  0  0  0  0  0  0
  -50.0010   57.6547   59.1013 C   0  0  0  0  0  0  0  0  0  0  0  0
  -49.0868   56.7921   58.2768 C   0  0  0  0  0  0  0  0  0  0  0  0
  -48.2520   55.8862   59.0902 C   0  0  0  0  0  0  0  0  0  0  0  0
  -46.8223   56.1757   58.9980 C   0  0  0  0  0  0  0  0  0  0  0  0
  -42.2039   60.2447   66.0017 O   0  0  0  0  0  0  0  0  0  0  0  0
  -40.7708   60.3657   65.8613 C   0  0  0  0  0  0  0  0  0  0  0  0
  -40.5133   61.5259   64.9275 C   0  0  0  0  0  0  0  0  0  0  0  0
  -39.1899   62.0195   65.1350 O   0  0  0  0  0  0  0  0  0  0  0  0
  -38.5478   61.3299   64.9044 H   0  0  0  0  0  0  0  0  0  0  0  0
  -40.6799   61.2138   63.4600 C   0  0  0  0  0  0  0  0  0  0  0  0
  -39.6686   60.2605   63.0760 O   0  0  0  0  0  0  0  0  0  0  0  0
  -38.8922   60.4487   61.7008 P   0  0  0  0  0  0  0  0  0  0  0  0
  -39.9037   60.7660   60.6725 O   0  0  0  0  0  0  0  0  0  0  0  0
  -37.7992   61.4079   61.9549 O   0  0  0  0  0  0  0  0  0  0  0  0
  -38.1745   62.2700   62.1931 H   0  0  0  0  0  0  0  0  0  0  0  0
  -38.2207   59.0633   61.3175 O   0  0  0  0  0  0  0  0  0  0  0  0
  -37.8251   58.1445   62.3630 C   0  0  0  0  0  0  0  0  0  0  0  0
  -36.3187   58.2400   62.4497 C   0  0  0  0  0  0  0  0  0  0  0  0
  -35.7321   58.3151   63.8454 N   0  0  0  0  0  0  0  0  0  0  0  0
  -34.2540   58.5338   63.7979 C   0  0  0  0  0  0  0  0  0  0  0  0
  -36.0028   57.0364   64.5712 C   0  0  0  0  0  0  0  0  0  0  0  0
  -36.3599   59.4496   64.5927 C   0  0  0  0  0  0  0  0  0  0  0  0
 34 33  1  0  0  0
 34 35  1  0  0  0
 34 36  1  0  0  0
 34 37  1  0  0  0
 22 23  1  0  0  0
 22 25  1  0  0  0
 22 21  1  0  0  0
 23 24  1  0  0  0
 27 26  1  0  0  0
 27 28  2  0  0  0
 27 31  1  0  0  0
 27 29  1  0  0  0
 25 26  1  0  0  0
 32 33  1  0  0  0
 32 31  1  0  0  0
 29 30  1  0  0  0
 20 21  1  0  0  0
 20  2  1  0  0  0
  1  2  2  0  0  0
  2  3  1  0  0  0
  3  4  1  0  0  0
  4  5  1  0  0  0
  5  6  1  0  0  0
  6  7  1  0  0  0
  7  8  1  0  0  0
  8  9  1  0  0  0
  9 10  1  0  0  0
 10 11  2  0  0  0
 11 12  1  0  0  0
 12 13  1  0  0  0
 13 14  1  0  0  0
 14 15  1  0  0  0
 15 16  1  0  0  0
 16 17  1  0  0  0
 17 18  1  0  0  0
 18 19  1  0  0  0
M  CHG 1  28  -1
M  END
> <minimizedAffinity>
-8.32211

> <CNNscore>
0.7727000117

> <CNNaffinity>
6.8683710098

> <CNN_VS>
5.3071904182

> <CNNaffinity_variance>
0.3922339082

$$$$
/media/chris/experiments/cd1a-new-docking/inputs/ligands/4x6c_ligand.pdb


 37 36  0  0  0  0  0  0  0  0999 V2000
  -40.6186   61.9024   65.9113 O   0  0  0  0  0  0  0  0  0  0  0  0
  -40.7851   61.4288   64.8291 C   0  0  0  0  0  0  0  0  0  0  0  0
  -41.9267   60.5385   64.4615 C   0  0  0  0  0  0  0  0  0  0  0  0
  -42.4237   59.7035   65.6265 C   0  0  0  0  0  0  0  0  0  0  0  0
  -43.9149   59.4498   65.5757 C   0  0  0  0  0  0  0  0  0  0  0  0
  -44.3363   58.3902   64.5850 C   0  0  0  0  0  0  0  0  0  0  0  0
  -44.6436   57.0549   65.2134 C   0  0  0  0  0  0  0  0  0  0  0  0
  -46.0443   56.9866   65.7600 C   0  0  0  0  0  0  0  0  0  0  0  0
  -47.0122   57.9729   65.1762 C   0  0  0  0  0  0  0  0  0  0  0  0
  -48.4150   57.5468   65.2845 C   0  0  0  0  0  0  0  0  0  0  0  0
  -49.4555   58.0162   64.6320 C   0  0  0  0  0  0  0  0  0  0  0  0
  -49.4813   59.0829   63.5997 C   0  0  0  0  0  0  0  0  0  0  0  0
  -49.4995   58.6015   62.1632 C   0  0  0  0  0  0  0  0  0  0  0  0
  -50.8839   58.2677   61.6795 C   0  0  0  0  0  0  0  0  0  0  0  0
  -50.9631   57.0583   60.7834 C   0  0  0  0  0  0  0  0  0  0  0  0
  -49.6202   56.6780   60.1998 C   0  0  0  0  0  0  0  0  0  0  0  0
  -49.3498   57.2227   58.8250 C   0  0  0  0  0  0  0  0  0  0  0  0
  -48.2517   56.5241   58.1284 C   0  0  0  0  0  0  0  0  0  0  0  0
  -47.2866   55.9090   59.0375 C   0  0  0  0  0  0  0  0  0  0  0  0
  -39.9632   61.6267   63.7985 O   0  0  0  0  0  0  0  0  0  0  0  0
  -40.0257   60.6849   62.7042 C   0  0  0  0  0  0  0  0  0  0  0  0
  -38.6067   60.2611   62.4025 C   0  0  0  0  0  0  0  0  0  0  0  0
  -38.0597   61.1118   61.3949 O   0  0  0  0  0  0  0  0  0  0  0  0
  -38.0124   62.0209   61.7301 H   0  0  0  0  0  0  0  0  0  0  0  0
  -37.6725   60.2666   63.5882 C   0  0  0  0  0  0  0  0  0  0  0  0
  -36.7295   61.3449   63.4243 O   0  0  0  0  0  0  0  0  0  0  0  0
  -36.4580   62.3427   64.6327 P   0  0  0  0  0  0  0  0  0  0  0  0
  -35.9117   63.5862   64.0528 O   0  0  0  0  0  0  0  0  0  0  0  0
  -37.7025   62.4041   65.4241 O   0  0  0  0  0  0  0  0  0  0  0  0
  -38.4097   62.7916   64.8850 H   0  0  0  0  0  0  0  0  0  0  0  0
  -35.3423   61.7032   65.5619 O   0  0  0  0  0  0  0  0  0  0  0  0
  -34.0908   61.2652   64.9825 C   0  0  0  0  0  0  0  0  0  0  0  0
  -33.9477   59.8080   65.3593 C   0  0  0  0  0  0  0  0  0  0  0  0
  -33.4315   58.8838   64.2743 N   0  0  0  0  0  0  0  0  0  0  0  0
  -34.5283   58.0263   63.7299 C   0  0  0  0  0  0  0  0  0  0  0  0
  -32.3667   57.9978   64.8368 C   0  0  0  0  0  0  0  0  0  0  0  0
  -32.8584   59.6954   63.1552 C   0  0  0  0  0  0  0  0  0  0  0  0
 34 33  1  0  0  0
 34 35  1  0  0  0
 34 36  1  0  0  0
 34 37  1  0  0  0
 22 23  1  0  0  0
 22 25  1  0  0  0
 22 21  1  0  0  0
 23 24  1  0  0  0
 27 26  1  0  0  0
 27 28  2  0  0  0
 27 31  1  0  0  0
 27 29  1  0  0  0
 25 26  1  0  0  0
 32 33  1  0  0  0
 32 31  1  0  0  0
 29 30  1  0  0  0
 20 21  1  0  0  0
 20  2  1  0  0  0
  1  2  2  0  0  0
  2  3  1  0  0  0
  3  4  1  0  0  0
  4  5  1  0  0  0
  5  6  1  0  0  0
  6  7  1  0  0  0
  7  8  1  0  0  0
  8  9  1  0  0  0
  9 10  1  0  0  0
 10 11  2  0  0  0
 11 12  1  0  0  0
 12 13  1  0  0  0
 13 14  1  0  0  0
 14 15  1  0  0  0
 15 16  1  0  0  0
 16 17  1  0  0  0
 17 18  1  0  0  0
 18 19  1  0  0  0
M  CHG 1  28  -1
M  END
> <minimizedAffinity>
-7.81305

> <CNNscore>
0.7325794101

> <CNNaffinity>
6.6236801147

> <CNN_VS>
4.8523716927

> <CNNaffinity_variance>
0.4271766245

$$$$
/media/chris/experiments/cd1a-new-docking/inputs/ligands/4x6c_ligand.pdb


 37 36  0  0  0  0  0  0  0  0999 V2000
  -43.6291   56.7968   65.6821 O   0  0  0  0  0  0  0  0  0  0  0  0
  -44.0600   57.8262   65.2603 C   0  0  0  0  0  0  0  0  0  0  0  0
  -45.5079   58.1018   65.0187 C   0  0  0  0  0  0  0  0  0  0  0  0
  -46.0456   59.2312   65.8770 C   0  0  0  0  0  0  0  0  0  0  0  0
  -46.5642   60.3957   65.0613 C   0  0  0  0  0  0  0  0  0  0  0  0
  -48.0571   60.6077   65.1513 C   0  0  0  0  0  0  0  0  0  0  0  0
  -48.7995   59.4590   65.7851 C   0  0  0  0  0  0  0  0  0  0  0  0
  -49.8905   58.9216   64.8982 C   0  0  0  0  0  0  0  0  0  0  0  0
  -50.8376   59.9472   64.3490 C   0  0  0  0  0  0  0  0  0  0  0  0
  -50.5957   60.2653   62.9343 C   0  0  0  0  0  0  0  0  0  0  0  0
  -50.4230   59.4282   61.9352 C   0  0  0  0  0  0  0  0  0  0  0  0
  -50.4499   57.9442   61.9717 C   0  0  0  0  0  0  0  0  0  0  0  0
  -51.0681   57.2722   60.7628 C   0  0  0  0  0  0  0  0  0  0  0  0
  -50.1414   57.2390   59.5787 C   0  0  0  0  0  0  0  0  0  0  0  0
  -48.7085   56.9082   59.9099 C   0  0  0  0  0  0  0  0  0  0  0  0
  -48.2729   55.5757   59.3413 C   0  0  0  0  0  0  0  0  0  0  0  0
  -47.0390   55.6258   58.4841 C   0  0  0  0  0  0  0  0  0  0  0  0
  -47.0176   56.7789   57.5626 C   0  0  0  0  0  0  0  0  0  0  0  0
  -47.4991   56.4579   56.2205 C   0  0  0  0  0  0  0  0  0  0  0  0
  -43.2991   58.8724   64.9385 O   0  0  0  0  0  0  0  0  0  0  0  0
  -42.0457   59.0275   65.6406 C   0  0  0  0  0  0  0  0  0  0  0  0
  -41.2315   60.0448   64.8748 C   0  0  0  0  0  0  0  0  0  0  0  0
  -41.0022   61.1884   65.6980 O   0  0  0  0  0  0  0  0  0  0  0  0
  -40.4714   60.9312   66.4682 H   0  0  0  0  0  0  0  0  0  0  0  0
  -39.8988   59.5471   64.3701 C   0  0  0  0  0  0  0  0  0  0  0  0
  -39.5501   60.2908   63.1851 O   0  0  0  0  0  0  0  0  0  0  0  0
  -38.0755   60.1888   62.5981 P   0  0  0  0  0  0  0  0  0  0  0  0
  -37.6787   58.7680   62.6689 O   0  0  0  0  0  0  0  0  0  0  0  0
  -38.0895   60.8673   61.2872 O   0  0  0  0  0  0  0  0  0  0  0  0
  -38.6740   60.3865   60.6805 H   0  0  0  0  0  0  0  0  0  0  0  0
  -37.1075   61.0163   63.5442 O   0  0  0  0  0  0  0  0  0  0  0  0
  -36.7121   62.3569   63.1699 C   0  0  0  0  0  0  0  0  0  0  0  0
  -35.8571   62.8690   64.3068 C   0  0  0  0  0  0  0  0  0  0  0  0
  -34.7875   63.8779   63.9380 N   0  0  0  0  0  0  0  0  0  0  0  0
  -33.4596   63.2148   63.7601 C   0  0  0  0  0  0  0  0  0  0  0  0
  -34.6695   64.9006   65.0221 C   0  0  0  0  0  0  0  0  0  0  0  0
  -35.1589   64.5566   62.6570 C   0  0  0  0  0  0  0  0  0  0  0  0
 34 33  1  0  0  0
 34 35  1  0  0  0
 34 36  1  0  0  0
 34 37  1  0  0  0
 22 23  1  0  0  0
 22 25  1  0  0  0
 22 21  1  0  0  0
 23 24  1  0  0  0
 27 26  1  0  0  0
 27 28  2  0  0  0
 27 31  1  0  0  0
 27 29  1  0  0  0
 25 26  1  0  0  0
 32 33  1  0  0  0
 32 31  1  0  0  0
 29 30  1  0  0  0
 20 21  1  0  0  0
 20  2  1  0  0  0
  1  2  2  0  0  0
  2  3  1  0  0  0
  3  4  1  0  0  0
  4  5  1  0  0  0
  5  6  1  0  0  0
  6  7  1  0  0  0
  7  8  1  0  0  0
  8  9  1  0  0  0
  9 10  1  0  0  0
 10 11  2  0  0  0
 11 12  1  0  0  0
 12 13  1  0  0  0
 13 14  1  0  0  0
 14 15  1  0  0  0
 15 16  1  0  0  0
 16 17  1  0  0  0
 17 18  1  0  0  0
 18 19  1  0  0  0
M  CHG 1  28  -1
M  END
> <minimizedAffinity>
-8.13157

> <CNNscore>
0.7195137143

> <CNNaffinity>
6.4647893906

> <CNN_VS>
4.6515045166

> <CNNaffinity_variance>
0.4577280879

$$$$
/media/chris/experiments/cd1a-new-docking/inputs/ligands/4x6c_ligand.pdb


 37 36  0  0  0  0  0  0  0  0999 V2000
  -42.3623   57.9763   65.8688 O   0  0  0  0  0  0  0  0  0  0  0  0
  -42.5036   59.0429   65.3534 C   0  0  0  0  0  0  0  0  0  0  0  0
  -43.8226   59.6287   64.9687 C   0  0  0  0  0  0  0  0  0  0  0  0
  -44.9717   59.0962   65.8037 C   0  0  0  0  0  0  0  0  0  0  0  0
  -45.9198   58.2219   65.0118 C   0  0  0  0  0  0  0  0  0  0  0  0
  -47.3034   58.8011   64.8322 C   0  0  0  0  0  0  0  0  0  0  0  0
  -48.3561   57.7749   64.4992 C   0  0  0  0  0  0  0  0  0  0  0  0
  -49.6914   58.1029   65.1116 C   0  0  0  0  0  0  0  0  0  0  0  0
  -50.0236   59.5638   65.1873 C   0  0  0  0  0  0  0  0  0  0  0  0
  -51.0563   59.9771   64.2262 C   0  0  0  0  0  0  0  0  0  0  0  0
  -50.8942   60.3535   62.9769 C   0  0  0  0  0  0  0  0  0  0  0  0
  -49.6287   60.4374   62.2050 C   0  0  0  0  0  0  0  0  0  0  0  0
  -49.6273   59.7163   60.8726 C   0  0  0  0  0  0  0  0  0  0  0  0
  -49.5788   58.2205   61.0212 C   0  0  0  0  0  0  0  0  0  0  0  0
  -49.6369   57.4566   59.7230 C   0  0  0  0  0  0  0  0  0  0  0  0
  -49.0985   56.0488   59.8521 C   0  0  0  0  0  0  0  0  0  0  0  0
  -47.9938   55.7028   58.8931 C   0  0  0  0  0  0  0  0  0  0  0  0
  -48.0769   56.4434   57.6187 C   0  0  0  0  0  0  0  0  0  0  0  0
  -46.8585   57.1840   57.2977 C   0  0  0  0  0  0  0  0  0  0  0  0
  -41.4941   59.8562   65.0430 O   0  0  0  0  0  0  0  0  0  0  0  0
  -40.4346   60.0061   66.0141 C   0  0  0  0  0  0  0  0  0  0  0  0
  -39.4826   61.0485   65.4742 C   0  0  0  0  0  0  0  0  0  0  0  0
  -39.9271   62.3475   65.8654 O   0  0  0  0  0  0  0  0  0  0  0  0
  -39.8997   62.4210   66.8323 H   0  0  0  0  0  0  0  0  0  0  0  0
  -38.0457   60.8869   65.9076 C   0  0  0  0  0  0  0  0  0  0  0  0
  -37.4068   62.1788   65.8694 O   0  0  0  0  0  0  0  0  0  0  0  0
  -35.8807   62.3144   66.2962 P   0  0  0  0  0  0  0  0  0  0  0  0
  -35.3699   63.5592   65.6873 O   0  0  0  0  0  0  0  0  0  0  0  0
  -35.8318   62.1584   67.7633 O   0  0  0  0  0  0  0  0  0  0  0  0
  -36.3132   62.8890   68.1823 H   0  0  0  0  0  0  0  0  0  0  0  0
  -35.0808   61.0968   65.6682 O   0  0  0  0  0  0  0  0  0  0  0  0
  -35.1629   60.8417   64.2462 C   0  0  0  0  0  0  0  0  0  0  0  0
  -34.7634   59.3953   64.0613 C   0  0  0  0  0  0  0  0  0  0  0  0
  -35.8422   58.4638   63.5453 N   0  0  0  0  0  0  0  0  0  0  0  0
  -36.4567   57.6806   64.6605 C   0  0  0  0  0  0  0  0  0  0  0  0
  -35.2487   57.5080   62.5607 C   0  0  0  0  0  0  0  0  0  0  0  0
  -36.9149   59.2623   62.8735 C   0  0  0  0  0  0  0  0  0  0  0  0
 34 33  1  0  0  0
 34 35  1  0  0  0
 34 36  1  0  0  0
 34 37  1  0  0  0
 22 23  1  0  0  0
 22 25  1  0  0  0
 22 21  1  0  0  0
 23 24  1  0  0  0
 27 26  1  0  0  0
 27 28  2  0  0  0
 27 31  1  0  0  0
 27 29  1  0  0  0
 25 26  1  0  0  0
 32 33  1  0  0  0
 32 31  1  0  0  0
 29 30  1  0  0  0
 20 21  1  0  0  0
 20  2  1  0  0  0
  1  2  2  0  0  0
  2  3  1  0  0  0
  3  4  1  0  0  0
  4  5  1  0  0  0
  5  6  1  0  0  0
  6  7  1  0  0  0
  7  8  1  0  0  0
  8  9  1  0  0  0
  9 10  1  0  0  0
 10 11  2  0  0  0
 11 12  1  0  0  0
 12 13  1  0  0  0
 13 14  1  0  0  0
 14 15  1  0  0  0
 15 16  1  0  0  0
 16 17  1  0  0  0
 17 18  1  0  0  0
 18 19  1  0  0  0
M  CHG 1  28  -1
M  END
> <minimizedAffinity>
-8.31414

> <CNNscore>
0.7178189754

> <CNNaffinity>
6.6412630081

> <CNN_VS>
4.7672247887

> <CNNaffinity_variance>
0.2369064838

$$$$
/media/chris/experiments/cd1a-new-docking/inputs/ligands/4x6c_ligand.pdb


 37 36  0  0  0  0  0  0  0  0999 V2000
  -43.6694   56.8793   65.7577 O   0  0  0  0  0  0  0  0  0  0  0  0
  -44.0810   57.8408   65.1840 C   0  0  0  0  0  0  0  0  0  0  0  0
  -45.5279   58.1744   65.0217 C   0  0  0  0  0  0  0  0  0  0  0  0
  -45.9637   59.3470   65.8800 C   0  0  0  0  0  0  0  0  0  0  0  0
  -46.3906   60.5480   65.0640 C   0  0  0  0  0  0  0  0  0  0  0  0
  -47.8685   60.8541   65.1265 C   0  0  0  0  0  0  0  0  0  0  0  0
  -48.6788   59.8070   65.8471 C   0  0  0  0  0  0  0  0  0  0  0  0
  -49.6303   59.0863   64.9303 C   0  0  0  0  0  0  0  0  0  0  0  0
  -50.8674   59.8487   64.5576 C   0  0  0  0  0  0  0  0  0  0  0  0
  -50.9062   60.2399   63.1411 C   0  0  0  0  0  0  0  0  0  0  0  0
  -50.6827   59.4859   62.0875 C   0  0  0  0  0  0  0  0  0  0  0  0
  -50.3552   58.0382   62.0529 C   0  0  0  0  0  0  0  0  0  0  0  0
  -51.0626   57.2339   60.9814 C   0  0  0  0  0  0  0  0  0  0  0  0
  -50.3394   57.2591   59.6630 C   0  0  0  0  0  0  0  0  0  0  0  0
  -48.8360   57.2342   59.7692 C   0  0  0  0  0  0  0  0  0  0  0  0
  -48.2354   55.9582   59.2220 C   0  0  0  0  0  0  0  0  0  0  0  0
  -46.8784   56.1151   58.5945 C   0  0  0  0  0  0  0  0  0  0  0  0
  -46.9168   56.8095   57.2923 C   0  0  0  0  0  0  0  0  0  0  0  0
  -47.8151   56.1809   56.3260 C   0  0  0  0  0  0  0  0  0  0  0  0
  -43.2980   58.7479   64.6001 O   0  0  0  0  0  0  0  0  0  0  0  0
  -42.3940   59.4932   65.4459 C   0  0  0  0  0  0  0  0  0  0  0  0
  -41.4239   60.2098   64.5350 C   0  0  0  0  0  0  0  0  0  0  0  0
  -42.0120   61.4269   64.0761 O   0  0  0  0  0  0  0  0  0  0  0  0
  -42.1693   62.0149   64.8315 H   0  0  0  0  0  0  0  0  0  0  0  0
  -40.0854   60.5321   65.1542 C   0  0  0  0  0  0  0  0  0  0  0  0
  -39.0803   59.7093   64.5284 O   0  0  0  0  0  0  0  0  0  0  0  0
  -37.5494   60.1301   64.6221 P   0  0  0  0  0  0  0  0  0  0  0  0
  -37.3373   61.2127   63.6402 O   0  0  0  0  0  0  0  0  0  0  0  0
  -37.2628   60.3854   66.0475 O   0  0  0  0  0  0  0  0  0  0  0  0
  -37.7878   61.1419   66.3524 H   0  0  0  0  0  0  0  0  0  0  0  0
  -36.6665   58.8879   64.1813 O   0  0  0  0  0  0  0  0  0  0  0  0
  -35.5433   59.0863   63.2907 C   0  0  0  0  0  0  0  0  0  0  0  0
  -34.3440   59.3168   64.1820 C   0  0  0  0  0  0  0  0  0  0  0  0
  -33.0197   58.7823   63.6736 N   0  0  0  0  0  0  0  0  0  0  0  0
  -33.2235   57.8181   62.5495 C   0  0  0  0  0  0  0  0  0  0  0  0
  -32.3053   58.0790   64.7827 C   0  0  0  0  0  0  0  0  0  0  0  0
  -32.1760   59.9170   63.1837 C   0  0  0  0  0  0  0  0  0  0  0  0
 34 33  1  0  0  0
 34 35  1  0  0  0
 34 36  1  0  0  0
 34 37  1  0  0  0
 22 23  1  0  0  0
 22 25  1  0  0  0
 22 21  1  0  0  0
 23 24  1  0  0  0
 27 26  1  0  0  0
 27 28  2  0  0  0
 27 31  1  0  0  0
 27 29  1  0  0  0
 25 26  1  0  0  0
 32 33  1  0  0  0
 32 31  1  0  0  0
 29 30  1  0  0  0
 20 21  1  0  0  0
 20  2  1  0  0  0
  1  2  2  0  0  0
  2  3  1  0  0  0
  3  4  1  0  0  0
  4  5  1  0  0  0
  5  6  1  0  0  0
  6  7  1  0  0  0
  7  8  1  0  0  0
  8  9  1  0  0  0
  9 10  1  0  0  0
 10 11  2  0  0  0
 11 12  1  0  0  0
 12 13  1  0  0  0
 13 14  1  0  0  0
 14 15  1  0  0  0
 15 16  1  0  0  0
 16 17  1  0  0  0
 17 18  1  0  0  0
 18 19  1  0  0  0
M  CHG 1  28  -1
M  END
> <minimizedAffinity>
-7.66677

> <CNNscore>
0.6980918050

> <CNNaffinity>
6.4243750572

> <CNN_VS>
4.4848036766

> <CNNaffinity_variance>
0.3724191189

$$$$
/media/chris/experiments/cd1a-new-docking/inputs/ligands/4x6c_ligand.pdb


 37 36  0  0  0  0  0  0  0  0999 V2000
  -43.2683   56.9186   66.1325 O   0  0  0  0  0  0  0  0  0  0  0  0
  -43.0001   57.8864   65.4887 C   0  0  0  0  0  0  0  0  0  0  0  0
  -43.9956   58.6982   64.7264 C   0  0  0  0  0  0  0  0  0  0  0  0
  -44.8011   59.6296   65.6124 C   0  0  0  0  0  0  0  0  0  0  0  0
  -45.9388   58.9292   66.3232 C   0  0  0  0  0  0  0  0  0  0  0  0
  -47.2611   59.6565   66.2565 C   0  0  0  0  0  0  0  0  0  0  0  0
  -47.8157   59.7879   64.8610 C   0  0  0  0  0  0  0  0  0  0  0  0
  -48.2710   58.4684   64.2978 C   0  0  0  0  0  0  0  0  0  0  0  0
  -49.7507   58.2256   64.3420 C   0  0  0  0  0  0  0  0  0  0  0  0
  -50.4995   59.0077   63.3477 C   0  0  0  0  0  0  0  0  0  0  0  0
  -50.7098   58.7181   62.0826 C   0  0  0  0  0  0  0  0  0  0  0  0
  -50.2650   57.5152   61.3346 C   0  0  0  0  0  0  0  0  0  0  0  0
  -50.5031   57.5511   59.8387 C   0  0  0  0  0  0  0  0  0  0  0  0
  -49.2939   57.1344   59.0475 C   0  0  0  0  0  0  0  0  0  0  0  0
  -48.4269   56.1010   59.7201 C   0  0  0  0  0  0  0  0  0  0  0  0
  -47.4368   55.4648   58.7696 C   0  0  0  0  0  0  0  0  0  0  0  0
  -47.8535   55.4681   57.3253 C   0  0  0  0  0  0  0  0  0  0  0  0
  -46.8597   56.0996   56.4348 C   0  0  0  0  0  0  0  0  0  0  0  0
  -46.2283   57.2823   57.0167 C   0  0  0  0  0  0  0  0  0  0  0  0
  -41.7653   58.3708   65.3568 O   0  0  0  0  0  0  0  0  0  0  0  0
  -41.6291   59.7477   64.9401 C   0  0  0  0  0  0  0  0  0  0  0  0
  -40.1507   60.0186   64.7809 C   0  0  0  0  0  0  0  0  0  0  0  0
  -39.7930   59.9134   63.4029 O   0  0  0  0  0  0  0  0  0  0  0  0
  -40.2567   60.5978   62.8953 H   0  0  0  0  0  0  0  0  0  0  0  0
  -39.6890   61.3622   65.2909 C   0  0  0  0  0  0  0  0  0  0  0  0
  -38.4199   61.6730   64.6814 O   0  0  0  0  0  0  0  0  0  0  0  0
  -37.0767   61.4460   65.5023 P   0  0  0  0  0  0  0  0  0  0  0  0
  -37.4382   60.7047   66.7275 O   0  0  0  0  0  0  0  0  0  0  0  0
  -36.0986   60.8565   64.5669 O   0  0  0  0  0  0  0  0  0  0  0  0
  -36.4108   59.9841   64.2802 H   0  0  0  0  0  0  0  0  0  0  0  0
  -36.5151   62.8653   65.9353 O   0  0  0  0  0  0  0  0  0  0  0  0
  -35.0934   63.1257   65.8657 C   0  0  0  0  0  0  0  0  0  0  0  0
  -34.9463   64.4160   65.0915 C   0  0  0  0  0  0  0  0  0  0  0  0
  -34.0854   64.3543   63.8454 N   0  0  0  0  0  0  0  0  0  0  0  0
  -34.9141   64.5008   62.6099 C   0  0  0  0  0  0  0  0  0  0  0  0
  -33.3763   63.0392   63.7920 C   0  0  0  0  0  0  0  0  0  0  0  0
  -33.0760   65.4587   63.8783 C   0  0  0  0  0  0  0  0  0  0  0  0
 34 33  1  0  0  0
 34 35  1  0  0  0
 34 36  1  0  0  0
 34 37  1  0  0  0
 22 23  1  0  0  0
 22 25  1  0  0  0
 22 21  1  0  0  0
 23 24  1  0  0  0
 27 26  1  0  0  0
 27 28  2  0  0  0
 27 31  1  0  0  0
 27 29  1  0  0  0
 25 26  1  0  0  0
 32 33  1  0  0  0
 32 31  1  0  0  0
 29 30  1  0  0  0
 20 21  1  0  0  0
 20  2  1  0  0  0
  1  2  2  0  0  0
  2  3  1  0  0  0
  3  4  1  0  0  0
  4  5  1  0  0  0
  5  6  1  0  0  0
  6  7  1  0  0  0
  7  8  1  0  0  0
  8  9  1  0  0  0
  9 10  1  0  0  0
 10 11  2  0  0  0
 11 12  1  0  0  0
 12 13  1  0  0  0
 13 14  1  0  0  0
 14 15  1  0  0  0
 15 16  1  0  0  0
 16 17  1  0  0  0
 17 18  1  0  0  0
 18 19  1  0  0  0
M  CHG 1  28  -1
M  END
> <minimizedAffinity>
-7.92933

> <CNNscore>
0.6946691275

> <CNNaffinity>
6.2839202881

> <CNN_VS>
4.3652453423

> <CNNaffinity_variance>
0.4164149761

$$$$
/media/chris/experiments/cd1a-new-docking/inputs/ligands/4x6c_ligand.pdb


 37 36  0  0  0  0  0  0  0  0999 V2000
  -42.1039   57.8118   65.9985 O   0  0  0  0  0  0  0  0  0  0  0  0
  -42.8316   58.6595   65.5802 C   0  0  0  0  0  0  0  0  0  0  0  0
  -44.1488   58.3971   64.9267 C   0  0  0  0  0  0  0  0  0  0  0  0
  -44.8341   57.1521   65.4575 C   0  0  0  0  0  0  0  0  0  0  0  0
  -46.1977   57.4369   66.0489 C   0  0  0  0  0  0  0  0  0  0  0  0
  -46.5696   58.9004   66.0890 C   0  0  0  0  0  0  0  0  0  0  0  0
  -47.5422   59.3127   65.0136 C   0  0  0  0  0  0  0  0  0  0  0  0
  -48.3423   58.1514   64.4876 C   0  0  0  0  0  0  0  0  0  0  0  0
  -49.7501   58.0559   64.9971 C   0  0  0  0  0  0  0  0  0  0  0  0
  -50.3710   59.3655   65.2429 C   0  0  0  0  0  0  0  0  0  0  0  0
  -50.9347   60.1700   64.3690 C   0  0  0  0  0  0  0  0  0  0  0  0
  -51.1110   59.9553   62.9106 C   0  0  0  0  0  0  0  0  0  0  0  0
  -49.9897   60.4740   62.0336 C   0  0  0  0  0  0  0  0  0  0  0  0
  -49.6672   59.5476   60.8936 C   0  0  0  0  0  0  0  0  0  0  0  0
  -50.0623   58.1105   61.1192 C   0  0  0  0  0  0  0  0  0  0  0  0
  -50.4602   57.4090   59.8393 C   0  0  0  0  0  0  0  0  0  0  0  0
  -49.3146   57.0252   58.9449 C   0  0  0  0  0  0  0  0  0  0  0  0
  -48.4951   55.9248   59.4895 C   0  0  0  0  0  0  0  0  0  0  0  0
  -47.1377   55.8899   58.9488 C   0  0  0  0  0  0  0  0  0  0  0  0
  -42.5595   59.9633   65.6338 O   0  0  0  0  0  0  0  0  0  0  0  0
  -41.2456   60.3529   66.0922 C   0  0  0  0  0  0  0  0  0  0  0  0
  -40.7207   61.3782   65.1137 C   0  0  0  0  0  0  0  0  0  0  0  0
  -40.1131   62.4530   65.8304 O   0  0  0  0  0  0  0  0  0  0  0  0
  -39.3458   62.1207   66.3223 H   0  0  0  0  0  0  0  0  0  0  0  0
  -39.7234   60.8516   64.1103 C   0  0  0  0  0  0  0  0  0  0  0  0
  -38.8728   59.8918   64.7692 O   0  0  0  0  0  0  0  0  0  0  0  0
  -37.4121   60.3208   65.2294 P   0  0  0  0  0  0  0  0  0  0  0  0
  -37.5545   61.0279   66.5182 O   0  0  0  0  0  0  0  0  0  0  0  0
  -36.5701   59.1101   65.1623 O   0  0  0  0  0  0  0  0  0  0  0  0
  -36.8924   58.4563   65.8023 H   0  0  0  0  0  0  0  0  0  0  0  0
  -36.8399   61.3496   64.1658 O   0  0  0  0  0  0  0  0  0  0  0  0
  -36.3769   62.6492   64.6022 C   0  0  0  0  0  0  0  0  0  0  0  0
  -34.8963   62.6846   64.2980 C   0  0  0  0  0  0  0  0  0  0  0  0
  -34.3534   63.9966   63.7671 N   0  0  0  0  0  0  0  0  0  0  0  0
  -32.9779   63.8238   63.2076 C   0  0  0  0  0  0  0  0  0  0  0  0
  -34.2961   64.9990   64.8749 C   0  0  0  0  0  0  0  0  0  0  0  0
  -35.2499   64.5085   62.6837 C   0  0  0  0  0  0  0  0  0  0  0  0
 34 33  1  0  0  0
 34 35  1  0  0  0
 34 36  1  0  0  0
 34 37  1  0  0  0
 22 23  1  0  0  0
 22 25  1  0  0  0
 22 21  1  0  0  0
 23 24  1  0  0  0
 27 26  1  0  0  0
 27 28  2  0  0  0
 27 31  1  0  0  0
 27 29  1  0  0  0
 25 26  1  0  0  0
 32 33  1  0  0  0
 32 31  1  0  0  0
 29 30  1  0  0  0
 20 21  1  0  0  0
 20  2  1  0  0  0
  1  2  2  0  0  0
  2  3  1  0  0  0
  3  4  1  0  0  0
  4  5  1  0  0  0
  5  6  1  0  0  0
  6  7  1  0  0  0
  7  8  1  0  0  0
  8  9  1  0  0  0
  9 10  1  0  0  0
 10 11  2  0  0  0
 11 12  1  0  0  0
 12 13  1  0  0  0
 13 14  1  0  0  0
 14 15  1  0  0  0
 15 16  1  0  0  0
 16 17  1  0  0  0
 17 18  1  0  0  0
 18 19  1  0  0  0
M  CHG 1  28  -1
M  END
> <minimizedAffinity>
-8.07266

> <CNNscore>
0.6813345551

> <CNNaffinity>
6.3621225357

> <CNN_VS>
4.3347339630

> <CNNaffinity_variance>
0.3536269665

$$$$
