/media/chris/experiments/cd1a-new-docking/inputs/ligands/4x6c_ligand.pdb


 37 36  0  0  0  0  0  0  0  0999 V2000
  -42.2084   57.7989   65.8895 O   0  0  0  0  0  0  0  0  0  0  0  0
  -42.8573   58.7360   65.5374 C   0  0  0  0  0  0  0  0  0  0  0  0
  -44.2352   58.6451   64.9679 C   0  0  0  0  0  0  0  0  0  0  0  0
  -44.7963   57.2361   65.0006 C   0  0  0  0  0  0  0  0  0  0  0  0
  -45.8825   57.0584   66.0394 C   0  0  0  0  0  0  0  0  0  0  0  0
  -46.9586   58.1180   66.0077 C   0  0  0  0  0  0  0  0  0  0  0  0
  -47.9059   57.9912   64.8420 C   0  0  0  0  0  0  0  0  0  0  0  0
  -49.3480   57.9788   65.2731 C   0  0  0  0  0  0  0  0  0  0  0  0
  -50.0340   59.3127   65.2651 C   0  0  0  0  0  0  0  0  0  0  0  0
  -49.5837   60.1932   64.1774 C   0  0  0  0  0  0  0  0  0  0  0  0
  -49.9956   60.2121   62.9290 C   0  0  0  0  0  0  0  0  0  0  0  0
  -51.0389   59.3645   62.2983 C   0  0  0  0  0  0  0  0  0  0  0  0
  -50.6285   57.9369   62.0002 C   0  0  0  0  0  0  0  0  0  0  0  0
  -50.5936   57.6378   60.5267 C   0  0  0  0  0  0  0  0  0  0  0  0
  -49.2100   57.4972   59.9454 C   0  0  0  0  0  0  0  0  0  0  0  0
  -49.1768   56.5896   58.7356 C   0  0  0  0  0  0  0  0  0  0  0  0
  -47.9674   55.7015   58.6432 C   0  0  0  0  0  0  0  0  0  0  0  0
  -46.6957   56.4509   58.6257 C   0  0  0  0  0  0  0  0  0  0  0  0
  -46.4427   57.1350   57.3592 C   0  0  0  0  0  0  0  0  0  0  0  0
  -42.4319   59.9977   65.5987 O   0  0  0  0  0  0  0  0  0  0  0  0
  -41.2787   60.2742   66.4242 C   0  0  0  0  0  0  0  0  0  0  0  0
  -40.3564   61.1577   65.6161 C   0  0  0  0  0  0  0  0  0  0  0  0
  -40.4943   62.5113   66.0481 O   0  0  0  0  0  0  0  0  0  0  0  0
  -40.2105   62.5861   66.9726 H   0  0  0  0  0  0  0  0  0  0  0  0
  -38.8953   60.7842   65.6808 C   0  0  0  0  0  0  0  0  0  0  0  0
  -38.1105   61.9932   65.6425 O   0  0  0  0  0  0  0  0  0  0  0  0
  -36.5232   61.8996   65.6107 P   0  0  0  0  0  0  0  0  0  0  0  0
  -36.0685   62.6577   64.4276 O   0  0  0  0  0  0  0  0  0  0  0  0
  -36.0446   62.2993   66.9487 O   0  0  0  0  0  0  0  0  0  0  0  0
  -36.2744   63.2277   67.1103 H   0  0  0  0  0  0  0  0  0  0  0  0
  -36.1206   60.3791   65.4035 O   0  0  0  0  0  0  0  0  0  0  0  0
  -35.4780   59.9684   64.1739 C   0  0  0  0  0  0  0  0  0  0  0  0
  -36.5932   59.5421   63.2464 C   0  0  0  0  0  0  0  0  0  0  0  0
  -36.7201   58.0532   62.9923 N   0  0  0  0  0  0  0  0  0  0  0  0
  -35.9443   57.2665   63.9994 C   0  0  0  0  0  0  0  0  0  0  0  0
  -36.1968   57.7320   61.6292 C   0  0  0  0  0  0  0  0  0  0  0  0
  -38.1592   57.6512   63.0763 C   0  0  0  0  0  0  0  0  0  0  0  0
 34 33  1  0  0  0
 34 35  1  0  0  0
 34 36  1  0  0  0
 34 37  1  0  0  0
 22 23  1  0  0  0
 22 25  1  0  0  0
 22 21  1  0  0  0
 23 24  1  0  0  0
 27 26  1  0  0  0
 27 28  2  0  0  0
 27 31  1  0  0  0
 27 29  1  0  0  0
 25 26  1  0  0  0
 32 33  1  0  0  0
 32 31  1  0  0  0
 29 30  1  0  0  0
 20 21  1  0  0  0
 20  2  1  0  0  0
  1  2  2  0  0  0
  2  3  1  0  0  0
  3  4  1  0  0  0
  4  5  1  0  0  0
  5  6  1  0  0  0
  6  7  1  0  0  0
  7  8  1  0  0  0
  8  9  1  0  0  0
  9 10  1  0  0  0
 10 11  2  0  0  0
 11 12  1  0  0  0
 12 13  1  0  0  0
 13 14  1  0  0  0
 14 15  1  0  0  0
 15 16  1  0  0  0
 16 17  1  0  0  0
 17 18  1  0  0  0
 18 19  1  0  0  0
M  CHG 1  28  -1
M  END
> <minimizedAffinity>
-8.08673

> <CNNscore>
0.9055269361

> <CNNaffinity>
7.2398834229

> <CNN_VS>
6.5559096336

> <CNNaffinity_variance>
0.6342623234

$$$$
/media/chris/experiments/cd1a-new-docking/inputs/ligands/4x6c_ligand.pdb


 37 36  0  0  0  0  0  0  0  0999 V2000
  -42.6244   57.4644   66.1048 O   0  0  0  0  0  0  0  0  0  0  0  0
  -42.5221   58.6342   65.8943 C   0  0  0  0  0  0  0  0  0  0  0  0
  -43.5983   59.4849   65.3033 C   0  0  0  0  0  0  0  0  0  0  0  0
  -44.9904   59.0547   65.7258 C   0  0  0  0  0  0  0  0  0  0  0  0
  -45.6047   58.0408   64.7851 C   0  0  0  0  0  0  0  0  0  0  0  0
  -46.9911   57.5847   65.1747 C   0  0  0  0  0  0  0  0  0  0  0  0
  -47.8876   58.6977   65.6540 C   0  0  0  0  0  0  0  0  0  0  0  0
  -49.2519   58.6490   65.0202 C   0  0  0  0  0  0  0  0  0  0  0  0
  -49.9356   59.9746   64.8607 C   0  0  0  0  0  0  0  0  0  0  0  0
  -51.0562   59.9418   63.9097 C   0  0  0  0  0  0  0  0  0  0  0  0
  -51.0115   60.0724   62.6022 C   0  0  0  0  0  0  0  0  0  0  0  0
  -49.8154   60.2642   61.7436 C   0  0  0  0  0  0  0  0  0  0  0  0
  -49.6101   59.2190   60.6664 C   0  0  0  0  0  0  0  0  0  0  0  0
  -49.7738   57.8150   61.1800 C   0  0  0  0  0  0  0  0  0  0  0  0
  -50.0416   56.7822   60.1153 C   0  0  0  0  0  0  0  0  0  0  0  0
  -49.0473   56.8488   58.9772 C   0  0  0  0  0  0  0  0  0  0  0  0
  -47.8635   55.9327   59.1161 C   0  0  0  0  0  0  0  0  0  0  0  0
  -47.1373   55.7248   57.8478 C   0  0  0  0  0  0  0  0  0  0  0  0
  -47.8610   56.2170   56.6773 C   0  0  0  0  0  0  0  0  0  0  0  0
  -41.4220   59.3409   66.1532 O   0  0  0  0  0  0  0  0  0  0  0  0
  -41.5003   60.7762   66.0055 C   0  0  0  0  0  0  0  0  0  0  0  0
  -40.2962   61.2054   65.1991 C   0  0  0  0  0  0  0  0  0  0  0  0
  -39.6110   62.2519   65.8870 O   0  0  0  0  0  0  0  0  0  0  0  0
  -39.2735   61.9164   66.7322 H   0  0  0  0  0  0  0  0  0  0  0  0
  -39.3059   60.1072   64.8961 C   0  0  0  0  0  0  0  0  0  0  0  0
  -39.1860   59.9795   63.4649 O   0  0  0  0  0  0  0  0  0  0  0  0
  -37.7646   60.1630   62.7754 P   0  0  0  0  0  0  0  0  0  0  0  0
  -37.2408   58.8105   62.4969 O   0  0  0  0  0  0  0  0  0  0  0  0
  -37.9513   61.1067   61.6558 O   0  0  0  0  0  0  0  0  0  0  0  0
  -38.5422   60.7120   60.9954 H   0  0  0  0  0  0  0  0  0  0  0  0
  -36.7940   60.8597   63.8192 O   0  0  0  0  0  0  0  0  0  0  0  0
  -36.5219   62.2766   63.7105 C   0  0  0  0  0  0  0  0  0  0  0  0
  -36.0678   62.7173   65.0836 C   0  0  0  0  0  0  0  0  0  0  0  0
  -34.6590   63.2688   65.1775 N   0  0  0  0  0  0  0  0  0  0  0  0
  -34.6532   64.7579   65.0461 C   0  0  0  0  0  0  0  0  0  0  0  0
  -33.8210   62.6893   64.0834 C   0  0  0  0  0  0  0  0  0  0  0  0
  -34.0647   62.9029   66.5014 C   0  0  0  0  0  0  0  0  0  0  0  0
 34 33  1  0  0  0
 34 35  1  0  0  0
 34 36  1  0  0  0
 34 37  1  0  0  0
 22 23  1  0  0  0
 22 25  1  0  0  0
 22 21  1  0  0  0
 23 24  1  0  0  0
 27 26  1  0  0  0
 27 28  2  0  0  0
 27 31  1  0  0  0
 27 29  1  0  0  0
 25 26  1  0  0  0
 32 33  1  0  0  0
 32 31  1  0  0  0
 29 30  1  0  0  0
 20 21  1  0  0  0
 20  2  1  0  0  0
  1  2  2  0  0  0
  2  3  1  0  0  0
  3  4  1  0  0  0
  4  5  1  0  0  0
  5  6  1  0  0  0
  6  7  1  0  0  0
  7  8  1  0  0  0
  8  9  1  0  0  0
  9 10  1  0  0  0
 10 11  2  0  0  0
 11 12  1  0  0  0
 12 13  1  0  0  0
 13 14  1  0  0  0
 14 15  1  0  0  0
 15 16  1  0  0  0
 16 17  1  0  0  0
 17 18  1  0  0  0
 18 19  1  0  0  0
M  CHG 1  28  -1
M  END
> <minimizedAffinity>
-8.02983

> <CNNscore>
0.7550393343

> <CNNaffinity>
6.6495690346

> <CNN_VS>
5.0206861496

> <CNNaffinity_variance>
0.4195035994

$$$$
/media/chris/experiments/cd1a-new-docking/inputs/ligands/4x6c_ligand.pdb


 37 36  0  0  0  0  0  0  0  0999 V2000
  -41.8470   61.0324   63.9104 O   0  0  0  0  0  0  0  0  0  0  0  0
  -41.5793   60.3180   64.8274 C   0  0  0  0  0  0  0  0  0  0  0  0
  -42.5622   59.4420   65.5328 C   0  0  0  0  0  0  0  0  0  0  0  0
  -43.9026   59.3694   64.8260 C   0  0  0  0  0  0  0  0  0  0  0  0
  -44.5642   58.0144   64.9551 C   0  0  0  0  0  0  0  0  0  0  0  0
  -46.0253   58.0646   65.3349 C   0  0  0  0  0  0  0  0  0  0  0  0
  -46.4442   59.3611   65.9798 C   0  0  0  0  0  0  0  0  0  0  0  0
  -46.9969   60.3452   64.9841 C   0  0  0  0  0  0  0  0  0  0  0  0
  -48.4761   60.5807   65.0645 C   0  0  0  0  0  0  0  0  0  0  0  0
  -49.1037   60.7988   63.7531 C   0  0  0  0  0  0  0  0  0  0  0  0
  -49.6153   59.8996   62.9417 C   0  0  0  0  0  0  0  0  0  0  0  0
  -49.7131   58.4326   63.1488 C   0  0  0  0  0  0  0  0  0  0  0  0
  -49.5801   57.5863   61.8993 C   0  0  0  0  0  0  0  0  0  0  0  0
  -49.8193   58.3701   60.6382 C   0  0  0  0  0  0  0  0  0  0  0  0
  -49.9612   57.5321   59.3934 C   0  0  0  0  0  0  0  0  0  0  0  0
  -48.6327   57.2506   58.7270 C   0  0  0  0  0  0  0  0  0  0  0  0
  -48.1378   55.8386   58.8725 C   0  0  0  0  0  0  0  0  0  0  0  0
  -47.0494   55.5043   57.9330 C   0  0  0  0  0  0  0  0  0  0  0  0
  -47.5173   55.2358   56.5747 C   0  0  0  0  0  0  0  0  0  0  0  0
  -40.3591   60.2120   65.3533 O   0  0  0  0  0  0  0  0  0  0  0  0
  -39.4008   61.2440   65.0300 C   0  0  0  0  0  0  0  0  0  0  0  0
  -38.1839   60.5553   64.4563 C   0  0  0  0  0  0  0  0  0  0  0  0
  -38.0636   59.2507   65.0235 O   0  0  0  0  0  0  0  0  0  0  0  0
  -38.8312   58.7153   64.7686 H   0  0  0  0  0  0  0  0  0  0  0  0
  -38.1743   60.4231   62.9527 C   0  0  0  0  0  0  0  0  0  0  0  0
  -36.9981   59.6848   62.5644 O   0  0  0  0  0  0  0  0  0  0  0  0
  -37.1533   58.3435   61.7242 P   0  0  0  0  0  0  0  0  0  0  0  0
  -38.0038   57.4324   62.5163 O   0  0  0  0  0  0  0  0  0  0  0  0
  -37.5871   58.7360   60.3688 O   0  0  0  0  0  0  0  0  0  0  0  0
  -38.4639   59.1481   60.4166 H   0  0  0  0  0  0  0  0  0  0  0  0
  -35.7198   57.6784   61.5836 O   0  0  0  0  0  0  0  0  0  0  0  0
  -34.8378   57.6264   62.7294 C   0  0  0  0  0  0  0  0  0  0  0  0
  -33.5539   58.2956   62.2941 C   0  0  0  0  0  0  0  0  0  0  0  0
  -32.7127   58.9100   63.3953 N   0  0  0  0  0  0  0  0  0  0  0  0
  -33.0146   60.3653   63.5559 C   0  0  0  0  0  0  0  0  0  0  0  0
  -31.2633   58.7567   63.0622 C   0  0  0  0  0  0  0  0  0  0  0  0
  -32.9979   58.2162   64.6903 C   0  0  0  0  0  0  0  0  0  0  0  0
 34 33  1  0  0  0
 34 35  1  0  0  0
 34 36  1  0  0  0
 34 37  1  0  0  0
 22 23  1  0  0  0
 22 25  1  0  0  0
 22 21  1  0  0  0
 23 24  1  0  0  0
 27 26  1  0  0  0
 27 28  2  0  0  0
 27 31  1  0  0  0
 27 29  1  0  0  0
 25 26  1  0  0  0
 32 33  1  0  0  0
 32 31  1  0  0  0
 29 30  1  0  0  0
 20 21  1  0  0  0
 20  2  1  0  0  0
  1  2  2  0  0  0
  2  3  1  0  0  0
  3  4  1  0  0  0
  4  5  1  0  0  0
  5  6  1  0  0  0
  6  7  1  0  0  0
  7  8  1  0  0  0
  8  9  1  0  0  0
  9 10  1  0  0  0
 10 11  2  0  0  0
 11 12  1  0  0  0
 12 13  1  0  0  0
 13 14  1  0  0  0
 14 15  1  0  0  0
 15 16  1  0  0  0
 16 17  1  0  0  0
 17 18  1  0  0  0
 18 19  1  0  0  0
M  CHG 1  28  -1
M  END
> <minimizedAffinity>
-7.56831

> <CNNscore>
0.7267891169

> <CNNaffinity>
6.4416451454

> <CNN_VS>
4.6817173958

> <CNNaffinity_variance>
0.5887919664

$$$$
/media/chris/experiments/cd1a-new-docking/inputs/ligands/4x6c_ligand.pdb


 37 36  0  0  0  0  0  0  0  0999 V2000
  -42.1899   57.7622   65.8643 O   0  0  0  0  0  0  0  0  0  0  0  0
  -42.4789   58.8793   65.5614 C   0  0  0  0  0  0  0  0  0  0  0  0
  -43.8214   59.2996   65.0593 C   0  0  0  0  0  0  0  0  0  0  0  0
  -44.9069   59.1914   66.1135 C   0  0  0  0  0  0  0  0  0  0  0  0
  -45.8581   58.0410   65.8638 C   0  0  0  0  0  0  0  0  0  0  0  0
  -47.0517   58.3902   65.0063 C   0  0  0  0  0  0  0  0  0  0  0  0
  -48.1402   59.1257   65.7456 C   0  0  0  0  0  0  0  0  0  0  0  0
  -49.5171   58.6858   65.3261 C   0  0  0  0  0  0  0  0  0  0  0  0
  -50.5091   59.7907   65.1132 C   0  0  0  0  0  0  0  0  0  0  0  0
  -50.3214   60.5056   63.8424 C   0  0  0  0  0  0  0  0  0  0  0  0
  -50.5461   60.0633   62.6247 C   0  0  0  0  0  0  0  0  0  0  0  0
  -51.0695   58.7349   62.2173 C   0  0  0  0  0  0  0  0  0  0  0  0
  -50.0207   57.6970   61.8738 C   0  0  0  0  0  0  0  0  0  0  0  0
  -50.3734   56.8972   60.6499 C   0  0  0  0  0  0  0  0  0  0  0  0
  -50.2207   57.6397   59.3471 C   0  0  0  0  0  0  0  0  0  0  0  0
  -48.8803   57.3930   58.6907 C   0  0  0  0  0  0  0  0  0  0  0  0
  -48.1493   56.1747   59.1816 C   0  0  0  0  0  0  0  0  0  0  0  0
  -46.7888   56.0484   58.6229 C   0  0  0  0  0  0  0  0  0  0  0  0
  -46.5694   56.8744   57.4373 C   0  0  0  0  0  0  0  0  0  0  0  0
  -41.6325   59.9072   65.6239 O   0  0  0  0  0  0  0  0  0  0  0  0
  -41.4414   60.6886   64.4237 C   0  0  0  0  0  0  0  0  0  0  0  0
  -40.3220   61.6648   64.7037 C   0  0  0  0  0  0  0  0  0  0  0  0
  -40.5948   62.3669   65.9163 O   0  0  0  0  0  0  0  0  0  0  0  0
  -40.6080   61.7404   66.6567 H   0  0  0  0  0  0  0  0  0  0  0  0
  -38.9483   61.0482   64.8096 C   0  0  0  0  0  0  0  0  0  0  0  0
  -38.1509   61.8542   65.7004 O   0  0  0  0  0  0  0  0  0  0  0  0
  -36.5727   61.9081   65.5118 P   0  0  0  0  0  0  0  0  0  0  0  0
  -35.9810   62.0587   66.8565 O   0  0  0  0  0  0  0  0  0  0  0  0
  -36.2005   60.7407   64.6887 O   0  0  0  0  0  0  0  0  0  0  0  0
  -36.4042   59.9254   65.1731 H   0  0  0  0  0  0  0  0  0  0  0  0
  -36.2183   63.2065   64.6717 O   0  0  0  0  0  0  0  0  0  0  0  0
  -35.0510   63.9883   65.0177 C   0  0  0  0  0  0  0  0  0  0  0  0
  -34.5513   64.5824   63.7204 C   0  0  0  0  0  0  0  0  0  0  0  0
  -33.0893   64.9810   63.6862 N   0  0  0  0  0  0  0  0  0  0  0  0
  -32.8459   66.0508   62.6707 C   0  0  0  0  0  0  0  0  0  0  0  0
  -32.2545   63.7911   63.3359 C   0  0  0  0  0  0  0  0  0  0  0  0
  -32.6781   65.4944   65.0303 C   0  0  0  0  0  0  0  0  0  0  0  0
 34 33  1  0  0  0
 34 35  1  0  0  0
 34 36  1  0  0  0
 34 37  1  0  0  0
 22 23  1  0  0  0
 22 25  1  0  0  0
 22 21  1  0  0  0
 23 24  1  0  0  0
 27 26  1  0  0  0
 27 28  2  0  0  0
 27 31  1  0  0  0
 27 29  1  0  0  0
 25 26  1  0  0  0
 32 33  1  0  0  0
 32 31  1  0  0  0
 29 30  1  0  0  0
 20 21  1  0  0  0
 20  2  1  0  0  0
  1  2  2  0  0  0
  2  3  1  0  0  0
  3  4  1  0  0  0
  4  5  1  0  0  0
  5  6  1  0  0  0
  6  7  1  0  0  0
  7  8  1  0  0  0
  8  9  1  0  0  0
  9 10  1  0  0  0
 10 11  2  0  0  0
 11 12  1  0  0  0
 12 13  1  0  0  0
 13 14  1  0  0  0
 14 15  1  0  0  0
 15 16  1  0  0  0
 16 17  1  0  0  0
 17 18  1  0  0  0
 18 19  1  0  0  0
M  CHG 1  28  -1
M  END
> <minimizedAffinity>
-8.04423

> <CNNscore>
0.7188767791

> <CNNaffinity>
6.2985839844

> <CNN_VS>
4.5279059410

> <CNNaffinity_variance>
0.4407394528

$$$$
/media/chris/experiments/cd1a-new-docking/inputs/ligands/4x6c_ligand.pdb


 37 36  0  0  0  0  0  0  0  0999 V2000
  -38.8518   57.9081   63.5900 O   0  0  0  0  0  0  0  0  0  0  0  0
  -38.7645   58.6943   64.4829 C   0  0  0  0  0  0  0  0  0  0  0  0
  -39.8967   59.5242   64.9935 C   0  0  0  0  0  0  0  0  0  0  0  0
  -41.1034   58.6959   65.3925 C   0  0  0  0  0  0  0  0  0  0  0  0
  -42.2334   59.5326   65.9521 C   0  0  0  0  0  0  0  0  0  0  0  0
  -43.3642   59.7861   64.9831 C   0  0  0  0  0  0  0  0  0  0  0  0
  -44.5101   58.8157   65.1150 C   0  0  0  0  0  0  0  0  0  0  0  0
  -45.7764   59.4826   65.5811 C   0  0  0  0  0  0  0  0  0  0  0  0
  -47.0369   59.0000   64.9268 C   0  0  0  0  0  0  0  0  0  0  0  0
  -48.2520   59.3387   65.6819 C   0  0  0  0  0  0  0  0  0  0  0  0
  -49.5014   59.0877   65.3585 C   0  0  0  0  0  0  0  0  0  0  0  0
  -50.0093   58.3768   64.1580 C   0  0  0  0  0  0  0  0  0  0  0  0
  -50.6276   59.2565   63.0908 C   0  0  0  0  0  0  0  0  0  0  0  0
  -50.0393   59.0171   61.7275 C   0  0  0  0  0  0  0  0  0  0  0  0
  -50.4050   57.6928   61.1077 C   0  0  0  0  0  0  0  0  0  0  0  0
  -49.8706   57.5417   59.7006 C   0  0  0  0  0  0  0  0  0  0  0  0
  -48.6471   56.6769   59.5772 C   0  0  0  0  0  0  0  0  0  0  0  0
  -47.9700   56.8102   58.2723 C   0  0  0  0  0  0  0  0  0  0  0  0
  -47.0629   55.7039   57.9736 C   0  0  0  0  0  0  0  0  0  0  0  0
  -37.6339   58.9440   65.1433 O   0  0  0  0  0  0  0  0  0  0  0  0
  -36.5498   58.0009   64.9917 C   0  0  0  0  0  0  0  0  0  0  0  0
  -35.2704   58.8027   64.9254 C   0  0  0  0  0  0  0  0  0  0  0  0
  -34.2246   57.9876   64.3961 O   0  0  0  0  0  0  0  0  0  0  0  0
  -34.4412   57.7351   63.4850 H   0  0  0  0  0  0  0  0  0  0  0  0
  -35.3504   60.0665   64.1040 C   0  0  0  0  0  0  0  0  0  0  0  0
  -35.0786   61.1911   64.9646 O   0  0  0  0  0  0  0  0  0  0  0  0
  -36.1446   62.3651   65.0847 P   0  0  0  0  0  0  0  0  0  0  0  0
  -36.4171   62.8443   63.7146 O   0  0  0  0  0  0  0  0  0  0  0  0
  -37.2604   61.8475   65.9009 O   0  0  0  0  0  0  0  0  0  0  0  0
  -37.6910   61.1153   65.4326 H   0  0  0  0  0  0  0  0  0  0  0  0
  -35.4814   63.5551   65.8978 O   0  0  0  0  0  0  0  0  0  0  0  0
  -34.8065   64.6202   65.1881 C   0  0  0  0  0  0  0  0  0  0  0  0
  -33.3672   64.1785   65.0501 C   0  0  0  0  0  0  0  0  0  0  0  0
  -32.6577   64.5974   63.7777 N   0  0  0  0  0  0  0  0  0  0  0  0
  -31.8222   65.8164   64.0029 C   0  0  0  0  0  0  0  0  0  0  0  0
  -33.6680   64.8998   62.7180 C   0  0  0  0  0  0  0  0  0  0  0  0
  -31.7691   63.4876   63.3107 C   0  0  0  0  0  0  0  0  0  0  0  0
 34 33  1  0  0  0
 34 35  1  0  0  0
 34 36  1  0  0  0
 34 37  1  0  0  0
 22 23  1  0  0  0
 22 25  1  0  0  0
 22 21  1  0  0  0
 23 24  1  0  0  0
 27 26  1  0  0  0
 27 28  2  0  0  0
 27 31  1  0  0  0
 27 29  1  0  0  0
 25 26  1  0  0  0
 32 33  1  0  0  0
 32 31  1  0  0  0
 29 30  1  0  0  0
 20 21  1  0  0  0
 20  2  1  0  0  0
  1  2  2  0  0  0
  2  3  1  0  0  0
  3  4  1  0  0  0
  4  5  1  0  0  0
  5  6  1  0  0  0
  6  7  1  0  0  0
  7  8  1  0  0  0
  8  9  1  0  0  0
  9 10  1  0  0  0
 10 11  2  0  0  0
 11 12  1  0  0  0
 12 13  1  0  0  0
 13 14  1  0  0  0
 14 15  1  0  0  0
 15 16  1  0  0  0
 16 17  1  0  0  0
 17 18  1  0  0  0
 18 19  1  0  0  0
M  CHG 1  28  -1
M  END
> <minimizedAffinity>
-7.60594

> <CNNscore>
0.6656976938

> <CNNaffinity>
6.1064667702

> <CNN_VS>
4.0650606155

> <CNNaffinity_variance>
0.5540615320

$$$$
/media/chris/experiments/cd1a-new-docking/inputs/ligands/4x6c_ligand.pdb


 37 36  0  0  0  0  0  0  0  0999 V2000
  -38.3967   60.2184   65.4777 O   0  0  0  0  0  0  0  0  0  0  0  0
  -39.0440   59.3580   64.9641 C   0  0  0  0  0  0  0  0  0  0  0  0
  -40.5208   59.4235   64.7500 C   0  0  0  0  0  0  0  0  0  0  0  0
  -41.2653   59.9996   65.9397 C   0  0  0  0  0  0  0  0  0  0  0  0
  -42.1565   58.9859   66.6241 C   0  0  0  0  0  0  0  0  0  0  0  0
  -42.2098   57.6384   65.9435 C   0  0  0  0  0  0  0  0  0  0  0  0
  -43.5978   57.2152   65.5355 C   0  0  0  0  0  0  0  0  0  0  0  0
  -44.3348   58.2999   64.7969 C   0  0  0  0  0  0  0  0  0  0  0  0
  -45.7458   58.5405   65.2456 C   0  0  0  0  0  0  0  0  0  0  0  0
  -46.4887   57.3023   65.5216 C   0  0  0  0  0  0  0  0  0  0  0  0
  -47.7791   57.0870   65.3906 C   0  0  0  0  0  0  0  0  0  0  0  0
  -48.8185   58.0313   64.9083 C   0  0  0  0  0  0  0  0  0  0  0  0
  -48.9702   58.1228   63.4037 C   0  0  0  0  0  0  0  0  0  0  0  0
  -50.3439   58.5687   62.9841 C   0  0  0  0  0  0  0  0  0  0  0  0
  -50.6649   58.3349   61.5300 C   0  0  0  0  0  0  0  0  0  0  0  0
  -49.8158   57.2445   60.9149 C   0  0  0  0  0  0  0  0  0  0  0  0
  -49.8982   57.1466   59.4171 C   0  0  0  0  0  0  0  0  0  0  0  0
  -48.5762   57.0547   58.7668 C   0  0  0  0  0  0  0  0  0  0  0  0
  -47.8256   55.8589   59.1444 C   0  0  0  0  0  0  0  0  0  0  0  0
  -38.5320   58.2114   64.5170 O   0  0  0  0  0  0  0  0  0  0  0  0
  -37.0998   58.0408   64.6042 C   0  0  0  0  0  0  0  0  0  0  0  0
  -36.5902   57.8429   63.1951 C   0  0  0  0  0  0  0  0  0  0  0  0
  -36.5251   59.1048   62.5308 O   0  0  0  0  0  0  0  0  0  0  0  0
  -35.8818   59.6743   62.9809 H   0  0  0  0  0  0  0  0  0  0  0  0
  -35.2376   57.1807   63.0922 C   0  0  0  0  0  0  0  0  0  0  0  0
  -34.2659   58.1778   62.7172 O   0  0  0  0  0  0  0  0  0  0  0  0
  -33.1669   58.6398   63.7698 P   0  0  0  0  0  0  0  0  0  0  0  0
  -33.5827   58.1177   65.0871 O   0  0  0  0  0  0  0  0  0  0  0  0
  -31.8554   58.2434   63.2202 O   0  0  0  0  0  0  0  0  0  0  0  0
  -31.8084   57.2763   63.1616 H   0  0  0  0  0  0  0  0  0  0  0  0
  -33.1855   60.2246   63.8420 O   0  0  0  0  0  0  0  0  0  0  0  0
  -34.0595   60.8894   64.7842 C   0  0  0  0  0  0  0  0  0  0  0  0
  -33.8486   62.3711   64.5699 C   0  0  0  0  0  0  0  0  0  0  0  0
  -35.0401   63.2644   64.8529 N   0  0  0  0  0  0  0  0  0  0  0  0
  -35.8873   62.7019   65.9486 C   0  0  0  0  0  0  0  0  0  0  0  0
  -35.8755   63.3896   63.6194 C   0  0  0  0  0  0  0  0  0  0  0  0
  -34.5624   64.6212   65.2657 C   0  0  0  0  0  0  0  0  0  0  0  0
 34 33  1  0  0  0
 34 35  1  0  0  0
 34 36  1  0  0  0
 34 37  1  0  0  0
 22 23  1  0  0  0
 22 25  1  0  0  0
 22 21  1  0  0  0
 23 24  1  0  0  0
 27 26  1  0  0  0
 27 28  2  0  0  0
 27 31  1  0  0  0
 27 29  1  0  0  0
 25 26  1  0  0  0
 32 33  1  0  0  0
 32 31  1  0  0  0
 29 30  1  0  0  0
 20 21  1  0  0  0
 20  2  1  0  0  0
  1  2  2  0  0  0
  2  3  1  0  0  0
  3  4  1  0  0  0
  4  5  1  0  0  0
  5  6  1  0  0  0
  6  7  1  0  0  0
  7  8  1  0  0  0
  8  9  1  0  0  0
  9 10  1  0  0  0
 10 11  2  0  0  0
 11 12  1  0  0  0
 12 13  1  0  0  0
 13 14  1  0  0  0
 14 15  1  0  0  0
 15 16  1  0  0  0
 16 17  1  0  0  0
 17 18  1  0  0  0
 18 19  1  0  0  0
M  CHG 1  28  -1
M  END
> <minimizedAffinity>
-7.35623

> <CNNscore>
0.6591160893

> <CNNaffinity>
6.5202722549

> <CNN_VS>
4.2976164818

> <CNNaffinity_variance>
0.4013143182

$$$$
/media/chris/experiments/cd1a-new-docking/inputs/ligands/4x6c_ligand.pdb


 37 36  0  0  0  0  0  0  0  0999 V2000
  -43.9750   56.7985   65.2754 O   0  0  0  0  0  0  0  0  0  0  0  0
  -43.9024   57.9890   65.2508 C   0  0  0  0  0  0  0  0  0  0  0  0
  -45.0794   58.9081   65.2190 C   0  0  0  0  0  0  0  0  0  0  0  0
  -46.3079   58.3182   65.8856 C   0  0  0  0  0  0  0  0  0  0  0  0
  -47.2089   57.5839   64.9164 C   0  0  0  0  0  0  0  0  0  0  0  0
  -48.6854   57.7325   65.1986 C   0  0  0  0  0  0  0  0  0  0  0  0
  -49.1099   59.1472   65.4997 C   0  0  0  0  0  0  0  0  0  0  0  0
  -50.5393   59.4127   65.1104 C   0  0  0  0  0  0  0  0  0  0  0  0
  -50.7470   60.5582   64.1644 C   0  0  0  0  0  0  0  0  0  0  0  0
  -49.7023   60.6608   63.1352 C   0  0  0  0  0  0  0  0  0  0  0  0
  -49.5640   59.9348   62.0478 C   0  0  0  0  0  0  0  0  0  0  0  0
  -50.4397   58.8374   61.5645 C   0  0  0  0  0  0  0  0  0  0  0  0
  -49.8719   57.4397   61.7025 C   0  0  0  0  0  0  0  0  0  0  0  0
  -49.9229   56.6620   60.4162 C   0  0  0  0  0  0  0  0  0  0  0  0
  -49.7014   57.4855   59.1734 C   0  0  0  0  0  0  0  0  0  0  0  0
  -48.8849   56.7557   58.1298 C   0  0  0  0  0  0  0  0  0  0  0  0
  -47.4986   57.2971   57.9177 C   0  0  0  0  0  0  0  0  0  0  0  0
  -46.7661   56.6119   56.8347 C   0  0  0  0  0  0  0  0  0  0  0  0
  -47.2515   55.2586   56.5718 C   0  0  0  0  0  0  0  0  0  0  0  0
  -42.7518   58.6618   65.2403 O   0  0  0  0  0  0  0  0  0  0  0  0
  -42.8212   60.1019   65.1453 C   0  0  0  0  0  0  0  0  0  0  0  0
  -41.8107   60.6600   66.1209 C   0  0  0  0  0  0  0  0  0  0  0  0
  -42.2282   60.3722   67.4554 O   0  0  0  0  0  0  0  0  0  0  0  0
  -42.2422   59.4117   67.5897 H   0  0  0  0  0  0  0  0  0  0  0  0
  -40.4014   60.1496   65.9428 C   0  0  0  0  0  0  0  0  0  0  0  0
  -39.5017   61.2763   65.9436 O   0  0  0  0  0  0  0  0  0  0  0  0
  -38.0435   61.1187   65.3288 P   0  0  0  0  0  0  0  0  0  0  0  0
  -37.3587   60.0644   66.1036 O   0  0  0  0  0  0  0  0  0  0  0  0
  -38.2101   60.9476   63.8720 O   0  0  0  0  0  0  0  0  0  0  0  0
  -38.6868   60.1215   63.6959 H   0  0  0  0  0  0  0  0  0  0  0  0
  -37.2610   62.4802   65.5546 O   0  0  0  0  0  0  0  0  0  0  0  0
  -36.1567   62.8255   64.6857 C   0  0  0  0  0  0  0  0  0  0  0  0
  -34.9247   62.8251   65.5620 C   0  0  0  0  0  0  0  0  0  0  0  0
  -33.8447   63.8246   65.1985 N   0  0  0  0  0  0  0  0  0  0  0  0
  -33.0898   64.2670   66.4107 C   0  0  0  0  0  0  0  0  0  0  0  0
  -34.4677   65.0241   64.5596 C   0  0  0  0  0  0  0  0  0  0  0  0
  -32.8833   63.1970   64.2386 C   0  0  0  0  0  0  0  0  0  0  0  0
 34 33  1  0  0  0
 34 35  1  0  0  0
 34 36  1  0  0  0
 34 37  1  0  0  0
 22 23  1  0  0  0
 22 25  1  0  0  0
 22 21  1  0  0  0
 23 24  1  0  0  0
 27 26  1  0  0  0
 27 28  2  0  0  0
 27 31  1  0  0  0
 27 29  1  0  0  0
 25 26  1  0  0  0
 32 33  1  0  0  0
 32 31  1  0  0  0
 29 30  1  0  0  0
 20 21  1  0  0  0
 20  2  1  0  0  0
  1  2  2  0  0  0
  2  3  1  0  0  0
  3  4  1  0  0  0
  4  5  1  0  0  0
  5  6  1  0  0  0
  6  7  1  0  0  0
  7  8  1  0  0  0
  8  9  1  0  0  0
  9 10  1  0  0  0
 10 11  2  0  0  0
 11 12  1  0  0  0
 12 13  1  0  0  0
 13 14  1  0  0  0
 14 15  1  0  0  0
 15 16  1  0  0  0
 16 17  1  0  0  0
 17 18  1  0  0  0
 18 19  1  0  0  0
M  CHG 1  28  -1
M  END
> <minimizedAffinity>
-7.94517

> <CNNscore>
0.6460207701

> <CNNaffinity>
6.2742547989

> <CNN_VS>
4.0532989502

> <CNNaffinity_variance>
0.3452601731

$$$$
/media/chris/experiments/cd1a-new-docking/inputs/ligands/4x6c_ligand.pdb


 37 36  0  0  0  0  0  0  0  0999 V2000
  -41.3169   58.3499   65.7532 O   0  0  0  0  0  0  0  0  0  0  0  0
  -41.5227   59.5074   65.9549 C   0  0  0  0  0  0  0  0  0  0  0  0
  -42.8581   60.0824   66.2976 C   0  0  0  0  0  0  0  0  0  0  0  0
  -43.9126   59.7951   65.2455 C   0  0  0  0  0  0  0  0  0  0  0  0
  -45.1554   59.1486   65.8180 C   0  0  0  0  0  0  0  0  0  0  0  0
  -45.6370   57.9354   65.0577 C   0  0  0  0  0  0  0  0  0  0  0  0
  -47.0115   58.0957   64.4599 C   0  0  0  0  0  0  0  0  0  0  0  0
  -48.0078   58.6385   65.4489 C   0  0  0  0  0  0  0  0  0  0  0  0
  -49.4482   58.3786   65.1206 C   0  0  0  0  0  0  0  0  0  0  0  0
  -50.3095   59.5555   65.3051 C   0  0  0  0  0  0  0  0  0  0  0  0
  -51.0295   60.1808   64.4000 C   0  0  0  0  0  0  0  0  0  0  0  0
  -51.1779   59.8475   62.9607 C   0  0  0  0  0  0  0  0  0  0  0  0
  -50.0122   60.2392   62.0760 C   0  0  0  0  0  0  0  0  0  0  0  0
  -49.6936   59.1974   61.0391 C   0  0  0  0  0  0  0  0  0  0  0  0
  -50.4422   57.8992   61.2003 C   0  0  0  0  0  0  0  0  0  0  0  0
  -49.9551   56.8252   60.2528 C   0  0  0  0  0  0  0  0  0  0  0  0
  -49.3075   57.3359   58.9959 C   0  0  0  0  0  0  0  0  0  0  0  0
  -48.1543   56.5218   58.5640 C   0  0  0  0  0  0  0  0  0  0  0  0
  -48.1097   56.2987   57.1203 C   0  0  0  0  0  0  0  0  0  0  0  0
  -40.5820   60.4498   65.8928 O   0  0  0  0  0  0  0  0  0  0  0  0
  -39.3034   60.0808   65.3299 C   0  0  0  0  0  0  0  0  0  0  0  0
  -38.5707   61.3645   65.0144 C   0  0  0  0  0  0  0  0  0  0  0  0
  -39.0432   62.4051   65.8699 O   0  0  0  0  0  0  0  0  0  0  0  0
  -38.8343   62.1858   66.7914 H   0  0  0  0  0  0  0  0  0  0  0  0
  -37.0684   61.2901   65.1407 C   0  0  0  0  0  0  0  0  0  0  0  0
  -36.6921   61.7860   66.4413 O   0  0  0  0  0  0  0  0  0  0  0  0
  -35.4196   62.7289   66.5854 P   0  0  0  0  0  0  0  0  0  0  0  0
  -35.8000   63.8346   67.4875 O   0  0  0  0  0  0  0  0  0  0  0  0
  -34.2834   61.8604   66.9514 O   0  0  0  0  0  0  0  0  0  0  0  0
  -34.4469   61.4636   67.8213 H   0  0  0  0  0  0  0  0  0  0  0  0
  -35.0972   63.3472   65.1603 O   0  0  0  0  0  0  0  0  0  0  0  0
  -34.7152   64.7385   65.0518 C   0  0  0  0  0  0  0  0  0  0  0  0
  -33.2039   64.7567   65.0868 C   0  0  0  0  0  0  0  0  0  0  0  0
  -32.5085   65.1068   63.7862 N   0  0  0  0  0  0  0  0  0  0  0  0
  -31.4403   66.1296   64.0044 C   0  0  0  0  0  0  0  0  0  0  0  0
  -33.5061   65.6569   62.8179 C   0  0  0  0  0  0  0  0  0  0  0  0
  -31.8828   63.8775   63.2057 C   0  0  0  0  0  0  0  0  0  0  0  0
 34 33  1  0  0  0
 34 35  1  0  0  0
 34 36  1  0  0  0
 34 37  1  0  0  0
 22 23  1  0  0  0
 22 25  1  0  0  0
 22 21  1  0  0  0
 23 24  1  0  0  0
 27 26  1  0  0  0
 27 28  2  0  0  0
 27 31  1  0  0  0
 27 29  1  0  0  0
 25 26  1  0  0  0
 32 33  1  0  0  0
 32 31  1  0  0  0
 29 30  1  0  0  0
 20 21  1  0  0  0
 20  2  1  0  0  0
  1  2  2  0  0  0
  2  3  1  0  0  0
  3  4  1  0  0  0
  4  5  1  0  0  0
  5  6  1  0  0  0
  6  7  1  0  0  0
  7  8  1  0  0  0
  8  9  1  0  0  0
  9 10  1  0  0  0
 10 11  2  0  0  0
 11 12  1  0  0  0
 12 13  1  0  0  0
 13 14  1  0  0  0
 14 15  1  0  0  0
 15 16  1  0  0  0
 16 17  1  0  0  0
 17 18  1  0  0  0
 18 19  1  0  0  0
M  CHG 1  28  -1
M  END
> <minimizedAffinity>
-8.26668

> <CNNscore>
0.6333619356

> <CNNaffinity>
6.0719823837

> <CNN_VS>
3.8457624912

> <CNNaffinity_variance>
0.4519838691

$$$$
/media/chris/experiments/cd1a-new-docking/inputs/ligands/4x6c_ligand.pdb


 37 36  0  0  0  0  0  0  0  0999 V2000
  -40.0361   58.1374   65.1366 O   0  0  0  0  0  0  0  0  0  0  0  0
  -41.1297   58.6074   65.2155 C   0  0  0  0  0  0  0  0  0  0  0  0
  -42.1776   58.1554   66.1792 C   0  0  0  0  0  0  0  0  0  0  0  0
  -42.9648   56.9594   65.6779 C   0  0  0  0  0  0  0  0  0  0  0  0
  -44.4621   57.1700   65.7437 C   0  0  0  0  0  0  0  0  0  0  0  0
  -44.9947   58.1888   64.7638 C   0  0  0  0  0  0  0  0  0  0  0  0
  -45.5067   59.4497   65.4121 C   0  0  0  0  0  0  0  0  0  0  0  0
  -46.7151   59.2018   66.2746 C   0  0  0  0  0  0  0  0  0  0  0  0
  -48.0304   59.5912   65.6676 C   0  0  0  0  0  0  0  0  0  0  0  0
  -48.8277   58.4412   65.2172 C   0  0  0  0  0  0  0  0  0  0  0  0
  -49.7495   58.4134   64.2801 C   0  0  0  0  0  0  0  0  0  0  0  0
  -50.2091   59.5309   63.4173 C   0  0  0  0  0  0  0  0  0  0  0  0
  -50.3534   59.2029   61.9453 C   0  0  0  0  0  0  0  0  0  0  0  0
  -50.8627   57.8079   61.7078 C   0  0  0  0  0  0  0  0  0  0  0  0
  -50.3928   57.1764   60.4224 C   0  0  0  0  0  0  0  0  0  0  0  0
  -48.9270   56.8043   60.4590 C   0  0  0  0  0  0  0  0  0  0  0  0
  -48.4272   56.0786   59.2410 C   0  0  0  0  0  0  0  0  0  0  0  0
  -48.3826   56.9289   58.0351 C   0  0  0  0  0  0  0  0  0  0  0  0
  -47.0289   57.1488   57.5299 C   0  0  0  0  0  0  0  0  0  0  0  0
  -41.5674   59.6009   64.4422 O   0  0  0  0  0  0  0  0  0  0  0  0
  -41.8871   60.8554   65.0840 C   0  0  0  0  0  0  0  0  0  0  0  0
  -40.8045   61.8380   64.7010 C   0  0  0  0  0  0  0  0  0  0  0  0
  -40.2572   62.4270   65.8807 O   0  0  0  0  0  0  0  0  0  0  0  0
  -39.8313   61.7403   66.4171 H   0  0  0  0  0  0  0  0  0  0  0  0
  -39.6719   61.2567   63.8900 C   0  0  0  0  0  0  0  0  0  0  0  0
  -38.4785   62.0215   64.1544 O   0  0  0  0  0  0  0  0  0  0  0  0
  -37.3197   61.3893   65.0414 P   0  0  0  0  0  0  0  0  0  0  0  0
  -36.8153   62.4616   65.9228 O   0  0  0  0  0  0  0  0  0  0  0  0
  -37.8672   60.1590   65.6461 O   0  0  0  0  0  0  0  0  0  0  0  0
  -38.5945   60.3892   66.2453 H   0  0  0  0  0  0  0  0  0  0  0  0
  -36.1393   60.9521   64.0758 O   0  0  0  0  0  0  0  0  0  0  0  0
  -35.7550   59.5593   63.9977 C   0  0  0  0  0  0  0  0  0  0  0  0
  -34.4235   59.4570   64.7066 C   0  0  0  0  0  0  0  0  0  0  0  0
  -33.2660   58.9276   63.8835 N   0  0  0  0  0  0  0  0  0  0  0  0
  -32.4800   60.0455   63.2774 C   0  0  0  0  0  0  0  0  0  0  0  0
  -33.7896   58.0606   62.7837 C   0  0  0  0  0  0  0  0  0  0  0  0
  -32.3567   58.1218   64.7572 C   0  0  0  0  0  0  0  0  0  0  0  0
 34 33  1  0  0  0
 34 35  1  0  0  0
 34 36  1  0  0  0
 34 37  1  0  0  0
 22 23  1  0  0  0
 22 25  1  0  0  0
 22 21  1  0  0  0
 23 24  1  0  0  0
 27 26  1  0  0  0
 27 28  2  0  0  0
 27 31  1  0  0  0
 27 29  1  0  0  0
 25 26  1  0  0  0
 32 33  1  0  0  0
 32 31  1  0  0  0
 29 30  1  0  0  0
 20 21  1  0  0  0
 20  2  1  0  0  0
  1  2  2  0  0  0
  2  3  1  0  0  0
  3  4  1  0  0  0
  4  5  1  0  0  0
  5  6  1  0  0  0
  6  7  1  0  0  0
  7  8  1  0  0  0
  8  9  1  0  0  0
  9 10  1  0  0  0
 10 11  2  0  0  0
 11 12  1  0  0  0
 12 13  1  0  0  0
 13 14  1  0  0  0
 14 15  1  0  0  0
 15 16  1  0  0  0
 16 17  1  0  0  0
 17 18  1  0  0  0
 18 19  1  0  0  0
M  CHG 1  28  -1
M  END
> <minimizedAffinity>
-7.69634

> <CNNscore>
0.5898525715

> <CNNaffinity>
6.4643983841

> <CNN_VS>
3.8130419254

> <CNNaffinity_variance>
0.2355570346

$$$$
