/media/chris/experiments/cd1a-new-docking/inputs/ligands/4x6c_ligand.pdb


 37 36  0  0  0  0  0  0  0  0999 V2000
  -41.9924   57.7272   65.7844 O   0  0  0  0  0  0  0  0  0  0  0  0
  -42.6842   58.6094   65.3767 C   0  0  0  0  0  0  0  0  0  0  0  0
  -44.1463   58.4794   65.1003 C   0  0  0  0  0  0  0  0  0  0  0  0
  -44.6768   57.0840   65.3705 C   0  0  0  0  0  0  0  0  0  0  0  0
  -46.0859   57.0861   65.9227 C   0  0  0  0  0  0  0  0  0  0  0  0
  -46.5325   58.4112   66.4941 C   0  0  0  0  0  0  0  0  0  0  0  0
  -47.7158   59.0152   65.7819 C   0  0  0  0  0  0  0  0  0  0  0  0
  -48.4770   58.0007   64.9715 C   0  0  0  0  0  0  0  0  0  0  0  0
  -49.9706   58.0690   65.0929 C   0  0  0  0  0  0  0  0  0  0  0  0
  -50.4785   59.4362   65.2773 C   0  0  0  0  0  0  0  0  0  0  0  0
  -50.9701   60.2462   64.3657 C   0  0  0  0  0  0  0  0  0  0  0  0
  -51.1611   59.9829   62.9171 C   0  0  0  0  0  0  0  0  0  0  0  0
  -49.9535   60.2452   62.0407 C   0  0  0  0  0  0  0  0  0  0  0  0
  -49.8038   59.2325   60.9389 C   0  0  0  0  0  0  0  0  0  0  0  0
  -49.6607   57.8075   61.4090 C   0  0  0  0  0  0  0  0  0  0  0  0
  -50.1384   56.8053   60.3812 C   0  0  0  0  0  0  0  0  0  0  0  0
  -49.0964   55.8244   59.9211 C   0  0  0  0  0  0  0  0  0  0  0  0
  -47.9834   56.4595   59.1881 C   0  0  0  0  0  0  0  0  0  0  0  0
  -47.0246   55.4999   58.6439 C   0  0  0  0  0  0  0  0  0  0  0  0
  -42.2386   59.8356   65.1041 O   0  0  0  0  0  0  0  0  0  0  0  0
  -41.5940   60.5646   66.1724 C   0  0  0  0  0  0  0  0  0  0  0  0
  -40.5295   61.4306   65.5389 C   0  0  0  0  0  0  0  0  0  0  0  0
  -40.6777   62.7759   65.9930 O   0  0  0  0  0  0  0  0  0  0  0  0
  -40.5306   62.8118   66.9511 H   0  0  0  0  0  0  0  0  0  0  0  0
  -39.1093   60.9930   65.8034 C   0  0  0  0  0  0  0  0  0  0  0  0
  -38.3498   61.1392   64.5866 O   0  0  0  0  0  0  0  0  0  0  0  0
  -36.8654   61.7068   64.6494 P   0  0  0  0  0  0  0  0  0  0  0  0
  -36.5926   62.3500   63.3483 O   0  0  0  0  0  0  0  0  0  0  0  0
  -36.7670   62.5104   65.8837 O   0  0  0  0  0  0  0  0  0  0  0  0
  -37.3635   63.2727   65.8218 H   0  0  0  0  0  0  0  0  0  0  0  0
  -35.8722   60.4799   64.8081 O   0  0  0  0  0  0  0  0  0  0  0  0
  -36.3571   59.1328   64.5983 C   0  0  0  0  0  0  0  0  0  0  0  0
  -36.2030   58.8630   63.1188 C   0  0  0  0  0  0  0  0  0  0  0  0
  -37.4092   58.2708   62.4172 N   0  0  0  0  0  0  0  0  0  0  0  0
  -38.4483   57.8406   63.4022 C   0  0  0  0  0  0  0  0  0  0  0  0
  -36.9879   57.0804   61.6169 C   0  0  0  0  0  0  0  0  0  0  0  0
  -38.0097   59.2928   61.5038 C   0  0  0  0  0  0  0  0  0  0  0  0
 34 33  1  0  0  0
 34 35  1  0  0  0
 34 36  1  0  0  0
 34 37  1  0  0  0
 22 23  1  0  0  0
 22 25  1  0  0  0
 22 21  1  0  0  0
 23 24  1  0  0  0
 27 26  1  0  0  0
 27 28  2  0  0  0
 27 31  1  0  0  0
 27 29  1  0  0  0
 25 26  1  0  0  0
 32 33  1  0  0  0
 32 31  1  0  0  0
 29 30  1  0  0  0
 20 21  1  0  0  0
 20  2  1  0  0  0
  1  2  2  0  0  0
  2  3  1  0  0  0
  3  4  1  0  0  0
  4  5  1  0  0  0
  5  6  1  0  0  0
  6  7  1  0  0  0
  7  8  1  0  0  0
  8  9  1  0  0  0
  9 10  1  0  0  0
 10 11  2  0  0  0
 11 12  1  0  0  0
 12 13  1  0  0  0
 13 14  1  0  0  0
 14 15  1  0  0  0
 15 16  1  0  0  0
 16 17  1  0  0  0
 17 18  1  0  0  0
 18 19  1  0  0  0
M  CHG 1  28  -1
M  END
> <minimizedAffinity>
-8.29787

> <CNNscore>
0.9166131616

> <CNNaffinity>
7.1980981827

> <CNN_VS>
6.5978713036

> <CNNaffinity_variance>
0.3558844924

$$$$
/media/chris/experiments/cd1a-new-docking/inputs/ligands/4x6c_ligand.pdb


 37 36  0  0  0  0  0  0  0  0999 V2000
  -41.9264   57.8115   65.8198 O   0  0  0  0  0  0  0  0  0  0  0  0
  -42.6472   58.6763   65.4254 C   0  0  0  0  0  0  0  0  0  0  0  0
  -44.0329   58.4551   64.9133 C   0  0  0  0  0  0  0  0  0  0  0  0
  -44.5949   57.0992   65.2968 C   0  0  0  0  0  0  0  0  0  0  0  0
  -46.0250   57.1713   65.7868 C   0  0  0  0  0  0  0  0  0  0  0  0
  -46.5100   58.5672   66.0997 C   0  0  0  0  0  0  0  0  0  0  0  0
  -47.4150   59.1498   65.0442 C   0  0  0  0  0  0  0  0  0  0  0  0
  -48.3393   58.1215   64.4495 C   0  0  0  0  0  0  0  0  0  0  0  0
  -49.7093   58.0590   65.0571 C   0  0  0  0  0  0  0  0  0  0  0  0
  -50.3574   59.3737   65.1701 C   0  0  0  0  0  0  0  0  0  0  0  0
  -50.8868   60.0996   64.2101 C   0  0  0  0  0  0  0  0  0  0  0  0
  -50.9881   59.7705   62.7659 C   0  0  0  0  0  0  0  0  0  0  0  0
  -49.8212   60.2195   61.9102 C   0  0  0  0  0  0  0  0  0  0  0  0
  -49.7694   59.5154   60.5822 C   0  0  0  0  0  0  0  0  0  0  0  0
  -50.1395   58.0549   60.6292 C   0  0  0  0  0  0  0  0  0  0  0  0
  -49.6162   57.2837   59.4375 C   0  0  0  0  0  0  0  0  0  0  0  0
  -48.4175   56.4210   59.7182 C   0  0  0  0  0  0  0  0  0  0  0  0
  -47.7426   55.9472   58.4937 C   0  0  0  0  0  0  0  0  0  0  0  0
  -47.0111   56.9991   57.7904 C   0  0  0  0  0  0  0  0  0  0  0  0
  -42.3058   59.9640   65.3818 O   0  0  0  0  0  0  0  0  0  0  0  0
  -40.9436   60.3055   65.7220 C   0  0  0  0  0  0  0  0  0  0  0  0
  -40.6194   61.5985   65.0096 C   0  0  0  0  0  0  0  0  0  0  0  0
  -39.3315   62.0580   65.4196 O   0  0  0  0  0  0  0  0  0  0  0  0
  -38.6575   61.4153   65.1483 H   0  0  0  0  0  0  0  0  0  0  0  0
  -40.6388   61.5195   63.5024 C   0  0  0  0  0  0  0  0  0  0  0  0
  -39.9086   60.3449   63.0949 O   0  0  0  0  0  0  0  0  0  0  0  0
  -38.9339   60.4206   61.8405 P   0  0  0  0  0  0  0  0  0  0  0  0
  -39.7737   60.6871   60.6553 O   0  0  0  0  0  0  0  0  0  0  0  0
  -37.8605   61.3718   62.1901 O   0  0  0  0  0  0  0  0  0  0  0  0
  -38.2394   62.2561   62.3130 H   0  0  0  0  0  0  0  0  0  0  0  0
  -38.2571   58.9981   61.6525 O   0  0  0  0  0  0  0  0  0  0  0  0
  -38.2307   58.0647   62.7579 C   0  0  0  0  0  0  0  0  0  0  0  0
  -36.8085   57.5584   62.8382 C   0  0  0  0  0  0  0  0  0  0  0  0
  -36.0286   57.9473   64.0786 N   0  0  0  0  0  0  0  0  0  0  0  0
  -35.8761   56.7847   65.0059 C   0  0  0  0  0  0  0  0  0  0  0  0
  -36.7483   59.0418   64.7991 C   0  0  0  0  0  0  0  0  0  0  0  0
  -34.6670   58.4272   63.6847 C   0  0  0  0  0  0  0  0  0  0  0  0
 34 33  1  0  0  0
 34 35  1  0  0  0
 34 36  1  0  0  0
 34 37  1  0  0  0
 22 23  1  0  0  0
 22 25  1  0  0  0
 22 21  1  0  0  0
 23 24  1  0  0  0
 27 26  1  0  0  0
 27 28  2  0  0  0
 27 31  1  0  0  0
 27 29  1  0  0  0
 25 26  1  0  0  0
 32 33  1  0  0  0
 32 31  1  0  0  0
 29 30  1  0  0  0
 20 21  1  0  0  0
 20  2  1  0  0  0
  1  2  2  0  0  0
  2  3  1  0  0  0
  3  4  1  0  0  0
  4  5  1  0  0  0
  5  6  1  0  0  0
  6  7  1  0  0  0
  7  8  1  0  0  0
  8  9  1  0  0  0
  9 10  1  0  0  0
 10 11  2  0  0  0
 11 12  1  0  0  0
 12 13  1  0  0  0
 13 14  1  0  0  0
 14 15  1  0  0  0
 15 16  1  0  0  0
 16 17  1  0  0  0
 17 18  1  0  0  0
 18 19  1  0  0  0
M  CHG 1  28  -1
M  END
> <minimizedAffinity>
-8.34199

> <CNNscore>
0.8501744270

> <CNNaffinity>
7.0749573708

> <CNN_VS>
6.0149478912

> <CNNaffinity_variance>
0.4283641875

$$$$
/media/chris/experiments/cd1a-new-docking/inputs/ligands/4x6c_ligand.pdb


 37 36  0  0  0  0  0  0  0  0999 V2000
  -43.1400   57.9523   65.3960 O   0  0  0  0  0  0  0  0  0  0  0  0
  -43.7454   58.9181   65.7479 C   0  0  0  0  0  0  0  0  0  0  0  0
  -45.1598   58.9017   66.2279 C   0  0  0  0  0  0  0  0  0  0  0  0
  -46.0831   59.7505   65.3744 C   0  0  0  0  0  0  0  0  0  0  0  0
  -47.0979   58.9295   64.6085 C   0  0  0  0  0  0  0  0  0  0  0  0
  -48.0161   58.1010   65.4758 C   0  0  0  0  0  0  0  0  0  0  0  0
  -49.4698   58.1928   65.0875 C   0  0  0  0  0  0  0  0  0  0  0  0
  -50.0093   59.5925   65.2100 C   0  0  0  0  0  0  0  0  0  0  0  0
  -50.8472   60.0629   64.0581 C   0  0  0  0  0  0  0  0  0  0  0  0
  -50.0801   60.2517   62.8182 C   0  0  0  0  0  0  0  0  0  0  0  0
  -49.9835   59.4327   61.7943 C   0  0  0  0  0  0  0  0  0  0  0  0
  -50.6417   58.1142   61.6138 C   0  0  0  0  0  0  0  0  0  0  0  0
  -50.5148   57.5044   60.2327 C   0  0  0  0  0  0  0  0  0  0  0  0
  -49.7721   56.1966   60.2407 C   0  0  0  0  0  0  0  0  0  0  0  0
  -48.4563   56.2155   59.5057 C   0  0  0  0  0  0  0  0  0  0  0  0
  -48.5208   57.0063   58.2176 C   0  0  0  0  0  0  0  0  0  0  0  0
  -48.3155   56.1978   56.9671 C   0  0  0  0  0  0  0  0  0  0  0  0
  -46.9142   56.1904   56.5030 C   0  0  0  0  0  0  0  0  0  0  0  0
  -46.0805   57.1961   57.1586 C   0  0  0  0  0  0  0  0  0  0  0  0
  -43.2382   60.1507   65.7518 O   0  0  0  0  0  0  0  0  0  0  0  0
  -41.8326   60.2933   66.0550 C   0  0  0  0  0  0  0  0  0  0  0  0
  -41.2770   61.3291   65.1048 C   0  0  0  0  0  0  0  0  0  0  0  0
  -40.1740   61.9957   65.7191 O   0  0  0  0  0  0  0  0  0  0  0  0
  -39.4613   61.3583   65.8823 H   0  0  0  0  0  0  0  0  0  0  0  0
  -40.8242   60.7925   63.7686 C   0  0  0  0  0  0  0  0  0  0  0  0
  -39.5355   61.3601   63.4588 O   0  0  0  0  0  0  0  0  0  0  0  0
  -38.4663   60.4947   62.6606 P   0  0  0  0  0  0  0  0  0  0  0  0
  -38.7978   59.0746   62.8937 O   0  0  0  0  0  0  0  0  0  0  0  0
  -38.4453   61.0108   61.2777 O   0  0  0  0  0  0  0  0  0  0  0  0
  -39.3078   60.8564   60.8618 H   0  0  0  0  0  0  0  0  0  0  0  0
  -37.0357   60.7739   63.2872 O   0  0  0  0  0  0  0  0  0  0  0  0
  -36.5659   59.9648   64.3910 C   0  0  0  0  0  0  0  0  0  0  0  0
  -35.1148   59.6621   64.0941 C   0  0  0  0  0  0  0  0  0  0  0  0
  -34.8050   58.2489   63.6413 N   0  0  0  0  0  0  0  0  0  0  0  0
  -35.3711   57.2424   64.5908 C   0  0  0  0  0  0  0  0  0  0  0  0
  -33.3236   58.0595   63.5717 C   0  0  0  0  0  0  0  0  0  0  0  0
  -35.3970   58.0153   62.2870 C   0  0  0  0  0  0  0  0  0  0  0  0
 34 33  1  0  0  0
 34 35  1  0  0  0
 34 36  1  0  0  0
 34 37  1  0  0  0
 22 23  1  0  0  0
 22 25  1  0  0  0
 22 21  1  0  0  0
 23 24  1  0  0  0
 27 26  1  0  0  0
 27 28  2  0  0  0
 27 31  1  0  0  0
 27 29  1  0  0  0
 25 26  1  0  0  0
 32 33  1  0  0  0
 32 31  1  0  0  0
 29 30  1  0  0  0
 20 21  1  0  0  0
 20  2  1  0  0  0
  1  2  2  0  0  0
  2  3  1  0  0  0
  3  4  1  0  0  0
  4  5  1  0  0  0
  5  6  1  0  0  0
  6  7  1  0  0  0
  7  8  1  0  0  0
  8  9  1  0  0  0
  9 10  1  0  0  0
 10 11  2  0  0  0
 11 12  1  0  0  0
 12 13  1  0  0  0
 13 14  1  0  0  0
 14 15  1  0  0  0
 15 16  1  0  0  0
 16 17  1  0  0  0
 17 18  1  0  0  0
 18 19  1  0  0  0
M  CHG 1  28  -1
M  END
> <minimizedAffinity>
-7.85993

> <CNNscore>
0.8115175962

> <CNNaffinity>
6.7690687180

> <CNN_VS>
5.4932184219

> <CNNaffinity_variance>
0.3104573488

$$$$
/media/chris/experiments/cd1a-new-docking/inputs/ligands/4x6c_ligand.pdb


 37 36  0  0  0  0  0  0  0  0999 V2000
  -40.8678   61.7323   64.2659 O   0  0  0  0  0  0  0  0  0  0  0  0
  -40.5041   61.3137   65.3221 C   0  0  0  0  0  0  0  0  0  0  0  0
  -41.2512   60.3093   66.1370 C   0  0  0  0  0  0  0  0  0  0  0  0
  -41.9025   59.2302   65.2928 C   0  0  0  0  0  0  0  0  0  0  0  0
  -43.3599   59.0117   65.6376 C   0  0  0  0  0  0  0  0  0  0  0  0
  -43.8153   57.5741   65.5504 C   0  0  0  0  0  0  0  0  0  0  0  0
  -45.1180   57.3901   64.8145 C   0  0  0  0  0  0  0  0  0  0  0  0
  -46.3135   57.6640   65.6868 C   0  0  0  0  0  0  0  0  0  0  0  0
  -47.6435   57.5964   64.9964 C   0  0  0  0  0  0  0  0  0  0  0  0
  -47.9975   58.8365   64.2907 C   0  0  0  0  0  0  0  0  0  0  0  0
  -48.9953   59.0367   63.4582 C   0  0  0  0  0  0  0  0  0  0  0  0
  -50.0374   58.0690   63.0317 C   0  0  0  0  0  0  0  0  0  0  0  0
  -50.7627   58.4142   61.7471 C   0  0  0  0  0  0  0  0  0  0  0  0
  -50.9522   57.2231   60.8484 C   0  0  0  0  0  0  0  0  0  0  0  0
  -49.6781   56.6601   60.2725 C   0  0  0  0  0  0  0  0  0  0  0  0
  -49.4358   57.1083   58.8481 C   0  0  0  0  0  0  0  0  0  0  0  0
  -47.9987   57.0722   58.4085 C   0  0  0  0  0  0  0  0  0  0  0  0
  -47.4855   55.7023   58.2105 C   0  0  0  0  0  0  0  0  0  0  0  0
  -47.5826   55.2406   56.8272 C   0  0  0  0  0  0  0  0  0  0  0  0
  -39.3776   61.6959   65.9233 O   0  0  0  0  0  0  0  0  0  0  0  0
  -38.1452   61.0820   65.4848 C   0  0  0  0  0  0  0  0  0  0  0  0
  -37.3296   62.1592   64.8074 C   0  0  0  0  0  0  0  0  0  0  0  0
  -35.9984   62.1434   65.3228 O   0  0  0  0  0  0  0  0  0  0  0  0
  -35.5770   61.2975   65.1039 H   0  0  0  0  0  0  0  0  0  0  0  0
  -37.2586   62.0559   63.3032 C   0  0  0  0  0  0  0  0  0  0  0  0
  -37.1016   60.6680   62.9454 O   0  0  0  0  0  0  0  0  0  0  0  0
  -38.1834   59.9690   62.0125 P   0  0  0  0  0  0  0  0  0  0  0  0
  -39.1782   61.0005   61.6553 O   0  0  0  0  0  0  0  0  0  0  0  0
  -37.4408   59.2828   60.9370 O   0  0  0  0  0  0  0  0  0  0  0  0
  -36.9758   59.9394   60.3952 H   0  0  0  0  0  0  0  0  0  0  0  0
  -38.9205   58.8497   62.8615 O   0  0  0  0  0  0  0  0  0  0  0  0
  -38.2625   57.5841   63.1044 C   0  0  0  0  0  0  0  0  0  0  0  0
  -37.5930   57.7178   64.4533 C   0  0  0  0  0  0  0  0  0  0  0  0
  -36.0998   57.4589   64.4879 N   0  0  0  0  0  0  0  0  0  0  0  0
  -35.7703   56.3262   65.4063 C   0  0  0  0  0  0  0  0  0  0  0  0
  -35.3905   58.6845   64.9675 C   0  0  0  0  0  0  0  0  0  0  0  0
  -35.6185   57.1158   63.1131 C   0  0  0  0  0  0  0  0  0  0  0  0
 34 33  1  0  0  0
 34 35  1  0  0  0
 34 36  1  0  0  0
 34 37  1  0  0  0
 22 23  1  0  0  0
 22 25  1  0  0  0
 22 21  1  0  0  0
 23 24  1  0  0  0
 27 26  1  0  0  0
 27 28  2  0  0  0
 27 31  1  0  0  0
 27 29  1  0  0  0
 25 26  1  0  0  0
 32 33  1  0  0  0
 32 31  1  0  0  0
 29 30  1  0  0  0
 20 21  1  0  0  0
 20  2  1  0  0  0
  1  2  2  0  0  0
  2  3  1  0  0  0
  3  4  1  0  0  0
  4  5  1  0  0  0
  5  6  1  0  0  0
  6  7  1  0  0  0
  7  8  1  0  0  0
  8  9  1  0  0  0
  9 10  1  0  0  0
 10 11  2  0  0  0
 11 12  1  0  0  0
 12 13  1  0  0  0
 13 14  1  0  0  0
 14 15  1  0  0  0
 15 16  1  0  0  0
 16 17  1  0  0  0
 17 18  1  0  0  0
 18 19  1  0  0  0
M  CHG 1  28  -1
M  END
> <minimizedAffinity>
-7.78492

> <CNNscore>
0.7343345284

> <CNNaffinity>
6.7681794167

> <CNN_VS>
4.9701080322

> <CNNaffinity_variance>
0.7216111422

$$$$
/media/chris/experiments/cd1a-new-docking/inputs/ligands/4x6c_ligand.pdb


 37 36  0  0  0  0  0  0  0  0999 V2000
  -40.2730   60.5695   66.0982 O   0  0  0  0  0  0  0  0  0  0  0  0
  -40.6865   59.5216   65.7058 C   0  0  0  0  0  0  0  0  0  0  0  0
  -41.9976   58.9267   66.1035 C   0  0  0  0  0  0  0  0  0  0  0  0
  -43.1774   59.8193   65.7678 C   0  0  0  0  0  0  0  0  0  0  0  0
  -44.2558   59.1010   64.9857 C   0  0  0  0  0  0  0  0  0  0  0  0
  -45.4063   58.5960   65.8241 C   0  0  0  0  0  0  0  0  0  0  0  0
  -46.6462   58.2754   65.0291 C   0  0  0  0  0  0  0  0  0  0  0  0
  -47.9063   58.6970   65.7359 C   0  0  0  0  0  0  0  0  0  0  0  0
  -48.1148   60.1780   65.8521 C   0  0  0  0  0  0  0  0  0  0  0  0
  -48.2479   60.8516   64.5523 C   0  0  0  0  0  0  0  0  0  0  0  0
  -49.2832   60.8480   63.7417 C   0  0  0  0  0  0  0  0  0  0  0  0
  -50.5952   60.1814   63.9386 C   0  0  0  0  0  0  0  0  0  0  0  0
  -51.1769   59.5092   62.7117 C   0  0  0  0  0  0  0  0  0  0  0  0
  -50.3552   58.3390   62.2454 C   0  0  0  0  0  0  0  0  0  0  0  0
  -50.8797   57.6544   61.0092 C   0  0  0  0  0  0  0  0  0  0  0  0
  -49.8256   56.8204   60.3148 C   0  0  0  0  0  0  0  0  0  0  0  0
  -49.6718   57.0906   58.8440 C   0  0  0  0  0  0  0  0  0  0  0  0
  -48.2919   56.8935   58.3579 C   0  0  0  0  0  0  0  0  0  0  0  0
  -47.4092   56.2821   59.3494 C   0  0  0  0  0  0  0  0  0  0  0  0
  -40.0241   58.7329   64.8598 O   0  0  0  0  0  0  0  0  0  0  0  0
  -39.0425   59.3522   63.9989 C   0  0  0  0  0  0  0  0  0  0  0  0
  -37.6908   58.8148   64.4094 C   0  0  0  0  0  0  0  0  0  0  0  0
  -36.8911   58.5990   63.2467 O   0  0  0  0  0  0  0  0  0  0  0  0
  -36.7298   59.4466   62.8034 H   0  0  0  0  0  0  0  0  0  0  0  0
  -36.9170   59.6930   65.3626 C   0  0  0  0  0  0  0  0  0  0  0  0
  -36.2606   60.7279   64.6032 O   0  0  0  0  0  0  0  0  0  0  0  0
  -36.4417   62.2499   65.0275 P   0  0  0  0  0  0  0  0  0  0  0  0
  -36.1834   63.0681   63.8254 O   0  0  0  0  0  0  0  0  0  0  0  0
  -37.7518   62.3531   65.6998 O   0  0  0  0  0  0  0  0  0  0  0  0
  -38.4572   62.1455   65.0673 H   0  0  0  0  0  0  0  0  0  0  0  0
  -35.3321   62.5988   66.1063 O   0  0  0  0  0  0  0  0  0  0  0  0
  -34.7917   63.9395   66.1716 C   0  0  0  0  0  0  0  0  0  0  0  0
  -33.2908   63.7859   66.0757 C   0  0  0  0  0  0  0  0  0  0  0  0
  -32.6490   64.2714   64.7910 N   0  0  0  0  0  0  0  0  0  0  0  0
  -31.2631   64.7747   65.0375 C   0  0  0  0  0  0  0  0  0  0  0  0
  -33.4652   65.3828   64.2131 C   0  0  0  0  0  0  0  0  0  0  0  0
  -32.5814   63.1453   63.8078 C   0  0  0  0  0  0  0  0  0  0  0  0
 34 33  1  0  0  0
 34 35  1  0  0  0
 34 36  1  0  0  0
 34 37  1  0  0  0
 22 23  1  0  0  0
 22 25  1  0  0  0
 22 21  1  0  0  0
 23 24  1  0  0  0
 27 26  1  0  0  0
 27 28  2  0  0  0
 27 31  1  0  0  0
 27 29  1  0  0  0
 25 26  1  0  0  0
 32 33  1  0  0  0
 32 31  1  0  0  0
 29 30  1  0  0  0
 20 21  1  0  0  0
 20  2  1  0  0  0
  1  2  2  0  0  0
  2  3  1  0  0  0
  3  4  1  0  0  0
  4  5  1  0  0  0
  5  6  1  0  0  0
  6  7  1  0  0  0
  7  8  1  0  0  0
  8  9  1  0  0  0
  9 10  1  0  0  0
 10 11  2  0  0  0
 11 12  1  0  0  0
 12 13  1  0  0  0
 13 14  1  0  0  0
 14 15  1  0  0  0
 15 16  1  0  0  0
 16 17  1  0  0  0
 17 18  1  0  0  0
 18 19  1  0  0  0
M  CHG 1  28  -1
M  END
> <minimizedAffinity>
-7.77999

> <CNNscore>
0.7111945152

> <CNNaffinity>
6.1981534958

> <CNN_VS>
4.4080929756

> <CNNaffinity_variance>
0.4208222330

$$$$
/media/chris/experiments/cd1a-new-docking/inputs/ligands/4x6c_ligand.pdb


 37 36  0  0  0  0  0  0  0  0999 V2000
  -41.3275   60.9899   65.5023 O   0  0  0  0  0  0  0  0  0  0  0  0
  -42.1898   60.5606   64.7985 C   0  0  0  0  0  0  0  0  0  0  0  0
  -43.5120   60.0657   65.2862 C   0  0  0  0  0  0  0  0  0  0  0  0
  -43.8558   58.6843   64.7617 C   0  0  0  0  0  0  0  0  0  0  0  0
  -45.2468   58.2347   65.1534 C   0  0  0  0  0  0  0  0  0  0  0  0
  -46.2156   59.3612   65.4255 C   0  0  0  0  0  0  0  0  0  0  0  0
  -47.5392   59.2116   64.7198 C   0  0  0  0  0  0  0  0  0  0  0  0
  -48.2821   57.9751   65.1493 C   0  0  0  0  0  0  0  0  0  0  0  0
  -49.7705   58.0227   64.9689 C   0  0  0  0  0  0  0  0  0  0  0  0
  -50.3512   59.3410   65.2619 C   0  0  0  0  0  0  0  0  0  0  0  0
  -50.9335   60.1722   64.4260 C   0  0  0  0  0  0  0  0  0  0  0  0
  -51.1763   59.9860   62.9732 C   0  0  0  0  0  0  0  0  0  0  0  0
  -49.9974   60.2862   62.0701 C   0  0  0  0  0  0  0  0  0  0  0  0
  -49.7261   59.1847   61.0828 C   0  0  0  0  0  0  0  0  0  0  0  0
  -50.4412   57.8897   61.3721 C   0  0  0  0  0  0  0  0  0  0  0  0
  -50.1914   56.8382   60.3136 C   0  0  0  0  0  0  0  0  0  0  0  0
  -48.7749   56.7649   59.8156 C   0  0  0  0  0  0  0  0  0  0  0  0
  -48.6577   56.9881   58.3610 C   0  0  0  0  0  0  0  0  0  0  0  0
  -47.3033   56.7854   57.8502 C   0  0  0  0  0  0  0  0  0  0  0  0
  -42.0835   60.4576   63.4739 O   0  0  0  0  0  0  0  0  0  0  0  0
  -41.3216   61.4735   62.7842 C   0  0  0  0  0  0  0  0  0  0  0  0
  -40.3279   60.7576   61.8985 C   0  0  0  0  0  0  0  0  0  0  0  0
  -40.5212   61.1613   60.5429 O   0  0  0  0  0  0  0  0  0  0  0  0
  -40.3354   62.1096   60.4583 H   0  0  0  0  0  0  0  0  0  0  0  0
  -38.8783   60.9765   62.2579 C   0  0  0  0  0  0  0  0  0  0  0  0
  -38.8185   61.7507   63.4727 O   0  0  0  0  0  0  0  0  0  0  0  0
  -37.7274   61.4006   64.5756 P   0  0  0  0  0  0  0  0  0  0  0  0
  -36.6046   62.3413   64.3875 O   0  0  0  0  0  0  0  0  0  0  0  0
  -38.4280   61.3673   65.8744 O   0  0  0  0  0  0  0  0  0  0  0  0
  -38.7705   62.2512   66.0799 H   0  0  0  0  0  0  0  0  0  0  0  0
  -37.1914   59.9342   64.2940 O   0  0  0  0  0  0  0  0  0  0  0  0
  -36.0936   59.4092   65.0770 C   0  0  0  0  0  0  0  0  0  0  0  0
  -35.2761   58.5625   64.1282 C   0  0  0  0  0  0  0  0  0  0  0  0
  -33.8051   58.9117   64.0175 N   0  0  0  0  0  0  0  0  0  0  0  0
  -33.0184   58.2887   65.1256 C   0  0  0  0  0  0  0  0  0  0  0  0
  -33.6367   60.3956   64.0877 C   0  0  0  0  0  0  0  0  0  0  0  0
  -33.2688   58.4150   62.7117 C   0  0  0  0  0  0  0  0  0  0  0  0
 34 33  1  0  0  0
 34 35  1  0  0  0
 34 36  1  0  0  0
 34 37  1  0  0  0
 22 23  1  0  0  0
 22 25  1  0  0  0
 22 21  1  0  0  0
 23 24  1  0  0  0
 27 26  1  0  0  0
 27 28  2  0  0  0
 27 31  1  0  0  0
 27 29  1  0  0  0
 25 26  1  0  0  0
 32 33  1  0  0  0
 32 31  1  0  0  0
 29 30  1  0  0  0
 20 21  1  0  0  0
 20  2  1  0  0  0
  1  2  2  0  0  0
  2  3  1  0  0  0
  3  4  1  0  0  0
  4  5  1  0  0  0
  5  6  1  0  0  0
  6  7  1  0  0  0
  7  8  1  0  0  0
  8  9  1  0  0  0
  9 10  1  0  0  0
 10 11  2  0  0  0
 11 12  1  0  0  0
 12 13  1  0  0  0
 13 14  1  0  0  0
 14 15  1  0  0  0
 15 16  1  0  0  0
 16 17  1  0  0  0
 17 18  1  0  0  0
 18 19  1  0  0  0
M  CHG 1  28  -1
M  END
> <minimizedAffinity>
-7.98373

> <CNNscore>
0.6864869595

> <CNNaffinity>
6.4862403870

> <CNN_VS>
4.4527192116

> <CNNaffinity_variance>
0.2740403116

$$$$
/media/chris/experiments/cd1a-new-docking/inputs/ligands/4x6c_ligand.pdb


 37 36  0  0  0  0  0  0  0  0999 V2000
  -45.6546   60.4108   65.0382 O   0  0  0  0  0  0  0  0  0  0  0  0
  -45.0939   59.3975   65.3242 C   0  0  0  0  0  0  0  0  0  0  0  0
  -45.5798   58.4204   66.3442 C   0  0  0  0  0  0  0  0  0  0  0  0
  -47.0929   58.3243   66.3965 C   0  0  0  0  0  0  0  0  0  0  0  0
  -47.6480   57.2612   65.4734 C   0  0  0  0  0  0  0  0  0  0  0  0
  -48.8587   57.6916   64.6792 C   0  0  0  0  0  0  0  0  0  0  0  0
  -49.8499   58.5058   65.4709 C   0  0  0  0  0  0  0  0  0  0  0  0
  -50.0094   59.9010   64.9291 C   0  0  0  0  0  0  0  0  0  0  0  0
  -51.0993   60.0768   63.9136 C   0  0  0  0  0  0  0  0  0  0  0  0
  -50.5957   60.2787   62.5473 C   0  0  0  0  0  0  0  0  0  0  0  0
  -50.3181   59.3643   61.6443 C   0  0  0  0  0  0  0  0  0  0  0  0
  -50.4622   57.8913   61.7615 C   0  0  0  0  0  0  0  0  0  0  0  0
  -50.9630   57.1830   60.5193 C   0  0  0  0  0  0  0  0  0  0  0  0
  -49.8869   56.3925   59.8271 C   0  0  0  0  0  0  0  0  0  0  0  0
  -48.4879   56.9103   60.0431 C   0  0  0  0  0  0  0  0  0  0  0  0
  -47.4473   56.1013   59.3006 C   0  0  0  0  0  0  0  0  0  0  0  0
  -47.9219   55.4887   58.0125 C   0  0  0  0  0  0  0  0  0  0  0  0
  -47.8288   56.4090   56.8620 C   0  0  0  0  0  0  0  0  0  0  0  0
  -46.4630   56.8434   56.5754 C   0  0  0  0  0  0  0  0  0  0  0  0
  -43.9462   59.0038   64.7726 O   0  0  0  0  0  0  0  0  0  0  0  0
  -42.8495   59.9448   64.7695 C   0  0  0  0  0  0  0  0  0  0  0  0
  -42.2736   59.9591   66.1668 C   0  0  0  0  0  0  0  0  0  0  0  0
  -41.8216   58.6489   66.5089 O   0  0  0  0  0  0  0  0  0  0  0  0
  -41.1003   58.3902   65.9142 H   0  0  0  0  0  0  0  0  0  0  0  0
  -41.1336   60.9258   66.3779 C   0  0  0  0  0  0  0  0  0  0  0  0
  -39.9311   60.3424   65.8371 O   0  0  0  0  0  0  0  0  0  0  0  0
  -39.0442   61.1758   64.8133 P   0  0  0  0  0  0  0  0  0  0  0  0
  -39.8924   61.4614   63.6386 O   0  0  0  0  0  0  0  0  0  0  0  0
  -38.4614   62.3011   65.5704 O   0  0  0  0  0  0  0  0  0  0  0  0
  -39.1713   62.8863   65.8777 H   0  0  0  0  0  0  0  0  0  0  0  0
  -37.8411   60.2572   64.3382 O   0  0  0  0  0  0  0  0  0  0  0  0
  -36.6888   60.8571   63.7010 C   0  0  0  0  0  0  0  0  0  0  0  0
  -35.5940   60.8600   64.7435 C   0  0  0  0  0  0  0  0  0  0  0  0
  -34.7583   62.1215   64.8329 N   0  0  0  0  0  0  0  0  0  0  0  0
  -34.4970   62.4952   66.2566 C   0  0  0  0  0  0  0  0  0  0  0  0
  -35.4814   63.2487   64.1682 C   0  0  0  0  0  0  0  0  0  0  0  0
  -33.4463   61.9034   64.1468 C   0  0  0  0  0  0  0  0  0  0  0  0
 34 33  1  0  0  0
 34 35  1  0  0  0
 34 36  1  0  0  0
 34 37  1  0  0  0
 22 23  1  0  0  0
 22 25  1  0  0  0
 22 21  1  0  0  0
 23 24  1  0  0  0
 27 26  1  0  0  0
 27 28  2  0  0  0
 27 31  1  0  0  0
 27 29  1  0  0  0
 25 26  1  0  0  0
 32 33  1  0  0  0
 32 31  1  0  0  0
 29 30  1  0  0  0
 20 21  1  0  0  0
 20  2  1  0  0  0
  1  2  2  0  0  0
  2  3  1  0  0  0
  3  4  1  0  0  0
  4  5  1  0  0  0
  5  6  1  0  0  0
  6  7  1  0  0  0
  7  8  1  0  0  0
  8  9  1  0  0  0
  9 10  1  0  0  0
 10 11  2  0  0  0
 11 12  1  0  0  0
 12 13  1  0  0  0
 13 14  1  0  0  0
 14 15  1  0  0  0
 15 16  1  0  0  0
 16 17  1  0  0  0
 17 18  1  0  0  0
 18 19  1  0  0  0
M  CHG 1  28  -1
M  END
> <minimizedAffinity>
-7.68818

> <CNNscore>
0.6566429734

> <CNNaffinity>
6.4095802307

> <CNN_VS>
4.2088060379

> <CNNaffinity_variance>
0.3323016167

$$$$
/media/chris/experiments/cd1a-new-docking/inputs/ligands/4x6c_ligand.pdb


 37 36  0  0  0  0  0  0  0  0999 V2000
  -43.4100   57.6757   65.2084 O   0  0  0  0  0  0  0  0  0  0  0  0
  -43.9791   58.7085   65.3885 C   0  0  0  0  0  0  0  0  0  0  0  0
  -45.4275   58.8277   65.7333 C   0  0  0  0  0  0  0  0  0  0  0  0
  -46.0333   60.1467   65.2918 C   0  0  0  0  0  0  0  0  0  0  0  0
  -47.4931   60.0265   64.9110 C   0  0  0  0  0  0  0  0  0  0  0  0
  -48.2801   59.0465   65.7489 C   0  0  0  0  0  0  0  0  0  0  0  0
  -49.7107   58.8757   65.3055 C   0  0  0  0  0  0  0  0  0  0  0  0
  -50.3513   60.1814   64.9180 C   0  0  0  0  0  0  0  0  0  0  0  0
  -51.0805   60.1769   63.6072 C   0  0  0  0  0  0  0  0  0  0  0  0
  -50.1874   60.0777   62.4437 C   0  0  0  0  0  0  0  0  0  0  0  0
  -49.9120   59.0123   61.7241 C   0  0  0  0  0  0  0  0  0  0  0  0
  -50.4486   57.6373   61.8852 C   0  0  0  0  0  0  0  0  0  0  0  0
  -50.7071   56.8820   60.5975 C   0  0  0  0  0  0  0  0  0  0  0  0
  -50.3699   57.6878   59.3732 C   0  0  0  0  0  0  0  0  0  0  0  0
  -49.1877   57.1775   58.5896 C   0  0  0  0  0  0  0  0  0  0  0  0
  -48.5239   55.9877   59.2471 C   0  0  0  0  0  0  0  0  0  0  0  0
  -47.1413   55.6767   58.7457 C   0  0  0  0  0  0  0  0  0  0  0  0
  -46.9498   56.0142   57.3214 C   0  0  0  0  0  0  0  0  0  0  0  0
  -46.0254   57.1261   57.1078 C   0  0  0  0  0  0  0  0  0  0  0  0
  -43.3946   59.9030   65.2972 O   0  0  0  0  0  0  0  0  0  0  0  0
  -42.2988   60.1806   66.1972 C   0  0  0  0  0  0  0  0  0  0  0  0
  -41.2694   60.9629   65.4144 C   0  0  0  0  0  0  0  0  0  0  0  0
  -41.1643   62.2816   65.9512 O   0  0  0  0  0  0  0  0  0  0  0  0
  -40.8409   62.2340   66.8645 H   0  0  0  0  0  0  0  0  0  0  0  0
  -39.8900   60.3507   65.3831 C   0  0  0  0  0  0  0  0  0  0  0  0
  -38.9655   61.3286   64.8657 O   0  0  0  0  0  0  0  0  0  0  0  0
  -37.4175   61.2066   65.2097 P   0  0  0  0  0  0  0  0  0  0  0  0
  -37.3130   61.0042   66.6689 O   0  0  0  0  0  0  0  0  0  0  0  0
  -36.8566   60.1881   64.3003 O   0  0  0  0  0  0  0  0  0  0  0  0
  -37.2615   59.3273   64.4896 H   0  0  0  0  0  0  0  0  0  0  0  0
  -36.7209   62.5871   64.8546 O   0  0  0  0  0  0  0  0  0  0  0  0
  -35.7050   63.1247   65.7335 C   0  0  0  0  0  0  0  0  0  0  0  0
  -34.9102   64.1026   64.8982 C   0  0  0  0  0  0  0  0  0  0  0  0
  -33.4164   64.1406   65.1528 N   0  0  0  0  0  0  0  0  0  0  0  0
  -32.6731   63.3581   64.1183 C   0  0  0  0  0  0  0  0  0  0  0  0
  -33.1230   63.5551   66.4968 C   0  0  0  0  0  0  0  0  0  0  0  0
  -32.9375   65.5580   65.1163 C   0  0  0  0  0  0  0  0  0  0  0  0
 34 33  1  0  0  0
 34 35  1  0  0  0
 34 36  1  0  0  0
 34 37  1  0  0  0
 22 23  1  0  0  0
 22 25  1  0  0  0
 22 21  1  0  0  0
 23 24  1  0  0  0
 27 26  1  0  0  0
 27 28  2  0  0  0
 27 31  1  0  0  0
 27 29  1  0  0  0
 25 26  1  0  0  0
 32 33  1  0  0  0
 32 31  1  0  0  0
 29 30  1  0  0  0
 20 21  1  0  0  0
 20  2  1  0  0  0
  1  2  2  0  0  0
  2  3  1  0  0  0
  3  4  1  0  0  0
  4  5  1  0  0  0
  5  6  1  0  0  0
  6  7  1  0  0  0
  7  8  1  0  0  0
  8  9  1  0  0  0
  9 10  1  0  0  0
 10 11  2  0  0  0
 11 12  1  0  0  0
 12 13  1  0  0  0
 13 14  1  0  0  0
 14 15  1  0  0  0
 15 16  1  0  0  0
 16 17  1  0  0  0
 17 18  1  0  0  0
 18 19  1  0  0  0
M  CHG 1  28  -1
M  END
> <minimizedAffinity>
-7.62408

> <CNNscore>
0.6345448494

> <CNNaffinity>
6.1672224998

> <CNN_VS>
3.9133791924

> <CNNaffinity_variance>
0.2420130074

$$$$
/media/chris/experiments/cd1a-new-docking/inputs/ligands/4x6c_ligand.pdb


 37 36  0  0  0  0  0  0  0  0999 V2000
  -44.2742   60.2247   65.6892 O   0  0  0  0  0  0  0  0  0  0  0  0
  -43.3733   59.5158   65.3593 C   0  0  0  0  0  0  0  0  0  0  0  0
  -43.4666   58.0300   65.2375 C   0  0  0  0  0  0  0  0  0  0  0  0
  -44.7092   57.4602   65.8954 C   0  0  0  0  0  0  0  0  0  0  0  0
  -45.8117   57.1527   64.9053 C   0  0  0  0  0  0  0  0  0  0  0  0
  -46.8000   58.2764   64.6996 C   0  0  0  0  0  0  0  0  0  0  0  0
  -47.9003   58.3175   65.7292 C   0  0  0  0  0  0  0  0  0  0  0  0
  -48.7878   59.5230   65.5730 C   0  0  0  0  0  0  0  0  0  0  0  0
  -50.2419   59.2279   65.3527 C   0  0  0  0  0  0  0  0  0  0  0  0
  -50.8764   60.1229   64.3741 C   0  0  0  0  0  0  0  0  0  0  0  0
  -50.5179   60.3436   63.1285 C   0  0  0  0  0  0  0  0  0  0  0  0
  -49.3928   59.7297   62.3792 C   0  0  0  0  0  0  0  0  0  0  0  0
  -49.4955   58.2348   62.1557 C   0  0  0  0  0  0  0  0  0  0  0  0
  -50.8076   57.8272   61.5439 C   0  0  0  0  0  0  0  0  0  0  0  0
  -50.6873   56.9937   60.2938 C   0  0  0  0  0  0  0  0  0  0  0  0
  -49.6594   57.5397   59.3273 C   0  0  0  0  0  0  0  0  0  0  0  0
  -48.6245   56.5472   58.8759 C   0  0  0  0  0  0  0  0  0  0  0  0
  -47.9085   56.9683   57.6556 C   0  0  0  0  0  0  0  0  0  0  0  0
  -47.9100   55.9544   56.6029 C   0  0  0  0  0  0  0  0  0  0  0  0
  -42.1521   59.9586   65.0609 O   0  0  0  0  0  0  0  0  0  0  0  0
  -41.0275   59.1734   65.5157 C   0  0  0  0  0  0  0  0  0  0  0  0
  -40.0222   59.1438   64.3875 C   0  0  0  0  0  0  0  0  0  0  0  0
  -40.2408   60.2606   63.5255 O   0  0  0  0  0  0  0  0  0  0  0  0
  -40.0837   61.0828   64.0156 H   0  0  0  0  0  0  0  0  0  0  0  0
  -38.5761   59.1528   64.8201 C   0  0  0  0  0  0  0  0  0  0  0  0
  -38.3123   60.3887   65.5142 O   0  0  0  0  0  0  0  0  0  0  0  0
  -37.1338   61.3339   65.0170 P   0  0  0  0  0  0  0  0  0  0  0  0
  -37.3224   61.5341   63.5660 O   0  0  0  0  0  0  0  0  0  0  0  0
  -37.1231   62.5093   65.9100 O   0  0  0  0  0  0  0  0  0  0  0  0
  -37.9512   63.0032   65.8044 H   0  0  0  0  0  0  0  0  0  0  0  0
  -35.7608   60.5687   65.2324 O   0  0  0  0  0  0  0  0  0  0  0  0
  -34.5754   61.3123   65.6005 C   0  0  0  0  0  0  0  0  0  0  0  0
  -33.9499   61.7642   64.3005 C   0  0  0  0  0  0  0  0  0  0  0  0
  -33.6707   63.2487   64.1725 N   0  0  0  0  0  0  0  0  0  0  0  0
  -34.6534   63.9050   63.2569 C   0  0  0  0  0  0  0  0  0  0  0  0
  -32.2954   63.4534   63.6231 C   0  0  0  0  0  0  0  0  0  0  0  0
  -33.7659   63.8946   65.5191 C   0  0  0  0  0  0  0  0  0  0  0  0
 34 33  1  0  0  0
 34 35  1  0  0  0
 34 36  1  0  0  0
 34 37  1  0  0  0
 22 23  1  0  0  0
 22 25  1  0  0  0
 22 21  1  0  0  0
 23 24  1  0  0  0
 27 26  1  0  0  0
 27 28  2  0  0  0
 27 31  1  0  0  0
 27 29  1  0  0  0
 25 26  1  0  0  0
 32 33  1  0  0  0
 32 31  1  0  0  0
 29 30  1  0  0  0
 20 21  1  0  0  0
 20  2  1  0  0  0
  1  2  2  0  0  0
  2  3  1  0  0  0
  3  4  1  0  0  0
  4  5  1  0  0  0
  5  6  1  0  0  0
  6  7  1  0  0  0
  7  8  1  0  0  0
  8  9  1  0  0  0
  9 10  1  0  0  0
 10 11  2  0  0  0
 11 12  1  0  0  0
 12 13  1  0  0  0
 13 14  1  0  0  0
 14 15  1  0  0  0
 15 16  1  0  0  0
 16 17  1  0  0  0
 17 18  1  0  0  0
 18 19  1  0  0  0
M  CHG 1  28  -1
M  END
> <minimizedAffinity>
-7.41642

> <CNNscore>
0.6272318363

> <CNNaffinity>
6.2807898521

> <CNN_VS>
3.9395112991

> <CNNaffinity_variance>
0.2276035845

$$$$
