/media/chris/experiments/cd1a-new-docking/inputs/ligands/4x6c_ligand.pdb


 37 36  0  0  0  0  0  0  0  0999 V2000
  -42.1779   57.9931   66.0620 O   0  0  0  0  0  0  0  0  0  0  0  0
  -42.8812   58.9032   65.7458 C   0  0  0  0  0  0  0  0  0  0  0  0
  -44.0321   58.7945   64.7998 C   0  0  0  0  0  0  0  0  0  0  0  0
  -44.6907   57.4281   64.8253 C   0  0  0  0  0  0  0  0  0  0  0  0
  -45.9067   57.3769   65.7248 C   0  0  0  0  0  0  0  0  0  0  0  0
  -46.4599   58.7294   66.1075 C   0  0  0  0  0  0  0  0  0  0  0  0
  -47.5848   59.2015   65.2222 C   0  0  0  0  0  0  0  0  0  0  0  0
  -48.3371   58.0603   64.5920 C   0  0  0  0  0  0  0  0  0  0  0  0
  -49.7969   57.9869   64.9294 C   0  0  0  0  0  0  0  0  0  0  0  0
  -50.3935   59.2978   65.2239 C   0  0  0  0  0  0  0  0  0  0  0  0
  -50.9121   60.1590   64.3766 C   0  0  0  0  0  0  0  0  0  0  0  0
  -51.0509   60.0221   62.9047 C   0  0  0  0  0  0  0  0  0  0  0  0
  -49.8473   60.4539   62.0922 C   0  0  0  0  0  0  0  0  0  0  0  0
  -49.6484   59.6170   60.8584 C   0  0  0  0  0  0  0  0  0  0  0  0
  -49.6902   58.1288   61.0938 C   0  0  0  0  0  0  0  0  0  0  0  0
  -50.2811   57.3715   59.9250 C   0  0  0  0  0  0  0  0  0  0  0  0
  -49.2892   56.9501   58.8769 C   0  0  0  0  0  0  0  0  0  0  0  0
  -48.0348   56.4175   59.4443 C   0  0  0  0  0  0  0  0  0  0  0  0
  -47.0055   56.1621   58.4385 C   0  0  0  0  0  0  0  0  0  0  0  0
  -42.7270   60.1497   66.1924 O   0  0  0  0  0  0  0  0  0  0  0  0
  -41.4736   60.4796   66.8313 C   0  0  0  0  0  0  0  0  0  0  0  0
  -40.5758   61.0699   65.7683 C   0  0  0  0  0  0  0  0  0  0  0  0
  -40.5876   62.4936   65.8722 O   0  0  0  0  0  0  0  0  0  0  0  0
  -40.2154   62.7585   66.7279 H   0  0  0  0  0  0  0  0  0  0  0  0
  -39.1415   60.6016   65.8114 C   0  0  0  0  0  0  0  0  0  0  0  0
  -38.4885   61.0106   64.5926 O   0  0  0  0  0  0  0  0  0  0  0  0
  -37.0374   61.6582   64.6571 P   0  0  0  0  0  0  0  0  0  0  0  0
  -36.8022   62.3234   63.3598 O   0  0  0  0  0  0  0  0  0  0  0  0
  -36.9811   62.4583   65.8964 O   0  0  0  0  0  0  0  0  0  0  0  0
  -37.6187   63.1871   65.8399 H   0  0  0  0  0  0  0  0  0  0  0  0
  -35.9782   60.4865   64.8068 O   0  0  0  0  0  0  0  0  0  0  0  0
  -36.3817   59.1191   64.5601 C   0  0  0  0  0  0  0  0  0  0  0  0
  -36.2399   58.9081   63.0697 C   0  0  0  0  0  0  0  0  0  0  0  0
  -37.4127   58.2474   62.3728 N   0  0  0  0  0  0  0  0  0  0  0  0
  -38.4301   57.7744   63.3607 C   0  0  0  0  0  0  0  0  0  0  0  0
  -36.9292   57.0722   61.5852 C   0  0  0  0  0  0  0  0  0  0  0  0
  -38.0633   59.2277   61.4480 C   0  0  0  0  0  0  0  0  0  0  0  0
 34 33  1  0  0  0
 34 35  1  0  0  0
 34 36  1  0  0  0
 34 37  1  0  0  0
 22 23  1  0  0  0
 22 25  1  0  0  0
 22 21  1  0  0  0
 23 24  1  0  0  0
 27 26  1  0  0  0
 27 28  2  0  0  0
 27 31  1  0  0  0
 27 29  1  0  0  0
 25 26  1  0  0  0
 32 33  1  0  0  0
 32 31  1  0  0  0
 29 30  1  0  0  0
 20 21  1  0  0  0
 20  2  1  0  0  0
  1  2  2  0  0  0
  2  3  1  0  0  0
  3  4  1  0  0  0
  4  5  1  0  0  0
  5  6  1  0  0  0
  6  7  1  0  0  0
  7  8  1  0  0  0
  8  9  1  0  0  0
  9 10  1  0  0  0
 10 11  2  0  0  0
 11 12  1  0  0  0
 12 13  1  0  0  0
 13 14  1  0  0  0
 14 15  1  0  0  0
 15 16  1  0  0  0
 16 17  1  0  0  0
 17 18  1  0  0  0
 18 19  1  0  0  0
M  CHG 1  28  -1
M  END
> <minimizedAffinity>
-8.23980

> <CNNscore>
0.8178651929

> <CNNaffinity>
6.9860610962

> <CNN_VS>
5.7136564255

> <CNNaffinity_variance>
0.2711264491

$$$$
/media/chris/experiments/cd1a-new-docking/inputs/ligands/4x6c_ligand.pdb


 37 36  0  0  0  0  0  0  0  0999 V2000
  -40.7476   60.8441   65.8549 O   0  0  0  0  0  0  0  0  0  0  0  0
  -41.0719   59.7645   65.4650 C   0  0  0  0  0  0  0  0  0  0  0  0
  -42.4817   59.3494   65.1978 C   0  0  0  0  0  0  0  0  0  0  0  0
  -42.7560   57.9077   65.5820 C   0  0  0  0  0  0  0  0  0  0  0  0
  -44.2019   57.5090   65.3798 C   0  0  0  0  0  0  0  0  0  0  0  0
  -45.2058   58.4893   65.9393 C   0  0  0  0  0  0  0  0  0  0  0  0
  -46.3453   58.7978   65.0019 C   0  0  0  0  0  0  0  0  0  0  0  0
  -47.0470   60.0819   65.3544 C   0  0  0  0  0  0  0  0  0  0  0  0
  -48.3208   60.3457   64.6076 C   0  0  0  0  0  0  0  0  0  0  0  0
  -49.3953   59.3972   64.9347 C   0  0  0  0  0  0  0  0  0  0  0  0
  -49.8738   58.4278   64.1864 C   0  0  0  0  0  0  0  0  0  0  0  0
  -49.4384   58.0241   62.8257 C   0  0  0  0  0  0  0  0  0  0  0  0
  -50.3815   58.3977   61.7003 C   0  0  0  0  0  0  0  0  0  0  0  0
  -50.6595   57.2495   60.7695 C   0  0  0  0  0  0  0  0  0  0  0  0
  -50.2304   57.4776   59.3428 C   0  0  0  0  0  0  0  0  0  0  0  0
  -48.7387   57.3143   59.1509 C   0  0  0  0  0  0  0  0  0  0  0  0
  -48.2800   55.9003   58.9273 C   0  0  0  0  0  0  0  0  0  0  0  0
  -47.3653   55.7607   57.7771 C   0  0  0  0  0  0  0  0  0  0  0  0
  -46.8224   57.0346   57.3095 C   0  0  0  0  0  0  0  0  0  0  0  0
  -40.2127   58.7747   65.2217 O   0  0  0  0  0  0  0  0  0  0  0  0
  -39.3164   58.9297   64.0988 C   0  0  0  0  0  0  0  0  0  0  0  0
  -37.9440   58.5009   64.5645 C   0  0  0  0  0  0  0  0  0  0  0  0
  -37.1317   58.1927   63.4316 O   0  0  0  0  0  0  0  0  0  0  0  0
  -37.0060   58.9921   62.8969 H   0  0  0  0  0  0  0  0  0  0  0  0
  -37.2125   59.5123   65.4133 C   0  0  0  0  0  0  0  0  0  0  0  0
  -36.6614   60.5250   64.5475 O   0  0  0  0  0  0  0  0  0  0  0  0
  -36.8448   62.0608   64.9178 P   0  0  0  0  0  0  0  0  0  0  0  0
  -36.5414   62.8390   63.6998 O   0  0  0  0  0  0  0  0  0  0  0  0
  -38.1751   62.1937   65.5436 O   0  0  0  0  0  0  0  0  0  0  0  0
  -38.8611   61.9708   64.8951 H   0  0  0  0  0  0  0  0  0  0  0  0
  -35.7680   62.4364   66.0208 O   0  0  0  0  0  0  0  0  0  0  0  0
  -34.3612   62.2382   65.7465 C   0  0  0  0  0  0  0  0  0  0  0  0
  -33.6431   63.3893   66.4136 C   0  0  0  0  0  0  0  0  0  0  0  0
  -33.0761   64.4495   65.4905 N   0  0  0  0  0  0  0  0  0  0  0  0
  -32.3024   65.4737   66.2568 C   0  0  0  0  0  0  0  0  0  0  0  0
  -34.1927   65.1347   64.7701 C   0  0  0  0  0  0  0  0  0  0  0  0
  -32.1638   63.8089   64.4920 C   0  0  0  0  0  0  0  0  0  0  0  0
 34 33  1  0  0  0
 34 35  1  0  0  0
 34 36  1  0  0  0
 34 37  1  0  0  0
 22 23  1  0  0  0
 22 25  1  0  0  0
 22 21  1  0  0  0
 23 24  1  0  0  0
 27 26  1  0  0  0
 27 28  2  0  0  0
 27 31  1  0  0  0
 27 29  1  0  0  0
 25 26  1  0  0  0
 32 33  1  0  0  0
 32 31  1  0  0  0
 29 30  1  0  0  0
 20 21  1  0  0  0
 20  2  1  0  0  0
  1  2  2  0  0  0
  2  3  1  0  0  0
  3  4  1  0  0  0
  4  5  1  0  0  0
  5  6  1  0  0  0
  6  7  1  0  0  0
  7  8  1  0  0  0
  8  9  1  0  0  0
  9 10  1  0  0  0
 10 11  2  0  0  0
 11 12  1  0  0  0
 12 13  1  0  0  0
 13 14  1  0  0  0
 14 15  1  0  0  0
 15 16  1  0  0  0
 16 17  1  0  0  0
 17 18  1  0  0  0
 18 19  1  0  0  0
M  CHG 1  28  -1
M  END
> <minimizedAffinity>
-7.71080

> <CNNscore>
0.7602581382

> <CNNaffinity>
6.4377126694

> <CNN_VS>
4.8943233490

> <CNNaffinity_variance>
0.7686606646

$$$$
/media/chris/experiments/cd1a-new-docking/inputs/ligands/4x6c_ligand.pdb


 37 36  0  0  0  0  0  0  0  0999 V2000
  -42.1821   57.5660   66.6931 O   0  0  0  0  0  0  0  0  0  0  0  0
  -42.2516   58.3806   65.8244 C   0  0  0  0  0  0  0  0  0  0  0  0
  -43.5039   58.7275   65.0877 C   0  0  0  0  0  0  0  0  0  0  0  0
  -44.3845   57.5218   64.8191 C   0  0  0  0  0  0  0  0  0  0  0  0
  -45.8076   57.7134   65.2971 C   0  0  0  0  0  0  0  0  0  0  0  0
  -46.2261   59.1562   65.4553 C   0  0  0  0  0  0  0  0  0  0  0  0
  -47.6583   59.4223   65.0677 C   0  0  0  0  0  0  0  0  0  0  0  0
  -48.4056   58.1602   64.7299 C   0  0  0  0  0  0  0  0  0  0  0  0
  -49.8676   58.1681   65.0654 C   0  0  0  0  0  0  0  0  0  0  0  0
  -50.4331   59.5206   65.1749 C   0  0  0  0  0  0  0  0  0  0  0  0
  -50.9637   60.2549   64.2221 C   0  0  0  0  0  0  0  0  0  0  0  0
  -51.1506   59.9006   62.7924 C   0  0  0  0  0  0  0  0  0  0  0  0
  -49.9672   60.1828   61.8894 C   0  0  0  0  0  0  0  0  0  0  0  0
  -49.7483   59.1044   60.8641 C   0  0  0  0  0  0  0  0  0  0  0  0
  -49.9581   57.7009   61.3721 C   0  0  0  0  0  0  0  0  0  0  0  0
  -49.5517   56.6501   60.3625 C   0  0  0  0  0  0  0  0  0  0  0  0
  -49.5164   57.1226   58.9359 C   0  0  0  0  0  0  0  0  0  0  0  0
  -48.2934   56.7131   58.2178 C   0  0  0  0  0  0  0  0  0  0  0  0
  -47.4163   55.8528   59.0095 C   0  0  0  0  0  0  0  0  0  0  0  0
  -41.2107   59.0893   65.3872 O   0  0  0  0  0  0  0  0  0  0  0  0
  -41.4786   60.3972   64.8342 C   0  0  0  0  0  0  0  0  0  0  0  0
  -40.1890   61.1821   64.9070 C   0  0  0  0  0  0  0  0  0  0  0  0
  -40.3181   62.2208   65.8778 O   0  0  0  0  0  0  0  0  0  0  0  0
  -40.4541   61.8288   66.7546 H   0  0  0  0  0  0  0  0  0  0  0  0
  -38.9634   60.3672   65.2422 C   0  0  0  0  0  0  0  0  0  0  0  0
  -37.9244   60.6911   64.2964 O   0  0  0  0  0  0  0  0  0  0  0  0
  -36.8330   61.7855   64.6713 P   0  0  0  0  0  0  0  0  0  0  0  0
  -36.5314   62.5369   63.4362 O   0  0  0  0  0  0  0  0  0  0  0  0
  -37.3447   62.5133   65.8492 O   0  0  0  0  0  0  0  0  0  0  0  0
  -38.1561   62.9874   65.6090 H   0  0  0  0  0  0  0  0  0  0  0  0
  -35.5114   61.0328   65.1226 O   0  0  0  0  0  0  0  0  0  0  0  0
  -34.6776   61.6055   66.1573 C   0  0  0  0  0  0  0  0  0  0  0  0
  -33.8383   62.6620   65.4752 C   0  0  0  0  0  0  0  0  0  0  0  0
  -33.8680   64.0443   66.0964 N   0  0  0  0  0  0  0  0  0  0  0  0
  -34.6206   64.0389   67.3880 C   0  0  0  0  0  0  0  0  0  0  0  0
  -34.5346   64.9997   65.1591 C   0  0  0  0  0  0  0  0  0  0  0  0
  -32.4690   64.5058   66.3596 C   0  0  0  0  0  0  0  0  0  0  0  0
 34 33  1  0  0  0
 34 35  1  0  0  0
 34 36  1  0  0  0
 34 37  1  0  0  0
 22 23  1  0  0  0
 22 25  1  0  0  0
 22 21  1  0  0  0
 23 24  1  0  0  0
 27 26  1  0  0  0
 27 28  2  0  0  0
 27 31  1  0  0  0
 27 29  1  0  0  0
 25 26  1  0  0  0
 32 33  1  0  0  0
 32 31  1  0  0  0
 29 30  1  0  0  0
 20 21  1  0  0  0
 20  2  1  0  0  0
  1  2  2  0  0  0
  2  3  1  0  0  0
  3  4  1  0  0  0
  4  5  1  0  0  0
  5  6  1  0  0  0
  6  7  1  0  0  0
  7  8  1  0  0  0
  8  9  1  0  0  0
  9 10  1  0  0  0
 10 11  2  0  0  0
 11 12  1  0  0  0
 12 13  1  0  0  0
 13 14  1  0  0  0
 14 15  1  0  0  0
 15 16  1  0  0  0
 16 17  1  0  0  0
 17 18  1  0  0  0
 18 19  1  0  0  0
M  CHG 1  28  -1
M  END
> <minimizedAffinity>
-8.13000

> <CNNscore>
0.7566451430

> <CNNaffinity>
6.3868498802

> <CNN_VS>
4.8325791359

> <CNNaffinity_variance>
0.2758631110

$$$$
/media/chris/experiments/cd1a-new-docking/inputs/ligands/4x6c_ligand.pdb


 37 36  0  0  0  0  0  0  0  0999 V2000
  -41.4276   60.7970   65.5256 O   0  0  0  0  0  0  0  0  0  0  0  0
  -42.2088   60.4369   64.6993 C   0  0  0  0  0  0  0  0  0  0  0  0
  -43.5443   59.8396   65.0007 C   0  0  0  0  0  0  0  0  0  0  0  0
  -43.4912   58.3342   65.1806 C   0  0  0  0  0  0  0  0  0  0  0  0
  -44.6845   57.6261   64.5766 C   0  0  0  0  0  0  0  0  0  0  0  0
  -45.9608   57.7585   65.3738 C   0  0  0  0  0  0  0  0  0  0  0  0
  -47.1857   58.0001   64.5293 C   0  0  0  0  0  0  0  0  0  0  0  0
  -48.4459   58.0611   65.3500 C   0  0  0  0  0  0  0  0  0  0  0  0
  -48.9165   59.4403   65.7059 C   0  0  0  0  0  0  0  0  0  0  0  0
  -48.6507   60.4355   64.6571 C   0  0  0  0  0  0  0  0  0  0  0  0
  -49.4809   60.8903   63.7447 C   0  0  0  0  0  0  0  0  0  0  0  0
  -50.9092   60.5344   63.5504 C   0  0  0  0  0  0  0  0  0  0  0  0
  -51.1756   59.4197   62.5594 C   0  0  0  0  0  0  0  0  0  0  0  0
  -50.0209   59.1847   61.6247 C   0  0  0  0  0  0  0  0  0  0  0  0
  -49.6252   57.7392   61.4643 C   0  0  0  0  0  0  0  0  0  0  0  0
  -50.2132   57.1098   60.2205 C   0  0  0  0  0  0  0  0  0  0  0  0
  -49.2633   56.9907   59.0615 C   0  0  0  0  0  0  0  0  0  0  0  0
  -48.1330   56.0791   59.3274 C   0  0  0  0  0  0  0  0  0  0  0  0
  -46.9795   56.3173   58.4620 C   0  0  0  0  0  0  0  0  0  0  0  0
  -41.9884   60.5132   63.3868 O   0  0  0  0  0  0  0  0  0  0  0  0
  -40.9997   61.4630   62.9301 C   0  0  0  0  0  0  0  0  0  0  0  0
  -40.0451   60.7114   62.0311 C   0  0  0  0  0  0  0  0  0  0  0  0
  -40.2481   61.1160   60.6771 O   0  0  0  0  0  0  0  0  0  0  0  0
  -40.0328   62.0573   60.5852 H   0  0  0  0  0  0  0  0  0  0  0  0
  -38.5832   60.8842   62.3651 C   0  0  0  0  0  0  0  0  0  0  0  0
  -38.4148   60.7179   63.7874 O   0  0  0  0  0  0  0  0  0  0  0  0
  -37.3424   61.6015   64.5609 P   0  0  0  0  0  0  0  0  0  0  0  0
  -36.6299   62.4040   63.5463 O   0  0  0  0  0  0  0  0  0  0  0  0
  -38.0623   62.2922   65.6488 O   0  0  0  0  0  0  0  0  0  0  0  0
  -38.7155   62.9005   65.2690 H   0  0  0  0  0  0  0  0  0  0  0  0
  -36.2925   60.6247   65.2396 O   0  0  0  0  0  0  0  0  0  0  0  0
  -36.2645   59.2280   64.8627 C   0  0  0  0  0  0  0  0  0  0  0  0
  -35.4032   59.1509   63.6226 C   0  0  0  0  0  0  0  0  0  0  0  0
  -33.9174   58.9553   63.8508 N   0  0  0  0  0  0  0  0  0  0  0  0
  -33.1989   60.2659   63.8770 C   0  0  0  0  0  0  0  0  0  0  0  0
  -33.3478   58.1201   62.7492 C   0  0  0  0  0  0  0  0  0  0  0  0
  -33.6981   58.2631   65.1593 C   0  0  0  0  0  0  0  0  0  0  0  0
 34 33  1  0  0  0
 34 35  1  0  0  0
 34 36  1  0  0  0
 34 37  1  0  0  0
 22 23  1  0  0  0
 22 25  1  0  0  0
 22 21  1  0  0  0
 23 24  1  0  0  0
 27 26  1  0  0  0
 27 28  2  0  0  0
 27 31  1  0  0  0
 27 29  1  0  0  0
 25 26  1  0  0  0
 32 33  1  0  0  0
 32 31  1  0  0  0
 29 30  1  0  0  0
 20 21  1  0  0  0
 20  2  1  0  0  0
  1  2  2  0  0  0
  2  3  1  0  0  0
  3  4  1  0  0  0
  4  5  1  0  0  0
  5  6  1  0  0  0
  6  7  1  0  0  0
  7  8  1  0  0  0
  8  9  1  0  0  0
  9 10  1  0  0  0
 10 11  2  0  0  0
 11 12  1  0  0  0
 12 13  1  0  0  0
 13 14  1  0  0  0
 14 15  1  0  0  0
 15 16  1  0  0  0
 16 17  1  0  0  0
 17 18  1  0  0  0
 18 19  1  0  0  0
M  CHG 1  28  -1
M  END
> <minimizedAffinity>
-7.94658

> <CNNscore>
0.7548798323

> <CNNaffinity>
6.5609307289

> <CNN_VS>
4.9527144432

> <CNNaffinity_variance>
0.2274463624

$$$$
/media/chris/experiments/cd1a-new-docking/inputs/ligands/4x6c_ligand.pdb


 37 36  0  0  0  0  0  0  0  0999 V2000
  -42.5678   57.6508   65.7002 O   0  0  0  0  0  0  0  0  0  0  0  0
  -43.0217   58.6990   65.3565 C   0  0  0  0  0  0  0  0  0  0  0  0
  -44.4395   59.1181   65.5698 C   0  0  0  0  0  0  0  0  0  0  0  0
  -45.4263   58.2958   64.7626 C   0  0  0  0  0  0  0  0  0  0  0  0
  -46.8399   58.8312   64.8381 C   0  0  0  0  0  0  0  0  0  0  0  0
  -46.9827   60.1134   65.6237 C   0  0  0  0  0  0  0  0  0  0  0  0
  -47.8481   61.1483   64.9510 C   0  0  0  0  0  0  0  0  0  0  0  0
  -48.6750   60.5677   63.8355 C   0  0  0  0  0  0  0  0  0  0  0  0
  -50.1476   60.4756   64.1061 C   0  0  0  0  0  0  0  0  0  0  0  0
  -50.9369   60.1159   62.9192 C   0  0  0  0  0  0  0  0  0  0  0  0
  -50.8978   58.9964   62.2308 C   0  0  0  0  0  0  0  0  0  0  0  0
  -50.0630   57.7955   62.4864 C   0  0  0  0  0  0  0  0  0  0  0  0
  -49.3668   57.2136   61.2730 C   0  0  0  0  0  0  0  0  0  0  0  0
  -49.9316   57.7271   59.9770 C   0  0  0  0  0  0  0  0  0  0  0  0
  -49.3545   57.0859   58.7410 C   0  0  0  0  0  0  0  0  0  0  0  0
  -48.0869   56.3107   59.0256 C   0  0  0  0  0  0  0  0  0  0  0  0
  -47.5911   55.4667   57.8848 C   0  0  0  0  0  0  0  0  0  0  0  0
  -47.0572   56.2625   56.7619 C   0  0  0  0  0  0  0  0  0  0  0  0
  -46.1185   57.3011   57.1815 C   0  0  0  0  0  0  0  0  0  0  0  0
  -42.3200   59.6398   64.7244 O   0  0  0  0  0  0  0  0  0  0  0  0
  -41.6951   60.6623   65.5320 C   0  0  0  0  0  0  0  0  0  0  0  0
  -41.0237   61.6281   64.5829 C   0  0  0  0  0  0  0  0  0  0  0  0
  -39.7230   61.9517   65.0745 O   0  0  0  0  0  0  0  0  0  0  0  0
  -39.1749   61.1516   65.0898 H   0  0  0  0  0  0  0  0  0  0  0  0
  -40.8866   61.1366   63.1623 C   0  0  0  0  0  0  0  0  0  0  0  0
  -39.6481   60.4076   63.0466 O   0  0  0  0  0  0  0  0  0  0  0  0
  -38.8226   60.4704   61.6887 P   0  0  0  0  0  0  0  0  0  0  0  0
  -39.7882   60.7533   60.6077 O   0  0  0  0  0  0  0  0  0  0  0  0
  -37.7007   61.4031   61.9133 O   0  0  0  0  0  0  0  0  0  0  0  0
  -38.0485   62.2932   62.0794 H   0  0  0  0  0  0  0  0  0  0  0  0
  -38.1953   59.0375   61.4235 O   0  0  0  0  0  0  0  0  0  0  0  0
  -37.9179   58.1584   62.5388 C   0  0  0  0  0  0  0  0  0  0  0  0
  -36.4916   58.4473   62.9488 C   0  0  0  0  0  0  0  0  0  0  0  0
  -36.2181   58.4837   64.4393 N   0  0  0  0  0  0  0  0  0  0  0  0
  -34.7595   58.6597   64.7155 C   0  0  0  0  0  0  0  0  0  0  0  0
  -36.6712   57.2025   65.0626 C   0  0  0  0  0  0  0  0  0  0  0  0
  -36.9633   59.6245   65.0580 C   0  0  0  0  0  0  0  0  0  0  0  0
 34 33  1  0  0  0
 34 35  1  0  0  0
 34 36  1  0  0  0
 34 37  1  0  0  0
 22 23  1  0  0  0
 22 25  1  0  0  0
 22 21  1  0  0  0
 23 24  1  0  0  0
 27 26  1  0  0  0
 27 28  2  0  0  0
 27 31  1  0  0  0
 27 29  1  0  0  0
 25 26  1  0  0  0
 32 33  1  0  0  0
 32 31  1  0  0  0
 29 30  1  0  0  0
 20 21  1  0  0  0
 20  2  1  0  0  0
  1  2  2  0  0  0
  2  3  1  0  0  0
  3  4  1  0  0  0
  4  5  1  0  0  0
  5  6  1  0  0  0
  6  7  1  0  0  0
  7  8  1  0  0  0
  8  9  1  0  0  0
  9 10  1  0  0  0
 10 11  2  0  0  0
 11 12  1  0  0  0
 12 13  1  0  0  0
 13 14  1  0  0  0
 14 15  1  0  0  0
 15 16  1  0  0  0
 16 17  1  0  0  0
 17 18  1  0  0  0
 18 19  1  0  0  0
M  CHG 1  28  -1
M  END
> <minimizedAffinity>
-8.24387

> <CNNscore>
0.7526676655

> <CNNaffinity>
6.8291726112

> <CNN_VS>
5.1400976181

> <CNNaffinity_variance>
0.3278488219

$$$$
/media/chris/experiments/cd1a-new-docking/inputs/ligands/4x6c_ligand.pdb


 37 36  0  0  0  0  0  0  0  0999 V2000
  -41.8935   57.9915   65.6357 O   0  0  0  0  0  0  0  0  0  0  0  0
  -42.6962   58.8307   65.3634 C   0  0  0  0  0  0  0  0  0  0  0  0
  -44.0807   58.5516   64.8771 C   0  0  0  0  0  0  0  0  0  0  0  0
  -44.6439   57.2491   65.4136 C   0  0  0  0  0  0  0  0  0  0  0  0
  -46.0415   57.3983   65.9748 C   0  0  0  0  0  0  0  0  0  0  0  0
  -46.4166   58.8118   66.3533 C   0  0  0  0  0  0  0  0  0  0  0  0
  -47.7283   59.2721   65.7703 C   0  0  0  0  0  0  0  0  0  0  0  0
  -48.5562   58.1295   65.2466 C   0  0  0  0  0  0  0  0  0  0  0  0
  -50.0417   58.3250   65.3179 C   0  0  0  0  0  0  0  0  0  0  0  0
  -50.4621   59.7052   65.0361 C   0  0  0  0  0  0  0  0  0  0  0  0
  -50.9261   60.1949   63.9075 C   0  0  0  0  0  0  0  0  0  0  0  0
  -51.1678   59.4765   62.6309 C   0  0  0  0  0  0  0  0  0  0  0  0
  -49.9570   59.3105   61.7354 C   0  0  0  0  0  0  0  0  0  0  0  0
  -49.4406   57.8981   61.7120 C   0  0  0  0  0  0  0  0  0  0  0  0
  -50.0660   57.0165   60.6615 C   0  0  0  0  0  0  0  0  0  0  0  0
  -50.0573   57.6519   59.2886 C   0  0  0  0  0  0  0  0  0  0  0  0
  -49.2770   56.8991   58.2473 C   0  0  0  0  0  0  0  0  0  0  0  0
  -47.8162   57.0593   58.3866 C   0  0  0  0  0  0  0  0  0  0  0  0
  -47.1490   55.8685   58.9089 C   0  0  0  0  0  0  0  0  0  0  0  0
  -42.4594   60.1397   65.4502 O   0  0  0  0  0  0  0  0  0  0  0  0
  -41.2152   60.5542   66.0570 C   0  0  0  0  0  0  0  0  0  0  0  0
  -40.5972   61.5856   65.1412 C   0  0  0  0  0  0  0  0  0  0  0  0
  -39.7092   62.4157   65.8898 O   0  0  0  0  0  0  0  0  0  0  0  0
  -38.9791   61.8789   66.2357 H   0  0  0  0  0  0  0  0  0  0  0  0
  -39.8413   61.0220   63.9624 C   0  0  0  0  0  0  0  0  0  0  0  0
  -38.8807   60.0633   64.4493 O   0  0  0  0  0  0  0  0  0  0  0  0
  -38.0926   59.1458   63.4166 P   0  0  0  0  0  0  0  0  0  0  0  0
  -38.7189   57.8091   63.4596 O   0  0  0  0  0  0  0  0  0  0  0  0
  -38.0520   59.8804   62.1369 O   0  0  0  0  0  0  0  0  0  0  0  0
  -38.9539   59.9867   61.7963 H   0  0  0  0  0  0  0  0  0  0  0  0
  -36.5959   59.0028   63.9230 O   0  0  0  0  0  0  0  0  0  0  0  0
  -36.1744   59.6970   65.1206 C   0  0  0  0  0  0  0  0  0  0  0  0
  -35.0355   60.5971   64.6982 C   0  0  0  0  0  0  0  0  0  0  0  0
  -35.1912   62.0698   65.0214 N   0  0  0  0  0  0  0  0  0  0  0  0
  -33.9356   62.8234   64.7207 C   0  0  0  0  0  0  0  0  0  0  0  0
  -35.5100   62.2325   66.4730 C   0  0  0  0  0  0  0  0  0  0  0  0
  -36.3035   62.6476   64.2037 C   0  0  0  0  0  0  0  0  0  0  0  0
 34 33  1  0  0  0
 34 35  1  0  0  0
 34 36  1  0  0  0
 34 37  1  0  0  0
 22 23  1  0  0  0
 22 25  1  0  0  0
 22 21  1  0  0  0
 23 24  1  0  0  0
 27 26  1  0  0  0
 27 28  2  0  0  0
 27 31  1  0  0  0
 27 29  1  0  0  0
 25 26  1  0  0  0
 32 33  1  0  0  0
 32 31  1  0  0  0
 29 30  1  0  0  0
 20 21  1  0  0  0
 20  2  1  0  0  0
  1  2  2  0  0  0
  2  3  1  0  0  0
  3  4  1  0  0  0
  4  5  1  0  0  0
  5  6  1  0  0  0
  6  7  1  0  0  0
  7  8  1  0  0  0
  8  9  1  0  0  0
  9 10  1  0  0  0
 10 11  2  0  0  0
 11 12  1  0  0  0
 12 13  1  0  0  0
 13 14  1  0  0  0
 14 15  1  0  0  0
 15 16  1  0  0  0
 16 17  1  0  0  0
 17 18  1  0  0  0
 18 19  1  0  0  0
M  CHG 1  28  -1
M  END
> <minimizedAffinity>
-7.87794

> <CNNscore>
0.7334125042

> <CNNaffinity>
6.6195068359

> <CNN_VS>
4.8548293114

> <CNNaffinity_variance>
0.4389313757

$$$$
/media/chris/experiments/cd1a-new-docking/inputs/ligands/4x6c_ligand.pdb


 37 36  0  0  0  0  0  0  0  0999 V2000
  -41.7510   60.6433   66.7538 O   0  0  0  0  0  0  0  0  0  0  0  0
  -41.6670   59.9164   65.8117 C   0  0  0  0  0  0  0  0  0  0  0  0
  -42.6008   58.7851   65.5298 C   0  0  0  0  0  0  0  0  0  0  0  0
  -43.9976   59.2494   65.1627 C   0  0  0  0  0  0  0  0  0  0  0  0
  -44.8589   58.1391   64.6006 C   0  0  0  0  0  0  0  0  0  0  0  0
  -46.3174   58.2227   64.9845 C   0  0  0  0  0  0  0  0  0  0  0  0
  -46.7843   59.6189   65.3084 C   0  0  0  0  0  0  0  0  0  0  0  0
  -48.0622   59.6268   66.1037 C   0  0  0  0  0  0  0  0  0  0  0  0
  -49.3052   59.9331   65.3220 C   0  0  0  0  0  0  0  0  0  0  0  0
  -49.0329   60.4868   63.9877 C   0  0  0  0  0  0  0  0  0  0  0  0
  -49.7516   60.3537   62.8948 C   0  0  0  0  0  0  0  0  0  0  0  0
  -51.0367   59.6289   62.7290 C   0  0  0  0  0  0  0  0  0  0  0  0
  -51.0014   58.4440   61.7855 C   0  0  0  0  0  0  0  0  0  0  0  0
  -49.7310   58.3776   60.9831 C   0  0  0  0  0  0  0  0  0  0  0  0
  -48.9565   57.0936   61.1357 C   0  0  0  0  0  0  0  0  0  0  0  0
  -49.0148   56.2283   59.8962 C   0  0  0  0  0  0  0  0  0  0  0  0
  -49.0913   56.9843   58.5991 C   0  0  0  0  0  0  0  0  0  0  0  0
  -47.8337   56.9433   57.8271 C   0  0  0  0  0  0  0  0  0  0  0  0
  -47.9475   56.2042   56.5714 C   0  0  0  0  0  0  0  0  0  0  0  0
  -40.7163   60.0133   64.8824 O   0  0  0  0  0  0  0  0  0  0  0  0
  -41.1064   60.4907   63.5755 C   0  0  0  0  0  0  0  0  0  0  0  0
  -39.9692   61.3400   63.0560 C   0  0  0  0  0  0  0  0  0  0  0  0
  -39.1130   61.7032   64.1392 O   0  0  0  0  0  0  0  0  0  0  0  0
  -38.7127   60.9044   64.5167 H   0  0  0  0  0  0  0  0  0  0  0  0
  -39.1288   60.6941   61.9813 C   0  0  0  0  0  0  0  0  0  0  0  0
  -38.1130   59.8902   62.6144 O   0  0  0  0  0  0  0  0  0  0  0  0
  -37.5357   58.6149   61.8597 P   0  0  0  0  0  0  0  0  0  0  0  0
  -38.1399   57.4260   62.4941 O   0  0  0  0  0  0  0  0  0  0  0  0
  -37.7420   58.8430   60.4159 O   0  0  0  0  0  0  0  0  0  0  0  0
  -38.6927   58.8823   60.2275 H   0  0  0  0  0  0  0  0  0  0  0  0
  -35.9695   58.5600   62.1067 O   0  0  0  0  0  0  0  0  0  0  0  0
  -35.4612   58.3639   63.4472 C   0  0  0  0  0  0  0  0  0  0  0  0
  -34.2922   59.3120   63.5895 C   0  0  0  0  0  0  0  0  0  0  0  0
  -32.9123   58.6946   63.4777 N   0  0  0  0  0  0  0  0  0  0  0  0
  -32.8987   57.5823   62.4791 C   0  0  0  0  0  0  0  0  0  0  0  0
  -32.4996   58.1485   64.8069 C   0  0  0  0  0  0  0  0  0  0  0  0
  -31.9300   59.7376   63.0458 C   0  0  0  0  0  0  0  0  0  0  0  0
 34 33  1  0  0  0
 34 35  1  0  0  0
 34 36  1  0  0  0
 34 37  1  0  0  0
 22 23  1  0  0  0
 22 25  1  0  0  0
 22 21  1  0  0  0
 23 24  1  0  0  0
 27 26  1  0  0  0
 27 28  2  0  0  0
 27 31  1  0  0  0
 27 29  1  0  0  0
 25 26  1  0  0  0
 32 33  1  0  0  0
 32 31  1  0  0  0
 29 30  1  0  0  0
 20 21  1  0  0  0
 20  2  1  0  0  0
  1  2  2  0  0  0
  2  3  1  0  0  0
  3  4  1  0  0  0
  4  5  1  0  0  0
  5  6  1  0  0  0
  6  7  1  0  0  0
  7  8  1  0  0  0
  8  9  1  0  0  0
  9 10  1  0  0  0
 10 11  2  0  0  0
 11 12  1  0  0  0
 12 13  1  0  0  0
 13 14  1  0  0  0
 14 15  1  0  0  0
 15 16  1  0  0  0
 16 17  1  0  0  0
 17 18  1  0  0  0
 18 19  1  0  0  0
M  CHG 1  28  -1
M  END
> <minimizedAffinity>
-7.71342

> <CNNscore>
0.6276008487

> <CNNaffinity>
6.5435457230

> <CNN_VS>
4.1067347527

> <CNNaffinity_variance>
0.7919670343

$$$$
/media/chris/experiments/cd1a-new-docking/inputs/ligands/4x6c_ligand.pdb


 37 36  0  0  0  0  0  0  0  0999 V2000
  -41.5609   58.0323   65.6046 O   0  0  0  0  0  0  0  0  0  0  0  0
  -41.8105   59.1809   65.8079 C   0  0  0  0  0  0  0  0  0  0  0  0
  -43.1830   59.7189   66.0487 C   0  0  0  0  0  0  0  0  0  0  0  0
  -44.1481   59.4012   64.9222 C   0  0  0  0  0  0  0  0  0  0  0  0
  -45.3182   58.5525   65.3706 C   0  0  0  0  0  0  0  0  0  0  0  0
  -46.3639   59.2978   66.1661 C   0  0  0  0  0  0  0  0  0  0  0  0
  -47.6091   59.6246   65.3819 C   0  0  0  0  0  0  0  0  0  0  0  0
  -48.2572   58.3987   64.7967 C   0  0  0  0  0  0  0  0  0  0  0  0
  -49.7167   58.2340   65.1018 C   0  0  0  0  0  0  0  0  0  0  0  0
  -50.4346   59.5112   65.2222 C   0  0  0  0  0  0  0  0  0  0  0  0
  -51.0294   60.1974   64.2714 C   0  0  0  0  0  0  0  0  0  0  0  0
  -51.1505   59.8499   62.8330 C   0  0  0  0  0  0  0  0  0  0  0  0
  -49.9735   60.2444   61.9644 C   0  0  0  0  0  0  0  0  0  0  0  0
  -49.6880   59.2405   60.8815 C   0  0  0  0  0  0  0  0  0  0  0  0
  -49.6717   57.8054   61.3421 C   0  0  0  0  0  0  0  0  0  0  0  0
  -50.1254   56.8439   60.2658 C   0  0  0  0  0  0  0  0  0  0  0  0
  -49.1383   55.7623   59.9258 C   0  0  0  0  0  0  0  0  0  0  0  0
  -47.8417   56.2861   59.4529 C   0  0  0  0  0  0  0  0  0  0  0  0
  -47.3542   55.6237   58.2447 C   0  0  0  0  0  0  0  0  0  0  0  0
  -40.8910   60.1455   65.8395 O   0  0  0  0  0  0  0  0  0  0  0  0
  -39.6980   59.9568   65.0462 C   0  0  0  0  0  0  0  0  0  0  0  0
  -38.8770   61.2195   65.1727 C   0  0  0  0  0  0  0  0  0  0  0  0
  -39.6432   62.2202   65.8433 O   0  0  0  0  0  0  0  0  0  0  0  0
  -39.8400   61.9256   66.7463 H   0  0  0  0  0  0  0  0  0  0  0  0
  -37.5646   61.0579   65.9007 C   0  0  0  0  0  0  0  0  0  0  0  0
  -36.9923   62.3646   66.1103 O   0  0  0  0  0  0  0  0  0  0  0  0
  -35.4336   62.5858   65.8848 P   0  0  0  0  0  0  0  0  0  0  0  0
  -35.2046   64.0442   65.8446 O   0  0  0  0  0  0  0  0  0  0  0  0
  -34.7354   61.7758   66.9023 O   0  0  0  0  0  0  0  0  0  0  0  0
  -34.9484   62.1134   67.7863 H   0  0  0  0  0  0  0  0  0  0  0  0
  -35.0488   61.9895   64.4658 O   0  0  0  0  0  0  0  0  0  0  0  0
  -34.1305   60.8745   64.3814 C   0  0  0  0  0  0  0  0  0  0  0  0
  -34.9645   59.6814   63.9728 C   0  0  0  0  0  0  0  0  0  0  0  0
  -34.3513   58.3184   64.2252 N   0  0  0  0  0  0  0  0  0  0  0  0
  -35.4020   57.3069   64.5533 C   0  0  0  0  0  0  0  0  0  0  0  0
  -33.3960   58.4041   65.3721 C   0  0  0  0  0  0  0  0  0  0  0  0
  -33.6161   57.8654   63.0029 C   0  0  0  0  0  0  0  0  0  0  0  0
 34 33  1  0  0  0
 34 35  1  0  0  0
 34 36  1  0  0  0
 34 37  1  0  0  0
 22 23  1  0  0  0
 22 25  1  0  0  0
 22 21  1  0  0  0
 23 24  1  0  0  0
 27 26  1  0  0  0
 27 28  2  0  0  0
 27 31  1  0  0  0
 27 29  1  0  0  0
 25 26  1  0  0  0
 32 33  1  0  0  0
 32 31  1  0  0  0
 29 30  1  0  0  0
 20 21  1  0  0  0
 20  2  1  0  0  0
  1  2  2  0  0  0
  2  3  1  0  0  0
  3  4  1  0  0  0
  4  5  1  0  0  0
  5  6  1  0  0  0
  6  7  1  0  0  0
  7  8  1  0  0  0
  8  9  1  0  0  0
  9 10  1  0  0  0
 10 11  2  0  0  0
 11 12  1  0  0  0
 12 13  1  0  0  0
 13 14  1  0  0  0
 14 15  1  0  0  0
 15 16  1  0  0  0
 16 17  1  0  0  0
 17 18  1  0  0  0
 18 19  1  0  0  0
M  CHG 1  28  -1
M  END
> <minimizedAffinity>
-8.24806

> <CNNscore>
0.6263092160

> <CNNaffinity>
6.4041953087

> <CNN_VS>
4.0110063553

> <CNNaffinity_variance>
0.2717072368

$$$$
/media/chris/experiments/cd1a-new-docking/inputs/ligands/4x6c_ligand.pdb


 37 36  0  0  0  0  0  0  0  0999 V2000
  -41.1721   58.6982   65.6747 O   0  0  0  0  0  0  0  0  0  0  0  0
  -41.4678   59.6738   65.0554 C   0  0  0  0  0  0  0  0  0  0  0  0
  -42.8695   60.1273   64.8091 C   0  0  0  0  0  0  0  0  0  0  0  0
  -43.8927   59.3465   65.6120 C   0  0  0  0  0  0  0  0  0  0  0  0
  -45.0112   58.7895   64.7581 C   0  0  0  0  0  0  0  0  0  0  0  0
  -46.3363   58.6558   65.4711 C   0  0  0  0  0  0  0  0  0  0  0  0
  -47.5300   58.6830   64.5510 C   0  0  0  0  0  0  0  0  0  0  0  0
  -48.5522   57.6369   64.9059 C   0  0  0  0  0  0  0  0  0  0  0  0
  -49.9122   58.1601   65.2620 C   0  0  0  0  0  0  0  0  0  0  0  0
  -50.0364   59.6163   65.1029 C   0  0  0  0  0  0  0  0  0  0  0  0
  -50.5574   60.2780   64.0933 C   0  0  0  0  0  0  0  0  0  0  0  0
  -51.1766   59.7266   62.8616 C   0  0  0  0  0  0  0  0  0  0  0  0
  -50.2078   59.3077   61.7747 C   0  0  0  0  0  0  0  0  0  0  0  0
  -50.3512   57.8595   61.3948 C   0  0  0  0  0  0  0  0  0  0  0  0
  -49.0550   57.1631   61.0681 C   0  0  0  0  0  0  0  0  0  0  0  0
  -49.2362   56.0286   60.0838 C   0  0  0  0  0  0  0  0  0  0  0  0
  -48.1425   55.8969   59.0609 C   0  0  0  0  0  0  0  0  0  0  0  0
  -48.0396   57.0663   58.1658 C   0  0  0  0  0  0  0  0  0  0  0  0
  -46.8045   57.0923   57.3848 C   0  0  0  0  0  0  0  0  0  0  0  0
  -40.5793   60.4909   64.4897 O   0  0  0  0  0  0  0  0  0  0  0  0
  -39.1907   60.0926   64.5222 C   0  0  0  0  0  0  0  0  0  0  0  0
  -38.3773   61.3405   64.7786 C   0  0  0  0  0  0  0  0  0  0  0  0
  -39.0499   62.1587   65.7357 O   0  0  0  0  0  0  0  0  0  0  0  0
  -39.1075   61.6866   66.5811 H   0  0  0  0  0  0  0  0  0  0  0  0
  -36.9699   61.0965   65.2666 C   0  0  0  0  0  0  0  0  0  0  0  0
  -36.7656   61.8552   66.4755 O   0  0  0  0  0  0  0  0  0  0  0  0
  -35.4431   62.7221   66.6459 P   0  0  0  0  0  0  0  0  0  0  0  0
  -35.7572   63.8091   67.5949 O   0  0  0  0  0  0  0  0  0  0  0  0
  -34.3529   61.7799   66.9664 O   0  0  0  0  0  0  0  0  0  0  0  0
  -34.5315   61.3575   67.8211 H   0  0  0  0  0  0  0  0  0  0  0  0
  -35.0977   63.3795   65.2439 O   0  0  0  0  0  0  0  0  0  0  0  0
  -34.7513   64.7827   65.1755 C   0  0  0  0  0  0  0  0  0  0  0  0
  -33.2413   64.8342   65.1213 C   0  0  0  0  0  0  0  0  0  0  0  0
  -32.6330   65.2493   63.7964 N   0  0  0  0  0  0  0  0  0  0  0  0
  -32.0079   64.0828   63.1012 C   0  0  0  0  0  0  0  0  0  0  0  0
  -31.5809   66.2852   64.0316 C   0  0  0  0  0  0  0  0  0  0  0  0
  -33.6978   65.8188   62.9124 C   0  0  0  0  0  0  0  0  0  0  0  0
 34 33  1  0  0  0
 34 35  1  0  0  0
 34 36  1  0  0  0
 34 37  1  0  0  0
 22 23  1  0  0  0
 22 25  1  0  0  0
 22 21  1  0  0  0
 23 24  1  0  0  0
 27 26  1  0  0  0
 27 28  2  0  0  0
 27 31  1  0  0  0
 27 29  1  0  0  0
 25 26  1  0  0  0
 32 33  1  0  0  0
 32 31  1  0  0  0
 29 30  1  0  0  0
 20 21  1  0  0  0
 20  2  1  0  0  0
  1  2  2  0  0  0
  2  3  1  0  0  0
  3  4  1  0  0  0
  4  5  1  0  0  0
  5  6  1  0  0  0
  6  7  1  0  0  0
  7  8  1  0  0  0
  8  9  1  0  0  0
  9 10  1  0  0  0
 10 11  2  0  0  0
 11 12  1  0  0  0
 12 13  1  0  0  0
 13 14  1  0  0  0
 14 15  1  0  0  0
 15 16  1  0  0  0
 16 17  1  0  0  0
 17 18  1  0  0  0
 18 19  1  0  0  0
M  CHG 1  28  -1
M  END
> <minimizedAffinity>
-8.27517

> <CNNscore>
0.6221277714

> <CNNaffinity>
6.1094446182

> <CNN_VS>
3.8008551598

> <CNNaffinity_variance>
0.3189863265

$$$$
