/media/chris/experiments/cd1a-new-docking/inputs/ligands/4x6c_ligand.pdb


 37 36  0  0  0  0  0  0  0  0999 V2000
  -43.6815   60.0630   66.5447 O   0  0  0  0  0  0  0  0  0  0  0  0
  -43.1651   59.4455   65.6645 C   0  0  0  0  0  0  0  0  0  0  0  0
  -43.9078   58.6795   64.6191 C   0  0  0  0  0  0  0  0  0  0  0  0
  -44.2736   57.2758   65.0633 C   0  0  0  0  0  0  0  0  0  0  0  0
  -45.6248   57.2057   65.7413 C   0  0  0  0  0  0  0  0  0  0  0  0
  -46.6311   58.2133   65.2375 C   0  0  0  0  0  0  0  0  0  0  0  0
  -47.1152   59.1732   66.2942 C   0  0  0  0  0  0  0  0  0  0  0  0
  -48.3518   59.9186   65.8695 C   0  0  0  0  0  0  0  0  0  0  0  0
  -49.4515   59.0711   65.3016 C   0  0  0  0  0  0  0  0  0  0  0  0
  -50.6402   59.8431   64.9118 C   0  0  0  0  0  0  0  0  0  0  0  0
  -51.0983   60.0658   63.6997 C   0  0  0  0  0  0  0  0  0  0  0  0
  -50.5475   59.5765   62.4106 C   0  0  0  0  0  0  0  0  0  0  0  0
  -50.4050   58.0730   62.2898 C   0  0  0  0  0  0  0  0  0  0  0  0
  -51.0184   57.5306   61.0282 C   0  0  0  0  0  0  0  0  0  0  0  0
  -50.0902   56.6926   60.1867 C   0  0  0  0  0  0  0  0  0  0  0  0
  -49.2673   57.5226   59.2262 C   0  0  0  0  0  0  0  0  0  0  0  0
  -48.8325   56.8033   57.9798 C   0  0  0  0  0  0  0  0  0  0  0  0
  -47.3663   56.6771   57.8630 C   0  0  0  0  0  0  0  0  0  0  0  0
  -46.8119   55.5881   58.6649 C   0  0  0  0  0  0  0  0  0  0  0  0
  -41.8457   59.3499   65.5005 O   0  0  0  0  0  0  0  0  0  0  0  0
  -41.0063   60.1548   66.3583 C   0  0  0  0  0  0  0  0  0  0  0  0
  -40.1729   61.0394   65.4598 C   0  0  0  0  0  0  0  0  0  0  0  0
  -40.2472   62.3892   65.9191 O   0  0  0  0  0  0  0  0  0  0  0  0
  -39.8593   62.4506   66.8060 H   0  0  0  0  0  0  0  0  0  0  0  0
  -38.7178   60.6524   65.3538 C   0  0  0  0  0  0  0  0  0  0  0  0
  -37.9251   61.8558   65.3070 O   0  0  0  0  0  0  0  0  0  0  0  0
  -36.4257   61.8310   65.8367 P   0  0  0  0  0  0  0  0  0  0  0  0
  -35.7545   63.0288   65.2928 O   0  0  0  0  0  0  0  0  0  0  0  0
  -36.4924   61.6457   67.2997 O   0  0  0  0  0  0  0  0  0  0  0  0
  -36.9269   62.4133   67.7034 H   0  0  0  0  0  0  0  0  0  0  0  0
  -35.7087   60.5504   65.2341 O   0  0  0  0  0  0  0  0  0  0  0  0
  -34.5987   60.7134   64.3203 C   0  0  0  0  0  0  0  0  0  0  0  0
  -34.2778   59.3279   63.8075 C   0  0  0  0  0  0  0  0  0  0  0  0
  -32.8601   59.1069   63.3186 N   0  0  0  0  0  0  0  0  0  0  0  0
  -32.1113   60.3981   63.2353 C   0  0  0  0  0  0  0  0  0  0  0  0
  -32.8910   58.4841   61.9597 C   0  0  0  0  0  0  0  0  0  0  0  0
  -32.1403   58.1963   64.2629 C   0  0  0  0  0  0  0  0  0  0  0  0
 34 33  1  0  0  0
 34 35  1  0  0  0
 34 36  1  0  0  0
 34 37  1  0  0  0
 22 23  1  0  0  0
 22 25  1  0  0  0
 22 21  1  0  0  0
 23 24  1  0  0  0
 27 26  1  0  0  0
 27 28  2  0  0  0
 27 31  1  0  0  0
 27 29  1  0  0  0
 25 26  1  0  0  0
 32 33  1  0  0  0
 32 31  1  0  0  0
 29 30  1  0  0  0
 20 21  1  0  0  0
 20  2  1  0  0  0
  1  2  2  0  0  0
  2  3  1  0  0  0
  3  4  1  0  0  0
  4  5  1  0  0  0
  5  6  1  0  0  0
  6  7  1  0  0  0
  7  8  1  0  0  0
  8  9  1  0  0  0
  9 10  1  0  0  0
 10 11  2  0  0  0
 11 12  1  0  0  0
 12 13  1  0  0  0
 13 14  1  0  0  0
 14 15  1  0  0  0
 15 16  1  0  0  0
 16 17  1  0  0  0
 17 18  1  0  0  0
 18 19  1  0  0  0
M  CHG 1  28  -1
M  END
> <minimizedAffinity>
-8.08317

> <CNNscore>
0.8945605159

> <CNNaffinity>
6.6992850304

> <CNN_VS>
5.9929161072

> <CNNaffinity_variance>
0.2256468982

$$$$
/media/chris/experiments/cd1a-new-docking/inputs/ligands/4x6c_ligand.pdb


 37 36  0  0  0  0  0  0  0  0999 V2000
  -44.5156   59.7857   66.2996 O   0  0  0  0  0  0  0  0  0  0  0  0
  -43.9920   59.1615   65.4284 C   0  0  0  0  0  0  0  0  0  0  0  0
  -44.6558   58.0721   64.6513 C   0  0  0  0  0  0  0  0  0  0  0  0
  -45.1546   56.9398   65.5291 C   0  0  0  0  0  0  0  0  0  0  0  0
  -46.6426   57.0124   65.7954 C   0  0  0  0  0  0  0  0  0  0  0  0
  -47.3885   57.9910   64.9192 C   0  0  0  0  0  0  0  0  0  0  0  0
  -48.1168   59.0650   65.6862 C   0  0  0  0  0  0  0  0  0  0  0  0
  -48.8877   59.9916   64.7850 C   0  0  0  0  0  0  0  0  0  0  0  0
  -50.3713   59.7724   64.7531 C   0  0  0  0  0  0  0  0  0  0  0  0
  -50.9746   60.0576   63.4433 C   0  0  0  0  0  0  0  0  0  0  0  0
  -50.9998   59.2858   62.3792 C   0  0  0  0  0  0  0  0  0  0  0  0
  -50.4457   57.9164   62.2304 C   0  0  0  0  0  0  0  0  0  0  0  0
  -50.8718   57.1715   60.9819 C   0  0  0  0  0  0  0  0  0  0  0  0
  -50.5013   57.8968   59.7174 C   0  0  0  0  0  0  0  0  0  0  0  0
  -49.5390   57.1554   58.8253 C   0  0  0  0  0  0  0  0  0  0  0  0
  -48.7058   56.1442   59.5817 C   0  0  0  0  0  0  0  0  0  0  0  0
  -47.5912   55.5215   58.7881 C   0  0  0  0  0  0  0  0  0  0  0  0
  -46.6167   56.5080   58.2816 C   0  0  0  0  0  0  0  0  0  0  0  0
  -46.7085   56.7266   56.8394 C   0  0  0  0  0  0  0  0  0  0  0  0
  -42.7324   59.3497   65.0351 O   0  0  0  0  0  0  0  0  0  0  0  0
  -42.5020   60.2836   63.9569 C   0  0  0  0  0  0  0  0  0  0  0  0
  -41.1768   60.9574   64.2293 C   0  0  0  0  0  0  0  0  0  0  0  0
  -41.2944   62.3579   63.9780 O   0  0  0  0  0  0  0  0  0  0  0  0
  -41.9343   62.7446   64.5959 H   0  0  0  0  0  0  0  0  0  0  0  0
  -40.6394   60.7684   65.6271 C   0  0  0  0  0  0  0  0  0  0  0  0
  -39.5648   61.7066   65.8363 O   0  0  0  0  0  0  0  0  0  0  0  0
  -38.0740   61.2888   65.4721 P   0  0  0  0  0  0  0  0  0  0  0  0
  -37.5596   62.3003   64.5269 O   0  0  0  0  0  0  0  0  0  0  0  0
  -37.3666   61.0723   66.7496 O   0  0  0  0  0  0  0  0  0  0  0  0
  -37.3192   61.9087   67.2386 H   0  0  0  0  0  0  0  0  0  0  0  0
  -38.1207   59.8929   64.7196 O   0  0  0  0  0  0  0  0  0  0  0  0
  -37.0605   58.9303   64.9272 C   0  0  0  0  0  0  0  0  0  0  0  0
  -36.1739   59.0212   63.7060 C   0  0  0  0  0  0  0  0  0  0  0  0
  -35.9077   57.7208   62.9740 N   0  0  0  0  0  0  0  0  0  0  0  0
  -34.9165   57.9157   61.8720 C   0  0  0  0  0  0  0  0  0  0  0  0
  -37.1827   57.2086   62.3846 C   0  0  0  0  0  0  0  0  0  0  0  0
  -35.3649   56.7080   63.9325 C   0  0  0  0  0  0  0  0  0  0  0  0
 34 33  1  0  0  0
 34 35  1  0  0  0
 34 36  1  0  0  0
 34 37  1  0  0  0
 22 23  1  0  0  0
 22 25  1  0  0  0
 22 21  1  0  0  0
 23 24  1  0  0  0
 27 26  1  0  0  0
 27 28  2  0  0  0
 27 31  1  0  0  0
 27 29  1  0  0  0
 25 26  1  0  0  0
 32 33  1  0  0  0
 32 31  1  0  0  0
 29 30  1  0  0  0
 20 21  1  0  0  0
 20  2  1  0  0  0
  1  2  2  0  0  0
  2  3  1  0  0  0
  3  4  1  0  0  0
  4  5  1  0  0  0
  5  6  1  0  0  0
  6  7  1  0  0  0
  7  8  1  0  0  0
  8  9  1  0  0  0
  9 10  1  0  0  0
 10 11  2  0  0  0
 11 12  1  0  0  0
 12 13  1  0  0  0
 13 14  1  0  0  0
 14 15  1  0  0  0
 15 16  1  0  0  0
 16 17  1  0  0  0
 17 18  1  0  0  0
 18 19  1  0  0  0
M  CHG 1  28  -1
M  END
> <minimizedAffinity>
-7.84687

> <CNNscore>
0.8537108302

> <CNNaffinity>
7.0616049767

> <CNN_VS>
6.0285687447

> <CNNaffinity_variance>
0.3352734149

$$$$
/media/chris/experiments/cd1a-new-docking/inputs/ligands/4x6c_ligand.pdb


 37 36  0  0  0  0  0  0  0  0999 V2000
  -42.1527   58.2344   66.1775 O   0  0  0  0  0  0  0  0  0  0  0  0
  -42.7225   59.1191   65.6160 C   0  0  0  0  0  0  0  0  0  0  0  0
  -43.9618   58.9446   64.8006 C   0  0  0  0  0  0  0  0  0  0  0  0
  -45.1091   59.8162   65.2754 C   0  0  0  0  0  0  0  0  0  0  0  0
  -46.0294   59.1034   66.2425 C   0  0  0  0  0  0  0  0  0  0  0  0
  -47.5007   59.2637   65.9402 C   0  0  0  0  0  0  0  0  0  0  0  0
  -48.1588   58.0082   65.4275 C   0  0  0  0  0  0  0  0  0  0  0  0
  -49.5213   58.2712   64.8445 C   0  0  0  0  0  0  0  0  0  0  0  0
  -50.0006   59.6892   64.9419 C   0  0  0  0  0  0  0  0  0  0  0  0
  -51.0845   60.0040   64.0000 C   0  0  0  0  0  0  0  0  0  0  0  0
  -50.9900   60.2543   62.7128 C   0  0  0  0  0  0  0  0  0  0  0  0
  -49.7671   60.2617   61.8708 C   0  0  0  0  0  0  0  0  0  0  0  0
  -49.7182   59.2107   60.7808 C   0  0  0  0  0  0  0  0  0  0  0  0
  -50.2696   57.8844   61.2270 C   0  0  0  0  0  0  0  0  0  0  0  0
  -50.2143   56.7968   60.1849 C   0  0  0  0  0  0  0  0  0  0  0  0
  -49.0671   56.9781   59.2155 C   0  0  0  0  0  0  0  0  0  0  0  0
  -48.0190   55.9015   59.2662 C   0  0  0  0  0  0  0  0  0  0  0  0
  -47.2246   55.8047   58.0258 C   0  0  0  0  0  0  0  0  0  0  0  0
  -46.9925   57.0967   57.3830 C   0  0  0  0  0  0  0  0  0  0  0  0
  -42.3210   60.3901   65.6357 O   0  0  0  0  0  0  0  0  0  0  0  0
  -41.5501   60.8642   64.5092 C   0  0  0  0  0  0  0  0  0  0  0  0
  -40.2539   61.4139   65.0588 C   0  0  0  0  0  0  0  0  0  0  0  0
  -40.5321   62.5193   65.9184 O   0  0  0  0  0  0  0  0  0  0  0  0
  -41.0492   62.2143   66.6803 H   0  0  0  0  0  0  0  0  0  0  0  0
  -39.4102   60.4201   65.8197 C   0  0  0  0  0  0  0  0  0  0  0  0
  -38.2018   60.1764   65.0719 O   0  0  0  0  0  0  0  0  0  0  0  0
  -37.9977   58.7788   64.3409 P   0  0  0  0  0  0  0  0  0  0  0  0
  -39.2821   58.0546   64.4251 O   0  0  0  0  0  0  0  0  0  0  0  0
  -37.4222   59.0708   63.0133 O   0  0  0  0  0  0  0  0  0  0  0  0
  -38.0607   59.5788   62.4887 H   0  0  0  0  0  0  0  0  0  0  0  0
  -36.9133   57.9503   65.1501 O   0  0  0  0  0  0  0  0  0  0  0  0
  -35.8611   57.2582   64.4378 C   0  0  0  0  0  0  0  0  0  0  0  0
  -34.5623   57.8247   64.9651 C   0  0  0  0  0  0  0  0  0  0  0  0
  -33.7145   58.5927   63.9706 N   0  0  0  0  0  0  0  0  0  0  0  0
  -32.2575   58.3649   64.2152 C   0  0  0  0  0  0  0  0  0  0  0  0
  -33.9972   60.0555   64.0969 C   0  0  0  0  0  0  0  0  0  0  0  0
  -34.0424   58.1447   62.5810 C   0  0  0  0  0  0  0  0  0  0  0  0
 34 33  1  0  0  0
 34 35  1  0  0  0
 34 36  1  0  0  0
 34 37  1  0  0  0
 22 23  1  0  0  0
 22 25  1  0  0  0
 22 21  1  0  0  0
 23 24  1  0  0  0
 27 26  1  0  0  0
 27 28  2  0  0  0
 27 31  1  0  0  0
 27 29  1  0  0  0
 25 26  1  0  0  0
 32 33  1  0  0  0
 32 31  1  0  0  0
 29 30  1  0  0  0
 20 21  1  0  0  0
 20  2  1  0  0  0
  1  2  2  0  0  0
  2  3  1  0  0  0
  3  4  1  0  0  0
  4  5  1  0  0  0
  5  6  1  0  0  0
  6  7  1  0  0  0
  7  8  1  0  0  0
  8  9  1  0  0  0
  9 10  1  0  0  0
 10 11  2  0  0  0
 11 12  1  0  0  0
 12 13  1  0  0  0
 13 14  1  0  0  0
 14 15  1  0  0  0
 15 16  1  0  0  0
 16 17  1  0  0  0
 17 18  1  0  0  0
 18 19  1  0  0  0
M  CHG 1  28  -1
M  END
> <minimizedAffinity>
-8.00362

> <CNNscore>
0.8458322287

> <CNNaffinity>
6.7040224075

> <CNN_VS>
5.6704783440

> <CNNaffinity_variance>
0.5100781918

$$$$
/media/chris/experiments/cd1a-new-docking/inputs/ligands/4x6c_ligand.pdb


 37 36  0  0  0  0  0  0  0  0999 V2000
  -44.4542   59.7387   66.2443 O   0  0  0  0  0  0  0  0  0  0  0  0
  -43.9978   59.1041   65.3434 C   0  0  0  0  0  0  0  0  0  0  0  0
  -44.7478   58.0668   64.5736 C   0  0  0  0  0  0  0  0  0  0  0  0
  -45.2589   56.9371   65.4477 C   0  0  0  0  0  0  0  0  0  0  0  0
  -46.7360   57.0529   65.7563 C   0  0  0  0  0  0  0  0  0  0  0  0
  -47.4787   58.0497   64.8981 C   0  0  0  0  0  0  0  0  0  0  0  0
  -48.1715   59.1342   65.6830 C   0  0  0  0  0  0  0  0  0  0  0  0
  -48.9496   60.0733   64.8010 C   0  0  0  0  0  0  0  0  0  0  0  0
  -50.4313   59.8422   64.7632 C   0  0  0  0  0  0  0  0  0  0  0  0
  -51.0279   60.1001   63.4447 C   0  0  0  0  0  0  0  0  0  0  0  0
  -51.0185   59.3203   62.3862 C   0  0  0  0  0  0  0  0  0  0  0  0
  -50.4228   57.9667   62.2539 C   0  0  0  0  0  0  0  0  0  0  0  0
  -50.8192   57.1974   61.0104 C   0  0  0  0  0  0  0  0  0  0  0  0
  -50.4280   57.9029   59.7410 C   0  0  0  0  0  0  0  0  0  0  0  0
  -49.4735   57.1353   58.8626 C   0  0  0  0  0  0  0  0  0  0  0  0
  -48.6084   56.1726   59.6460 C   0  0  0  0  0  0  0  0  0  0  0  0
  -47.5105   55.5194   58.8536 C   0  0  0  0  0  0  0  0  0  0  0  0
  -46.6085   56.4889   58.2011 C   0  0  0  0  0  0  0  0  0  0  0  0
  -46.7283   56.5036   56.7445 C   0  0  0  0  0  0  0  0  0  0  0  0
  -42.7453   59.2322   64.9057 O   0  0  0  0  0  0  0  0  0  0  0  0
  -42.4822   60.2616   63.9264 C   0  0  0  0  0  0  0  0  0  0  0  0
  -41.0894   60.7836   64.1948 C   0  0  0  0  0  0  0  0  0  0  0  0
  -41.1309   62.2046   64.3271 O   0  0  0  0  0  0  0  0  0  0  0  0
  -41.6694   62.4418   65.0982 H   0  0  0  0  0  0  0  0  0  0  0  0
  -40.4177   60.2112   65.4194 C   0  0  0  0  0  0  0  0  0  0  0  0
  -39.4795   61.1827   65.9244 O   0  0  0  0  0  0  0  0  0  0  0  0
  -37.9403   61.0619   65.5426 P   0  0  0  0  0  0  0  0  0  0  0  0
  -37.1876   60.9512   66.8084 O   0  0  0  0  0  0  0  0  0  0  0  0
  -37.8313   59.9803   64.5439 O   0  0  0  0  0  0  0  0  0  0  0  0
  -38.0937   59.1388   64.9488 H   0  0  0  0  0  0  0  0  0  0  0  0
  -37.5006   62.4075   64.8263 O   0  0  0  0  0  0  0  0  0  0  0  0
  -36.2188   62.4791   64.1589 C   0  0  0  0  0  0  0  0  0  0  0  0
  -35.3597   63.3877   65.0087 C   0  0  0  0  0  0  0  0  0  0  0  0
  -33.9528   62.9023   65.2960 N   0  0  0  0  0  0  0  0  0  0  0  0
  -33.2483   63.8208   66.2420 C   0  0  0  0  0  0  0  0  0  0  0  0
  -33.1745   62.8413   64.0208 C   0  0  0  0  0  0  0  0  0  0  0  0
  -34.0083   61.5372   65.9064 C   0  0  0  0  0  0  0  0  0  0  0  0
 34 33  1  0  0  0
 34 35  1  0  0  0
 34 36  1  0  0  0
 34 37  1  0  0  0
 22 23  1  0  0  0
 22 25  1  0  0  0
 22 21  1  0  0  0
 23 24  1  0  0  0
 27 26  1  0  0  0
 27 28  2  0  0  0
 27 31  1  0  0  0
 27 29  1  0  0  0
 25 26  1  0  0  0
 32 33  1  0  0  0
 32 31  1  0  0  0
 29 30  1  0  0  0
 20 21  1  0  0  0
 20  2  1  0  0  0
  1  2  2  0  0  0
  2  3  1  0  0  0
  3  4  1  0  0  0
  4  5  1  0  0  0
  5  6  1  0  0  0
  6  7  1  0  0  0
  7  8  1  0  0  0
  8  9  1  0  0  0
  9 10  1  0  0  0
 10 11  2  0  0  0
 11 12  1  0  0  0
 12 13  1  0  0  0
 13 14  1  0  0  0
 14 15  1  0  0  0
 15 16  1  0  0  0
 16 17  1  0  0  0
 17 18  1  0  0  0
 18 19  1  0  0  0
M  CHG 1  28  -1
M  END
> <minimizedAffinity>
-7.90971

> <CNNscore>
0.7998838425

> <CNNaffinity>
6.6292433739

> <CNN_VS>
5.3026247025

> <CNNaffinity_variance>
0.4621663988

$$$$
/media/chris/experiments/cd1a-new-docking/inputs/ligands/4x6c_ligand.pdb


 37 36  0  0  0  0  0  0  0  0999 V2000
  -43.6954   59.8000   64.8548 O   0  0  0  0  0  0  0  0  0  0  0  0
  -43.0077   58.9092   65.2501 C   0  0  0  0  0  0  0  0  0  0  0  0
  -43.5083   57.5478   65.6066 C   0  0  0  0  0  0  0  0  0  0  0  0
  -44.8463   57.2245   64.9689 C   0  0  0  0  0  0  0  0  0  0  0  0
  -45.9553   57.0483   65.9835 C   0  0  0  0  0  0  0  0  0  0  0  0
  -46.6957   58.3188   66.3288 C   0  0  0  0  0  0  0  0  0  0  0  0
  -47.4621   58.9117   65.1741 C   0  0  0  0  0  0  0  0  0  0  0  0
  -48.4436   57.9395   64.5769 C   0  0  0  0  0  0  0  0  0  0  0  0
  -49.8521   58.0554   65.0799 C   0  0  0  0  0  0  0  0  0  0  0  0
  -50.3256   59.4440   65.1718 C   0  0  0  0  0  0  0  0  0  0  0  0
  -50.8458   60.1858   64.2191 C   0  0  0  0  0  0  0  0  0  0  0  0
  -51.1116   59.8069   62.8083 C   0  0  0  0  0  0  0  0  0  0  0  0
  -49.9379   59.9506   61.8611 C   0  0  0  0  0  0  0  0  0  0  0  0
  -49.9725   58.9519   60.7371 C   0  0  0  0  0  0  0  0  0  0  0  0
  -49.3577   57.6150   61.0637 C   0  0  0  0  0  0  0  0  0  0  0  0
  -49.5658   56.5954   59.9656 C   0  0  0  0  0  0  0  0  0  0  0  0
  -48.9785   56.9706   58.6335 C   0  0  0  0  0  0  0  0  0  0  0  0
  -47.5443   56.6411   58.5170 C   0  0  0  0  0  0  0  0  0  0  0  0
  -46.9158   57.2003   57.3218 C   0  0  0  0  0  0  0  0  0  0  0  0
  -41.6918   59.0140   65.4350 O   0  0  0  0  0  0  0  0  0  0  0  0
  -41.1650   60.3201   65.7586 C   0  0  0  0  0  0  0  0  0  0  0  0
  -40.0508   60.6043   64.7777 C   0  0  0  0  0  0  0  0  0  0  0  0
  -40.5944   61.1997   63.5993 O   0  0  0  0  0  0  0  0  0  0  0  0
  -40.9917   62.0556   63.8234 H   0  0  0  0  0  0  0  0  0  0  0  0
  -38.9530   61.4991   65.2997 C   0  0  0  0  0  0  0  0  0  0  0  0
  -37.7125   60.7646   65.2766 O   0  0  0  0  0  0  0  0  0  0  0  0
  -36.9114   60.6168   63.9106 P   0  0  0  0  0  0  0  0  0  0  0  0
  -36.8919   59.1790   63.5736 O   0  0  0  0  0  0  0  0  0  0  0  0
  -37.5118   61.5709   62.9576 O   0  0  0  0  0  0  0  0  0  0  0  0
  -38.4309   61.3161   62.7806 H   0  0  0  0  0  0  0  0  0  0  0  0
  -35.4155   61.0824   64.1608 O   0  0  0  0  0  0  0  0  0  0  0  0
  -34.4679   60.1636   64.7536 C   0  0  0  0  0  0  0  0  0  0  0  0
  -33.2397   60.2104   63.8732 C   0  0  0  0  0  0  0  0  0  0  0  0
  -32.6450   58.8720   63.4824 N   0  0  0  0  0  0  0  0  0  0  0  0
  -32.2612   58.0793   64.6903 C   0  0  0  0  0  0  0  0  0  0  0  0
  -31.4243   59.0918   62.6475 C   0  0  0  0  0  0  0  0  0  0  0  0
  -33.6476   58.0889   62.6945 C   0  0  0  0  0  0  0  0  0  0  0  0
 34 33  1  0  0  0
 34 35  1  0  0  0
 34 36  1  0  0  0
 34 37  1  0  0  0
 22 23  1  0  0  0
 22 25  1  0  0  0
 22 21  1  0  0  0
 23 24  1  0  0  0
 27 26  1  0  0  0
 27 28  2  0  0  0
 27 31  1  0  0  0
 27 29  1  0  0  0
 25 26  1  0  0  0
 32 33  1  0  0  0
 32 31  1  0  0  0
 29 30  1  0  0  0
 20 21  1  0  0  0
 20  2  1  0  0  0
  1  2  2  0  0  0
  2  3  1  0  0  0
  3  4  1  0  0  0
  4  5  1  0  0  0
  5  6  1  0  0  0
  6  7  1  0  0  0
  7  8  1  0  0  0
  8  9  1  0  0  0
  9 10  1  0  0  0
 10 11  2  0  0  0
 11 12  1  0  0  0
 12 13  1  0  0  0
 13 14  1  0  0  0
 14 15  1  0  0  0
 15 16  1  0  0  0
 16 17  1  0  0  0
 17 18  1  0  0  0
 18 19  1  0  0  0
M  CHG 1  28  -1
M  END
> <minimizedAffinity>
-7.63176

> <CNNscore>
0.7862564325

> <CNNaffinity>
6.4842133522

> <CNN_VS>
5.0982546806

> <CNNaffinity_variance>
0.3353821933

$$$$
/media/chris/experiments/cd1a-new-docking/inputs/ligands/4x6c_ligand.pdb


 37 36  0  0  0  0  0  0  0  0999 V2000
  -42.5877   57.2831   65.8059 O   0  0  0  0  0  0  0  0  0  0  0  0
  -42.4891   58.4692   65.7269 C   0  0  0  0  0  0  0  0  0  0  0  0
  -43.3938   59.3419   64.9200 C   0  0  0  0  0  0  0  0  0  0  0  0
  -44.8561   58.9609   65.0540 C   0  0  0  0  0  0  0  0  0  0  0  0
  -45.3793   59.1193   66.4652 C   0  0  0  0  0  0  0  0  0  0  0  0
  -46.8134   58.6837   66.6538 C   0  0  0  0  0  0  0  0  0  0  0  0
  -47.7247   59.0759   65.5190 C   0  0  0  0  0  0  0  0  0  0  0  0
  -48.5402   57.9174   65.0109 C   0  0  0  0  0  0  0  0  0  0  0  0
  -50.0278   58.0943   65.0873 C   0  0  0  0  0  0  0  0  0  0  0  0
  -50.4453   59.5029   65.1375 C   0  0  0  0  0  0  0  0  0  0  0  0
  -50.8779   60.2539   64.1488 C   0  0  0  0  0  0  0  0  0  0  0  0
  -51.0789   59.8686   62.7291 C   0  0  0  0  0  0  0  0  0  0  0  0
  -49.8714   60.0358   61.8296 C   0  0  0  0  0  0  0  0  0  0  0  0
  -49.7492   58.9365   60.8104 C   0  0  0  0  0  0  0  0  0  0  0  0
  -49.2903   57.6121   61.3649 C   0  0  0  0  0  0  0  0  0  0  0  0
  -49.4138   56.4871   60.3609 C   0  0  0  0  0  0  0  0  0  0  0  0
  -48.2142   56.2937   59.4758 C   0  0  0  0  0  0  0  0  0  0  0  0
  -48.3929   56.8572   58.1231 C   0  0  0  0  0  0  0  0  0  0  0  0
  -47.1328   57.1957   57.4645 C   0  0  0  0  0  0  0  0  0  0  0  0
  -41.5457   59.1779   66.3471 O   0  0  0  0  0  0  0  0  0  0  0  0
  -41.6620   60.6178   66.3137 C   0  0  0  0  0  0  0  0  0  0  0  0
  -40.5109   61.1366   65.4829 C   0  0  0  0  0  0  0  0  0  0  0  0
  -40.1489   62.4420   65.9336 O   0  0  0  0  0  0  0  0  0  0  0  0
  -39.8301   62.3912   66.8483 H   0  0  0  0  0  0  0  0  0  0  0  0
  -39.2749   60.2702   65.4924 C   0  0  0  0  0  0  0  0  0  0  0  0
  -38.2686   60.9153   66.2987 O   0  0  0  0  0  0  0  0  0  0  0  0
  -36.9117   61.3990   65.6247 P   0  0  0  0  0  0  0  0  0  0  0  0
  -37.2779   62.1693   64.4189 O   0  0  0  0  0  0  0  0  0  0  0  0
  -36.1183   62.0539   66.6833 O   0  0  0  0  0  0  0  0  0  0  0  0
  -36.5839   62.8467   66.9926 H   0  0  0  0  0  0  0  0  0  0  0  0
  -36.1042   60.1148   65.1600 O   0  0  0  0  0  0  0  0  0  0  0  0
  -35.8096   59.9218   63.7566 C   0  0  0  0  0  0  0  0  0  0  0  0
  -36.0985   58.4659   63.4693 C   0  0  0  0  0  0  0  0  0  0  0  0
  -37.3070   58.1824   62.5993 N   0  0  0  0  0  0  0  0  0  0  0  0
  -37.8247   59.4362   61.9709 C   0  0  0  0  0  0  0  0  0  0  0  0
  -38.3935   57.5820   63.4327 C   0  0  0  0  0  0  0  0  0  0  0  0
  -36.9298   57.2235   61.5142 C   0  0  0  0  0  0  0  0  0  0  0  0
 34 33  1  0  0  0
 34 35  1  0  0  0
 34 36  1  0  0  0
 34 37  1  0  0  0
 22 23  1  0  0  0
 22 25  1  0  0  0
 22 21  1  0  0  0
 23 24  1  0  0  0
 27 26  1  0  0  0
 27 28  2  0  0  0
 27 31  1  0  0  0
 27 29  1  0  0  0
 25 26  1  0  0  0
 32 33  1  0  0  0
 32 31  1  0  0  0
 29 30  1  0  0  0
 20 21  1  0  0  0
 20  2  1  0  0  0
  1  2  2  0  0  0
  2  3  1  0  0  0
  3  4  1  0  0  0
  4  5  1  0  0  0
  5  6  1  0  0  0
  6  7  1  0  0  0
  7  8  1  0  0  0
  8  9  1  0  0  0
  9 10  1  0  0  0
 10 11  2  0  0  0
 11 12  1  0  0  0
 12 13  1  0  0  0
 13 14  1  0  0  0
 14 15  1  0  0  0
 15 16  1  0  0  0
 16 17  1  0  0  0
 17 18  1  0  0  0
 18 19  1  0  0  0
M  CHG 1  28  -1
M  END
> <minimizedAffinity>
-8.29232

> <CNNscore>
0.7787165046

> <CNNaffinity>
6.9876608849

> <CNN_VS>
5.4414067268

> <CNNaffinity_variance>
0.2720338106

$$$$
/media/chris/experiments/cd1a-new-docking/inputs/ligands/4x6c_ligand.pdb


 37 36  0  0  0  0  0  0  0  0999 V2000
  -42.1940   58.1387   65.3986 O   0  0  0  0  0  0  0  0  0  0  0  0
  -42.5528   59.1624   65.8946 C   0  0  0  0  0  0  0  0  0  0  0  0
  -43.9811   59.5634   66.0688 C   0  0  0  0  0  0  0  0  0  0  0  0
  -44.9278   58.7783   65.1807 C   0  0  0  0  0  0  0  0  0  0  0  0
  -46.3447   58.7477   65.7116 C   0  0  0  0  0  0  0  0  0  0  0  0
  -47.4135   58.7524   64.6441 C   0  0  0  0  0  0  0  0  0  0  0  0
  -48.3989   57.6178   64.7621 C   0  0  0  0  0  0  0  0  0  0  0  0
  -49.7651   58.0858   65.1861 C   0  0  0  0  0  0  0  0  0  0  0  0
  -49.9532   59.5735   65.2239 C   0  0  0  0  0  0  0  0  0  0  0  0
  -51.0015   60.0518   64.3111 C   0  0  0  0  0  0  0  0  0  0  0  0
  -50.8870   60.3579   63.0376 C   0  0  0  0  0  0  0  0  0  0  0  0
  -49.6746   60.2785   62.1842 C   0  0  0  0  0  0  0  0  0  0  0  0
  -49.7528   59.3034   61.0274 C   0  0  0  0  0  0  0  0  0  0  0  0
  -50.2319   57.9409   61.4471 C   0  0  0  0  0  0  0  0  0  0  0  0
  -50.3370   56.9379   60.3269 C   0  0  0  0  0  0  0  0  0  0  0  0
  -49.2945   57.1549   59.2522 C   0  0  0  0  0  0  0  0  0  0  0  0
  -48.0964   56.2511   59.3407 C   0  0  0  0  0  0  0  0  0  0  0  0
  -47.4778   55.9759   58.0289 C   0  0  0  0  0  0  0  0  0  0  0  0
  -46.9871   57.1766   57.3553 C   0  0  0  0  0  0  0  0  0  0  0  0
  -41.7197   60.0953   66.3556 O   0  0  0  0  0  0  0  0  0  0  0  0
  -40.3908   60.1420   65.7900 C   0  0  0  0  0  0  0  0  0  0  0  0
  -40.2597   61.4669   65.0746 C   0  0  0  0  0  0  0  0  0  0  0  0
  -38.9890   62.0453   65.3731 O   0  0  0  0  0  0  0  0  0  0  0  0
  -38.2848   61.4736   65.0294 H   0  0  0  0  0  0  0  0  0  0  0  0
  -40.4116   61.4006   63.5743 C   0  0  0  0  0  0  0  0  0  0  0  0
  -39.6462   60.2811   63.0846 O   0  0  0  0  0  0  0  0  0  0  0  0
  -38.8290   60.4207   61.7274 P   0  0  0  0  0  0  0  0  0  0  0  0
  -39.8075   60.7160   60.6613 O   0  0  0  0  0  0  0  0  0  0  0  0
  -37.7342   61.3771   61.9841 O   0  0  0  0  0  0  0  0  0  0  0  0
  -38.1076   62.2494   62.1855 H   0  0  0  0  0  0  0  0  0  0  0  0
  -38.1606   59.0183   61.4052 O   0  0  0  0  0  0  0  0  0  0  0  0
  -37.8938   58.0871   62.4801 C   0  0  0  0  0  0  0  0  0  0  0  0
  -36.4283   58.2496   62.8144 C   0  0  0  0  0  0  0  0  0  0  0  0
  -36.0829   58.3299   64.2881 N   0  0  0  0  0  0  0  0  0  0  0  0
  -36.7526   57.2380   65.0589 C   0  0  0  0  0  0  0  0  0  0  0  0
  -36.5323   59.6464   64.8361 C   0  0  0  0  0  0  0  0  0  0  0  0
  -34.6024   58.2013   64.4638 C   0  0  0  0  0  0  0  0  0  0  0  0
 34 33  1  0  0  0
 34 35  1  0  0  0
 34 36  1  0  0  0
 34 37  1  0  0  0
 22 23  1  0  0  0
 22 25  1  0  0  0
 22 21  1  0  0  0
 23 24  1  0  0  0
 27 26  1  0  0  0
 27 28  2  0  0  0
 27 31  1  0  0  0
 27 29  1  0  0  0
 25 26  1  0  0  0
 32 33  1  0  0  0
 32 31  1  0  0  0
 29 30  1  0  0  0
 20 21  1  0  0  0
 20  2  1  0  0  0
  1  2  2  0  0  0
  2  3  1  0  0  0
  3  4  1  0  0  0
  4  5  1  0  0  0
  5  6  1  0  0  0
  6  7  1  0  0  0
  7  8  1  0  0  0
  8  9  1  0  0  0
  9 10  1  0  0  0
 10 11  2  0  0  0
 11 12  1  0  0  0
 12 13  1  0  0  0
 13 14  1  0  0  0
 14 15  1  0  0  0
 15 16  1  0  0  0
 16 17  1  0  0  0
 17 18  1  0  0  0
 18 19  1  0  0  0
M  CHG 1  28  -1
M  END
> <minimizedAffinity>
-8.39838

> <CNNscore>
0.7649270892

> <CNNaffinity>
6.8182611465

> <CNN_VS>
5.2154726982

> <CNNaffinity_variance>
0.4341681004

$$$$
/media/chris/experiments/cd1a-new-docking/inputs/ligands/4x6c_ligand.pdb


 37 36  0  0  0  0  0  0  0  0999 V2000
  -42.2819   58.2892   65.9680 O   0  0  0  0  0  0  0  0  0  0  0  0
  -42.6063   59.3626   65.5614 C   0  0  0  0  0  0  0  0  0  0  0  0
  -44.0152   59.7702   65.2789 C   0  0  0  0  0  0  0  0  0  0  0  0
  -44.8768   58.6201   64.7926 C   0  0  0  0  0  0  0  0  0  0  0  0
  -46.2373   58.5824   65.4543 C   0  0  0  0  0  0  0  0  0  0  0  0
  -47.3711   58.1977   64.5333 C   0  0  0  0  0  0  0  0  0  0  0  0
  -48.4063   57.3109   65.1768 C   0  0  0  0  0  0  0  0  0  0  0  0
  -49.7864   57.9094   65.1263 C   0  0  0  0  0  0  0  0  0  0  0  0
  -49.8453   59.4033   65.2494 C   0  0  0  0  0  0  0  0  0  0  0  0
  -50.8869   60.0163   64.4125 C   0  0  0  0  0  0  0  0  0  0  0  0
  -50.7938   60.4031   63.1594 C   0  0  0  0  0  0  0  0  0  0  0  0
  -49.6197   60.3007   62.2564 C   0  0  0  0  0  0  0  0  0  0  0  0
  -49.7865   59.3724   61.0707 C   0  0  0  0  0  0  0  0  0  0  0  0
  -50.2622   58.0020   61.4679 C   0  0  0  0  0  0  0  0  0  0  0  0
  -50.4283   57.0367   60.3223 C   0  0  0  0  0  0  0  0  0  0  0  0
  -49.3311   57.1662   59.2888 C   0  0  0  0  0  0  0  0  0  0  0  0
  -48.3807   56.0031   59.2252 C   0  0  0  0  0  0  0  0  0  0  0  0
  -47.0501   56.3677   58.6999 C   0  0  0  0  0  0  0  0  0  0  0  0
  -47.0929   56.9314   57.3521 C   0  0  0  0  0  0  0  0  0  0  0  0
  -41.7465   60.3459   65.2956 O   0  0  0  0  0  0  0  0  0  0  0  0
  -40.3478   60.1000   65.5622 C   0  0  0  0  0  0  0  0  0  0  0  0
  -39.5812   61.2967   65.0478 C   0  0  0  0  0  0  0  0  0  0  0  0
  -39.8580   62.4294   65.8717 O   0  0  0  0  0  0  0  0  0  0  0  0
  -39.5377   62.2606   66.7716 H   0  0  0  0  0  0  0  0  0  0  0  0
  -38.0845   61.1144   64.9771 C   0  0  0  0  0  0  0  0  0  0  0  0
  -37.4525   62.2997   65.5012 O   0  0  0  0  0  0  0  0  0  0  0  0
  -36.0370   62.1851   66.2170 P   0  0  0  0  0  0  0  0  0  0  0  0
  -36.2738   61.6048   67.5543 O   0  0  0  0  0  0  0  0  0  0  0  0
  -35.1385   61.4852   65.2779 O   0  0  0  0  0  0  0  0  0  0  0  0
  -35.4615   60.5819   65.1339 H   0  0  0  0  0  0  0  0  0  0  0  0
  -35.4610   63.6504   66.4130 O   0  0  0  0  0  0  0  0  0  0  0  0
  -34.1084   63.9511   65.9961 C   0  0  0  0  0  0  0  0  0  0  0  0
  -34.2270   65.0578   64.9728 C   0  0  0  0  0  0  0  0  0  0  0  0
  -33.9277   64.6761   63.5368 N   0  0  0  0  0  0  0  0  0  0  0  0
  -33.3623   65.8336   62.7781 C   0  0  0  0  0  0  0  0  0  0  0  0
  -35.1874   64.2335   62.8639 C   0  0  0  0  0  0  0  0  0  0  0  0
  -32.9350   63.5567   63.5120 C   0  0  0  0  0  0  0  0  0  0  0  0
 34 33  1  0  0  0
 34 35  1  0  0  0
 34 36  1  0  0  0
 34 37  1  0  0  0
 22 23  1  0  0  0
 22 25  1  0  0  0
 22 21  1  0  0  0
 23 24  1  0  0  0
 27 26  1  0  0  0
 27 28  2  0  0  0
 27 31  1  0  0  0
 27 29  1  0  0  0
 25 26  1  0  0  0
 32 33  1  0  0  0
 32 31  1  0  0  0
 29 30  1  0  0  0
 20 21  1  0  0  0
 20  2  1  0  0  0
  1  2  2  0  0  0
  2  3  1  0  0  0
  3  4  1  0  0  0
  4  5  1  0  0  0
  5  6  1  0  0  0
  6  7  1  0  0  0
  7  8  1  0  0  0
  8  9  1  0  0  0
  9 10  1  0  0  0
 10 11  2  0  0  0
 11 12  1  0  0  0
 12 13  1  0  0  0
 13 14  1  0  0  0
 14 15  1  0  0  0
 15 16  1  0  0  0
 16 17  1  0  0  0
 17 18  1  0  0  0
 18 19  1  0  0  0
M  CHG 1  28  -1
M  END
> <minimizedAffinity>
-8.23011

> <CNNscore>
0.7520308495

> <CNNaffinity>
6.3602228165

> <CNN_VS>
4.7830839157

> <CNNaffinity_variance>
0.2799016237

$$$$
/media/chris/experiments/cd1a-new-docking/inputs/ligands/4x6c_ligand.pdb


 37 36  0  0  0  0  0  0  0  0999 V2000
  -40.3274   58.4562   64.8812 O   0  0  0  0  0  0  0  0  0  0  0  0
  -40.9507   59.3078   65.4372 C   0  0  0  0  0  0  0  0  0  0  0  0
  -42.1275   59.0546   66.3216 C   0  0  0  0  0  0  0  0  0  0  0  0
  -43.4106   59.6612   65.7857 C   0  0  0  0  0  0  0  0  0  0  0  0
  -44.1706   58.7220   64.8743 C   0  0  0  0  0  0  0  0  0  0  0  0
  -45.1582   57.8249   65.5827 C   0  0  0  0  0  0  0  0  0  0  0  0
  -46.5760   57.9706   65.0922 C   0  0  0  0  0  0  0  0  0  0  0  0
  -46.9642   59.4088   64.8773 C   0  0  0  0  0  0  0  0  0  0  0  0
  -48.0959   59.9044   65.7281 C   0  0  0  0  0  0  0  0  0  0  0  0
  -49.2698   59.0198   65.7095 C   0  0  0  0  0  0  0  0  0  0  0  0
  -50.3498   59.1247   64.9670 C   0  0  0  0  0  0  0  0  0  0  0  0
  -50.6551   60.1506   63.9381 C   0  0  0  0  0  0  0  0  0  0  0  0
  -51.1763   59.6179   62.6190 C   0  0  0  0  0  0  0  0  0  0  0  0
  -50.1100   58.9381   61.8047 C   0  0  0  0  0  0  0  0  0  0  0  0
  -50.4998   57.5885   61.2584 C   0  0  0  0  0  0  0  0  0  0  0  0
  -50.5192   57.5568   59.7460 C   0  0  0  0  0  0  0  0  0  0  0  0
  -49.1929   57.2634   59.1017 C   0  0  0  0  0  0  0  0  0  0  0  0
  -48.4749   56.1398   59.7351 C   0  0  0  0  0  0  0  0  0  0  0  0
  -47.3213   55.6802   58.9643 C   0  0  0  0  0  0  0  0  0  0  0  0
  -40.6821   60.6095   65.3357 O   0  0  0  0  0  0  0  0  0  0  0  0
  -40.3496   61.1225   64.0265 C   0  0  0  0  0  0  0  0  0  0  0  0
  -38.9315   61.6403   64.1000 C   0  0  0  0  0  0  0  0  0  0  0  0
  -38.6132   61.9659   65.4532 O   0  0  0  0  0  0  0  0  0  0  0  0
  -38.6434   61.1618   65.9948 H   0  0  0  0  0  0  0  0  0  0  0  0
  -37.8779   60.6938   63.5780 C   0  0  0  0  0  0  0  0  0  0  0  0
  -38.4368   59.9460   62.4792 O   0  0  0  0  0  0  0  0  0  0  0  0
  -37.6224   58.7267   61.8629 P   0  0  0  0  0  0  0  0  0  0  0  0
  -38.0611   57.5093   62.5747 O   0  0  0  0  0  0  0  0  0  0  0  0
  -37.7850   58.8013   60.3976 O   0  0  0  0  0  0  0  0  0  0  0  0
  -38.7182   58.6684   60.1686 H   0  0  0  0  0  0  0  0  0  0  0  0
  -36.0833   58.9504   62.1759 O   0  0  0  0  0  0  0  0  0  0  0  0
  -35.1813   57.8190   62.1849 C   0  0  0  0  0  0  0  0  0  0  0  0
  -34.5886   57.7731   63.5749 C   0  0  0  0  0  0  0  0  0  0  0  0
  -33.2083   58.3787   63.7342 N   0  0  0  0  0  0  0  0  0  0  0  0
  -32.5711   57.9392   65.0131 C   0  0  0  0  0  0  0  0  0  0  0  0
  -33.3142   59.8701   63.7412 C   0  0  0  0  0  0  0  0  0  0  0  0
  -32.3384   57.9509   62.5942 C   0  0  0  0  0  0  0  0  0  0  0  0
 34 33  1  0  0  0
 34 35  1  0  0  0
 34 36  1  0  0  0
 34 37  1  0  0  0
 22 23  1  0  0  0
 22 25  1  0  0  0
 22 21  1  0  0  0
 23 24  1  0  0  0
 27 26  1  0  0  0
 27 28  2  0  0  0
 27 31  1  0  0  0
 27 29  1  0  0  0
 25 26  1  0  0  0
 32 33  1  0  0  0
 32 31  1  0  0  0
 29 30  1  0  0  0
 20 21  1  0  0  0
 20  2  1  0  0  0
  1  2  2  0  0  0
  2  3  1  0  0  0
  3  4  1  0  0  0
  4  5  1  0  0  0
  5  6  1  0  0  0
  6  7  1  0  0  0
  7  8  1  0  0  0
  8  9  1  0  0  0
  9 10  1  0  0  0
 10 11  2  0  0  0
 11 12  1  0  0  0
 12 13  1  0  0  0
 13 14  1  0  0  0
 14 15  1  0  0  0
 15 16  1  0  0  0
 16 17  1  0  0  0
 17 18  1  0  0  0
 18 19  1  0  0  0
M  CHG 1  28  -1
M  END
> <minimizedAffinity>
-7.75032

> <CNNscore>
0.7195031643

> <CNNaffinity>
6.5444841385

> <CNN_VS>
4.7087769508

> <CNNaffinity_variance>
0.4589281678

$$$$
