/media/chris/experiments/cd1a-new-docking/inputs/ligands/4x6c_ligand.pdb


 37 36  0  0  0  0  0  0  0  0999 V2000
  -42.2379   58.1315   66.3757 O   0  0  0  0  0  0  0  0  0  0  0  0
  -42.9429   58.8794   65.7703 C   0  0  0  0  0  0  0  0  0  0  0  0
  -44.0262   58.4512   64.8353 C   0  0  0  0  0  0  0  0  0  0  0  0
  -44.6517   57.1248   65.2236 C   0  0  0  0  0  0  0  0  0  0  0  0
  -46.0290   57.2785   65.8317 C   0  0  0  0  0  0  0  0  0  0  0  0
  -46.4856   58.7092   65.9944 C   0  0  0  0  0  0  0  0  0  0  0  0
  -47.4774   59.1558   64.9508 C   0  0  0  0  0  0  0  0  0  0  0  0
  -48.3748   58.0365   64.4956 C   0  0  0  0  0  0  0  0  0  0  0  0
  -49.7676   58.0609   65.0521 C   0  0  0  0  0  0  0  0  0  0  0  0
  -50.3126   59.4182   65.1995 C   0  0  0  0  0  0  0  0  0  0  0  0
  -50.8965   60.1591   64.2837 C   0  0  0  0  0  0  0  0  0  0  0  0
  -51.1779   59.8092   62.8685 C   0  0  0  0  0  0  0  0  0  0  0  0
  -50.0884   60.1667   61.8783 C   0  0  0  0  0  0  0  0  0  0  0  0
  -49.9027   59.1192   60.8151 C   0  0  0  0  0  0  0  0  0  0  0  0
  -49.9694   57.6982   61.3131 C   0  0  0  0  0  0  0  0  0  0  0  0
  -49.7400   56.6852   60.2131 C   0  0  0  0  0  0  0  0  0  0  0  0
  -48.9888   57.2054   59.0195 C   0  0  0  0  0  0  0  0  0  0  0  0
  -47.7588   56.4426   58.7289 C   0  0  0  0  0  0  0  0  0  0  0  0
  -47.0023   56.9713   57.5956 C   0  0  0  0  0  0  0  0  0  0  0  0
  -42.8512   60.2073   65.8425 O   0  0  0  0  0  0  0  0  0  0  0  0
  -41.7826   60.7602   66.6428 C   0  0  0  0  0  0  0  0  0  0  0  0
  -40.7218   61.2539   65.6861 C   0  0  0  0  0  0  0  0  0  0  0  0
  -40.4792   62.6414   65.9191 O   0  0  0  0  0  0  0  0  0  0  0  0
  -40.1237   62.7617   66.8135 H   0  0  0  0  0  0  0  0  0  0  0  0
  -39.4040   60.5216   65.7602 C   0  0  0  0  0  0  0  0  0  0  0  0
  -38.4745   61.1576   64.8599 O   0  0  0  0  0  0  0  0  0  0  0  0
  -37.0037   61.4984   65.3597 P   0  0  0  0  0  0  0  0  0  0  0  0
  -36.6865   62.8576   64.8768 O   0  0  0  0  0  0  0  0  0  0  0  0
  -36.9708   61.2244   66.8099 O   0  0  0  0  0  0  0  0  0  0  0  0
  -37.5767   61.8286   67.2669 H   0  0  0  0  0  0  0  0  0  0  0  0
  -35.9981   60.4848   64.6680 O   0  0  0  0  0  0  0  0  0  0  0  0
  -36.2527   59.0621   64.7374 C   0  0  0  0  0  0  0  0  0  0  0  0
  -36.0937   58.5437   63.3261 C   0  0  0  0  0  0  0  0  0  0  0  0
  -37.3754   58.2359   62.5778 N   0  0  0  0  0  0  0  0  0  0  0  0
  -37.8702   59.4378   61.8394 C   0  0  0  0  0  0  0  0  0  0  0  0
  -38.4287   57.8032   63.5466 C   0  0  0  0  0  0  0  0  0  0  0  0
  -37.1290   57.1368   61.5925 C   0  0  0  0  0  0  0  0  0  0  0  0
 34 33  1  0  0  0
 34 35  1  0  0  0
 34 36  1  0  0  0
 34 37  1  0  0  0
 22 23  1  0  0  0
 22 25  1  0  0  0
 22 21  1  0  0  0
 23 24  1  0  0  0
 27 26  1  0  0  0
 27 28  2  0  0  0
 27 31  1  0  0  0
 27 29  1  0  0  0
 25 26  1  0  0  0
 32 33  1  0  0  0
 32 31  1  0  0  0
 29 30  1  0  0  0
 20 21  1  0  0  0
 20  2  1  0  0  0
  1  2  2  0  0  0
  2  3  1  0  0  0
  3  4  1  0  0  0
  4  5  1  0  0  0
  5  6  1  0  0  0
  6  7  1  0  0  0
  7  8  1  0  0  0
  8  9  1  0  0  0
  9 10  1  0  0  0
 10 11  2  0  0  0
 11 12  1  0  0  0
 12 13  1  0  0  0
 13 14  1  0  0  0
 14 15  1  0  0  0
 15 16  1  0  0  0
 16 17  1  0  0  0
 17 18  1  0  0  0
 18 19  1  0  0  0
M  CHG 1  28  -1
M  END
> <minimizedAffinity>
-8.28456

> <CNNscore>
0.8999043703

> <CNNaffinity>
7.2196702957

> <CNN_VS>
6.4970126152

> <CNNaffinity_variance>
0.3196567595

$$$$
/media/chris/experiments/cd1a-new-docking/inputs/ligands/4x6c_ligand.pdb


 37 36  0  0  0  0  0  0  0  0999 V2000
  -42.2708   57.9924   66.0620 O   0  0  0  0  0  0  0  0  0  0  0  0
  -42.7155   59.0390   65.7016 C   0  0  0  0  0  0  0  0  0  0  0  0
  -44.1728   59.3399   65.5725 C   0  0  0  0  0  0  0  0  0  0  0  0
  -44.9307   58.2728   64.8054 C   0  0  0  0  0  0  0  0  0  0  0  0
  -46.4237   58.3209   65.0483 C   0  0  0  0  0  0  0  0  0  0  0  0
  -46.8322   59.0807   66.2884 C   0  0  0  0  0  0  0  0  0  0  0  0
  -47.8653   60.1492   66.0370 C   0  0  0  0  0  0  0  0  0  0  0  0
  -47.6187   60.8952   64.7532 C   0  0  0  0  0  0  0  0  0  0  0  0
  -48.7180   60.8079   63.7363 C   0  0  0  0  0  0  0  0  0  0  0  0
  -50.0385   60.5456   64.3266 C   0  0  0  0  0  0  0  0  0  0  0  0
  -51.0763   59.9681   63.7626 C   0  0  0  0  0  0  0  0  0  0  0  0
  -51.1774   59.4102   62.3903 C   0  0  0  0  0  0  0  0  0  0  0  0
  -50.3495   58.1689   62.1273 C   0  0  0  0  0  0  0  0  0  0  0  0
  -50.8230   57.3984   60.9256 C   0  0  0  0  0  0  0  0  0  0  0  0
  -49.8077   57.2719   59.8188 C   0  0  0  0  0  0  0  0  0  0  0  0
  -49.0610   55.9569   59.8622 C   0  0  0  0  0  0  0  0  0  0  0  0
  -47.8208   55.9045   59.0144 C   0  0  0  0  0  0  0  0  0  0  0  0
  -47.8313   56.8814   57.9077 C   0  0  0  0  0  0  0  0  0  0  0  0
  -47.2131   56.3775   56.6831 C   0  0  0  0  0  0  0  0  0  0  0  0
  -41.9643   60.0845   65.3557 O   0  0  0  0  0  0  0  0  0  0  0  0
  -40.6374   60.1696   65.9218 C   0  0  0  0  0  0  0  0  0  0  0  0
  -39.8877   61.2222   65.1380 C   0  0  0  0  0  0  0  0  0  0  0  0
  -39.8438   62.4347   65.8904 O   0  0  0  0  0  0  0  0  0  0  0  0
  -39.3436   62.2895   66.7087 H   0  0  0  0  0  0  0  0  0  0  0  0
  -38.4762   60.8488   64.7548 C   0  0  0  0  0  0  0  0  0  0  0  0
  -37.6818   62.0508   64.7028 O   0  0  0  0  0  0  0  0  0  0  0  0
  -36.2685   62.0916   65.4313 P   0  0  0  0  0  0  0  0  0  0  0  0
  -36.4949   61.7003   66.8373 O   0  0  0  0  0  0  0  0  0  0  0  0
  -35.3384   61.2976   64.6045 O   0  0  0  0  0  0  0  0  0  0  0  0
  -35.6279   60.3719   64.5907 H   0  0  0  0  0  0  0  0  0  0  0  0
  -35.7468   63.5899   65.4168 O   0  0  0  0  0  0  0  0  0  0  0  0
  -35.1245   64.1211   64.2235 C   0  0  0  0  0  0  0  0  0  0  0  0
  -34.0669   65.0889   64.7039 C   0  0  0  0  0  0  0  0  0  0  0  0
  -32.7519   65.0715   63.9504 N   0  0  0  0  0  0  0  0  0  0  0  0
  -31.6560   65.6803   64.7647 C   0  0  0  0  0  0  0  0  0  0  0  0
  -32.8923   65.8488   62.6810 C   0  0  0  0  0  0  0  0  0  0  0  0
  -32.3788   63.6590   63.6258 C   0  0  0  0  0  0  0  0  0  0  0  0
 34 33  1  0  0  0
 34 35  1  0  0  0
 34 36  1  0  0  0
 34 37  1  0  0  0
 22 23  1  0  0  0
 22 25  1  0  0  0
 22 21  1  0  0  0
 23 24  1  0  0  0
 27 26  1  0  0  0
 27 28  2  0  0  0
 27 31  1  0  0  0
 27 29  1  0  0  0
 25 26  1  0  0  0
 32 33  1  0  0  0
 32 31  1  0  0  0
 29 30  1  0  0  0
 20 21  1  0  0  0
 20  2  1  0  0  0
  1  2  2  0  0  0
  2  3  1  0  0  0
  3  4  1  0  0  0
  4  5  1  0  0  0
  5  6  1  0  0  0
  6  7  1  0  0  0
  7  8  1  0  0  0
  8  9  1  0  0  0
  9 10  1  0  0  0
 10 11  2  0  0  0
 11 12  1  0  0  0
 12 13  1  0  0  0
 13 14  1  0  0  0
 14 15  1  0  0  0
 15 16  1  0  0  0
 16 17  1  0  0  0
 17 18  1  0  0  0
 18 19  1  0  0  0
M  CHG 1  28  -1
M  END
> <minimizedAffinity>
-8.26778

> <CNNscore>
0.8210125566

> <CNNaffinity>
6.3819417953

> <CNN_VS>
5.2396545410

> <CNNaffinity_variance>
0.3702063560

$$$$
/media/chris/experiments/cd1a-new-docking/inputs/ligands/4x6c_ligand.pdb


 37 36  0  0  0  0  0  0  0  0999 V2000
  -42.1542   57.7740   65.7774 O   0  0  0  0  0  0  0  0  0  0  0  0
  -42.8148   58.6707   65.3501 C   0  0  0  0  0  0  0  0  0  0  0  0
  -44.1798   58.5122   64.7647 C   0  0  0  0  0  0  0  0  0  0  0  0
  -44.9267   57.3155   65.3230 C   0  0  0  0  0  0  0  0  0  0  0  0
  -46.2902   57.6758   65.8719 C   0  0  0  0  0  0  0  0  0  0  0  0
  -46.3419   58.9964   66.6034 C   0  0  0  0  0  0  0  0  0  0  0  0
  -47.5614   59.8233   66.2849 C   0  0  0  0  0  0  0  0  0  0  0  0
  -47.3619   60.6985   65.0768 C   0  0  0  0  0  0  0  0  0  0  0  0
  -48.5740   60.8917   64.2143 C   0  0  0  0  0  0  0  0  0  0  0  0
  -49.7511   60.1499   64.6886 C   0  0  0  0  0  0  0  0  0  0  0  0
  -50.8252   59.8163   64.0078 C   0  0  0  0  0  0  0  0  0  0  0  0
  -51.1190   60.0821   62.5769 C   0  0  0  0  0  0  0  0  0  0  0  0
  -50.2791   59.3066   61.5826 C   0  0  0  0  0  0  0  0  0  0  0  0
  -50.2754   57.8273   61.8539 C   0  0  0  0  0  0  0  0  0  0  0  0
  -50.6566   56.9700   60.6743 C   0  0  0  0  0  0  0  0  0  0  0  0
  -50.2601   57.5900   59.3526 C   0  0  0  0  0  0  0  0  0  0  0  0
  -48.8994   57.1950   58.8506 C   0  0  0  0  0  0  0  0  0  0  0  0
  -48.4616   55.8719   59.3372 C   0  0  0  0  0  0  0  0  0  0  0  0
  -47.1239   55.4994   58.8812 C   0  0  0  0  0  0  0  0  0  0  0  0
  -42.4155   59.9424   65.3309 O   0  0  0  0  0  0  0  0  0  0  0  0
  -41.0321   60.2126   65.6493 C   0  0  0  0  0  0  0  0  0  0  0  0
  -40.6805   61.5365   65.0104 C   0  0  0  0  0  0  0  0  0  0  0  0
  -39.4572   62.0220   65.5636 O   0  0  0  0  0  0  0  0  0  0  0  0
  -38.7378   61.4089   65.3452 H   0  0  0  0  0  0  0  0  0  0  0  0
  -40.5432   61.5041   63.5076 C   0  0  0  0  0  0  0  0  0  0  0  0
  -39.6758   60.4094   63.1497 O   0  0  0  0  0  0  0  0  0  0  0  0
  -38.8773   60.4559   61.7750 P   0  0  0  0  0  0  0  0  0  0  0  0
  -39.8591   60.7586   60.7141 O   0  0  0  0  0  0  0  0  0  0  0  0
  -37.7323   61.3656   61.9763 O   0  0  0  0  0  0  0  0  0  0  0  0
  -38.0586   62.2626   62.1494 H   0  0  0  0  0  0  0  0  0  0  0  0
  -38.2848   59.0105   61.4973 O   0  0  0  0  0  0  0  0  0  0  0  0
  -37.9990   58.1271   62.6070 C   0  0  0  0  0  0  0  0  0  0  0  0
  -36.4948   57.9783   62.6409 C   0  0  0  0  0  0  0  0  0  0  0  0
  -35.8264   58.2391   63.9761 N   0  0  0  0  0  0  0  0  0  0  0  0
  -34.3921   58.6194   63.7956 C   0  0  0  0  0  0  0  0  0  0  0  0
  -35.8913   57.0049   64.8176 C   0  0  0  0  0  0  0  0  0  0  0  0
  -36.5324   59.3549   64.6807 C   0  0  0  0  0  0  0  0  0  0  0  0
 34 33  1  0  0  0
 34 35  1  0  0  0
 34 36  1  0  0  0
 34 37  1  0  0  0
 22 23  1  0  0  0
 22 25  1  0  0  0
 22 21  1  0  0  0
 23 24  1  0  0  0
 27 26  1  0  0  0
 27 28  2  0  0  0
 27 31  1  0  0  0
 27 29  1  0  0  0
 25 26  1  0  0  0
 32 33  1  0  0  0
 32 31  1  0  0  0
 29 30  1  0  0  0
 20 21  1  0  0  0
 20  2  1  0  0  0
  1  2  2  0  0  0
  2  3  1  0  0  0
  3  4  1  0  0  0
  4  5  1  0  0  0
  5  6  1  0  0  0
  6  7  1  0  0  0
  7  8  1  0  0  0
  8  9  1  0  0  0
  9 10  1  0  0  0
 10 11  2  0  0  0
 11 12  1  0  0  0
 12 13  1  0  0  0
 13 14  1  0  0  0
 14 15  1  0  0  0
 15 16  1  0  0  0
 16 17  1  0  0  0
 17 18  1  0  0  0
 18 19  1  0  0  0
M  CHG 1  28  -1
M  END
> <minimizedAffinity>
-8.45643

> <CNNscore>
0.8082548380

> <CNNaffinity>
6.8501129150

> <CNN_VS>
5.5366368294

> <CNNaffinity_variance>
0.3958644867

$$$$
/media/chris/experiments/cd1a-new-docking/inputs/ligands/4x6c_ligand.pdb


 37 36  0  0  0  0  0  0  0  0999 V2000
  -41.5879   60.9372   63.2533 O   0  0  0  0  0  0  0  0  0  0  0  0
  -41.1539   60.1217   64.0080 C   0  0  0  0  0  0  0  0  0  0  0  0
  -41.9738   59.3699   65.0048 C   0  0  0  0  0  0  0  0  0  0  0  0
  -43.3770   59.9263   65.1556 C   0  0  0  0  0  0  0  0  0  0  0  0
  -44.4424   58.8516   65.1343 C   0  0  0  0  0  0  0  0  0  0  0  0
  -45.6547   59.1549   65.9829 C   0  0  0  0  0  0  0  0  0  0  0  0
  -46.8747   59.5440   65.1876 C   0  0  0  0  0  0  0  0  0  0  0  0
  -48.0110   59.9970   66.0644 C   0  0  0  0  0  0  0  0  0  0  0  0
  -49.3853   59.6889   65.5480 C   0  0  0  0  0  0  0  0  0  0  0  0
  -49.4684   58.4006   64.8449 C   0  0  0  0  0  0  0  0  0  0  0  0
  -49.9824   58.1579   63.6593 C   0  0  0  0  0  0  0  0  0  0  0  0
  -50.5921   59.1255   62.7125 C   0  0  0  0  0  0  0  0  0  0  0  0
  -50.1241   59.0167   61.2757 C   0  0  0  0  0  0  0  0  0  0  0  0
  -49.9618   57.5915   60.8236 C   0  0  0  0  0  0  0  0  0  0  0  0
  -49.2089   57.4236   59.5288 C   0  0  0  0  0  0  0  0  0  0  0  0
  -48.4219   56.1326   59.4769 C   0  0  0  0  0  0  0  0  0  0  0  0
  -47.0616   56.2449   58.8472 C   0  0  0  0  0  0  0  0  0  0  0  0
  -47.1064   56.6983   57.4431 C   0  0  0  0  0  0  0  0  0  0  0  0
  -47.0562   55.6022   56.4776 C   0  0  0  0  0  0  0  0  0  0  0  0
  -39.8677   59.7765   64.0678 O   0  0  0  0  0  0  0  0  0  0  0  0
  -39.1294   60.1544   65.2511 C   0  0  0  0  0  0  0  0  0  0  0  0
  -38.7294   61.6020   65.0807 C   0  0  0  0  0  0  0  0  0  0  0  0
  -39.5397   62.4220   65.9229 O   0  0  0  0  0  0  0  0  0  0  0  0
  -39.3734   62.1957   66.8514 H   0  0  0  0  0  0  0  0  0  0  0  0
  -37.2801   61.9032   65.3757 C   0  0  0  0  0  0  0  0  0  0  0  0
  -36.7584   62.7298   64.3157 O   0  0  0  0  0  0  0  0  0  0  0  0
  -35.2919   63.3331   64.4382 P   0  0  0  0  0  0  0  0  0  0  0  0
  -34.7912   63.5361   63.0637 O   0  0  0  0  0  0  0  0  0  0  0  0
  -35.3808   64.4908   65.3497 O   0  0  0  0  0  0  0  0  0  0  0  0
  -35.9403   65.1749   64.9498 H   0  0  0  0  0  0  0  0  0  0  0  0
  -34.3686   62.2518   65.1420 O   0  0  0  0  0  0  0  0  0  0  0  0
  -33.8779   61.1231   64.3811 C   0  0  0  0  0  0  0  0  0  0  0  0
  -34.5446   59.9026   64.9743 C   0  0  0  0  0  0  0  0  0  0  0  0
  -34.8633   58.7784   64.0089 N   0  0  0  0  0  0  0  0  0  0  0  0
  -35.0750   57.4887   64.7344 C   0  0  0  0  0  0  0  0  0  0  0  0
  -33.7296   58.6064   63.0495 C   0  0  0  0  0  0  0  0  0  0  0  0
  -36.1086   59.1093   63.2476 C   0  0  0  0  0  0  0  0  0  0  0  0
 34 33  1  0  0  0
 34 35  1  0  0  0
 34 36  1  0  0  0
 34 37  1  0  0  0
 22 23  1  0  0  0
 22 25  1  0  0  0
 22 21  1  0  0  0
 23 24  1  0  0  0
 27 26  1  0  0  0
 27 28  2  0  0  0
 27 31  1  0  0  0
 27 29  1  0  0  0
 25 26  1  0  0  0
 32 33  1  0  0  0
 32 31  1  0  0  0
 29 30  1  0  0  0
 20 21  1  0  0  0
 20  2  1  0  0  0
  1  2  2  0  0  0
  2  3  1  0  0  0
  3  4  1  0  0  0
  4  5  1  0  0  0
  5  6  1  0  0  0
  6  7  1  0  0  0
  7  8  1  0  0  0
  8  9  1  0  0  0
  9 10  1  0  0  0
 10 11  2  0  0  0
 11 12  1  0  0  0
 12 13  1  0  0  0
 13 14  1  0  0  0
 14 15  1  0  0  0
 15 16  1  0  0  0
 16 17  1  0  0  0
 17 18  1  0  0  0
 18 19  1  0  0  0
M  CHG 1  28  -1
M  END
> <minimizedAffinity>
-7.78087

> <CNNscore>
0.7950686812

> <CNNaffinity>
6.6104240417

> <CNN_VS>
5.2557411194

> <CNNaffinity_variance>
0.3173659444

$$$$
/media/chris/experiments/cd1a-new-docking/inputs/ligands/4x6c_ligand.pdb


 37 36  0  0  0  0  0  0  0  0999 V2000
  -42.4337   60.1682   66.8527 O   0  0  0  0  0  0  0  0  0  0  0  0
  -42.4412   60.2238   65.6611 C   0  0  0  0  0  0  0  0  0  0  0  0
  -43.4700   59.5803   64.7902 C   0  0  0  0  0  0  0  0  0  0  0  0
  -43.9372   58.2380   65.3207 C   0  0  0  0  0  0  0  0  0  0  0  0
  -45.4284   58.1916   65.5749 C   0  0  0  0  0  0  0  0  0  0  0  0
  -45.9627   59.3519   66.3811 C   0  0  0  0  0  0  0  0  0  0  0  0
  -47.4103   59.6704   66.1070 C   0  0  0  0  0  0  0  0  0  0  0  0
  -47.5933   60.4682   64.8439 C   0  0  0  0  0  0  0  0  0  0  0  0
  -48.6716   59.9783   63.9233 C   0  0  0  0  0  0  0  0  0  0  0  0
  -48.6452   58.5231   63.7170 C   0  0  0  0  0  0  0  0  0  0  0  0
  -49.4547   57.7960   62.9790 C   0  0  0  0  0  0  0  0  0  0  0  0
  -50.5922   58.2581   62.1441 C   0  0  0  0  0  0  0  0  0  0  0  0
  -50.8070   57.4949   60.8530 C   0  0  0  0  0  0  0  0  0  0  0  0
  -50.0155   58.0594   59.7055 C   0  0  0  0  0  0  0  0  0  0  0  0
  -49.3973   57.0263   58.7987 C   0  0  0  0  0  0  0  0  0  0  0  0
  -48.5228   56.0444   59.5468 C   0  0  0  0  0  0  0  0  0  0  0  0
  -47.2704   55.6334   58.8242 C   0  0  0  0  0  0  0  0  0  0  0  0
  -47.4883   55.3666   57.3887 C   0  0  0  0  0  0  0  0  0  0  0  0
  -46.7455   56.2693   56.5115 C   0  0  0  0  0  0  0  0  0  0  0  0
  -41.5200   60.8660   64.9427 O   0  0  0  0  0  0  0  0  0  0  0  0
  -40.5653   61.6819   65.6576 C   0  0  0  0  0  0  0  0  0  0  0  0
  -39.1957   61.3347   65.1209 C   0  0  0  0  0  0  0  0  0  0  0  0
  -38.2639   62.3461   65.5041 O   0  0  0  0  0  0  0  0  0  0  0  0
  -38.1863   62.3648   66.4708 H   0  0  0  0  0  0  0  0  0  0  0  0
  -38.6555   59.9972   65.5655 C   0  0  0  0  0  0  0  0  0  0  0  0
  -38.8819   59.0381   64.5130 O   0  0  0  0  0  0  0  0  0  0  0  0
  -37.6768   58.1374   63.9972 P   0  0  0  0  0  0  0  0  0  0  0  0
  -37.2050   57.3441   65.1501 O   0  0  0  0  0  0  0  0  0  0  0  0
  -38.1538   57.4365   62.7888 O   0  0  0  0  0  0  0  0  0  0  0  0
  -38.8786   56.8375   63.0273 H   0  0  0  0  0  0  0  0  0  0  0  0
  -36.4974   59.0984   63.5473 O   0  0  0  0  0  0  0  0  0  0  0  0
  -35.2819   58.5349   63.0007 C   0  0  0  0  0  0  0  0  0  0  0  0
  -34.1453   59.2399   63.7056 C   0  0  0  0  0  0  0  0  0  0  0  0
  -32.7501   58.9314   63.1998 N   0  0  0  0  0  0  0  0  0  0  0  0
  -32.0394   57.9906   64.1188 C   0  0  0  0  0  0  0  0  0  0  0  0
  -31.9601   60.1974   63.1076 C   0  0  0  0  0  0  0  0  0  0  0  0
  -32.8358   58.3029   61.8443 C   0  0  0  0  0  0  0  0  0  0  0  0
 34 33  1  0  0  0
 34 35  1  0  0  0
 34 36  1  0  0  0
 34 37  1  0  0  0
 22 23  1  0  0  0
 22 25  1  0  0  0
 22 21  1  0  0  0
 23 24  1  0  0  0
 27 26  1  0  0  0
 27 28  2  0  0  0
 27 31  1  0  0  0
 27 29  1  0  0  0
 25 26  1  0  0  0
 32 33  1  0  0  0
 32 31  1  0  0  0
 29 30  1  0  0  0
 20 21  1  0  0  0
 20  2  1  0  0  0
  1  2  2  0  0  0
  2  3  1  0  0  0
  3  4  1  0  0  0
  4  5  1  0  0  0
  5  6  1  0  0  0
  6  7  1  0  0  0
  7  8  1  0  0  0
  8  9  1  0  0  0
  9 10  1  0  0  0
 10 11  2  0  0  0
 11 12  1  0  0  0
 12 13  1  0  0  0
 13 14  1  0  0  0
 14 15  1  0  0  0
 15 16  1  0  0  0
 16 17  1  0  0  0
 17 18  1  0  0  0
 18 19  1  0  0  0
M  CHG 1  28  -1
M  END
> <minimizedAffinity>
-7.92128

> <CNNscore>
0.7733429670

> <CNNaffinity>
6.4966154099

> <CNN_VS>
5.0241117477

> <CNNaffinity_variance>
0.3819211721

$$$$
/media/chris/experiments/cd1a-new-docking/inputs/ligands/4x6c_ligand.pdb


 37 36  0  0  0  0  0  0  0  0999 V2000
  -41.4311   60.4316   66.3557 O   0  0  0  0  0  0  0  0  0  0  0  0
  -41.7435   60.0530   65.2685 C   0  0  0  0  0  0  0  0  0  0  0  0
  -43.1457   60.0180   64.7550 C   0  0  0  0  0  0  0  0  0  0  0  0
  -44.1335   59.4762   65.7710 C   0  0  0  0  0  0  0  0  0  0  0  0
  -45.5272   59.3074   65.2056 C   0  0  0  0  0  0  0  0  0  0  0  0
  -45.9254   57.8749   64.9388 C   0  0  0  0  0  0  0  0  0  0  0  0
  -47.2989   57.5183   65.4472 C   0  0  0  0  0  0  0  0  0  0  0  0
  -48.3855   57.8905   64.4744 C   0  0  0  0  0  0  0  0  0  0  0  0
  -49.7482   58.0794   65.0723 C   0  0  0  0  0  0  0  0  0  0  0  0
  -50.2506   59.4558   64.9546 C   0  0  0  0  0  0  0  0  0  0  0  0
  -50.8201   60.0227   63.9139 C   0  0  0  0  0  0  0  0  0  0  0  0
  -51.1244   59.4135   62.5945 C   0  0  0  0  0  0  0  0  0  0  0  0
  -50.0361   59.5433   61.5485 C   0  0  0  0  0  0  0  0  0  0  0  0
  -49.6362   58.2191   60.9583 C   0  0  0  0  0  0  0  0  0  0  0  0
  -50.2144   57.9370   59.5953 C   0  0  0  0  0  0  0  0  0  0  0  0
  -49.3404   57.0168   58.7719 C   0  0  0  0  0  0  0  0  0  0  0  0
  -48.2704   56.2990   59.5461 C   0  0  0  0  0  0  0  0  0  0  0  0
  -46.9388   56.3853   58.9148 C   0  0  0  0  0  0  0  0  0  0  0  0
  -46.9914   56.7202   57.4932 C   0  0  0  0  0  0  0  0  0  0  0  0
  -40.8762   59.5994   64.3634 O   0  0  0  0  0  0  0  0  0  0  0  0
  -39.8441   58.6975   64.8211 C   0  0  0  0  0  0  0  0  0  0  0  0
  -38.7296   58.7450   63.8012 C   0  0  0  0  0  0  0  0  0  0  0  0
  -39.1298   59.5557   62.6963 O   0  0  0  0  0  0  0  0  0  0  0  0
  -39.2690   60.4671   62.9976 H   0  0  0  0  0  0  0  0  0  0  0  0
  -37.4109   59.2652   64.3198 C   0  0  0  0  0  0  0  0  0  0  0  0
  -37.6722   60.1715   65.4103 O   0  0  0  0  0  0  0  0  0  0  0  0
  -37.8159   61.7289   65.1212 P   0  0  0  0  0  0  0  0  0  0  0  0
  -37.3749   61.9534   63.7298 O   0  0  0  0  0  0  0  0  0  0  0  0
  -39.1871   62.1113   65.5117 O   0  0  0  0  0  0  0  0  0  0  0  0
  -39.8251   61.6534   64.9423 H   0  0  0  0  0  0  0  0  0  0  0  0
  -36.8207   62.5050   66.0826 O   0  0  0  0  0  0  0  0  0  0  0  0
  -35.5585   61.8995   66.4486 C   0  0  0  0  0  0  0  0  0  0  0  0
  -34.6433   63.0436   66.8217 C   0  0  0  0  0  0  0  0  0  0  0  0
  -33.9040   63.7096   65.6783 N   0  0  0  0  0  0  0  0  0  0  0  0
  -34.7122   64.8202   65.0883 C   0  0  0  0  0  0  0  0  0  0  0  0
  -33.6241   62.7023   64.6094 C   0  0  0  0  0  0  0  0  0  0  0  0
  -32.6103   64.2722   66.1777 C   0  0  0  0  0  0  0  0  0  0  0  0
 34 33  1  0  0  0
 34 35  1  0  0  0
 34 36  1  0  0  0
 34 37  1  0  0  0
 22 23  1  0  0  0
 22 25  1  0  0  0
 22 21  1  0  0  0
 23 24  1  0  0  0
 27 26  1  0  0  0
 27 28  2  0  0  0
 27 31  1  0  0  0
 27 29  1  0  0  0
 25 26  1  0  0  0
 32 33  1  0  0  0
 32 31  1  0  0  0
 29 30  1  0  0  0
 20 21  1  0  0  0
 20  2  1  0  0  0
  1  2  2  0  0  0
  2  3  1  0  0  0
  3  4  1  0  0  0
  4  5  1  0  0  0
  5  6  1  0  0  0
  6  7  1  0  0  0
  7  8  1  0  0  0
  8  9  1  0  0  0
  9 10  1  0  0  0
 10 11  2  0  0  0
 11 12  1  0  0  0
 12 13  1  0  0  0
 13 14  1  0  0  0
 14 15  1  0  0  0
 15 16  1  0  0  0
 16 17  1  0  0  0
 17 18  1  0  0  0
 18 19  1  0  0  0
M  CHG 1  28  -1
M  END
> <minimizedAffinity>
-8.09668

> <CNNscore>
0.7232521176

> <CNNaffinity>
6.4524278641

> <CNN_VS>
4.6667323112

> <CNNaffinity_variance>
0.3864098191

$$$$
/media/chris/experiments/cd1a-new-docking/inputs/ligands/4x6c_ligand.pdb


 37 36  0  0  0  0  0  0  0  0999 V2000
  -42.3180   57.2222   65.7347 O   0  0  0  0  0  0  0  0  0  0  0  0
  -42.4828   58.3796   65.9721 C   0  0  0  0  0  0  0  0  0  0  0  0
  -43.8018   59.0775   65.9062 C   0  0  0  0  0  0  0  0  0  0  0  0
  -44.6934   58.5522   64.7970 C   0  0  0  0  0  0  0  0  0  0  0  0
  -46.0492   58.1003   65.2950 C   0  0  0  0  0  0  0  0  0  0  0  0
  -46.6141   58.9366   66.4190 C   0  0  0  0  0  0  0  0  0  0  0  0
  -47.8298   59.7391   66.0312 C   0  0  0  0  0  0  0  0  0  0  0  0
  -47.5202   60.7851   64.9943 C   0  0  0  0  0  0  0  0  0  0  0  0
  -48.6213   61.0672   64.0153 C   0  0  0  0  0  0  0  0  0  0  0  0
  -49.9190   60.5083   64.4209 C   0  0  0  0  0  0  0  0  0  0  0  0
  -50.8119   59.9068   63.6662 C   0  0  0  0  0  0  0  0  0  0  0  0
  -50.7320   59.6152   62.2125 C   0  0  0  0  0  0  0  0  0  0  0  0
  -50.8243   58.1512   61.8339 C   0  0  0  0  0  0  0  0  0  0  0  0
  -49.5113   57.5887   61.3633 C   0  0  0  0  0  0  0  0  0  0  0  0
  -49.5250   57.0518   59.9550 C   0  0  0  0  0  0  0  0  0  0  0  0
  -48.8513   55.7020   59.8407 C   0  0  0  0  0  0  0  0  0  0  0  0
  -47.6929   55.6513   58.8840 C   0  0  0  0  0  0  0  0  0  0  0  0
  -47.8995   56.4750   57.6765 C   0  0  0  0  0  0  0  0  0  0  0  0
  -46.7118   57.2271   57.2770 C   0  0  0  0  0  0  0  0  0  0  0  0
  -41.5023   59.2119   66.3223 O   0  0  0  0  0  0  0  0  0  0  0  0
  -41.7887   60.6281   66.2994 C   0  0  0  0  0  0  0  0  0  0  0  0
  -40.7697   61.2719   65.3875 C   0  0  0  0  0  0  0  0  0  0  0  0
  -40.2493   62.4468   66.0096 O   0  0  0  0  0  0  0  0  0  0  0  0
  -39.7789   62.2014   66.8216 H   0  0  0  0  0  0  0  0  0  0  0  0
  -39.6107   60.3864   64.9987 C   0  0  0  0  0  0  0  0  0  0  0  0
  -39.2409   60.6861   63.6377 O   0  0  0  0  0  0  0  0  0  0  0  0
  -37.7032   60.7953   63.2465 P   0  0  0  0  0  0  0  0  0  0  0  0
  -37.1077   59.4600   63.4544 O   0  0  0  0  0  0  0  0  0  0  0  0
  -37.6461   61.4074   61.9044 O   0  0  0  0  0  0  0  0  0  0  0  0
  -38.0648   60.8147   61.2607 H   0  0  0  0  0  0  0  0  0  0  0  0
  -37.0067   61.8053   64.2525 O   0  0  0  0  0  0  0  0  0  0  0  0
  -35.6328   61.5876   64.6509 C   0  0  0  0  0  0  0  0  0  0  0  0
  -34.8289   62.6764   63.9771 C   0  0  0  0  0  0  0  0  0  0  0  0
  -34.0568   63.6035   64.8947 N   0  0  0  0  0  0  0  0  0  0  0  0
  -34.6017   64.9944   64.8382 C   0  0  0  0  0  0  0  0  0  0  0  0
  -32.6207   63.6358   64.4800 C   0  0  0  0  0  0  0  0  0  0  0  0
  -34.1530   63.1087   66.3038 C   0  0  0  0  0  0  0  0  0  0  0  0
 34 33  1  0  0  0
 34 35  1  0  0  0
 34 36  1  0  0  0
 34 37  1  0  0  0
 22 23  1  0  0  0
 22 25  1  0  0  0
 22 21  1  0  0  0
 23 24  1  0  0  0
 27 26  1  0  0  0
 27 28  2  0  0  0
 27 31  1  0  0  0
 27 29  1  0  0  0
 25 26  1  0  0  0
 32 33  1  0  0  0
 32 31  1  0  0  0
 29 30  1  0  0  0
 20 21  1  0  0  0
 20  2  1  0  0  0
  1  2  2  0  0  0
  2  3  1  0  0  0
  3  4  1  0  0  0
  4  5  1  0  0  0
  5  6  1  0  0  0
  6  7  1  0  0  0
  7  8  1  0  0  0
  8  9  1  0  0  0
  9 10  1  0  0  0
 10 11  2  0  0  0
 11 12  1  0  0  0
 12 13  1  0  0  0
 13 14  1  0  0  0
 14 15  1  0  0  0
 15 16  1  0  0  0
 16 17  1  0  0  0
 17 18  1  0  0  0
 18 19  1  0  0  0
M  CHG 1  28  -1
M  END
> <minimizedAffinity>
-7.89675

> <CNNscore>
0.7130064964

> <CNNaffinity>
6.4784841537

> <CNN_VS>
4.6192011833

> <CNNaffinity_variance>
0.4744825363

$$$$
/media/chris/experiments/cd1a-new-docking/inputs/ligands/4x6c_ligand.pdb


 37 36  0  0  0  0  0  0  0  0999 V2000
  -42.2259   59.9624   67.0148 O   0  0  0  0  0  0  0  0  0  0  0  0
  -42.3475   60.0926   65.8352 C   0  0  0  0  0  0  0  0  0  0  0  0
  -43.6408   59.9661   65.0986 C   0  0  0  0  0  0  0  0  0  0  0  0
  -43.9932   58.5284   64.7663 C   0  0  0  0  0  0  0  0  0  0  0  0
  -45.4806   58.2566   64.8296 C   0  0  0  0  0  0  0  0  0  0  0  0
  -46.1131   58.5437   66.1710 C   0  0  0  0  0  0  0  0  0  0  0  0
  -47.5578   58.9657   66.0868 C   0  0  0  0  0  0  0  0  0  0  0  0
  -48.2520   58.3982   64.8779 C   0  0  0  0  0  0  0  0  0  0  0  0
  -49.7341   58.2117   65.0147 C   0  0  0  0  0  0  0  0  0  0  0  0
  -50.4658   59.4734   65.1988 C   0  0  0  0  0  0  0  0  0  0  0  0
  -51.0637   60.2026   64.2827 C   0  0  0  0  0  0  0  0  0  0  0  0
  -51.1751   59.9301   62.8274 C   0  0  0  0  0  0  0  0  0  0  0  0
  -49.9285   60.2101   62.0132 C   0  0  0  0  0  0  0  0  0  0  0  0
  -49.7302   59.2231   60.8959 C   0  0  0  0  0  0  0  0  0  0  0  0
  -50.4590   57.9158   61.0740 C   0  0  0  0  0  0  0  0  0  0  0  0
  -49.7743   56.7673   60.3663 C   0  0  0  0  0  0  0  0  0  0  0  0
  -49.2368   57.0945   59.0012 C   0  0  0  0  0  0  0  0  0  0  0  0
  -47.8865   56.5482   58.7617 C   0  0  0  0  0  0  0  0  0  0  0  0
  -47.2402   57.0993   57.5723 C   0  0  0  0  0  0  0  0  0  0  0  0
  -41.3355   60.3623   65.0105 O   0  0  0  0  0  0  0  0  0  0  0  0
  -40.0109   59.9612   65.4258 C   0  0  0  0  0  0  0  0  0  0  0  0
  -39.1222   61.1781   65.3093 C   0  0  0  0  0  0  0  0  0  0  0  0
  -39.8390   62.3342   65.7425 O   0  0  0  0  0  0  0  0  0  0  0  0
  -40.0625   62.2429   66.6820 H   0  0  0  0  0  0  0  0  0  0  0  0
  -37.8295   61.1017   66.0849 C   0  0  0  0  0  0  0  0  0  0  0  0
  -36.9959   62.2127   65.6980 O   0  0  0  0  0  0  0  0  0  0  0  0
  -35.6377   62.4863   66.4789 P   0  0  0  0  0  0  0  0  0  0  0  0
  -35.2376   63.8756   66.1779 O   0  0  0  0  0  0  0  0  0  0  0  0
  -35.8649   62.0913   67.8830 O   0  0  0  0  0  0  0  0  0  0  0  0
  -36.5420   62.6650   68.2747 H   0  0  0  0  0  0  0  0  0  0  0  0
  -34.5259   61.5176   65.8933 O   0  0  0  0  0  0  0  0  0  0  0  0
  -34.7544   60.8416   64.6345 C   0  0  0  0  0  0  0  0  0  0  0  0
  -34.8729   59.3720   64.9694 C   0  0  0  0  0  0  0  0  0  0  0  0
  -35.4013   58.4751   63.8677 N   0  0  0  0  0  0  0  0  0  0  0  0
  -34.3790   58.2802   62.7946 C   0  0  0  0  0  0  0  0  0  0  0  0
  -36.6196   59.0934   63.2604 C   0  0  0  0  0  0  0  0  0  0  0  0
  -35.7578   57.1380   64.4376 C   0  0  0  0  0  0  0  0  0  0  0  0
 34 33  1  0  0  0
 34 35  1  0  0  0
 34 36  1  0  0  0
 34 37  1  0  0  0
 22 23  1  0  0  0
 22 25  1  0  0  0
 22 21  1  0  0  0
 23 24  1  0  0  0
 27 26  1  0  0  0
 27 28  2  0  0  0
 27 31  1  0  0  0
 27 29  1  0  0  0
 25 26  1  0  0  0
 32 33  1  0  0  0
 32 31  1  0  0  0
 29 30  1  0  0  0
 20 21  1  0  0  0
 20  2  1  0  0  0
  1  2  2  0  0  0
  2  3  1  0  0  0
  3  4  1  0  0  0
  4  5  1  0  0  0
  5  6  1  0  0  0
  6  7  1  0  0  0
  7  8  1  0  0  0
  8  9  1  0  0  0
  9 10  1  0  0  0
 10 11  2  0  0  0
 11 12  1  0  0  0
 12 13  1  0  0  0
 13 14  1  0  0  0
 14 15  1  0  0  0
 15 16  1  0  0  0
 16 17  1  0  0  0
 17 18  1  0  0  0
 18 19  1  0  0  0
M  CHG 1  28  -1
M  END
> <minimizedAffinity>
-8.31533

> <CNNscore>
0.7099962831

> <CNNaffinity>
6.5864348412

> <CNN_VS>
4.6763443947

> <CNNaffinity_variance>
0.2607586384

$$$$
/media/chris/experiments/cd1a-new-docking/inputs/ligands/4x6c_ligand.pdb


 37 36  0  0  0  0  0  0  0  0999 V2000
  -41.3575   60.5056   63.4340 O   0  0  0  0  0  0  0  0  0  0  0  0
  -41.0932   60.1654   64.5464 C   0  0  0  0  0  0  0  0  0  0  0  0
  -42.1015   59.7434   65.5645 C   0  0  0  0  0  0  0  0  0  0  0  0
  -43.4585   59.4361   64.9599 C   0  0  0  0  0  0  0  0  0  0  0  0
  -43.8868   58.0002   65.1725 C   0  0  0  0  0  0  0  0  0  0  0  0
  -45.2973   57.6949   64.7262 C   0  0  0  0  0  0  0  0  0  0  0  0
  -46.3583   58.4059   65.5269 C   0  0  0  0  0  0  0  0  0  0  0  0
  -47.7104   58.3463   64.8686 C   0  0  0  0  0  0  0  0  0  0  0  0
  -48.7438   59.2748   65.4346 C   0  0  0  0  0  0  0  0  0  0  0  0
  -50.0806   59.0823   64.8544 C   0  0  0  0  0  0  0  0  0  0  0  0
  -50.5392   59.5396   63.7102 C   0  0  0  0  0  0  0  0  0  0  0  0
  -49.8192   60.3503   62.6959 C   0  0  0  0  0  0  0  0  0  0  0  0
  -49.7292   59.7370   61.3135 C   0  0  0  0  0  0  0  0  0  0  0  0
  -50.1758   58.3012   61.2844 C   0  0  0  0  0  0  0  0  0  0  0  0
  -49.1230   57.3236   60.8287 C   0  0  0  0  0  0  0  0  0  0  0  0
  -49.3277   56.8728   59.3992 C   0  0  0  0  0  0  0  0  0  0  0  0
  -48.1484   57.0878   58.4922 C   0  0  0  0  0  0  0  0  0  0  0  0
  -48.3363   56.5092   57.1472 C   0  0  0  0  0  0  0  0  0  0  0  0
  -47.0814   56.2780   56.4346 C   0  0  0  0  0  0  0  0  0  0  0  0
  -39.8536   60.1245   65.0348 O   0  0  0  0  0  0  0  0  0  0  0  0
  -39.0949   61.3544   65.0342 C   0  0  0  0  0  0  0  0  0  0  0  0
  -37.6539   60.9865   65.3038 C   0  0  0  0  0  0  0  0  0  0  0  0
  -37.4250   60.9602   66.7127 O   0  0  0  0  0  0  0  0  0  0  0  0
  -37.9686   60.2653   67.1157 H   0  0  0  0  0  0  0  0  0  0  0  0
  -37.2134   59.6637   64.7255 C   0  0  0  0  0  0  0  0  0  0  0  0
  -36.1929   59.9119   63.7376 O   0  0  0  0  0  0  0  0  0  0  0  0
  -34.7078   59.4049   63.9965 P   0  0  0  0  0  0  0  0  0  0  0  0
  -34.6931   58.7712   65.3303 O   0  0  0  0  0  0  0  0  0  0  0  0
  -34.3167   58.6079   62.8171 O   0  0  0  0  0  0  0  0  0  0  0  0
  -34.8820   57.8220   62.7561 H   0  0  0  0  0  0  0  0  0  0  0  0
  -33.7534   60.6713   64.0443 O   0  0  0  0  0  0  0  0  0  0  0  0
  -34.3118   61.9811   64.3017 C   0  0  0  0  0  0  0  0  0  0  0  0
  -34.1264   62.2266   65.7819 C   0  0  0  0  0  0  0  0  0  0  0  0
  -34.1742   63.6734   66.2315 N   0  0  0  0  0  0  0  0  0  0  0  0
  -32.8079   64.1791   66.5661 C   0  0  0  0  0  0  0  0  0  0  0  0
  -35.0382   63.7916   67.4460 C   0  0  0  0  0  0  0  0  0  0  0  0
  -34.7431   64.5201   65.1364 C   0  0  0  0  0  0  0  0  0  0  0  0
 34 33  1  0  0  0
 34 35  1  0  0  0
 34 36  1  0  0  0
 34 37  1  0  0  0
 22 23  1  0  0  0
 22 25  1  0  0  0
 22 21  1  0  0  0
 23 24  1  0  0  0
 27 26  1  0  0  0
 27 28  2  0  0  0
 27 31  1  0  0  0
 27 29  1  0  0  0
 25 26  1  0  0  0
 32 33  1  0  0  0
 32 31  1  0  0  0
 29 30  1  0  0  0
 20 21  1  0  0  0
 20  2  1  0  0  0
  1  2  2  0  0  0
  2  3  1  0  0  0
  3  4  1  0  0  0
  4  5  1  0  0  0
  5  6  1  0  0  0
  6  7  1  0  0  0
  7  8  1  0  0  0
  8  9  1  0  0  0
  9 10  1  0  0  0
 10 11  2  0  0  0
 11 12  1  0  0  0
 12 13  1  0  0  0
 13 14  1  0  0  0
 14 15  1  0  0  0
 15 16  1  0  0  0
 16 17  1  0  0  0
 17 18  1  0  0  0
 18 19  1  0  0  0
M  CHG 1  28  -1
M  END
> <minimizedAffinity>
-7.47106

> <CNNscore>
0.6996171474

> <CNNaffinity>
6.3718285561

> <CNN_VS>
4.4578404427

> <CNNaffinity_variance>
0.6868227124

$$$$
