/media/chris/experiments/cd1a-new-docking/inputs/ligands/4x6c_ligand.pdb


 37 36  0  0  0  0  0  0  0  0999 V2000
  -42.2077   57.5248   66.1429 O   0  0  0  0  0  0  0  0  0  0  0  0
  -42.7144   58.5767   65.8988 C   0  0  0  0  0  0  0  0  0  0  0  0
  -44.0186   58.7437   65.1900 C   0  0  0  0  0  0  0  0  0  0  0  0
  -44.7659   57.4355   65.0119 C   0  0  0  0  0  0  0  0  0  0  0  0
  -45.9470   57.2995   65.9484 C   0  0  0  0  0  0  0  0  0  0  0  0
  -47.2832   57.1690   65.2561 C   0  0  0  0  0  0  0  0  0  0  0  0
  -47.7132   58.4124   64.5201 C   0  0  0  0  0  0  0  0  0  0  0  0
  -48.8564   59.1159   65.2010 C   0  0  0  0  0  0  0  0  0  0  0  0
  -50.2247   58.7431   64.7123 C   0  0  0  0  0  0  0  0  0  0  0  0
  -50.8643   59.7962   63.9104 C   0  0  0  0  0  0  0  0  0  0  0  0
  -50.8321   59.9508   62.6051 C   0  0  0  0  0  0  0  0  0  0  0  0
  -50.1604   59.0895   61.5994 C   0  0  0  0  0  0  0  0  0  0  0  0
  -50.8475   57.7717   61.3048 C   0  0  0  0  0  0  0  0  0  0  0  0
  -50.2205   57.0337   60.1542 C   0  0  0  0  0  0  0  0  0  0  0  0
  -48.8528   56.4681   60.4396 C   0  0  0  0  0  0  0  0  0  0  0  0
  -48.0952   56.1140   59.1789 C   0  0  0  0  0  0  0  0  0  0  0  0
  -48.3370   57.0344   58.0151 C   0  0  0  0  0  0  0  0  0  0  0  0
  -47.7775   56.5271   56.7467 C   0  0  0  0  0  0  0  0  0  0  0  0
  -47.5399   55.0850   56.7530 C   0  0  0  0  0  0  0  0  0  0  0  0
  -42.1755   59.7523   66.2219 O   0  0  0  0  0  0  0  0  0  0  0  0
  -40.8342   60.0222   65.7569 C   0  0  0  0  0  0  0  0  0  0  0  0
  -40.8739   61.3494   65.0350 C   0  0  0  0  0  0  0  0  0  0  0  0
  -40.3869   62.3761   65.8994 O   0  0  0  0  0  0  0  0  0  0  0  0
  -39.4565   62.2044   66.1131 H   0  0  0  0  0  0  0  0  0  0  0  0
  -40.0886   61.3998   63.7470 C   0  0  0  0  0  0  0  0  0  0  0  0
  -39.0083   60.4488   63.8306 O   0  0  0  0  0  0  0  0  0  0  0  0
  -38.1616   60.1039   62.5293 P   0  0  0  0  0  0  0  0  0  0  0  0
  -38.4001   58.6789   62.2227 O   0  0  0  0  0  0  0  0  0  0  0  0
  -38.4993   61.1237   61.5169 O   0  0  0  0  0  0  0  0  0  0  0  0
  -39.4364   61.0453   61.2790 H   0  0  0  0  0  0  0  0  0  0  0  0
  -36.6239   60.2800   62.8777 O   0  0  0  0  0  0  0  0  0  0  0  0
  -36.1717   60.0983   64.2402 C   0  0  0  0  0  0  0  0  0  0  0  0
  -34.6926   59.7994   64.1490 C   0  0  0  0  0  0  0  0  0  0  0  0
  -34.2971   58.3398   64.2547 N   0  0  0  0  0  0  0  0  0  0  0  0
  -35.4588   57.4952   64.6689 C   0  0  0  0  0  0  0  0  0  0  0  0
  -33.2100   58.1884   65.2700 C   0  0  0  0  0  0  0  0  0  0  0  0
  -33.8035   57.8569   62.9270 C   0  0  0  0  0  0  0  0  0  0  0  0
 34 33  1  0  0  0
 34 35  1  0  0  0
 34 36  1  0  0  0
 34 37  1  0  0  0
 22 23  1  0  0  0
 22 25  1  0  0  0
 22 21  1  0  0  0
 23 24  1  0  0  0
 27 26  1  0  0  0
 27 28  2  0  0  0
 27 31  1  0  0  0
 27 29  1  0  0  0
 25 26  1  0  0  0
 32 33  1  0  0  0
 32 31  1  0  0  0
 29 30  1  0  0  0
 20 21  1  0  0  0
 20  2  1  0  0  0
  1  2  2  0  0  0
  2  3  1  0  0  0
  3  4  1  0  0  0
  4  5  1  0  0  0
  5  6  1  0  0  0
  6  7  1  0  0  0
  7  8  1  0  0  0
  8  9  1  0  0  0
  9 10  1  0  0  0
 10 11  2  0  0  0
 11 12  1  0  0  0
 12 13  1  0  0  0
 13 14  1  0  0  0
 14 15  1  0  0  0
 15 16  1  0  0  0
 16 17  1  0  0  0
 17 18  1  0  0  0
 18 19  1  0  0  0
M  CHG 1  28  -1
M  END
> <minimizedAffinity>
-7.91894

> <CNNscore>
0.8206763268

> <CNNaffinity>
6.8200798035

> <CNN_VS>
5.5970778465

> <CNNaffinity_variance>
0.5258027315

$$$$
/media/chris/experiments/cd1a-new-docking/inputs/ligands/4x6c_ligand.pdb


 37 36  0  0  0  0  0  0  0  0999 V2000
  -42.3013   59.7897   67.0043 O   0  0  0  0  0  0  0  0  0  0  0  0
  -42.4037   59.5924   65.8323 C   0  0  0  0  0  0  0  0  0  0  0  0
  -43.6880   59.2826   65.1353 C   0  0  0  0  0  0  0  0  0  0  0  0
  -44.6438   58.4723   65.9905 C   0  0  0  0  0  0  0  0  0  0  0  0
  -45.7513   57.8267   65.1861 C   0  0  0  0  0  0  0  0  0  0  0  0
  -46.7958   58.7897   64.6732 C   0  0  0  0  0  0  0  0  0  0  0  0
  -47.3946   59.6673   65.7427 C   0  0  0  0  0  0  0  0  0  0  0  0
  -47.9294   60.9613   65.1906 C   0  0  0  0  0  0  0  0  0  0  0  0
  -48.6376   60.8553   63.8726 C   0  0  0  0  0  0  0  0  0  0  0  0
  -50.0794   60.6003   64.0044 C   0  0  0  0  0  0  0  0  0  0  0  0
  -50.8685   59.9660   63.1655 C   0  0  0  0  0  0  0  0  0  0  0  0
  -50.5046   59.3226   61.8778 C   0  0  0  0  0  0  0  0  0  0  0  0
  -50.3730   57.8138   61.9157 C   0  0  0  0  0  0  0  0  0  0  0  0
  -50.8031   57.1603   60.6313 C   0  0  0  0  0  0  0  0  0  0  0  0
  -49.7760   57.2023   59.5289 C   0  0  0  0  0  0  0  0  0  0  0  0
  -48.8310   56.0216   59.5691 C   0  0  0  0  0  0  0  0  0  0  0  0
  -47.4616   56.2872   59.0087 C   0  0  0  0  0  0  0  0  0  0  0  0
  -47.4789   56.6452   57.5767 C   0  0  0  0  0  0  0  0  0  0  0  0
  -47.3098   55.4962   56.6892 C   0  0  0  0  0  0  0  0  0  0  0  0
  -41.3759   59.6145   64.9839 O   0  0  0  0  0  0  0  0  0  0  0  0
  -41.2632   60.7530   64.1011 C   0  0  0  0  0  0  0  0  0  0  0  0
  -40.2380   61.6838   64.7066 C   0  0  0  0  0  0  0  0  0  0  0  0
  -40.8256   62.3947   65.7965 O   0  0  0  0  0  0  0  0  0  0  0  0
  -41.0771   61.7684   66.4930 H   0  0  0  0  0  0  0  0  0  0  0  0
  -38.9788   61.0135   65.1997 C   0  0  0  0  0  0  0  0  0  0  0  0
  -38.0922   62.0259   65.7170 O   0  0  0  0  0  0  0  0  0  0  0  0
  -36.6117   62.1404   65.1475 P   0  0  0  0  0  0  0  0  0  0  0  0
  -36.7240   62.4870   63.7162 O   0  0  0  0  0  0  0  0  0  0  0  0
  -35.8750   63.0457   66.0512 O   0  0  0  0  0  0  0  0  0  0  0  0
  -36.2673   63.9319   66.0114 H   0  0  0  0  0  0  0  0  0  0  0  0
  -35.9281   60.7127   65.2544 O   0  0  0  0  0  0  0  0  0  0  0  0
  -34.5122   60.6146   65.5358 C   0  0  0  0  0  0  0  0  0  0  0  0
  -33.8282   60.5231   64.1907 C   0  0  0  0  0  0  0  0  0  0  0  0
  -33.3393   59.1480   63.7806 N   0  0  0  0  0  0  0  0  0  0  0  0
  -34.4127   58.3822   63.0764 C   0  0  0  0  0  0  0  0  0  0  0  0
  -32.9243   58.3819   64.9957 C   0  0  0  0  0  0  0  0  0  0  0  0
  -32.1676   59.2866   62.8600 C   0  0  0  0  0  0  0  0  0  0  0  0
 34 33  1  0  0  0
 34 35  1  0  0  0
 34 36  1  0  0  0
 34 37  1  0  0  0
 22 23  1  0  0  0
 22 25  1  0  0  0
 22 21  1  0  0  0
 23 24  1  0  0  0
 27 26  1  0  0  0
 27 28  2  0  0  0
 27 31  1  0  0  0
 27 29  1  0  0  0
 25 26  1  0  0  0
 32 33  1  0  0  0
 32 31  1  0  0  0
 29 30  1  0  0  0
 20 21  1  0  0  0
 20  2  1  0  0  0
  1  2  2  0  0  0
  2  3  1  0  0  0
  3  4  1  0  0  0
  4  5  1  0  0  0
  5  6  1  0  0  0
  6  7  1  0  0  0
  7  8  1  0  0  0
  8  9  1  0  0  0
  9 10  1  0  0  0
 10 11  2  0  0  0
 11 12  1  0  0  0
 12 13  1  0  0  0
 13 14  1  0  0  0
 14 15  1  0  0  0
 15 16  1  0  0  0
 16 17  1  0  0  0
 17 18  1  0  0  0
 18 19  1  0  0  0
M  CHG 1  28  -1
M  END
> <minimizedAffinity>
-7.88056

> <CNNscore>
0.8061692119

> <CNNaffinity>
6.5595688820

> <CNN_VS>
5.2881226540

> <CNNaffinity_variance>
0.2976821363

$$$$
/media/chris/experiments/cd1a-new-docking/inputs/ligands/4x6c_ligand.pdb


 37 36  0  0  0  0  0  0  0  0999 V2000
  -40.7663   60.0431   65.3946 O   0  0  0  0  0  0  0  0  0  0  0  0
  -41.7492   59.9640   64.7233 C   0  0  0  0  0  0  0  0  0  0  0  0
  -43.0609   59.4339   65.2026 C   0  0  0  0  0  0  0  0  0  0  0  0
  -42.9849   57.9867   65.6511 C   0  0  0  0  0  0  0  0  0  0  0  0
  -44.2390   57.2033   65.3285 C   0  0  0  0  0  0  0  0  0  0  0  0
  -45.3270   58.0106   64.6605 C   0  0  0  0  0  0  0  0  0  0  0  0
  -46.7122   57.7109   65.1745 C   0  0  0  0  0  0  0  0  0  0  0  0
  -47.7830   58.4069   64.3780 C   0  0  0  0  0  0  0  0  0  0  0  0
  -49.1927   58.0395   64.7353 C   0  0  0  0  0  0  0  0  0  0  0  0
  -50.0071   59.1901   65.1526 C   0  0  0  0  0  0  0  0  0  0  0  0
  -50.8034   59.9285   64.4116 C   0  0  0  0  0  0  0  0  0  0  0  0
  -51.1050   59.7787   62.9655 C   0  0  0  0  0  0  0  0  0  0  0  0
  -50.0701   60.3525   62.0195 C   0  0  0  0  0  0  0  0  0  0  0  0
  -49.7400   59.4219   60.8851 C   0  0  0  0  0  0  0  0  0  0  0  0
  -50.0920   57.9774   61.1331 C   0  0  0  0  0  0  0  0  0  0  0  0
  -49.0568   57.0232   60.5794 C   0  0  0  0  0  0  0  0  0  0  0  0
  -48.9561   56.9987   59.0797 C   0  0  0  0  0  0  0  0  0  0  0  0
  -47.5841   56.7540   58.5930 C   0  0  0  0  0  0  0  0  0  0  0  0
  -47.3860   55.4032   58.0709 C   0  0  0  0  0  0  0  0  0  0  0  0
  -41.8053   60.3337   63.4439 O   0  0  0  0  0  0  0  0  0  0  0  0
  -40.8832   61.3553   63.0031 C   0  0  0  0  0  0  0  0  0  0  0  0
  -39.9195   60.6979   62.0422 C   0  0  0  0  0  0  0  0  0  0  0  0
  -40.2604   61.0600   60.7040 O   0  0  0  0  0  0  0  0  0  0  0  0
  -40.1546   62.0175   60.5911 H   0  0  0  0  0  0  0  0  0  0  0  0
  -38.4647   61.0304   62.2690 C   0  0  0  0  0  0  0  0  0  0  0  0
  -38.0806   60.5449   63.5711 O   0  0  0  0  0  0  0  0  0  0  0  0
  -37.2863   61.5004   64.5639 P   0  0  0  0  0  0  0  0  0  0  0  0
  -36.7851   62.6360   63.7635 O   0  0  0  0  0  0  0  0  0  0  0  0
  -38.1801   61.7659   65.7082 O   0  0  0  0  0  0  0  0  0  0  0  0
  -38.9605   62.2542   65.4025 H   0  0  0  0  0  0  0  0  0  0  0  0
  -36.0335   60.7031   65.1224 O   0  0  0  0  0  0  0  0  0  0  0  0
  -35.9337   59.2768   64.9001 C   0  0  0  0  0  0  0  0  0  0  0  0
  -35.1152   59.1104   63.6400 C   0  0  0  0  0  0  0  0  0  0  0  0
  -33.6437   58.8022   63.8337 N   0  0  0  0  0  0  0  0  0  0  0  0
  -33.1792   57.7611   62.8667 C   0  0  0  0  0  0  0  0  0  0  0  0
  -33.4168   58.2990   65.2232 C   0  0  0  0  0  0  0  0  0  0  0  0
  -32.8389   60.0458   63.6211 C   0  0  0  0  0  0  0  0  0  0  0  0
 34 33  1  0  0  0
 34 35  1  0  0  0
 34 36  1  0  0  0
 34 37  1  0  0  0
 22 23  1  0  0  0
 22 25  1  0  0  0
 22 21  1  0  0  0
 23 24  1  0  0  0
 27 26  1  0  0  0
 27 28  2  0  0  0
 27 31  1  0  0  0
 27 29  1  0  0  0
 25 26  1  0  0  0
 32 33  1  0  0  0
 32 31  1  0  0  0
 29 30  1  0  0  0
 20 21  1  0  0  0
 20  2  1  0  0  0
  1  2  2  0  0  0
  2  3  1  0  0  0
  3  4  1  0  0  0
  4  5  1  0  0  0
  5  6  1  0  0  0
  6  7  1  0  0  0
  7  8  1  0  0  0
  8  9  1  0  0  0
  9 10  1  0  0  0
 10 11  2  0  0  0
 11 12  1  0  0  0
 12 13  1  0  0  0
 13 14  1  0  0  0
 14 15  1  0  0  0
 15 16  1  0  0  0
 16 17  1  0  0  0
 17 18  1  0  0  0
 18 19  1  0  0  0
M  CHG 1  28  -1
M  END
> <minimizedAffinity>
-7.92741

> <CNNscore>
0.7984239459

> <CNNaffinity>
6.6710538864

> <CNN_VS>
5.3263292313

> <CNNaffinity_variance>
0.3467779756

$$$$
/media/chris/experiments/cd1a-new-docking/inputs/ligands/4x6c_ligand.pdb


 37 36  0  0  0  0  0  0  0  0999 V2000
  -42.2693   60.2359   67.2009 O   0  0  0  0  0  0  0  0  0  0  0  0
  -42.5744   60.1712   66.0495 C   0  0  0  0  0  0  0  0  0  0  0  0
  -43.9328   59.7972   65.5537 C   0  0  0  0  0  0  0  0  0  0  0  0
  -43.9327   58.5175   64.7390 C   0  0  0  0  0  0  0  0  0  0  0  0
  -45.3055   57.8903   64.6269 C   0  0  0  0  0  0  0  0  0  0  0  0
  -45.9518   57.5574   65.9510 C   0  0  0  0  0  0  0  0  0  0  0  0
  -47.1262   58.4376   66.2954 C   0  0  0  0  0  0  0  0  0  0  0  0
  -47.9577   58.7831   65.0893 C   0  0  0  0  0  0  0  0  0  0  0  0
  -49.3942   58.3562   65.1538 C   0  0  0  0  0  0  0  0  0  0  0  0
  -50.3373   59.4839   65.1699 C   0  0  0  0  0  0  0  0  0  0  0  0
  -50.8231   60.1466   64.1436 C   0  0  0  0  0  0  0  0  0  0  0  0
  -50.5635   59.9142   62.7003 C   0  0  0  0  0  0  0  0  0  0  0  0
  -51.0847   58.6043   62.1455 C   0  0  0  0  0  0  0  0  0  0  0  0
  -50.0348   57.8321   61.3949 C   0  0  0  0  0  0  0  0  0  0  0  0
  -50.4273   57.4327   59.9955 C   0  0  0  0  0  0  0  0  0  0  0  0
  -49.2305   57.1948   59.1013 C   0  0  0  0  0  0  0  0  0  0  0  0
  -48.4223   55.9725   59.4368 C   0  0  0  0  0  0  0  0  0  0  0  0
  -47.3487   55.6994   58.4611 C   0  0  0  0  0  0  0  0  0  0  0  0
  -46.8913   56.8932   57.7525 C   0  0  0  0  0  0  0  0  0  0  0  0
  -41.7341   60.4184   65.0447 O   0  0  0  0  0  0  0  0  0  0  0  0
  -40.3442   60.0728   65.2364 C   0  0  0  0  0  0  0  0  0  0  0  0
  -39.5509   61.3556   65.1385 C   0  0  0  0  0  0  0  0  0  0  0  0
  -40.1639   62.3573   65.9504 O   0  0  0  0  0  0  0  0  0  0  0  0
  -40.1338   62.0829   66.8802 H   0  0  0  0  0  0  0  0  0  0  0  0
  -38.0999   61.2415   65.5383 C   0  0  0  0  0  0  0  0  0  0  0  0
  -37.7102   59.8556   65.4611 O   0  0  0  0  0  0  0  0  0  0  0  0
  -36.3661   59.4572   64.7102 P   0  0  0  0  0  0  0  0  0  0  0  0
  -36.0763   58.0512   65.0576 O   0  0  0  0  0  0  0  0  0  0  0  0
  -36.5435   59.8257   63.2919 O   0  0  0  0  0  0  0  0  0  0  0  0
  -37.2566   59.2932   62.9062 H   0  0  0  0  0  0  0  0  0  0  0  0
  -35.1922   60.3564   65.2852 O   0  0  0  0  0  0  0  0  0  0  0  0
  -34.3178   61.0631   64.3743 C   0  0  0  0  0  0  0  0  0  0  0  0
  -34.0066   62.3841   65.0402 C   0  0  0  0  0  0  0  0  0  0  0  0
  -34.4271   63.6296   64.2852 N   0  0  0  0  0  0  0  0  0  0  0  0
  -35.7163   63.4113   63.5607 C   0  0  0  0  0  0  0  0  0  0  0  0
  -33.3732   63.9893   63.2875 C   0  0  0  0  0  0  0  0  0  0  0  0
  -34.6044   64.7626   65.2467 C   0  0  0  0  0  0  0  0  0  0  0  0
 34 33  1  0  0  0
 34 35  1  0  0  0
 34 36  1  0  0  0
 34 37  1  0  0  0
 22 23  1  0  0  0
 22 25  1  0  0  0
 22 21  1  0  0  0
 23 24  1  0  0  0
 27 26  1  0  0  0
 27 28  2  0  0  0
 27 31  1  0  0  0
 27 29  1  0  0  0
 25 26  1  0  0  0
 32 33  1  0  0  0
 32 31  1  0  0  0
 29 30  1  0  0  0
 20 21  1  0  0  0
 20  2  1  0  0  0
  1  2  2  0  0  0
  2  3  1  0  0  0
  3  4  1  0  0  0
  4  5  1  0  0  0
  5  6  1  0  0  0
  6  7  1  0  0  0
  7  8  1  0  0  0
  8  9  1  0  0  0
  9 10  1  0  0  0
 10 11  2  0  0  0
 11 12  1  0  0  0
 12 13  1  0  0  0
 13 14  1  0  0  0
 14 15  1  0  0  0
 15 16  1  0  0  0
 16 17  1  0  0  0
 17 18  1  0  0  0
 18 19  1  0  0  0
M  CHG 1  28  -1
M  END
> <minimizedAffinity>
-7.95290

> <CNNscore>
0.7589102983

> <CNNaffinity>
6.5433449745

> <CNN_VS>
4.9658117294

> <CNNaffinity_variance>
0.5659837127

$$$$
/media/chris/experiments/cd1a-new-docking/inputs/ligands/4x6c_ligand.pdb


 37 36  0  0  0  0  0  0  0  0999 V2000
  -42.9836   59.8434   66.6109 O   0  0  0  0  0  0  0  0  0  0  0  0
  -42.8562   59.3627   65.5266 C   0  0  0  0  0  0  0  0  0  0  0  0
  -43.9243   58.6086   64.8044 C   0  0  0  0  0  0  0  0  0  0  0  0
  -44.3449   57.3424   65.5265 C   0  0  0  0  0  0  0  0  0  0  0  0
  -45.8289   57.2966   65.8198 C   0  0  0  0  0  0  0  0  0  0  0  0
  -46.4273   58.6217   66.2295 C   0  0  0  0  0  0  0  0  0  0  0  0
  -47.5288   59.1015   65.3190 C   0  0  0  0  0  0  0  0  0  0  0  0
  -48.2212   57.9691   64.6094 C   0  0  0  0  0  0  0  0  0  0  0  0
  -49.7103   57.9155   64.7822 C   0  0  0  0  0  0  0  0  0  0  0  0
  -50.3002   59.2080   65.1596 C   0  0  0  0  0  0  0  0  0  0  0  0
  -50.8636   60.0999   64.3749 C   0  0  0  0  0  0  0  0  0  0  0  0
  -51.0710   60.0238   62.9066 C   0  0  0  0  0  0  0  0  0  0  0  0
  -49.8819   60.4238   62.0573 C   0  0  0  0  0  0  0  0  0  0  0  0
  -49.7043   59.5408   60.8530 C   0  0  0  0  0  0  0  0  0  0  0  0
  -50.2035   58.1294   61.0282 C   0  0  0  0  0  0  0  0  0  0  0  0
  -49.0832   57.1128   61.0341 C   0  0  0  0  0  0  0  0  0  0  0  0
  -49.2330   55.9995   60.0350 C   0  0  0  0  0  0  0  0  0  0  0  0
  -48.0998   55.9069   59.0935 C   0  0  0  0  0  0  0  0  0  0  0  0
  -48.0197   57.0362   58.1690 C   0  0  0  0  0  0  0  0  0  0  0  0
  -41.7320   59.4286   64.8135 O   0  0  0  0  0  0  0  0  0  0  0  0
  -41.5215   60.6087   64.0065 C   0  0  0  0  0  0  0  0  0  0  0  0
  -40.2965   61.3060   64.5517 C   0  0  0  0  0  0  0  0  0  0  0  0
  -40.6975   62.3328   65.4589 O   0  0  0  0  0  0  0  0  0  0  0  0
  -41.1508   61.9344   66.2183 H   0  0  0  0  0  0  0  0  0  0  0  0
  -39.3103   60.4068   65.2568 C   0  0  0  0  0  0  0  0  0  0  0  0
  -38.0846   60.3856   64.4980 O   0  0  0  0  0  0  0  0  0  0  0  0
  -37.1372   61.6630   64.4984 P   0  0  0  0  0  0  0  0  0  0  0  0
  -37.2019   62.2504   63.1449 O   0  0  0  0  0  0  0  0  0  0  0  0
  -37.5298   62.4860   65.6592 O   0  0  0  0  0  0  0  0  0  0  0  0
  -38.4387   62.8026   65.5386 H   0  0  0  0  0  0  0  0  0  0  0  0
  -35.6487   61.1756   64.7510 O   0  0  0  0  0  0  0  0  0  0  0  0
  -34.7818   61.9395   65.6222 C   0  0  0  0  0  0  0  0  0  0  0  0
  -33.6755   62.4732   64.7409 C   0  0  0  0  0  0  0  0  0  0  0  0
  -33.7451   63.9483   64.3989 N   0  0  0  0  0  0  0  0  0  0  0  0
  -34.2626   64.1562   63.0119 C   0  0  0  0  0  0  0  0  0  0  0  0
  -32.3792   64.5489   64.4944 C   0  0  0  0  0  0  0  0  0  0  0  0
  -34.6584   64.6430   65.3595 C   0  0  0  0  0  0  0  0  0  0  0  0
 34 33  1  0  0  0
 34 35  1  0  0  0
 34 36  1  0  0  0
 34 37  1  0  0  0
 22 23  1  0  0  0
 22 25  1  0  0  0
 22 21  1  0  0  0
 23 24  1  0  0  0
 27 26  1  0  0  0
 27 28  2  0  0  0
 27 31  1  0  0  0
 27 29  1  0  0  0
 25 26  1  0  0  0
 32 33  1  0  0  0
 32 31  1  0  0  0
 29 30  1  0  0  0
 20 21  1  0  0  0
 20  2  1  0  0  0
  1  2  2  0  0  0
  2  3  1  0  0  0
  3  4  1  0  0  0
  4  5  1  0  0  0
  5  6  1  0  0  0
  6  7  1  0  0  0
  7  8  1  0  0  0
  8  9  1  0  0  0
  9 10  1  0  0  0
 10 11  2  0  0  0
 11 12  1  0  0  0
 12 13  1  0  0  0
 13 14  1  0  0  0
 14 15  1  0  0  0
 15 16  1  0  0  0
 16 17  1  0  0  0
 17 18  1  0  0  0
 18 19  1  0  0  0
M  CHG 1  28  -1
M  END
> <minimizedAffinity>
-7.81818

> <CNNscore>
0.7155208588

> <CNNaffinity>
6.3898286819

> <CNN_VS>
4.5720558167

> <CNNaffinity_variance>
0.2516704500

$$$$
/media/chris/experiments/cd1a-new-docking/inputs/ligands/4x6c_ligand.pdb


 37 36  0  0  0  0  0  0  0  0999 V2000
  -40.0663   61.0414   61.4151 O   0  0  0  0  0  0  0  0  0  0  0  0
  -40.0002   61.0292   62.6061 C   0  0  0  0  0  0  0  0  0  0  0  0
  -41.0867   61.4957   63.5188 C   0  0  0  0  0  0  0  0  0  0  0  0
  -42.2024   60.4800   63.6767 C   0  0  0  0  0  0  0  0  0  0  0  0
  -42.2787   59.9008   65.0729 C   0  0  0  0  0  0  0  0  0  0  0  0
  -43.5990   59.2485   65.4089 C   0  0  0  0  0  0  0  0  0  0  0  0
  -43.5505   57.7418   65.4184 C   0  0  0  0  0  0  0  0  0  0  0  0
  -44.9211   57.1238   65.4884 C   0  0  0  0  0  0  0  0  0  0  0  0
  -46.0152   57.9070   64.8254 C   0  0  0  0  0  0  0  0  0  0  0  0
  -47.3385   57.6827   65.4252 C   0  0  0  0  0  0  0  0  0  0  0  0
  -48.5128   57.7344   64.8362 C   0  0  0  0  0  0  0  0  0  0  0  0
  -48.8067   58.0104   63.4072 C   0  0  0  0  0  0  0  0  0  0  0  0
  -50.2478   58.3552   63.0915 C   0  0  0  0  0  0  0  0  0  0  0  0
  -50.6043   58.1021   61.6525 C   0  0  0  0  0  0  0  0  0  0  0  0
  -49.6443   57.2044   60.9147 C   0  0  0  0  0  0  0  0  0  0  0  0
  -49.2701   57.7471   59.5530 C   0  0  0  0  0  0  0  0  0  0  0  0
  -48.8216   56.7115   58.5599 C   0  0  0  0  0  0  0  0  0  0  0  0
  -47.3531   56.5970   58.4623 C   0  0  0  0  0  0  0  0  0  0  0  0
  -46.8180   57.0671   57.1860 C   0  0  0  0  0  0  0  0  0  0  0  0
  -38.9361   60.6016   63.2855 O   0  0  0  0  0  0  0  0  0  0  0  0
  -38.5280   61.3696   64.4395 C   0  0  0  0  0  0  0  0  0  0  0  0
  -38.1390   60.3813   65.5148 C   0  0  0  0  0  0  0  0  0  0  0  0
  -37.6389   59.1898   64.9077 O   0  0  0  0  0  0  0  0  0  0  0  0
  -36.8300   59.3939   64.4129 H   0  0  0  0  0  0  0  0  0  0  0  0
  -37.1104   60.8810   66.5000 C   0  0  0  0  0  0  0  0  0  0  0  0
  -36.8193   62.2607   66.1994 O   0  0  0  0  0  0  0  0  0  0  0  0
  -35.3070   62.7343   66.0655 P   0  0  0  0  0  0  0  0  0  0  0  0
  -35.2970   64.2022   66.2290 O   0  0  0  0  0  0  0  0  0  0  0  0
  -34.5148   61.9019   66.9919 O   0  0  0  0  0  0  0  0  0  0  0  0
  -34.7919   62.0801   67.9042 H   0  0  0  0  0  0  0  0  0  0  0  0
  -34.8120   62.4012   64.5954 O   0  0  0  0  0  0  0  0  0  0  0  0
  -33.7575   61.4306   64.3963 C   0  0  0  0  0  0  0  0  0  0  0  0
  -34.4398   60.1715   63.9119 C   0  0  0  0  0  0  0  0  0  0  0  0
  -33.6034   58.9073   63.9312 N   0  0  0  0  0  0  0  0  0  0  0  0
  -34.2790   57.8027   63.1842 C   0  0  0  0  0  0  0  0  0  0  0  0
  -33.3922   58.4689   65.3449 C   0  0  0  0  0  0  0  0  0  0  0  0
  -32.2763   59.1746   63.2933 C   0  0  0  0  0  0  0  0  0  0  0  0
 34 33  1  0  0  0
 34 35  1  0  0  0
 34 36  1  0  0  0
 34 37  1  0  0  0
 22 23  1  0  0  0
 22 25  1  0  0  0
 22 21  1  0  0  0
 23 24  1  0  0  0
 27 26  1  0  0  0
 27 28  2  0  0  0
 27 31  1  0  0  0
 27 29  1  0  0  0
 25 26  1  0  0  0
 32 33  1  0  0  0
 32 31  1  0  0  0
 29 30  1  0  0  0
 20 21  1  0  0  0
 20  2  1  0  0  0
  1  2  2  0  0  0
  2  3  1  0  0  0
  3  4  1  0  0  0
  4  5  1  0  0  0
  5  6  1  0  0  0
  6  7  1  0  0  0
  7  8  1  0  0  0
  8  9  1  0  0  0
  9 10  1  0  0  0
 10 11  2  0  0  0
 11 12  1  0  0  0
 12 13  1  0  0  0
 13 14  1  0  0  0
 14 15  1  0  0  0
 15 16  1  0  0  0
 16 17  1  0  0  0
 17 18  1  0  0  0
 18 19  1  0  0  0
M  CHG 1  28  -1
M  END
> <minimizedAffinity>
-7.67148

> <CNNscore>
0.6857210994

> <CNNaffinity>
6.6623725891

> <CNN_VS>
4.5685296059

> <CNNaffinity_variance>
0.3185307384

$$$$
/media/chris/experiments/cd1a-new-docking/inputs/ligands/4x6c_ligand.pdb


 37 36  0  0  0  0  0  0  0  0999 V2000
  -42.5287   60.3424   66.8195 O   0  0  0  0  0  0  0  0  0  0  0  0
  -42.7156   60.0709   65.6731 C   0  0  0  0  0  0  0  0  0  0  0  0
  -44.0585   59.8112   65.0730 C   0  0  0  0  0  0  0  0  0  0  0  0
  -44.7129   58.5529   65.6115 C   0  0  0  0  0  0  0  0  0  0  0  0
  -46.1144   58.7932   66.1296 C   0  0  0  0  0  0  0  0  0  0  0  0
  -47.1065   59.2243   65.0752 C   0  0  0  0  0  0  0  0  0  0  0  0
  -47.9990   58.1123   64.5861 C   0  0  0  0  0  0  0  0  0  0  0  0
  -49.4222   58.2728   65.0490 C   0  0  0  0  0  0  0  0  0  0  0  0
  -49.9084   59.6877   65.1574 C   0  0  0  0  0  0  0  0  0  0  0  0
  -51.0041   60.0003   64.2286 C   0  0  0  0  0  0  0  0  0  0  0  0
  -50.9257   60.2508   62.9403 C   0  0  0  0  0  0  0  0  0  0  0  0
  -49.7130   60.2608   62.0837 C   0  0  0  0  0  0  0  0  0  0  0  0
  -49.7598   59.3491   60.8745 C   0  0  0  0  0  0  0  0  0  0  0  0
  -50.3978   58.0203   61.1728 C   0  0  0  0  0  0  0  0  0  0  0  0
  -49.5506   56.8231   60.8253 C   0  0  0  0  0  0  0  0  0  0  0  0
  -48.7710   57.0147   59.5430 C   0  0  0  0  0  0  0  0  0  0  0  0
  -47.8525   55.8798   59.1847 C   0  0  0  0  0  0  0  0  0  0  0  0
  -46.6730   56.3095   58.4081 C   0  0  0  0  0  0  0  0  0  0  0  0
  -46.9933   57.2586   57.3437 C   0  0  0  0  0  0  0  0  0  0  0  0
  -41.7419   59.9545   64.7703 O   0  0  0  0  0  0  0  0  0  0  0  0
  -41.3836   61.1356   64.0187 C   0  0  0  0  0  0  0  0  0  0  0  0
  -40.0664   61.6298   64.5708 C   0  0  0  0  0  0  0  0  0  0  0  0
  -40.2806   62.2282   65.8493 O   0  0  0  0  0  0  0  0  0  0  0  0
  -40.6072   61.5577   66.4694 H   0  0  0  0  0  0  0  0  0  0  0  0
  -38.9969   60.5742   64.7129 C   0  0  0  0  0  0  0  0  0  0  0  0
  -37.7132   61.1869   64.4776 O   0  0  0  0  0  0  0  0  0  0  0  0
  -36.6692   61.3088   65.6711 P   0  0  0  0  0  0  0  0  0  0  0  0
  -37.3371   60.7961   66.8846 O   0  0  0  0  0  0  0  0  0  0  0  0
  -35.4199   60.6697   65.2132 O   0  0  0  0  0  0  0  0  0  0  0  0
  -35.5763   59.7241   65.0639 H   0  0  0  0  0  0  0  0  0  0  0  0
  -36.3535   62.8470   65.8978 O   0  0  0  0  0  0  0  0  0  0  0  0
  -34.9853   63.2780   66.0876 C   0  0  0  0  0  0  0  0  0  0  0  0
  -34.8479   64.5711   65.3165 C   0  0  0  0  0  0  0  0  0  0  0  0
  -33.7042   64.6402   64.3240 N   0  0  0  0  0  0  0  0  0  0  0  0
  -33.0964   63.2917   64.1073 C   0  0  0  0  0  0  0  0  0  0  0  0
  -32.6478   65.5629   64.8417 C   0  0  0  0  0  0  0  0  0  0  0  0
  -34.2092   65.1539   63.0123 C   0  0  0  0  0  0  0  0  0  0  0  0
 34 33  1  0  0  0
 34 35  1  0  0  0
 34 36  1  0  0  0
 34 37  1  0  0  0
 22 23  1  0  0  0
 22 25  1  0  0  0
 22 21  1  0  0  0
 23 24  1  0  0  0
 27 26  1  0  0  0
 27 28  2  0  0  0
 27 31  1  0  0  0
 27 29  1  0  0  0
 25 26  1  0  0  0
 32 33  1  0  0  0
 32 31  1  0  0  0
 29 30  1  0  0  0
 20 21  1  0  0  0
 20  2  1  0  0  0
  1  2  2  0  0  0
  2  3  1  0  0  0
  3  4  1  0  0  0
  4  5  1  0  0  0
  5  6  1  0  0  0
  6  7  1  0  0  0
  7  8  1  0  0  0
  8  9  1  0  0  0
  9 10  1  0  0  0
 10 11  2  0  0  0
 11 12  1  0  0  0
 12 13  1  0  0  0
 13 14  1  0  0  0
 14 15  1  0  0  0
 15 16  1  0  0  0
 16 17  1  0  0  0
 17 18  1  0  0  0
 18 19  1  0  0  0
M  CHG 1  28  -1
M  END
> <minimizedAffinity>
-7.98181

> <CNNscore>
0.6525289416

> <CNNaffinity>
6.2784762383

> <CNN_VS>
4.0968875885

> <CNNaffinity_variance>
0.3864977956

$$$$
/media/chris/experiments/cd1a-new-docking/inputs/ligands/4x6c_ligand.pdb


 37 36  0  0  0  0  0  0  0  0999 V2000
  -38.4485   58.2132   62.6882 O   0  0  0  0  0  0  0  0  0  0  0  0
  -38.5434   58.3840   63.8650 C   0  0  0  0  0  0  0  0  0  0  0  0
  -39.8256   58.6619   64.5791 C   0  0  0  0  0  0  0  0  0  0  0  0
  -40.1310   60.1438   64.6898 C   0  0  0  0  0  0  0  0  0  0  0  0
  -41.5656   60.4219   65.0832 C   0  0  0  0  0  0  0  0  0  0  0  0
  -42.4037   59.1856   65.3095 C   0  0  0  0  0  0  0  0  0  0  0  0
  -43.8540   59.3545   64.9346 C   0  0  0  0  0  0  0  0  0  0  0  0
  -44.7704   59.2480   66.1239 C   0  0  0  0  0  0  0  0  0  0  0  0
  -46.2372   59.2726   65.8108 C   0  0  0  0  0  0  0  0  0  0  0  0
  -46.8409   57.9339   65.7413 C   0  0  0  0  0  0  0  0  0  0  0  0
  -47.9170   57.5653   65.0821 C   0  0  0  0  0  0  0  0  0  0  0  0
  -48.7898   58.3999   64.2181 C   0  0  0  0  0  0  0  0  0  0  0  0
  -48.6992   58.1184   62.7322 C   0  0  0  0  0  0  0  0  0  0  0  0
  -49.8393   58.7186   61.9564 C   0  0  0  0  0  0  0  0  0  0  0  0
  -50.9547   57.7580   61.6321 C   0  0  0  0  0  0  0  0  0  0  0  0
  -50.6996   56.9783   60.3610 C   0  0  0  0  0  0  0  0  0  0  0  0
  -49.9547   57.7317   59.2946 C   0  0  0  0  0  0  0  0  0  0  0  0
  -48.9273   56.9168   58.6168 C   0  0  0  0  0  0  0  0  0  0  0  0
  -48.3035   55.9252   59.4910 C   0  0  0  0  0  0  0  0  0  0  0  0
  -37.5081   58.3571   64.7042 O   0  0  0  0  0  0  0  0  0  0  0  0
  -36.1910   58.1884   64.1343 C   0  0  0  0  0  0  0  0  0  0  0  0
  -35.2612   59.1136   64.8852 C   0  0  0  0  0  0  0  0  0  0  0  0
  -34.0694   58.4096   65.2348 O   0  0  0  0  0  0  0  0  0  0  0  0
  -33.6027   58.1430   64.4274 H   0  0  0  0  0  0  0  0  0  0  0  0
  -34.8719   60.3687   64.1427 C   0  0  0  0  0  0  0  0  0  0  0  0
  -35.3414   61.5085   64.8903 O   0  0  0  0  0  0  0  0  0  0  0  0
  -36.6638   62.2616   64.4283 P   0  0  0  0  0  0  0  0  0  0  0  0
  -37.1442   61.5834   63.2074 O   0  0  0  0  0  0  0  0  0  0  0  0
  -37.5491   62.3329   65.6073 O   0  0  0  0  0  0  0  0  0  0  0  0
  -37.8071   61.4363   65.8726 H   0  0  0  0  0  0  0  0  0  0  0  0
  -36.2764   63.7508   64.0420 O   0  0  0  0  0  0  0  0  0  0  0  0
  -34.9141   64.0636   63.6676 C   0  0  0  0  0  0  0  0  0  0  0  0
  -34.3934   64.9938   64.7396 C   0  0  0  0  0  0  0  0  0  0  0  0
  -33.0750   64.6059   65.3795 N   0  0  0  0  0  0  0  0  0  0  0  0
  -33.2945   63.8421   66.6456 C   0  0  0  0  0  0  0  0  0  0  0  0
  -32.2905   65.8389   65.6951 C   0  0  0  0  0  0  0  0  0  0  0  0
  -32.2915   63.7504   64.4341 C   0  0  0  0  0  0  0  0  0  0  0  0
 34 33  1  0  0  0
 34 35  1  0  0  0
 34 36  1  0  0  0
 34 37  1  0  0  0
 22 23  1  0  0  0
 22 25  1  0  0  0
 22 21  1  0  0  0
 23 24  1  0  0  0
 27 26  1  0  0  0
 27 28  2  0  0  0
 27 31  1  0  0  0
 27 29  1  0  0  0
 25 26  1  0  0  0
 32 33  1  0  0  0
 32 31  1  0  0  0
 29 30  1  0  0  0
 20 21  1  0  0  0
 20  2  1  0  0  0
  1  2  2  0  0  0
  2  3  1  0  0  0
  3  4  1  0  0  0
  4  5  1  0  0  0
  5  6  1  0  0  0
  6  7  1  0  0  0
  7  8  1  0  0  0
  8  9  1  0  0  0
  9 10  1  0  0  0
 10 11  2  0  0  0
 11 12  1  0  0  0
 12 13  1  0  0  0
 13 14  1  0  0  0
 14 15  1  0  0  0
 15 16  1  0  0  0
 16 17  1  0  0  0
 17 18  1  0  0  0
 18 19  1  0  0  0
M  CHG 1  28  -1
M  END
> <minimizedAffinity>
-7.50828

> <CNNscore>
0.6305183768

> <CNNaffinity>
6.1260762215

> <CNN_VS>
3.8626036644

> <CNNaffinity_variance>
0.3427011371

$$$$
/media/chris/experiments/cd1a-new-docking/inputs/ligands/4x6c_ligand.pdb


 37 36  0  0  0  0  0  0  0  0999 V2000
  -40.1519   61.7807   65.9451 O   0  0  0  0  0  0  0  0  0  0  0  0
  -40.5353   60.7013   65.6121 C   0  0  0  0  0  0  0  0  0  0  0  0
  -41.2673   59.7514   66.5026 C   0  0  0  0  0  0  0  0  0  0  0  0
  -42.7099   60.1566   66.7400 C   0  0  0  0  0  0  0  0  0  0  0  0
  -43.6643   59.5564   65.7305 C   0  0  0  0  0  0  0  0  0  0  0  0
  -43.2893   58.1702   65.2616 C   0  0  0  0  0  0  0  0  0  0  0  0
  -44.4671   57.3295   64.8390 C   0  0  0  0  0  0  0  0  0  0  0  0
  -45.3239   56.9146   66.0048 C   0  0  0  0  0  0  0  0  0  0  0  0
  -46.7832   57.2379   65.8787 C   0  0  0  0  0  0  0  0  0  0  0  0
  -47.0644   58.2860   64.8871 C   0  0  0  0  0  0  0  0  0  0  0  0
  -48.2098   58.8850   64.6461 C   0  0  0  0  0  0  0  0  0  0  0  0
  -49.5119   58.6750   65.3280 C   0  0  0  0  0  0  0  0  0  0  0  0
  -50.5623   59.7362   65.0714 C   0  0  0  0  0  0  0  0  0  0  0  0
  -50.4825   60.3094   63.6833 C   0  0  0  0  0  0  0  0  0  0  0  0
  -51.1759   59.4918   62.6238 C   0  0  0  0  0  0  0  0  0  0  0  0
  -50.2357   59.0443   61.5263 C   0  0  0  0  0  0  0  0  0  0  0  0
  -50.3974   57.6122   61.0987 C   0  0  0  0  0  0  0  0  0  0  0  0
  -50.3270   57.4309   59.6354 C   0  0  0  0  0  0  0  0  0  0  0  0
  -48.9594   57.3566   59.1251 C   0  0  0  0  0  0  0  0  0  0  0  0
  -40.3527   60.1927   64.3936 O   0  0  0  0  0  0  0  0  0  0  0  0
  -40.0994   61.1196   63.3143 C   0  0  0  0  0  0  0  0  0  0  0  0
  -38.8247   60.6729   62.6362 C   0  0  0  0  0  0  0  0  0  0  0  0
  -39.0804   60.4342   61.2521 O   0  0  0  0  0  0  0  0  0  0  0  0
  -39.3459   61.2634   60.8246 H   0  0  0  0  0  0  0  0  0  0  0  0
  -37.6699   61.6384   62.7471 C   0  0  0  0  0  0  0  0  0  0  0  0
  -37.5685   62.0774   64.1167 O   0  0  0  0  0  0  0  0  0  0  0  0
  -36.1694   62.5830   64.6790 P   0  0  0  0  0  0  0  0  0  0  0  0
  -35.7635   63.7389   63.8541 O   0  0  0  0  0  0  0  0  0  0  0  0
  -36.3330   62.7605   66.1352 O   0  0  0  0  0  0  0  0  0  0  0  0
  -36.9810   63.4620   66.3047 H   0  0  0  0  0  0  0  0  0  0  0  0
  -35.1028   61.4283   64.4641 O   0  0  0  0  0  0  0  0  0  0  0  0
  -34.9979   60.3591   65.4334 C   0  0  0  0  0  0  0  0  0  0  0  0
  -34.7341   59.1020   64.6361 C   0  0  0  0  0  0  0  0  0  0  0  0
  -35.9256   58.1937   64.4051 N   0  0  0  0  0  0  0  0  0  0  0  0
  -36.2683   58.1133   62.9523 C   0  0  0  0  0  0  0  0  0  0  0  0
  -37.1103   58.7244   65.1469 C   0  0  0  0  0  0  0  0  0  0  0  0
  -35.6096   56.8169   64.8992 C   0  0  0  0  0  0  0  0  0  0  0  0
 34 33  1  0  0  0
 34 35  1  0  0  0
 34 36  1  0  0  0
 34 37  1  0  0  0
 22 23  1  0  0  0
 22 25  1  0  0  0
 22 21  1  0  0  0
 23 24  1  0  0  0
 27 26  1  0  0  0
 27 28  2  0  0  0
 27 31  1  0  0  0
 27 29  1  0  0  0
 25 26  1  0  0  0
 32 33  1  0  0  0
 32 31  1  0  0  0
 29 30  1  0  0  0
 20 21  1  0  0  0
 20  2  1  0  0  0
  1  2  2  0  0  0
  2  3  1  0  0  0
  3  4  1  0  0  0
  4  5  1  0  0  0
  5  6  1  0  0  0
  6  7  1  0  0  0
  7  8  1  0  0  0
  8  9  1  0  0  0
  9 10  1  0  0  0
 10 11  2  0  0  0
 11 12  1  0  0  0
 12 13  1  0  0  0
 13 14  1  0  0  0
 14 15  1  0  0  0
 15 16  1  0  0  0
 16 17  1  0  0  0
 17 18  1  0  0  0
 18 19  1  0  0  0
M  CHG 1  28  -1
M  END
> <minimizedAffinity>
-7.80336

> <CNNscore>
0.6264439821

> <CNNaffinity>
6.5982298851

> <CNN_VS>
4.1334214211

> <CNNaffinity_variance>
0.4285387993

$$$$
