/media/chris/experiments/cd1a-new-docking/inputs/ligands/4x6c_ligand.pdb


 37 36  0  0  0  0  0  0  0  0999 V2000
  -41.8311   57.9352   65.5754 O   0  0  0  0  0  0  0  0  0  0  0  0
  -42.4146   58.9713   65.4801 C   0  0  0  0  0  0  0  0  0  0  0  0
  -43.7596   59.1303   64.8502 C   0  0  0  0  0  0  0  0  0  0  0  0
  -44.6433   57.9102   65.0281 C   0  0  0  0  0  0  0  0  0  0  0  0
  -46.1178   58.2498   65.0569 C   0  0  0  0  0  0  0  0  0  0  0  0
  -46.4312   59.6363   65.5680 C   0  0  0  0  0  0  0  0  0  0  0  0
  -47.8704   59.8265   65.9740 C   0  0  0  0  0  0  0  0  0  0  0  0
  -48.7624   60.1304   64.8004 C   0  0  0  0  0  0  0  0  0  0  0  0
  -50.1804   59.6584   64.9300 C   0  0  0  0  0  0  0  0  0  0  0  0
  -51.0262   60.0334   63.7877 C   0  0  0  0  0  0  0  0  0  0  0  0
  -51.1235   59.4332   62.6219 C   0  0  0  0  0  0  0  0  0  0  0  0
  -50.4218   58.2076   62.1639 C   0  0  0  0  0  0  0  0  0  0  0  0
  -51.0637   57.4848   60.9974 C   0  0  0  0  0  0  0  0  0  0  0  0
  -50.1015   57.2328   59.8692 C   0  0  0  0  0  0  0  0  0  0  0  0
  -48.9533   56.3190   60.2133 C   0  0  0  0  0  0  0  0  0  0  0  0
  -48.1414   55.9227   58.9999 C   0  0  0  0  0  0  0  0  0  0  0  0
  -47.8217   57.0486   58.0566 C   0  0  0  0  0  0  0  0  0  0  0  0
  -47.6399   56.6037   56.6607 C   0  0  0  0  0  0  0  0  0  0  0  0
  -47.3849   55.1700   56.5372 C   0  0  0  0  0  0  0  0  0  0  0  0
  -41.9360   60.1352   65.9198 O   0  0  0  0  0  0  0  0  0  0  0  0
  -40.5053   60.3307   65.8690 C   0  0  0  0  0  0  0  0  0  0  0  0
  -40.2582   61.5955   65.0793 C   0  0  0  0  0  0  0  0  0  0  0  0
  -38.9125   62.0274   65.2808 O   0  0  0  0  0  0  0  0  0  0  0  0
  -38.3027   61.3588   64.9316 H   0  0  0  0  0  0  0  0  0  0  0  0
  -40.5034   61.4796   63.5944 C   0  0  0  0  0  0  0  0  0  0  0  0
  -39.8213   60.3066   63.1068 O   0  0  0  0  0  0  0  0  0  0  0  0
  -38.8494   60.4260   61.8537 P   0  0  0  0  0  0  0  0  0  0  0  0
  -39.6976   60.6701   60.6697 O   0  0  0  0  0  0  0  0  0  0  0  0
  -37.8112   61.4129   62.2106 O   0  0  0  0  0  0  0  0  0  0  0  0
  -38.2219   62.2821   62.3393 H   0  0  0  0  0  0  0  0  0  0  0  0
  -38.1216   59.0301   61.6565 O   0  0  0  0  0  0  0  0  0  0  0  0
  -38.2716   57.9954   62.6567 C   0  0  0  0  0  0  0  0  0  0  0  0
  -36.8731   57.5086   62.9615 C   0  0  0  0  0  0  0  0  0  0  0  0
  -36.1712   58.1764   64.1272 N   0  0  0  0  0  0  0  0  0  0  0  0
  -35.2671   59.2702   63.6570 C   0  0  0  0  0  0  0  0  0  0  0  0
  -35.3538   57.1651   64.8649 C   0  0  0  0  0  0  0  0  0  0  0  0
  -37.1881   58.7621   65.0559 C   0  0  0  0  0  0  0  0  0  0  0  0
 34 33  1  0  0  0
 34 35  1  0  0  0
 34 36  1  0  0  0
 34 37  1  0  0  0
 22 23  1  0  0  0
 22 25  1  0  0  0
 22 21  1  0  0  0
 23 24  1  0  0  0
 27 26  1  0  0  0
 27 28  2  0  0  0
 27 31  1  0  0  0
 27 29  1  0  0  0
 25 26  1  0  0  0
 32 33  1  0  0  0
 32 31  1  0  0  0
 29 30  1  0  0  0
 20 21  1  0  0  0
 20  2  1  0  0  0
  1  2  2  0  0  0
  2  3  1  0  0  0
  3  4  1  0  0  0
  4  5  1  0  0  0
  5  6  1  0  0  0
  6  7  1  0  0  0
  7  8  1  0  0  0
  8  9  1  0  0  0
  9 10  1  0  0  0
 10 11  2  0  0  0
 11 12  1  0  0  0
 12 13  1  0  0  0
 13 14  1  0  0  0
 14 15  1  0  0  0
 15 16  1  0  0  0
 16 17  1  0  0  0
 17 18  1  0  0  0
 18 19  1  0  0  0
M  CHG 1  28  -1
M  END
> <minimizedAffinity>
-8.54541

> <CNNscore>
0.8839200735

> <CNNaffinity>
7.1223268509

> <CNN_VS>
6.2955675125

> <CNNaffinity_variance>
0.5030612946

$$$$
/media/chris/experiments/cd1a-new-docking/inputs/ligands/4x6c_ligand.pdb


 37 36  0  0  0  0  0  0  0  0999 V2000
  -41.2057   61.0640   64.3682 O   0  0  0  0  0  0  0  0  0  0  0  0
  -41.0713   60.0639   65.0045 C   0  0  0  0  0  0  0  0  0  0  0  0
  -42.1948   59.2920   65.6153 C   0  0  0  0  0  0  0  0  0  0  0  0
  -43.4956   59.4348   64.8478 C   0  0  0  0  0  0  0  0  0  0  0  0
  -44.6726   58.8051   65.5610 C   0  0  0  0  0  0  0  0  0  0  0  0
  -45.9880   59.5162   65.3468 C   0  0  0  0  0  0  0  0  0  0  0  0
  -47.0859   58.6248   64.8249 C   0  0  0  0  0  0  0  0  0  0  0  0
  -48.3772   58.8041   65.5770 C   0  0  0  0  0  0  0  0  0  0  0  0
  -49.6150   58.3853   64.8404 C   0  0  0  0  0  0  0  0  0  0  0  0
  -50.6036   59.4644   64.7012 C   0  0  0  0  0  0  0  0  0  0  0  0
  -51.0838   59.9831   63.5926 C   0  0  0  0  0  0  0  0  0  0  0  0
  -50.7700   59.5989   62.1933 C   0  0  0  0  0  0  0  0  0  0  0  0
  -50.2342   58.1942   62.0061 C   0  0  0  0  0  0  0  0  0  0  0  0
  -50.1503   57.7921   60.5593 C   0  0  0  0  0  0  0  0  0  0  0  0
  -49.3205   56.5620   60.2949 C   0  0  0  0  0  0  0  0  0  0  0  0
  -48.2060   56.8141   59.3034 C   0  0  0  0  0  0  0  0  0  0  0  0
  -47.4556   55.5864   58.8683 C   0  0  0  0  0  0  0  0  0  0  0  0
  -47.6221   55.2813   57.4335 C   0  0  0  0  0  0  0  0  0  0  0  0
  -47.7814   56.4724   56.6017 C   0  0  0  0  0  0  0  0  0  0  0  0
  -39.8903   59.5027   65.2634 O   0  0  0  0  0  0  0  0  0  0  0  0
  -39.5404   58.3118   64.5237 C   0  0  0  0  0  0  0  0  0  0  0  0
  -38.0609   58.3933   64.2258 C   0  0  0  0  0  0  0  0  0  0  0  0
  -37.7306   57.4616   63.1958 O   0  0  0  0  0  0  0  0  0  0  0  0
  -38.1920   57.7062   62.3785 H   0  0  0  0  0  0  0  0  0  0  0  0
  -37.5675   59.7576   63.8091 C   0  0  0  0  0  0  0  0  0  0  0  0
  -36.9331   60.3823   64.9434 O   0  0  0  0  0  0  0  0  0  0  0  0
  -37.0852   61.9498   65.1649 P   0  0  0  0  0  0  0  0  0  0  0  0
  -36.5596   62.6111   63.9536 O   0  0  0  0  0  0  0  0  0  0  0  0
  -38.4852   62.1909   65.5661 O   0  0  0  0  0  0  0  0  0  0  0  0
  -39.0771   61.9449   64.8380 H   0  0  0  0  0  0  0  0  0  0  0  0
  -36.1677   62.3682   66.3897 O   0  0  0  0  0  0  0  0  0  0  0  0
  -34.7775   61.9681   66.4140 C   0  0  0  0  0  0  0  0  0  0  0  0
  -33.9940   63.2144   66.7581 C   0  0  0  0  0  0  0  0  0  0  0  0
  -33.3861   63.9664   65.5908 N   0  0  0  0  0  0  0  0  0  0  0  0
  -34.3128   65.0283   65.0924 C   0  0  0  0  0  0  0  0  0  0  0  0
  -33.1061   63.0136   64.4733 C   0  0  0  0  0  0  0  0  0  0  0  0
  -32.1065   64.6117   66.0220 C   0  0  0  0  0  0  0  0  0  0  0  0
 34 33  1  0  0  0
 34 35  1  0  0  0
 34 36  1  0  0  0
 34 37  1  0  0  0
 22 23  1  0  0  0
 22 25  1  0  0  0
 22 21  1  0  0  0
 23 24  1  0  0  0
 27 26  1  0  0  0
 27 28  2  0  0  0
 27 31  1  0  0  0
 27 29  1  0  0  0
 25 26  1  0  0  0
 32 33  1  0  0  0
 32 31  1  0  0  0
 29 30  1  0  0  0
 20 21  1  0  0  0
 20  2  1  0  0  0
  1  2  2  0  0  0
  2  3  1  0  0  0
  3  4  1  0  0  0
  4  5  1  0  0  0
  5  6  1  0  0  0
  6  7  1  0  0  0
  7  8  1  0  0  0
  8  9  1  0  0  0
  9 10  1  0  0  0
 10 11  2  0  0  0
 11 12  1  0  0  0
 12 13  1  0  0  0
 13 14  1  0  0  0
 14 15  1  0  0  0
 15 16  1  0  0  0
 16 17  1  0  0  0
 17 18  1  0  0  0
 18 19  1  0  0  0
M  CHG 1  28  -1
M  END
> <minimizedAffinity>
-7.92001

> <CNNscore>
0.7870153785

> <CNNaffinity>
6.4739980698

> <CNN_VS>
5.0951361656

> <CNNaffinity_variance>
0.7398452163

$$$$
/media/chris/experiments/cd1a-new-docking/inputs/ligands/4x6c_ligand.pdb


 37 36  0  0  0  0  0  0  0  0999 V2000
  -44.0480   56.5778   65.3559 O   0  0  0  0  0  0  0  0  0  0  0  0
  -44.3341   57.7259   65.2039 C   0  0  0  0  0  0  0  0  0  0  0  0
  -45.6984   58.2939   65.4207 C   0  0  0  0  0  0  0  0  0  0  0  0
  -45.7082   59.8105   65.4563 C   0  0  0  0  0  0  0  0  0  0  0  0
  -47.0035   60.4036   64.9456 C   0  0  0  0  0  0  0  0  0  0  0  0
  -48.1795   60.2365   65.8788 C   0  0  0  0  0  0  0  0  0  0  0  0
  -49.2211   59.2673   65.3807 C   0  0  0  0  0  0  0  0  0  0  0  0
  -50.5836   59.8967   65.2678 C   0  0  0  0  0  0  0  0  0  0  0  0
  -51.1357   59.9921   63.8763 C   0  0  0  0  0  0  0  0  0  0  0  0
  -50.1073   60.2483   62.8576 C   0  0  0  0  0  0  0  0  0  0  0  0
  -49.5091   59.3771   62.0753 C   0  0  0  0  0  0  0  0  0  0  0  0
  -49.7326   57.9113   62.0012 C   0  0  0  0  0  0  0  0  0  0  0  0
  -50.5532   57.4345   60.8203 C   0  0  0  0  0  0  0  0  0  0  0  0
  -49.9196   57.7714   59.4984 C   0  0  0  0  0  0  0  0  0  0  0  0
  -49.2375   56.6145   58.8143 C   0  0  0  0  0  0  0  0  0  0  0  0
  -47.7628   56.5326   59.1417 C   0  0  0  0  0  0  0  0  0  0  0  0
  -47.0052   55.4734   58.3906 C   0  0  0  0  0  0  0  0  0  0  0  0
  -47.4865   55.2844   57.0079 C   0  0  0  0  0  0  0  0  0  0  0  0
  -47.2244   56.4311   56.1405 C   0  0  0  0  0  0  0  0  0  0  0  0
  -43.4687   58.6599   64.8096 O   0  0  0  0  0  0  0  0  0  0  0  0
  -42.1740   58.6838   65.4506 C   0  0  0  0  0  0  0  0  0  0  0  0
  -42.0089   60.0544   66.0659 C   0  0  0  0  0  0  0  0  0  0  0  0
  -42.7331   60.1149   67.2947 O   0  0  0  0  0  0  0  0  0  0  0  0
  -42.3553   59.4810   67.9242 H   0  0  0  0  0  0  0  0  0  0  0  0
  -40.5819   60.4666   66.3340 C   0  0  0  0  0  0  0  0  0  0  0  0
  -39.8034   60.2254   65.1445 O   0  0  0  0  0  0  0  0  0  0  0  0
  -38.6806   61.2666   64.7148 P   0  0  0  0  0  0  0  0  0  0  0  0
  -38.8657   61.5328   63.2741 O   0  0  0  0  0  0  0  0  0  0  0  0
  -38.7525   62.3906   65.6691 O   0  0  0  0  0  0  0  0  0  0  0  0
  -39.6085   62.8376   65.5783 H   0  0  0  0  0  0  0  0  0  0  0  0
  -37.2652   60.5768   64.9084 O   0  0  0  0  0  0  0  0  0  0  0  0
  -37.1824   59.1405   65.0631 C   0  0  0  0  0  0  0  0  0  0  0  0
  -36.9933   58.5844   63.6700 C   0  0  0  0  0  0  0  0  0  0  0  0
  -35.6779   57.8800   63.4034 N   0  0  0  0  0  0  0  0  0  0  0  0
  -35.4461   56.7800   64.3889 C   0  0  0  0  0  0  0  0  0  0  0  0
  -34.5547   58.8610   63.5094 C   0  0  0  0  0  0  0  0  0  0  0  0
  -35.6933   57.2937   62.0266 C   0  0  0  0  0  0  0  0  0  0  0  0
 34 33  1  0  0  0
 34 35  1  0  0  0
 34 36  1  0  0  0
 34 37  1  0  0  0
 22 23  1  0  0  0
 22 25  1  0  0  0
 22 21  1  0  0  0
 23 24  1  0  0  0
 27 26  1  0  0  0
 27 28  2  0  0  0
 27 31  1  0  0  0
 27 29  1  0  0  0
 25 26  1  0  0  0
 32 33  1  0  0  0
 32 31  1  0  0  0
 29 30  1  0  0  0
 20 21  1  0  0  0
 20  2  1  0  0  0
  1  2  2  0  0  0
  2  3  1  0  0  0
  3  4  1  0  0  0
  4  5  1  0  0  0
  5  6  1  0  0  0
  6  7  1  0  0  0
  7  8  1  0  0  0
  8  9  1  0  0  0
  9 10  1  0  0  0
 10 11  2  0  0  0
 11 12  1  0  0  0
 12 13  1  0  0  0
 13 14  1  0  0  0
 14 15  1  0  0  0
 15 16  1  0  0  0
 16 17  1  0  0  0
 17 18  1  0  0  0
 18 19  1  0  0  0
M  CHG 1  28  -1
M  END
> <minimizedAffinity>
-7.82681

> <CNNscore>
0.7846047282

> <CNNaffinity>
6.7919411659

> <CNN_VS>
5.3289890289

> <CNNaffinity_variance>
0.3936076462

$$$$
/media/chris/experiments/cd1a-new-docking/inputs/ligands/4x6c_ligand.pdb


 37 36  0  0  0  0  0  0  0  0999 V2000
  -41.8960   61.3574   63.8875 O   0  0  0  0  0  0  0  0  0  0  0  0
  -41.9440   60.2746   64.3858 C   0  0  0  0  0  0  0  0  0  0  0  0
  -43.1859   59.4537   64.5082 C   0  0  0  0  0  0  0  0  0  0  0  0
  -43.7914   59.5019   65.8983 C   0  0  0  0  0  0  0  0  0  0  0  0
  -45.2959   59.3381   65.8916 C   0  0  0  0  0  0  0  0  0  0  0  0
  -45.7777   57.9984   65.3866 C   0  0  0  0  0  0  0  0  0  0  0  0
  -47.2488   57.7556   65.6084 C   0  0  0  0  0  0  0  0  0  0  0  0
  -48.0925   58.2637   64.4701 C   0  0  0  0  0  0  0  0  0  0  0  0
  -49.5720   58.0765   64.6317 C   0  0  0  0  0  0  0  0  0  0  0  0
  -50.3483   59.2904   64.3405 C   0  0  0  0  0  0  0  0  0  0  0  0
  -50.5876   59.8355   63.1682 C   0  0  0  0  0  0  0  0  0  0  0  0
  -50.1555   59.3547   61.8317 C   0  0  0  0  0  0  0  0  0  0  0  0
  -50.8544   58.1082   61.3286 C   0  0  0  0  0  0  0  0  0  0  0  0
  -49.8968   56.9925   61.0120 C   0  0  0  0  0  0  0  0  0  0  0  0
  -49.0717   57.2049   59.7686 C   0  0  0  0  0  0  0  0  0  0  0  0
  -48.2380   55.9945   59.4100 C   0  0  0  0  0  0  0  0  0  0  0  0
  -46.9592   56.2998   58.6812 C   0  0  0  0  0  0  0  0  0  0  0  0
  -47.1609   57.1241   57.4732 C   0  0  0  0  0  0  0  0  0  0  0  0
  -47.2495   56.3394   56.2435 C   0  0  0  0  0  0  0  0  0  0  0  0
  -40.8886   59.6524   64.9110 O   0  0  0  0  0  0  0  0  0  0  0  0
  -40.0876   60.3854   65.8644 C   0  0  0  0  0  0  0  0  0  0  0  0
  -38.7767   60.7098   65.1858 C   0  0  0  0  0  0  0  0  0  0  0  0
  -38.9110   61.9234   64.4462 O   0  0  0  0  0  0  0  0  0  0  0  0
  -39.0961   62.6547   65.0558 H   0  0  0  0  0  0  0  0  0  0  0  0
  -37.5939   60.8464   66.1135 C   0  0  0  0  0  0  0  0  0  0  0  0
  -37.0365   62.1667   65.9550 O   0  0  0  0  0  0  0  0  0  0  0  0
  -35.6021   62.4926   66.5597 P   0  0  0  0  0  0  0  0  0  0  0  0
  -35.1967   63.8090   66.0270 O   0  0  0  0  0  0  0  0  0  0  0  0
  -35.7023   62.3077   68.0209 O   0  0  0  0  0  0  0  0  0  0  0  0
  -36.3227   62.9571   68.3872 H   0  0  0  0  0  0  0  0  0  0  0  0
  -34.5784   61.4080   66.0188 O   0  0  0  0  0  0  0  0  0  0  0  0
  -34.2460   61.3747   64.6110 C   0  0  0  0  0  0  0  0  0  0  0  0
  -34.5802   59.9776   64.1397 C   0  0  0  0  0  0  0  0  0  0  0  0
  -33.4056   59.1077   63.7383 N   0  0  0  0  0  0  0  0  0  0  0  0
  -33.7978   58.1272   62.6802 C   0  0  0  0  0  0  0  0  0  0  0  0
  -32.9122   58.3523   64.9304 C   0  0  0  0  0  0  0  0  0  0  0  0
  -32.3024   59.9687   63.2079 C   0  0  0  0  0  0  0  0  0  0  0  0
 34 33  1  0  0  0
 34 35  1  0  0  0
 34 36  1  0  0  0
 34 37  1  0  0  0
 22 23  1  0  0  0
 22 25  1  0  0  0
 22 21  1  0  0  0
 23 24  1  0  0  0
 27 26  1  0  0  0
 27 28  2  0  0  0
 27 31  1  0  0  0
 27 29  1  0  0  0
 25 26  1  0  0  0
 32 33  1  0  0  0
 32 31  1  0  0  0
 29 30  1  0  0  0
 20 21  1  0  0  0
 20  2  1  0  0  0
  1  2  2  0  0  0
  2  3  1  0  0  0
  3  4  1  0  0  0
  4  5  1  0  0  0
  5  6  1  0  0  0
  6  7  1  0  0  0
  7  8  1  0  0  0
  8  9  1  0  0  0
  9 10  1  0  0  0
 10 11  2  0  0  0
 11 12  1  0  0  0
 12 13  1  0  0  0
 13 14  1  0  0  0
 14 15  1  0  0  0
 15 16  1  0  0  0
 16 17  1  0  0  0
 17 18  1  0  0  0
 18 19  1  0  0  0
M  CHG 1  28  -1
M  END
> <minimizedAffinity>
-8.00110

> <CNNscore>
0.7501232624

> <CNNaffinity>
6.5862426758

> <CNN_VS>
4.9404940605

> <CNNaffinity_variance>
0.6088868976

$$$$
/media/chris/experiments/cd1a-new-docking/inputs/ligands/4x6c_ligand.pdb


 37 36  0  0  0  0  0  0  0  0999 V2000
  -40.7687   59.6524   65.7572 O   0  0  0  0  0  0  0  0  0  0  0  0
  -41.5601   59.9503   64.9157 C   0  0  0  0  0  0  0  0  0  0  0  0
  -43.0228   60.1332   65.1564 C   0  0  0  0  0  0  0  0  0  0  0  0
  -43.8580   58.9863   64.6194 C   0  0  0  0  0  0  0  0  0  0  0  0
  -44.3790   58.0757   65.7102 C   0  0  0  0  0  0  0  0  0  0  0  0
  -45.6598   57.3534   65.3642 C   0  0  0  0  0  0  0  0  0  0  0  0
  -46.8164   58.2720   65.0629 C   0  0  0  0  0  0  0  0  0  0  0  0
  -47.1072   59.2194   66.1958 C   0  0  0  0  0  0  0  0  0  0  0  0
  -48.1832   60.2301   65.9299 C   0  0  0  0  0  0  0  0  0  0  0  0
  -48.1132   60.8154   64.5832 C   0  0  0  0  0  0  0  0  0  0  0  0
  -49.0795   60.9269   63.6986 C   0  0  0  0  0  0  0  0  0  0  0  0
  -50.4980   60.5113   63.8378 C   0  0  0  0  0  0  0  0  0  0  0  0
  -51.0363   59.6410   62.7206 C   0  0  0  0  0  0  0  0  0  0  0  0
  -50.2090   58.4051   62.4965 C   0  0  0  0  0  0  0  0  0  0  0  0
  -50.7392   57.4768   61.4341 C   0  0  0  0  0  0  0  0  0  0  0  0
  -49.8007   57.3461   60.2547 C   0  0  0  0  0  0  0  0  0  0  0  0
  -49.3308   55.9467   59.9712 C   0  0  0  0  0  0  0  0  0  0  0  0
  -48.0376   55.9003   59.2609 C   0  0  0  0  0  0  0  0  0  0  0  0
  -47.8804   56.9646   58.2717 C   0  0  0  0  0  0  0  0  0  0  0  0
  -41.2422   60.1530   63.6371 O   0  0  0  0  0  0  0  0  0  0  0  0
  -40.3683   61.2631   63.3343 C   0  0  0  0  0  0  0  0  0  0  0  0
  -39.3088   60.7479   62.3875 C   0  0  0  0  0  0  0  0  0  0  0  0
  -39.7062   61.0080   61.0412 O   0  0  0  0  0  0  0  0  0  0  0  0
  -39.7622   61.9659   60.9000 H   0  0  0  0  0  0  0  0  0  0  0  0
  -37.9300   61.3255   62.5965 C   0  0  0  0  0  0  0  0  0  0  0  0
  -37.7914   61.6917   63.9842 O   0  0  0  0  0  0  0  0  0  0  0  0
  -36.4446   62.3716   64.4874 P   0  0  0  0  0  0  0  0  0  0  0  0
  -36.1218   63.4512   63.5327 O   0  0  0  0  0  0  0  0  0  0  0  0
  -36.6407   62.7058   65.9118 O   0  0  0  0  0  0  0  0  0  0  0  0
  -37.3450   63.3677   65.9946 H   0  0  0  0  0  0  0  0  0  0  0  0
  -35.2864   61.2898   64.4146 O   0  0  0  0  0  0  0  0  0  0  0  0
  -35.4670   60.0019   65.0488 C   0  0  0  0  0  0  0  0  0  0  0  0
  -35.4526   58.9844   63.9307 C   0  0  0  0  0  0  0  0  0  0  0  0
  -36.4252   57.8294   64.0642 N   0  0  0  0  0  0  0  0  0  0  0  0
  -37.6892   58.2640   64.7339 C   0  0  0  0  0  0  0  0  0  0  0  0
  -35.8019   56.7423   64.8795 C   0  0  0  0  0  0  0  0  0  0  0  0
  -36.7614   57.2977   62.7064 C   0  0  0  0  0  0  0  0  0  0  0  0
 34 33  1  0  0  0
 34 35  1  0  0  0
 34 36  1  0  0  0
 34 37  1  0  0  0
 22 23  1  0  0  0
 22 25  1  0  0  0
 22 21  1  0  0  0
 23 24  1  0  0  0
 27 26  1  0  0  0
 27 28  2  0  0  0
 27 31  1  0  0  0
 27 29  1  0  0  0
 25 26  1  0  0  0
 32 33  1  0  0  0
 32 31  1  0  0  0
 29 30  1  0  0  0
 20 21  1  0  0  0
 20  2  1  0  0  0
  1  2  2  0  0  0
  2  3  1  0  0  0
  3  4  1  0  0  0
  4  5  1  0  0  0
  5  6  1  0  0  0
  6  7  1  0  0  0
  7  8  1  0  0  0
  8  9  1  0  0  0
  9 10  1  0  0  0
 10 11  2  0  0  0
 11 12  1  0  0  0
 12 13  1  0  0  0
 13 14  1  0  0  0
 14 15  1  0  0  0
 15 16  1  0  0  0
 16 17  1  0  0  0
 17 18  1  0  0  0
 18 19  1  0  0  0
M  CHG 1  28  -1
M  END
> <minimizedAffinity>
-7.86680

> <CNNscore>
0.7225108743

> <CNNaffinity>
6.6871175766

> <CNN_VS>
4.8315153122

> <CNNaffinity_variance>
0.4176305234

$$$$
/media/chris/experiments/cd1a-new-docking/inputs/ligands/4x6c_ligand.pdb


 37 36  0  0  0  0  0  0  0  0999 V2000
  -42.3573   60.4705   66.9873 O   0  0  0  0  0  0  0  0  0  0  0  0
  -42.4399   60.2147   65.8250 C   0  0  0  0  0  0  0  0  0  0  0  0
  -43.6725   59.6990   65.1575 C   0  0  0  0  0  0  0  0  0  0  0  0
  -43.8190   58.1932   65.2692 C   0  0  0  0  0  0  0  0  0  0  0  0
  -45.1994   57.7054   64.8861 C   0  0  0  0  0  0  0  0  0  0  0  0
  -46.3243   58.3160   65.6884 C   0  0  0  0  0  0  0  0  0  0  0  0
  -47.3161   59.0899   64.8580 C   0  0  0  0  0  0  0  0  0  0  0  0
  -48.3041   58.1937   64.1607 C   0  0  0  0  0  0  0  0  0  0  0  0
  -49.6445   58.0743   64.8233 C   0  0  0  0  0  0  0  0  0  0  0  0
  -50.2969   59.3709   65.0566 C   0  0  0  0  0  0  0  0  0  0  0  0
  -50.9170   60.1330   64.1829 C   0  0  0  0  0  0  0  0  0  0  0  0
  -51.1396   59.8721   62.7384 C   0  0  0  0  0  0  0  0  0  0  0  0
  -50.0059   60.2781   61.8190 C   0  0  0  0  0  0  0  0  0  0  0  0
  -49.7501   59.2709   60.7317 C   0  0  0  0  0  0  0  0  0  0  0  0
  -50.2509   57.8811   61.0307 C   0  0  0  0  0  0  0  0  0  0  0  0
  -50.0320   56.9239   59.8798 C   0  0  0  0  0  0  0  0  0  0  0  0
  -48.8197   56.0445   60.0093 C   0  0  0  0  0  0  0  0  0  0  0  0
  -48.1752   55.7485   58.7145 C   0  0  0  0  0  0  0  0  0  0  0  0
  -47.3274   56.8345   58.2268 C   0  0  0  0  0  0  0  0  0  0  0  0
  -41.4322   60.3488   64.9627 O   0  0  0  0  0  0  0  0  0  0  0  0
  -40.1059   60.0144   65.4285 C   0  0  0  0  0  0  0  0  0  0  0  0
  -39.2486   61.2459   65.2471 C   0  0  0  0  0  0  0  0  0  0  0  0
  -39.8842   62.3639   65.8669 O   0  0  0  0  0  0  0  0  0  0  0  0
  -39.9498   62.2099   66.8222 H   0  0  0  0  0  0  0  0  0  0  0  0
  -37.8457   61.1335   65.7927 C   0  0  0  0  0  0  0  0  0  0  0  0
  -37.2178   62.4292   65.7146 O   0  0  0  0  0  0  0  0  0  0  0  0
  -35.6365   62.5454   65.8378 P   0  0  0  0  0  0  0  0  0  0  0  0
  -35.3107   63.9851   65.8843 O   0  0  0  0  0  0  0  0  0  0  0  0
  -35.2306   61.6793   66.9622 O   0  0  0  0  0  0  0  0  0  0  0  0
  -35.6089   62.0218   67.7871 H   0  0  0  0  0  0  0  0  0  0  0  0
  -34.9912   61.9386   64.5216 O   0  0  0  0  0  0  0  0  0  0  0  0
  -34.1564   60.7601   64.6097 C   0  0  0  0  0  0  0  0  0  0  0  0
  -34.9875   59.6223   64.0617 C   0  0  0  0  0  0  0  0  0  0  0  0
  -34.3868   58.2359   64.1830 N   0  0  0  0  0  0  0  0  0  0  0  0
  -33.7347   57.8172   62.9046 C   0  0  0  0  0  0  0  0  0  0  0  0
  -35.4624   57.2520   64.5152 C   0  0  0  0  0  0  0  0  0  0  0  0
  -33.3580   58.2287   65.2698 C   0  0  0  0  0  0  0  0  0  0  0  0
 34 33  1  0  0  0
 34 35  1  0  0  0
 34 36  1  0  0  0
 34 37  1  0  0  0
 22 23  1  0  0  0
 22 25  1  0  0  0
 22 21  1  0  0  0
 23 24  1  0  0  0
 27 26  1  0  0  0
 27 28  2  0  0  0
 27 31  1  0  0  0
 27 29  1  0  0  0
 25 26  1  0  0  0
 32 33  1  0  0  0
 32 31  1  0  0  0
 29 30  1  0  0  0
 20 21  1  0  0  0
 20  2  1  0  0  0
  1  2  2  0  0  0
  2  3  1  0  0  0
  3  4  1  0  0  0
  4  5  1  0  0  0
  5  6  1  0  0  0
  6  7  1  0  0  0
  7  8  1  0  0  0
  8  9  1  0  0  0
  9 10  1  0  0  0
 10 11  2  0  0  0
 11 12  1  0  0  0
 12 13  1  0  0  0
 13 14  1  0  0  0
 14 15  1  0  0  0
 15 16  1  0  0  0
 16 17  1  0  0  0
 17 18  1  0  0  0
 18 19  1  0  0  0
M  CHG 1  28  -1
M  END
> <minimizedAffinity>
-8.19222

> <CNNscore>
0.6994023919

> <CNNaffinity>
6.5298256874

> <CNN_VS>
4.5669755936

> <CNNaffinity_variance>
0.2902518809

$$$$
/media/chris/experiments/cd1a-new-docking/inputs/ligands/4x6c_ligand.pdb


 37 36  0  0  0  0  0  0  0  0999 V2000
  -41.9228   60.0171   66.8717 O   0  0  0  0  0  0  0  0  0  0  0  0
  -42.0510   59.8408   65.6988 C   0  0  0  0  0  0  0  0  0  0  0  0
  -43.3644   59.7864   64.9897 C   0  0  0  0  0  0  0  0  0  0  0  0
  -44.5116   59.3912   65.9004 C   0  0  0  0  0  0  0  0  0  0  0  0
  -45.8572   59.4435   65.2097 C   0  0  0  0  0  0  0  0  0  0  0  0
  -46.4812   58.0923   64.9511 C   0  0  0  0  0  0  0  0  0  0  0  0
  -47.8835   58.1626   64.4026 C   0  0  0  0  0  0  0  0  0  0  0  0
  -48.6247   59.3838   64.8765 C   0  0  0  0  0  0  0  0  0  0  0  0
  -50.1087   59.2201   65.0224 C   0  0  0  0  0  0  0  0  0  0  0  0
  -50.8817   60.0702   64.1054 C   0  0  0  0  0  0  0  0  0  0  0  0
  -51.1726   59.8429   62.8435 C   0  0  0  0  0  0  0  0  0  0  0  0
  -50.8157   58.6584   62.0226 C   0  0  0  0  0  0  0  0  0  0  0  0
  -49.7793   58.8995   60.9441 C   0  0  0  0  0  0  0  0  0  0  0  0
  -49.9064   57.9418   59.7914 C   0  0  0  0  0  0  0  0  0  0  0  0
  -49.8770   56.4850   60.1771 C   0  0  0  0  0  0  0  0  0  0  0  0
  -48.6350   55.7771   59.6821 C   0  0  0  0  0  0  0  0  0  0  0  0
  -47.7348   56.6106   58.8135 C   0  0  0  0  0  0  0  0  0  0  0  0
  -47.1924   55.8691   57.6579 C   0  0  0  0  0  0  0  0  0  0  0  0
  -47.7269   56.3220   56.3753 C   0  0  0  0  0  0  0  0  0  0  0  0
  -41.0307   59.6597   64.8603 O   0  0  0  0  0  0  0  0  0  0  0  0
  -39.7042   59.9600   65.3480 C   0  0  0  0  0  0  0  0  0  0  0  0
  -39.3794   61.3698   64.9105 C   0  0  0  0  0  0  0  0  0  0  0  0
  -39.9237   62.2970   65.8496 O   0  0  0  0  0  0  0  0  0  0  0  0
  -39.4995   62.1698   66.7125 H   0  0  0  0  0  0  0  0  0  0  0  0
  -37.9081   61.6653   64.7482 C   0  0  0  0  0  0  0  0  0  0  0  0
  -37.2440   61.3888   65.9978 O   0  0  0  0  0  0  0  0  0  0  0  0
  -35.8532   62.0892   66.3210 P   0  0  0  0  0  0  0  0  0  0  0  0
  -35.8643   62.4311   67.7577 O   0  0  0  0  0  0  0  0  0  0  0  0
  -34.7958   61.1997   65.8015 O   0  0  0  0  0  0  0  0  0  0  0  0
  -34.8135   60.3593   66.2855 H   0  0  0  0  0  0  0  0  0  0  0  0
  -35.7760   63.4416   65.4953 O   0  0  0  0  0  0  0  0  0  0  0  0
  -34.5534   64.2154   65.4989 C   0  0  0  0  0  0  0  0  0  0  0  0
  -33.9876   64.1017   64.1015 C   0  0  0  0  0  0  0  0  0  0  0  0
  -32.8113   65.0022   63.7805 N   0  0  0  0  0  0  0  0  0  0  0  0
  -32.3202   65.7046   65.0053 C   0  0  0  0  0  0  0  0  0  0  0  0
  -33.2264   66.0282   62.7754 C   0  0  0  0  0  0  0  0  0  0  0  0
  -31.6923   64.1835   63.2172 C   0  0  0  0  0  0  0  0  0  0  0  0
 34 33  1  0  0  0
 34 35  1  0  0  0
 34 36  1  0  0  0
 34 37  1  0  0  0
 22 23  1  0  0  0
 22 25  1  0  0  0
 22 21  1  0  0  0
 23 24  1  0  0  0
 27 26  1  0  0  0
 27 28  2  0  0  0
 27 31  1  0  0  0
 27 29  1  0  0  0
 25 26  1  0  0  0
 32 33  1  0  0  0
 32 31  1  0  0  0
 29 30  1  0  0  0
 20 21  1  0  0  0
 20  2  1  0  0  0
  1  2  2  0  0  0
  2  3  1  0  0  0
  3  4  1  0  0  0
  4  5  1  0  0  0
  5  6  1  0  0  0
  6  7  1  0  0  0
  7  8  1  0  0  0
  8  9  1  0  0  0
  9 10  1  0  0  0
 10 11  2  0  0  0
 11 12  1  0  0  0
 12 13  1  0  0  0
 13 14  1  0  0  0
 14 15  1  0  0  0
 15 16  1  0  0  0
 16 17  1  0  0  0
 17 18  1  0  0  0
 18 19  1  0  0  0
M  CHG 1  28  -1
M  END
> <minimizedAffinity>
-8.21476

> <CNNscore>
0.6867592335

> <CNNaffinity>
6.1543893814

> <CNN_VS>
4.2265839577

> <CNNaffinity_variance>
0.5636940002

$$$$
/media/chris/experiments/cd1a-new-docking/inputs/ligands/4x6c_ligand.pdb


 37 36  0  0  0  0  0  0  0  0999 V2000
  -42.5899   60.1315   67.3771 O   0  0  0  0  0  0  0  0  0  0  0  0
  -42.6487   59.9076   66.2068 C   0  0  0  0  0  0  0  0  0  0  0  0
  -43.9142   59.8752   65.4140 C   0  0  0  0  0  0  0  0  0  0  0  0
  -44.3167   58.4721   65.0008 C   0  0  0  0  0  0  0  0  0  0  0  0
  -45.5593   57.9820   65.7122 C   0  0  0  0  0  0  0  0  0  0  0  0
  -46.2821   59.0408   66.5111 C   0  0  0  0  0  0  0  0  0  0  0  0
  -47.4302   59.6832   65.7751 C   0  0  0  0  0  0  0  0  0  0  0  0
  -48.1182   58.7270   64.8382 C   0  0  0  0  0  0  0  0  0  0  0  0
  -49.5582   58.4444   65.1496 C   0  0  0  0  0  0  0  0  0  0  0  0
  -50.3961   59.6519   65.1781 C   0  0  0  0  0  0  0  0  0  0  0  0
  -51.0695   60.1926   64.1867 C   0  0  0  0  0  0  0  0  0  0  0  0
  -51.1773   59.7120   62.7861 C   0  0  0  0  0  0  0  0  0  0  0  0
  -50.0405   60.1134   61.8685 C   0  0  0  0  0  0  0  0  0  0  0  0
  -49.6395   59.0134   60.9244 C   0  0  0  0  0  0  0  0  0  0  0  0
  -50.0951   57.6360   61.3329 C   0  0  0  0  0  0  0  0  0  0  0  0
  -49.9193   56.6144   60.2310 C   0  0  0  0  0  0  0  0  0  0  0  0
  -49.3717   57.1611   58.9422 C   0  0  0  0  0  0  0  0  0  0  0  0
  -48.2084   56.4050   58.4376 C   0  0  0  0  0  0  0  0  0  0  0  0
  -47.2336   57.2392   57.7376 C   0  0  0  0  0  0  0  0  0  0  0  0
  -41.5848   59.6467   65.4473 O   0  0  0  0  0  0  0  0  0  0  0  0
  -41.2773   60.5781   64.3863 C   0  0  0  0  0  0  0  0  0  0  0  0
  -40.1704   61.4752   64.8905 C   0  0  0  0  0  0  0  0  0  0  0  0
  -40.6904   62.3621   65.8811 O   0  0  0  0  0  0  0  0  0  0  0  0
  -41.0006   61.8491   66.6435 H   0  0  0  0  0  0  0  0  0  0  0  0
  -38.9803   60.7541   65.4753 C   0  0  0  0  0  0  0  0  0  0  0  0
  -38.0862   61.7313   66.0452 O   0  0  0  0  0  0  0  0  0  0  0  0
  -36.5432   61.7040   65.6608 P   0  0  0  0  0  0  0  0  0  0  0  0
  -36.3871   62.5176   64.4383 O   0  0  0  0  0  0  0  0  0  0  0  0
  -35.7934   62.0798   66.8756 O   0  0  0  0  0  0  0  0  0  0  0  0
  -36.0121   62.9924   67.1212 H   0  0  0  0  0  0  0  0  0  0  0  0
  -36.1468   60.2086   65.3089 O   0  0  0  0  0  0  0  0  0  0  0  0
  -35.8495   59.8488   63.9393 C   0  0  0  0  0  0  0  0  0  0  0  0
  -36.2829   58.4085   63.7864 C   0  0  0  0  0  0  0  0  0  0  0  0
  -37.4560   58.1574   62.8600 N   0  0  0  0  0  0  0  0  0  0  0  0
  -37.8516   59.4066   62.1404 C   0  0  0  0  0  0  0  0  0  0  0  0
  -38.6261   57.6729   63.6545 C   0  0  0  0  0  0  0  0  0  0  0  0
  -37.0825   57.1200   61.8481 C   0  0  0  0  0  0  0  0  0  0  0  0
 34 33  1  0  0  0
 34 35  1  0  0  0
 34 36  1  0  0  0
 34 37  1  0  0  0
 22 23  1  0  0  0
 22 25  1  0  0  0
 22 21  1  0  0  0
 23 24  1  0  0  0
 27 26  1  0  0  0
 27 28  2  0  0  0
 27 31  1  0  0  0
 27 29  1  0  0  0
 25 26  1  0  0  0
 32 33  1  0  0  0
 32 31  1  0  0  0
 29 30  1  0  0  0
 20 21  1  0  0  0
 20  2  1  0  0  0
  1  2  2  0  0  0
  2  3  1  0  0  0
  3  4  1  0  0  0
  4  5  1  0  0  0
  5  6  1  0  0  0
  6  7  1  0  0  0
  7  8  1  0  0  0
  8  9  1  0  0  0
  9 10  1  0  0  0
 10 11  2  0  0  0
 11 12  1  0  0  0
 12 13  1  0  0  0
 13 14  1  0  0  0
 14 15  1  0  0  0
 15 16  1  0  0  0
 16 17  1  0  0  0
 17 18  1  0  0  0
 18 19  1  0  0  0
M  CHG 1  28  -1
M  END
> <minimizedAffinity>
-8.15620

> <CNNscore>
0.6728388071

> <CNNaffinity>
6.7730774879

> <CNN_VS>
4.5571894646

> <CNNaffinity_variance>
0.3488863111

$$$$
/media/chris/experiments/cd1a-new-docking/inputs/ligands/4x6c_ligand.pdb


 37 36  0  0  0  0  0  0  0  0999 V2000
  -42.0383   57.8532   65.8746 O   0  0  0  0  0  0  0  0  0  0  0  0
  -42.1060   59.0393   65.9820 C   0  0  0  0  0  0  0  0  0  0  0  0
  -43.3564   59.8356   65.7993 C   0  0  0  0  0  0  0  0  0  0  0  0
  -44.4751   59.0392   65.1546 C   0  0  0  0  0  0  0  0  0  0  0  0
  -45.5840   58.6901   66.1235 C   0  0  0  0  0  0  0  0  0  0  0  0
  -46.8408   59.5119   65.9594 C   0  0  0  0  0  0  0  0  0  0  0  0
  -47.6191   59.1938   64.7083 C   0  0  0  0  0  0  0  0  0  0  0  0
  -48.6759   58.1475   64.9402 C   0  0  0  0  0  0  0  0  0  0  0  0
  -50.0232   58.6709   65.3415 C   0  0  0  0  0  0  0  0  0  0  0  0
  -50.3329   59.9868   64.7639 C   0  0  0  0  0  0  0  0  0  0  0  0
  -50.7707   60.2561   63.5537 C   0  0  0  0  0  0  0  0  0  0  0  0
  -51.0878   59.3000   62.4631 C   0  0  0  0  0  0  0  0  0  0  0  0
  -49.9335   58.9475   61.5473 C   0  0  0  0  0  0  0  0  0  0  0  0
  -49.7157   57.4638   61.4314 C   0  0  0  0  0  0  0  0  0  0  0  0
  -49.6631   56.9439   60.0177 C   0  0  0  0  0  0  0  0  0  0  0  0
  -49.0188   55.5783   59.9237 C   0  0  0  0  0  0  0  0  0  0  0  0
  -47.9434   55.4558   58.8805 C   0  0  0  0  0  0  0  0  0  0  0  0
  -47.1094   56.6679   58.7602 C   0  0  0  0  0  0  0  0  0  0  0  0
  -47.0592   57.2051   57.4019 C   0  0  0  0  0  0  0  0  0  0  0  0
  -41.0644   59.8182   66.2739 O   0  0  0  0  0  0  0  0  0  0  0  0
  -40.9474   61.0708   65.5633 C   0  0  0  0  0  0  0  0  0  0  0  0
  -39.4981   61.2189   65.1611 C   0  0  0  0  0  0  0  0  0  0  0  0
  -38.6631   60.9866   66.2956 O   0  0  0  0  0  0  0  0  0  0  0  0
  -38.7750   60.0717   66.5974 H   0  0  0  0  0  0  0  0  0  0  0  0
  -39.0485   60.3077   64.0450 C   0  0  0  0  0  0  0  0  0  0  0  0
  -37.7854   59.7184   64.4143 O   0  0  0  0  0  0  0  0  0  0  0  0
  -37.4566   58.2250   63.9773 P   0  0  0  0  0  0  0  0  0  0  0  0
  -36.8544   57.5543   65.1472 O   0  0  0  0  0  0  0  0  0  0  0  0
  -38.6909   57.6709   63.3869 O   0  0  0  0  0  0  0  0  0  0  0  0
  -39.3822   57.6259   64.0658 H   0  0  0  0  0  0  0  0  0  0  0  0
  -36.3668   58.2745   62.8254 O   0  0  0  0  0  0  0  0  0  0  0  0
  -35.0473   57.7302   63.0625 C   0  0  0  0  0  0  0  0  0  0  0  0
  -34.2659   58.8249   63.7529 C   0  0  0  0  0  0  0  0  0  0  0  0
  -32.8212   58.9882   63.3244 N   0  0  0  0  0  0  0  0  0  0  0  0
  -32.5941   58.4120   61.9638 C   0  0  0  0  0  0  0  0  0  0  0  0
  -31.9287   58.2850   64.2961 C   0  0  0  0  0  0  0  0  0  0  0  0
  -32.4688   60.4423   63.2932 C   0  0  0  0  0  0  0  0  0  0  0  0
 34 33  1  0  0  0
 34 35  1  0  0  0
 34 36  1  0  0  0
 34 37  1  0  0  0
 22 23  1  0  0  0
 22 25  1  0  0  0
 22 21  1  0  0  0
 23 24  1  0  0  0
 27 26  1  0  0  0
 27 28  2  0  0  0
 27 31  1  0  0  0
 27 29  1  0  0  0
 25 26  1  0  0  0
 32 33  1  0  0  0
 32 31  1  0  0  0
 29 30  1  0  0  0
 20 21  1  0  0  0
 20  2  1  0  0  0
  1  2  2  0  0  0
  2  3  1  0  0  0
  3  4  1  0  0  0
  4  5  1  0  0  0
  5  6  1  0  0  0
  6  7  1  0  0  0
  7  8  1  0  0  0
  8  9  1  0  0  0
  9 10  1  0  0  0
 10 11  2  0  0  0
 11 12  1  0  0  0
 12 13  1  0  0  0
 13 14  1  0  0  0
 14 15  1  0  0  0
 15 16  1  0  0  0
 16 17  1  0  0  0
 17 18  1  0  0  0
 18 19  1  0  0  0
M  CHG 1  28  -1
M  END
> <minimizedAffinity>
-7.66454

> <CNNscore>
0.6255056858

> <CNNaffinity>
6.3695087433

> <CNN_VS>
3.9841639996

> <CNNaffinity_variance>
0.3778075874

$$$$
