/media/chris/experiments/cd1a-new-docking/inputs/ligands/4x6c_ligand.pdb


 37 36  0  0  0  0  0  0  0  0999 V2000
  -42.1660   58.3109   66.3287 O   0  0  0  0  0  0  0  0  0  0  0  0
  -42.4712   58.8759   65.3234 C   0  0  0  0  0  0  0  0  0  0  0  0
  -43.8522   58.9053   64.7550 C   0  0  0  0  0  0  0  0  0  0  0  0
  -44.6716   57.6849   65.1301 C   0  0  0  0  0  0  0  0  0  0  0  0
  -45.8791   58.0236   65.9773 C   0  0  0  0  0  0  0  0  0  0  0  0
  -46.3001   59.4731   65.9164 C   0  0  0  0  0  0  0  0  0  0  0  0
  -47.5999   59.7011   65.1880 C   0  0  0  0  0  0  0  0  0  0  0  0
  -48.2164   58.4181   64.6988 C   0  0  0  0  0  0  0  0  0  0  0  0
  -49.6793   58.2554   64.9878 C   0  0  0  0  0  0  0  0  0  0  0  0
  -50.3953   59.5337   65.1083 C   0  0  0  0  0  0  0  0  0  0  0  0
  -51.0172   60.2045   64.1640 C   0  0  0  0  0  0  0  0  0  0  0  0
  -51.1777   59.8346   62.7351 C   0  0  0  0  0  0  0  0  0  0  0  0
  -50.0474   60.2586   61.8196 C   0  0  0  0  0  0  0  0  0  0  0  0
  -49.6899   59.2027   60.8100 C   0  0  0  0  0  0  0  0  0  0  0  0
  -49.7091   57.7921   61.3407 C   0  0  0  0  0  0  0  0  0  0  0  0
  -49.8308   56.7590   60.2423 C   0  0  0  0  0  0  0  0  0  0  0  0
  -49.3551   57.2130   58.8905 C   0  0  0  0  0  0  0  0  0  0  0  0
  -48.2941   56.3540   58.3287 C   0  0  0  0  0  0  0  0  0  0  0  0
  -47.2090   57.1068   57.7026 C   0  0  0  0  0  0  0  0  0  0  0  0
  -41.6115   59.5547   64.5638 O   0  0  0  0  0  0  0  0  0  0  0  0
  -41.8141   60.9797   64.4363 C   0  0  0  0  0  0  0  0  0  0  0  0
  -40.5088   61.6477   64.8032 C   0  0  0  0  0  0  0  0  0  0  0  0
  -40.6937   62.4421   65.9749 O   0  0  0  0  0  0  0  0  0  0  0  0
  -40.9310   61.8685   66.7204 H   0  0  0  0  0  0  0  0  0  0  0  0
  -39.3547   60.7052   65.0447 C   0  0  0  0  0  0  0  0  0  0  0  0
  -38.2070   61.1898   64.3190 O   0  0  0  0  0  0  0  0  0  0  0  0
  -36.8470   61.4700   65.0943 P   0  0  0  0  0  0  0  0  0  0  0  0
  -36.3518   62.7846   64.6383 O   0  0  0  0  0  0  0  0  0  0  0  0
  -37.1230   61.2637   66.5297 O   0  0  0  0  0  0  0  0  0  0  0  0
  -37.7674   61.9223   66.8330 H   0  0  0  0  0  0  0  0  0  0  0  0
  -35.7916   60.3694   64.6567 O   0  0  0  0  0  0  0  0  0  0  0  0
  -36.1983   58.9842   64.5589 C   0  0  0  0  0  0  0  0  0  0  0  0
  -36.0442   58.6093   63.1025 C   0  0  0  0  0  0  0  0  0  0  0  0
  -37.2902   58.0963   62.4081 N   0  0  0  0  0  0  0  0  0  0  0  0
  -37.9356   59.1718   61.5948 C   0  0  0  0  0  0  0  0  0  0  0  0
  -38.2706   57.6164   63.4298 C   0  0  0  0  0  0  0  0  0  0  0  0
  -36.9276   56.9627   61.5009 C   0  0  0  0  0  0  0  0  0  0  0  0
 34 33  1  0  0  0
 34 35  1  0  0  0
 34 36  1  0  0  0
 34 37  1  0  0  0
 22 23  1  0  0  0
 22 25  1  0  0  0
 22 21  1  0  0  0
 23 24  1  0  0  0
 27 26  1  0  0  0
 27 28  2  0  0  0
 27 31  1  0  0  0
 27 29  1  0  0  0
 25 26  1  0  0  0
 32 33  1  0  0  0
 32 31  1  0  0  0
 29 30  1  0  0  0
 20 21  1  0  0  0
 20  2  1  0  0  0
  1  2  2  0  0  0
  2  3  1  0  0  0
  3  4  1  0  0  0
  4  5  1  0  0  0
  5  6  1  0  0  0
  6  7  1  0  0  0
  7  8  1  0  0  0
  8  9  1  0  0  0
  9 10  1  0  0  0
 10 11  2  0  0  0
 11 12  1  0  0  0
 12 13  1  0  0  0
 13 14  1  0  0  0
 14 15  1  0  0  0
 15 16  1  0  0  0
 16 17  1  0  0  0
 17 18  1  0  0  0
 18 19  1  0  0  0
M  CHG 1  28  -1
M  END
> <minimizedAffinity>
-8.06917

> <CNNscore>
0.8152605891

> <CNNaffinity>
6.9986734390

> <CNN_VS>
5.7057428360

> <CNNaffinity_variance>
0.3463108540

$$$$
/media/chris/experiments/cd1a-new-docking/inputs/ligands/4x6c_ligand.pdb


 37 36  0  0  0  0  0  0  0  0999 V2000
  -42.6072   57.4553   66.0368 O   0  0  0  0  0  0  0  0  0  0  0  0
  -42.5876   58.6366   65.8714 C   0  0  0  0  0  0  0  0  0  0  0  0
  -43.7235   59.4325   65.3169 C   0  0  0  0  0  0  0  0  0  0  0  0
  -45.0601   59.0617   65.9313 C   0  0  0  0  0  0  0  0  0  0  0  0
  -45.8956   58.1752   65.0333 C   0  0  0  0  0  0  0  0  0  0  0  0
  -47.2953   58.6832   64.7789 C   0  0  0  0  0  0  0  0  0  0  0  0
  -48.3629   57.6289   64.9234 C   0  0  0  0  0  0  0  0  0  0  0  0
  -49.7118   58.2175   65.2391 C   0  0  0  0  0  0  0  0  0  0  0  0
  -49.8552   59.6846   64.9613 C   0  0  0  0  0  0  0  0  0  0  0  0
  -51.0416   60.0123   64.1574 C   0  0  0  0  0  0  0  0  0  0  0  0
  -51.1104   60.2057   62.8588 C   0  0  0  0  0  0  0  0  0  0  0  0
  -50.0122   60.1212   61.8632 C   0  0  0  0  0  0  0  0  0  0  0  0
  -49.4861   58.7274   61.5876 C   0  0  0  0  0  0  0  0  0  0  0  0
  -50.5692   57.7678   61.1775 C   0  0  0  0  0  0  0  0  0  0  0  0
  -50.1337   56.7080   60.1984 C   0  0  0  0  0  0  0  0  0  0  0  0
  -49.3101   57.2703   59.0607 C   0  0  0  0  0  0  0  0  0  0  0  0
  -48.0933   56.4643   58.7011 C   0  0  0  0  0  0  0  0  0  0  0  0
  -47.4201   56.9422   57.4773 C   0  0  0  0  0  0  0  0  0  0  0  0
  -47.4344   55.9671   56.3887 C   0  0  0  0  0  0  0  0  0  0  0  0
  -41.5378   59.4077   66.1544 O   0  0  0  0  0  0  0  0  0  0  0  0
  -41.4000   60.6441   65.4193 C   0  0  0  0  0  0  0  0  0  0  0  0
  -40.0325   60.6273   64.7759 C   0  0  0  0  0  0  0  0  0  0  0  0
  -39.8784   61.7851   63.9550 O   0  0  0  0  0  0  0  0  0  0  0  0
  -39.9148   62.5810   64.5083 H   0  0  0  0  0  0  0  0  0  0  0  0
  -38.8731   60.5707   65.7409 C   0  0  0  0  0  0  0  0  0  0  0  0
  -38.2772   61.8812   65.8195 O   0  0  0  0  0  0  0  0  0  0  0  0
  -36.7624   62.0840   65.3795 P   0  0  0  0  0  0  0  0  0  0  0  0
  -36.7790   62.6001   63.9958 O   0  0  0  0  0  0  0  0  0  0  0  0
  -36.1133   62.8830   66.4374 O   0  0  0  0  0  0  0  0  0  0  0  0
  -36.5215   63.7621   66.4751 H   0  0  0  0  0  0  0  0  0  0  0  0
  -36.0564   60.6633   65.3648 O   0  0  0  0  0  0  0  0  0  0  0  0
  -35.5882   60.1079   64.1135 C   0  0  0  0  0  0  0  0  0  0  0  0
  -36.2422   58.7504   63.9925 C   0  0  0  0  0  0  0  0  0  0  0  0
  -36.9493   58.4625   62.6830 N   0  0  0  0  0  0  0  0  0  0  0  0
  -35.9958   57.9335   61.6604 C   0  0  0  0  0  0  0  0  0  0  0  0
  -37.5626   59.7211   62.1584 C   0  0  0  0  0  0  0  0  0  0  0  0
  -38.0240   57.4454   62.9066 C   0  0  0  0  0  0  0  0  0  0  0  0
 34 33  1  0  0  0
 34 35  1  0  0  0
 34 36  1  0  0  0
 34 37  1  0  0  0
 22 23  1  0  0  0
 22 25  1  0  0  0
 22 21  1  0  0  0
 23 24  1  0  0  0
 27 26  1  0  0  0
 27 28  2  0  0  0
 27 31  1  0  0  0
 27 29  1  0  0  0
 25 26  1  0  0  0
 32 33  1  0  0  0
 32 31  1  0  0  0
 29 30  1  0  0  0
 20 21  1  0  0  0
 20  2  1  0  0  0
  1  2  2  0  0  0
  2  3  1  0  0  0
  3  4  1  0  0  0
  4  5  1  0  0  0
  5  6  1  0  0  0
  6  7  1  0  0  0
  7  8  1  0  0  0
  8  9  1  0  0  0
  9 10  1  0  0  0
 10 11  2  0  0  0
 11 12  1  0  0  0
 12 13  1  0  0  0
 13 14  1  0  0  0
 14 15  1  0  0  0
 15 16  1  0  0  0
 16 17  1  0  0  0
 17 18  1  0  0  0
 18 19  1  0  0  0
M  CHG 1  28  -1
M  END
> <minimizedAffinity>
-8.19361

> <CNNscore>
0.8024815917

> <CNNaffinity>
6.9257431030

> <CNN_VS>
5.5577812195

> <CNNaffinity_variance>
0.3361056447

$$$$
/media/chris/experiments/cd1a-new-docking/inputs/ligands/4x6c_ligand.pdb


 37 36  0  0  0  0  0  0  0  0999 V2000
  -41.9138   60.3364   67.1705 O   0  0  0  0  0  0  0  0  0  0  0  0
  -41.9176   59.6499   66.1950 C   0  0  0  0  0  0  0  0  0  0  0  0
  -43.1418   59.0416   65.5929 C   0  0  0  0  0  0  0  0  0  0  0  0
  -43.1525   57.5271   65.6789 C   0  0  0  0  0  0  0  0  0  0  0  0
  -44.4709   56.9217   65.2480 C   0  0  0  0  0  0  0  0  0  0  0  0
  -45.5068   57.9278   64.8047 C   0  0  0  0  0  0  0  0  0  0  0  0
  -46.6501   58.0937   65.7730 C   0  0  0  0  0  0  0  0  0  0  0  0
  -46.9561   59.5397   66.0575 C   0  0  0  0  0  0  0  0  0  0  0  0
  -48.3702   59.9632   65.7907 C   0  0  0  0  0  0  0  0  0  0  0  0
  -48.5746   60.4902   64.4336 C   0  0  0  0  0  0  0  0  0  0  0  0
  -49.0703   59.8642   63.3891 C   0  0  0  0  0  0  0  0  0  0  0  0
  -49.5737   58.4694   63.3140 C   0  0  0  0  0  0  0  0  0  0  0  0
  -50.2880   58.1011   62.0297 C   0  0  0  0  0  0  0  0  0  0  0  0
  -49.3586   57.5429   60.9872 C   0  0  0  0  0  0  0  0  0  0  0  0
  -49.9230   57.5168   59.5898 C   0  0  0  0  0  0  0  0  0  0  0  0
  -48.9382   56.9796   58.5748 C   0  0  0  0  0  0  0  0  0  0  0  0
  -47.7023   56.3556   59.1603 C   0  0  0  0  0  0  0  0  0  0  0  0
  -46.9582   55.5228   58.1950 C   0  0  0  0  0  0  0  0  0  0  0  0
  -47.6499   55.3563   56.9182 C   0  0  0  0  0  0  0  0  0  0  0  0
  -40.8198   59.3256   65.5120 O   0  0  0  0  0  0  0  0  0  0  0  0
  -40.6316   59.9419   64.2187 C   0  0  0  0  0  0  0  0  0  0  0  0
  -39.1853   60.3734   64.1394 C   0  0  0  0  0  0  0  0  0  0  0  0
  -39.0036   61.2232   63.0067 O   0  0  0  0  0  0  0  0  0  0  0  0
  -39.5281   62.0311   63.1211 H   0  0  0  0  0  0  0  0  0  0  0  0
  -38.6649   61.0912   65.3610 C   0  0  0  0  0  0  0  0  0  0  0  0
  -37.2395   60.8893   65.4395 O   0  0  0  0  0  0  0  0  0  0  0  0
  -36.2588   62.1293   65.2664 P   0  0  0  0  0  0  0  0  0  0  0  0
  -36.5260   62.7099   63.9349 O   0  0  0  0  0  0  0  0  0  0  0  0
  -36.4224   62.9744   66.4656 O   0  0  0  0  0  0  0  0  0  0  0  0
  -37.3265   63.3249   66.4932 H   0  0  0  0  0  0  0  0  0  0  0  0
  -34.7680   61.5867   65.2749 O   0  0  0  0  0  0  0  0  0  0  0  0
  -33.7968   62.1434   64.3582 C   0  0  0  0  0  0  0  0  0  0  0  0
  -33.2974   63.4148   65.0060 C   0  0  0  0  0  0  0  0  0  0  0  0
  -32.6229   64.4139   64.0869 N   0  0  0  0  0  0  0  0  0  0  0  0
  -32.4057   65.7213   64.7785 C   0  0  0  0  0  0  0  0  0  0  0  0
  -33.4810   64.6462   62.8847 C   0  0  0  0  0  0  0  0  0  0  0  0
  -31.2960   63.8771   63.6503 C   0  0  0  0  0  0  0  0  0  0  0  0
 34 33  1  0  0  0
 34 35  1  0  0  0
 34 36  1  0  0  0
 34 37  1  0  0  0
 22 23  1  0  0  0
 22 25  1  0  0  0
 22 21  1  0  0  0
 23 24  1  0  0  0
 27 26  1  0  0  0
 27 28  2  0  0  0
 27 31  1  0  0  0
 27 29  1  0  0  0
 25 26  1  0  0  0
 32 33  1  0  0  0
 32 31  1  0  0  0
 29 30  1  0  0  0
 20 21  1  0  0  0
 20  2  1  0  0  0
  1  2  2  0  0  0
  2  3  1  0  0  0
  3  4  1  0  0  0
  4  5  1  0  0  0
  5  6  1  0  0  0
  6  7  1  0  0  0
  7  8  1  0  0  0
  8  9  1  0  0  0
  9 10  1  0  0  0
 10 11  2  0  0  0
 11 12  1  0  0  0
 12 13  1  0  0  0
 13 14  1  0  0  0
 14 15  1  0  0  0
 15 16  1  0  0  0
 16 17  1  0  0  0
 17 18  1  0  0  0
 18 19  1  0  0  0
M  CHG 1  28  -1
M  END
> <minimizedAffinity>
-7.68257

> <CNNscore>
0.7932807207

> <CNNaffinity>
6.4081087112

> <CNN_VS>
5.0834288597

> <CNNaffinity_variance>
0.5669999123

$$$$
/media/chris/experiments/cd1a-new-docking/inputs/ligands/4x6c_ligand.pdb


 37 36  0  0  0  0  0  0  0  0999 V2000
  -42.4273   58.1978   66.3736 O   0  0  0  0  0  0  0  0  0  0  0  0
  -42.8414   58.8987   65.5017 C   0  0  0  0  0  0  0  0  0  0  0  0
  -44.2314   58.8412   64.9577 C   0  0  0  0  0  0  0  0  0  0  0  0
  -45.2680   59.3756   65.9279 C   0  0  0  0  0  0  0  0  0  0  0  0
  -46.4166   58.4156   66.1508 C   0  0  0  0  0  0  0  0  0  0  0  0
  -47.5232   58.5148   65.1274 C   0  0  0  0  0  0  0  0  0  0  0  0
  -48.5760   59.5397   65.4643 C   0  0  0  0  0  0  0  0  0  0  0  0
  -49.9716   59.0280   65.2281 C   0  0  0  0  0  0  0  0  0  0  0  0
  -50.8285   59.8809   64.3402 C   0  0  0  0  0  0  0  0  0  0  0  0
  -50.1903   60.2122   63.0579 C   0  0  0  0  0  0  0  0  0  0  0  0
  -49.9256   59.4056   62.0540 C   0  0  0  0  0  0  0  0  0  0  0  0
  -50.2228   57.9550   61.9447 C   0  0  0  0  0  0  0  0  0  0  0  0
  -50.9602   57.5321   60.6906 C   0  0  0  0  0  0  0  0  0  0  0  0
  -50.0439   56.9674   59.6400 C   0  0  0  0  0  0  0  0  0  0  0  0
  -48.7281   56.4513   60.1637 C   0  0  0  0  0  0  0  0  0  0  0  0
  -47.9628   55.6549   59.1300 C   0  0  0  0  0  0  0  0  0  0  0  0
  -46.7620   56.3527   58.5547 C   0  0  0  0  0  0  0  0  0  0  0  0
  -47.0658   57.1176   57.3292 C   0  0  0  0  0  0  0  0  0  0  0  0
  -47.7337   56.3232   56.3000 C   0  0  0  0  0  0  0  0  0  0  0  0
  -42.1101   59.8282   64.8869 O   0  0  0  0  0  0  0  0  0  0  0  0
  -41.6023   60.9171   65.6896 C   0  0  0  0  0  0  0  0  0  0  0  0
  -40.6322   61.6898   64.8258 C   0  0  0  0  0  0  0  0  0  0  0  0
  -39.4924   62.0582   65.6027 O   0  0  0  0  0  0  0  0  0  0  0  0
  -39.0277   61.2583   65.8944 H   0  0  0  0  0  0  0  0  0  0  0  0
  -40.1528   60.9607   63.5942 C   0  0  0  0  0  0  0  0  0  0  0  0
  -38.7851   60.5557   63.8039 O   0  0  0  0  0  0  0  0  0  0  0  0
  -38.3844   59.0252   63.6419 P   0  0  0  0  0  0  0  0  0  0  0  0
  -39.3013   58.2448   64.4972 O   0  0  0  0  0  0  0  0  0  0  0  0
  -38.3398   58.7461   62.1930 O   0  0  0  0  0  0  0  0  0  0  0  0
  -39.2271   58.8520   61.8158 H   0  0  0  0  0  0  0  0  0  0  0  0
  -36.9119   58.8368   64.2014 O   0  0  0  0  0  0  0  0  0  0  0  0
  -35.8826   59.7903   63.8475 C   0  0  0  0  0  0  0  0  0  0  0  0
  -35.3895   60.3708   65.1533 C   0  0  0  0  0  0  0  0  0  0  0  0
  -35.2674   61.8807   65.2106 N   0  0  0  0  0  0  0  0  0  0  0  0
  -33.8789   62.3223   64.8765 C   0  0  0  0  0  0  0  0  0  0  0  0
  -35.6021   62.3577   66.5875 C   0  0  0  0  0  0  0  0  0  0  0  0
  -36.2149   62.4978   64.2303 C   0  0  0  0  0  0  0  0  0  0  0  0
 34 33  1  0  0  0
 34 35  1  0  0  0
 34 36  1  0  0  0
 34 37  1  0  0  0
 22 23  1  0  0  0
 22 25  1  0  0  0
 22 21  1  0  0  0
 23 24  1  0  0  0
 27 26  1  0  0  0
 27 28  2  0  0  0
 27 31  1  0  0  0
 27 29  1  0  0  0
 25 26  1  0  0  0
 32 33  1  0  0  0
 32 31  1  0  0  0
 29 30  1  0  0  0
 20 21  1  0  0  0
 20  2  1  0  0  0
  1  2  2  0  0  0
  2  3  1  0  0  0
  3  4  1  0  0  0
  4  5  1  0  0  0
  5  6  1  0  0  0
  6  7  1  0  0  0
  7  8  1  0  0  0
  8  9  1  0  0  0
  9 10  1  0  0  0
 10 11  2  0  0  0
 11 12  1  0  0  0
 12 13  1  0  0  0
 13 14  1  0  0  0
 14 15  1  0  0  0
 15 16  1  0  0  0
 16 17  1  0  0  0
 17 18  1  0  0  0
 18 19  1  0  0  0
M  CHG 1  28  -1
M  END
> <minimizedAffinity>
-7.77147

> <CNNscore>
0.7719148397

> <CNNaffinity>
6.7152147293

> <CNN_VS>
5.1835737228

> <CNNaffinity_variance>
0.6010096669

$$$$
/media/chris/experiments/cd1a-new-docking/inputs/ligands/4x6c_ligand.pdb


 37 36  0  0  0  0  0  0  0  0999 V2000
  -42.1900   58.2288   65.9366 O   0  0  0  0  0  0  0  0  0  0  0  0
  -42.6132   59.3305   65.7625 C   0  0  0  0  0  0  0  0  0  0  0  0
  -43.9596   59.6400   65.1945 C   0  0  0  0  0  0  0  0  0  0  0  0
  -44.7043   58.4020   64.7316 C   0  0  0  0  0  0  0  0  0  0  0  0
  -46.1900   58.4691   65.0117 C   0  0  0  0  0  0  0  0  0  0  0  0
  -46.5639   59.3083   66.2107 C   0  0  0  0  0  0  0  0  0  0  0  0
  -47.6826   60.2839   65.9480 C   0  0  0  0  0  0  0  0  0  0  0  0
  -47.5342   60.9844   64.6241 C   0  0  0  0  0  0  0  0  0  0  0  0
  -48.7443   60.9504   63.7383 C   0  0  0  0  0  0  0  0  0  0  0  0
  -49.9157   60.3314   64.3754 C   0  0  0  0  0  0  0  0  0  0  0  0
  -50.8780   59.6424   63.8029 C   0  0  0  0  0  0  0  0  0  0  0  0
  -51.0203   59.2907   62.3675 C   0  0  0  0  0  0  0  0  0  0  0  0
  -50.1119   58.1836   61.8730 C   0  0  0  0  0  0  0  0  0  0  0  0
  -50.7302   57.3756   60.7653 C   0  0  0  0  0  0  0  0  0  0  0  0
  -49.8239   56.3303   60.1671 C   0  0  0  0  0  0  0  0  0  0  0  0
  -48.4968   56.9001   59.7166 C   0  0  0  0  0  0  0  0  0  0  0  0
  -47.7264   56.0318   58.7615 C   0  0  0  0  0  0  0  0  0  0  0  0
  -47.0479   56.7976   57.6974 C   0  0  0  0  0  0  0  0  0  0  0  0
  -47.5417   56.4903   56.3565 C   0  0  0  0  0  0  0  0  0  0  0  0
  -41.9316   60.4402   66.0467 O   0  0  0  0  0  0  0  0  0  0  0  0
  -40.5072   60.4295   65.8039 C   0  0  0  0  0  0  0  0  0  0  0  0
  -40.2089   61.5761   64.8653 C   0  0  0  0  0  0  0  0  0  0  0  0
  -38.8270   61.9217   64.9603 O   0  0  0  0  0  0  0  0  0  0  0  0
  -38.2853   61.1732   64.6647 H   0  0  0  0  0  0  0  0  0  0  0  0
  -40.5354   61.3157   63.4148 C   0  0  0  0  0  0  0  0  0  0  0  0
  -39.7685   60.1793   62.9686 O   0  0  0  0  0  0  0  0  0  0  0  0
  -38.8181   60.3204   61.7013 P   0  0  0  0  0  0  0  0  0  0  0  0
  -39.6900   60.5277   60.5273 O   0  0  0  0  0  0  0  0  0  0  0  0
  -37.8078   61.3432   62.0365 O   0  0  0  0  0  0  0  0  0  0  0  0
  -38.2449   62.1997   62.1644 H   0  0  0  0  0  0  0  0  0  0  0  0
  -38.0481   58.9475   61.5043 O   0  0  0  0  0  0  0  0  0  0  0  0
  -38.1282   57.9269   62.5269 C   0  0  0  0  0  0  0  0  0  0  0  0
  -36.6995   57.5707   62.8691 C   0  0  0  0  0  0  0  0  0  0  0  0
  -36.1166   58.2459   64.0948 N   0  0  0  0  0  0  0  0  0  0  0  0
  -35.2642   59.4131   63.7131 C   0  0  0  0  0  0  0  0  0  0  0  0
  -35.2765   57.2683   64.8525 C   0  0  0  0  0  0  0  0  0  0  0  0
  -37.2255   58.7306   64.9751 C   0  0  0  0  0  0  0  0  0  0  0  0
 34 33  1  0  0  0
 34 35  1  0  0  0
 34 36  1  0  0  0
 34 37  1  0  0  0
 22 23  1  0  0  0
 22 25  1  0  0  0
 22 21  1  0  0  0
 23 24  1  0  0  0
 27 26  1  0  0  0
 27 28  2  0  0  0
 27 31  1  0  0  0
 27 29  1  0  0  0
 25 26  1  0  0  0
 32 33  1  0  0  0
 32 31  1  0  0  0
 29 30  1  0  0  0
 20 21  1  0  0  0
 20  2  1  0  0  0
  1  2  2  0  0  0
  2  3  1  0  0  0
  3  4  1  0  0  0
  4  5  1  0  0  0
  5  6  1  0  0  0
  6  7  1  0  0  0
  7  8  1  0  0  0
  8  9  1  0  0  0
  9 10  1  0  0  0
 10 11  2  0  0  0
 11 12  1  0  0  0
 12 13  1  0  0  0
 13 14  1  0  0  0
 14 15  1  0  0  0
 15 16  1  0  0  0
 16 17  1  0  0  0
 17 18  1  0  0  0
 18 19  1  0  0  0
M  CHG 1  28  -1
M  END
> <minimizedAffinity>
-8.33341

> <CNNscore>
0.7458891273

> <CNNaffinity>
6.8642044067

> <CNN_VS>
5.1199355125

> <CNNaffinity_variance>
0.2389486581

$$$$
/media/chris/experiments/cd1a-new-docking/inputs/ligands/4x6c_ligand.pdb


 37 36  0  0  0  0  0  0  0  0999 V2000
  -40.1855   61.4742   65.9052 O   0  0  0  0  0  0  0  0  0  0  0  0
  -40.6551   60.4801   65.4423 C   0  0  0  0  0  0  0  0  0  0  0  0
  -41.4626   59.4873   66.2127 C   0  0  0  0  0  0  0  0  0  0  0  0
  -42.8744   59.9655   66.4948 C   0  0  0  0  0  0  0  0  0  0  0  0
  -43.8069   59.7759   65.3179 C   0  0  0  0  0  0  0  0  0  0  0  0
  -45.2362   59.4654   65.6953 C   0  0  0  0  0  0  0  0  0  0  0  0
  -45.6000   58.0086   65.5621 C   0  0  0  0  0  0  0  0  0  0  0  0
  -46.8127   57.7966   64.6963 C   0  0  0  0  0  0  0  0  0  0  0  0
  -47.9690   58.7114   64.9724 C   0  0  0  0  0  0  0  0  0  0  0  0
  -49.2686   58.1393   64.5918 C   0  0  0  0  0  0  0  0  0  0  0  0
  -50.0084   58.4369   63.5465 C   0  0  0  0  0  0  0  0  0  0  0  0
  -49.7133   59.4119   62.4663 C   0  0  0  0  0  0  0  0  0  0  0  0
  -49.9191   58.9039   61.0538 C   0  0  0  0  0  0  0  0  0  0  0  0
  -49.3751   57.5165   60.8500 C   0  0  0  0  0  0  0  0  0  0  0  0
  -49.0443   57.1738   59.4200 C   0  0  0  0  0  0  0  0  0  0  0  0
  -48.1069   55.9919   59.3071 C   0  0  0  0  0  0  0  0  0  0  0  0
  -46.8233   56.2693   58.5757 C   0  0  0  0  0  0  0  0  0  0  0  0
  -47.0056   57.1210   57.3838 C   0  0  0  0  0  0  0  0  0  0  0  0
  -47.4106   56.3750   56.1940 C   0  0  0  0  0  0  0  0  0  0  0  0
  -40.5136   60.1168   64.1676 O   0  0  0  0  0  0  0  0  0  0  0  0
  -40.3330   61.1659   63.1905 C   0  0  0  0  0  0  0  0  0  0  0  0
  -39.3513   60.6507   62.1631 C   0  0  0  0  0  0  0  0  0  0  0  0
  -39.8937   60.8300   60.8548 O   0  0  0  0  0  0  0  0  0  0  0  0
  -40.0077   61.7771   60.6789 H   0  0  0  0  0  0  0  0  0  0  0  0
  -37.9866   61.2942   62.2046 C   0  0  0  0  0  0  0  0  0  0  0  0
  -37.1166   60.4737   63.0100 O   0  0  0  0  0  0  0  0  0  0  0  0
  -36.8112   60.8915   64.5138 P   0  0  0  0  0  0  0  0  0  0  0  0
  -37.2514   62.2925   64.6716 O   0  0  0  0  0  0  0  0  0  0  0  0
  -37.4039   59.8499   65.3756 O   0  0  0  0  0  0  0  0  0  0  0  0
  -38.3678   59.8507   65.2675 H   0  0  0  0  0  0  0  0  0  0  0  0
  -35.2406   60.8432   64.7321 O   0  0  0  0  0  0  0  0  0  0  0  0
  -34.4337   61.9961   64.3952 C   0  0  0  0  0  0  0  0  0  0  0  0
  -33.7841   62.4384   65.6866 C   0  0  0  0  0  0  0  0  0  0  0  0
  -34.0976   63.8491   66.1445 N   0  0  0  0  0  0  0  0  0  0  0  0
  -32.8554   64.5692   66.5608 C   0  0  0  0  0  0  0  0  0  0  0  0
  -35.0345   63.8005   67.3086 C   0  0  0  0  0  0  0  0  0  0  0  0
  -34.7388   64.6084   65.0257 C   0  0  0  0  0  0  0  0  0  0  0  0
 34 33  1  0  0  0
 34 35  1  0  0  0
 34 36  1  0  0  0
 34 37  1  0  0  0
 22 23  1  0  0  0
 22 25  1  0  0  0
 22 21  1  0  0  0
 23 24  1  0  0  0
 27 26  1  0  0  0
 27 28  2  0  0  0
 27 31  1  0  0  0
 27 29  1  0  0  0
 25 26  1  0  0  0
 32 33  1  0  0  0
 32 31  1  0  0  0
 29 30  1  0  0  0
 20 21  1  0  0  0
 20  2  1  0  0  0
  1  2  2  0  0  0
  2  3  1  0  0  0
  3  4  1  0  0  0
  4  5  1  0  0  0
  5  6  1  0  0  0
  6  7  1  0  0  0
  7  8  1  0  0  0
  8  9  1  0  0  0
  9 10  1  0  0  0
 10 11  2  0  0  0
 11 12  1  0  0  0
 12 13  1  0  0  0
 13 14  1  0  0  0
 14 15  1  0  0  0
 15 16  1  0  0  0
 16 17  1  0  0  0
 17 18  1  0  0  0
 18 19  1  0  0  0
M  CHG 1  28  -1
M  END
> <minimizedAffinity>
-7.66342

> <CNNscore>
0.7441894412

> <CNNaffinity>
6.5103864670

> <CNN_VS>
4.8449606895

> <CNNaffinity_variance>
0.8627812266

$$$$
/media/chris/experiments/cd1a-new-docking/inputs/ligands/4x6c_ligand.pdb


 37 36  0  0  0  0  0  0  0  0999 V2000
  -41.8724   59.6974   66.0795 O   0  0  0  0  0  0  0  0  0  0  0  0
  -42.6134   59.6487   65.1460 C   0  0  0  0  0  0  0  0  0  0  0  0
  -43.7417   58.6792   65.0108 C   0  0  0  0  0  0  0  0  0  0  0  0
  -45.0568   59.2269   65.5325 C   0  0  0  0  0  0  0  0  0  0  0  0
  -46.1646   58.1957   65.5359 C   0  0  0  0  0  0  0  0  0  0  0  0
  -47.4890   58.6977   65.0107 C   0  0  0  0  0  0  0  0  0  0  0  0
  -48.6003   57.6821   65.0871 C   0  0  0  0  0  0  0  0  0  0  0  0
  -49.9594   58.3236   65.1693 C   0  0  0  0  0  0  0  0  0  0  0  0
  -50.0037   59.7841   64.8300 C   0  0  0  0  0  0  0  0  0  0  0  0
  -51.0984   60.1367   63.9142 C   0  0  0  0  0  0  0  0  0  0  0  0
  -51.1773   59.9074   62.6220 C   0  0  0  0  0  0  0  0  0  0  0  0
  -50.1919   59.2128   61.7556 C   0  0  0  0  0  0  0  0  0  0  0  0
  -50.3315   57.7058   61.6858 C   0  0  0  0  0  0  0  0  0  0  0  0
  -49.2684   57.0622   60.8386 C   0  0  0  0  0  0  0  0  0  0  0  0
  -49.3687   57.3645   59.3653 C   0  0  0  0  0  0  0  0  0  0  0  0
  -48.0933   57.0438   58.6176 C   0  0  0  0  0  0  0  0  0  0  0  0
  -47.8722   55.5831   58.3401 C   0  0  0  0  0  0  0  0  0  0  0  0
  -47.4349   55.3138   56.9561 C   0  0  0  0  0  0  0  0  0  0  0  0
  -47.6740   56.4309   56.0443 C   0  0  0  0  0  0  0  0  0  0  0  0
  -42.5269   60.4543   64.0875 O   0  0  0  0  0  0  0  0  0  0  0  0
  -41.3181   61.2316   63.9372 C   0  0  0  0  0  0  0  0  0  0  0  0
  -40.7145   60.8590   62.6025 C   0  0  0  0  0  0  0  0  0  0  0  0
  -41.1538   61.7830   61.6069 O   0  0  0  0  0  0  0  0  0  0  0  0
  -40.8256   62.6702   61.8217 H   0  0  0  0  0  0  0  0  0  0  0  0
  -39.2060   60.8113   62.5746 C   0  0  0  0  0  0  0  0  0  0  0  0
  -38.7956   59.4728   62.2299 O   0  0  0  0  0  0  0  0  0  0  0  0
  -38.0177   58.5889   63.2989 P   0  0  0  0  0  0  0  0  0  0  0  0
  -38.4592   59.0374   64.6350 O   0  0  0  0  0  0  0  0  0  0  0  0
  -38.2153   57.1781   62.9121 O   0  0  0  0  0  0  0  0  0  0  0  0
  -39.1560   56.9522   62.9826 H   0  0  0  0  0  0  0  0  0  0  0  0
  -36.4677   58.8993   63.1645 O   0  0  0  0  0  0  0  0  0  0  0  0
  -35.4991   57.8954   63.5488 C   0  0  0  0  0  0  0  0  0  0  0  0
  -34.2229   58.2512   62.8208 C   0  0  0  0  0  0  0  0  0  0  0  0
  -33.0515   58.6675   63.6881 N   0  0  0  0  0  0  0  0  0  0  0  0
  -33.3123   58.3637   65.1284 C   0  0  0  0  0  0  0  0  0  0  0  0
  -32.8202   60.1376   63.5443 C   0  0  0  0  0  0  0  0  0  0  0  0
  -31.8224   57.9298   63.2584 C   0  0  0  0  0  0  0  0  0  0  0  0
 34 33  1  0  0  0
 34 35  1  0  0  0
 34 36  1  0  0  0
 34 37  1  0  0  0
 22 23  1  0  0  0
 22 25  1  0  0  0
 22 21  1  0  0  0
 23 24  1  0  0  0
 27 26  1  0  0  0
 27 28  2  0  0  0
 27 31  1  0  0  0
 27 29  1  0  0  0
 25 26  1  0  0  0
 32 33  1  0  0  0
 32 31  1  0  0  0
 29 30  1  0  0  0
 20 21  1  0  0  0
 20  2  1  0  0  0
  1  2  2  0  0  0
  2  3  1  0  0  0
  3  4  1  0  0  0
  4  5  1  0  0  0
  5  6  1  0  0  0
  6  7  1  0  0  0
  7  8  1  0  0  0
  8  9  1  0  0  0
  9 10  1  0  0  0
 10 11  2  0  0  0
 11 12  1  0  0  0
 12 13  1  0  0  0
 13 14  1  0  0  0
 14 15  1  0  0  0
 15 16  1  0  0  0
 16 17  1  0  0  0
 17 18  1  0  0  0
 18 19  1  0  0  0
M  CHG 1  28  -1
M  END
> <minimizedAffinity>
-7.78695

> <CNNscore>
0.7384788990

> <CNNaffinity>
6.6448884010

> <CNN_VS>
4.9071097374

> <CNNaffinity_variance>
1.0826603174

$$$$
/media/chris/experiments/cd1a-new-docking/inputs/ligands/4x6c_ligand.pdb


 37 36  0  0  0  0  0  0  0  0999 V2000
  -41.3761   61.3164   65.5477 O   0  0  0  0  0  0  0  0  0  0  0  0
  -41.8082   60.4254   64.8826 C   0  0  0  0  0  0  0  0  0  0  0  0
  -42.8848   59.4873   65.3210 C   0  0  0  0  0  0  0  0  0  0  0  0
  -42.3423   58.1890   65.8880 C   0  0  0  0  0  0  0  0  0  0  0  0
  -43.2907   57.0240   65.7044 C   0  0  0  0  0  0  0  0  0  0  0  0
  -44.5113   57.3357   64.8709 C   0  0  0  0  0  0  0  0  0  0  0  0
  -45.8140   57.1733   65.6117 C   0  0  0  0  0  0  0  0  0  0  0  0
  -46.2860   58.4610   66.2318 C   0  0  0  0  0  0  0  0  0  0  0  0
  -47.0969   59.3486   65.3347 C   0  0  0  0  0  0  0  0  0  0  0  0
  -48.2911   59.9033   65.9885 C   0  0  0  0  0  0  0  0  0  0  0  0
  -49.5510   59.7222   65.6594 C   0  0  0  0  0  0  0  0  0  0  0  0
  -50.0968   58.8924   64.5558 C   0  0  0  0  0  0  0  0  0  0  0  0
  -50.7454   59.6590   63.4213 C   0  0  0  0  0  0  0  0  0  0  0  0
  -49.7416   60.3322   62.5261 C   0  0  0  0  0  0  0  0  0  0  0  0
  -49.7465   59.8480   61.0988 C   0  0  0  0  0  0  0  0  0  0  0  0
  -49.5344   58.3540   60.9907 C   0  0  0  0  0  0  0  0  0  0  0  0
  -49.6666   57.7945   59.6018 C   0  0  0  0  0  0  0  0  0  0  0  0
  -48.5868   56.8516   59.2495 C   0  0  0  0  0  0  0  0  0  0  0  0
  -48.3865   56.7108   57.8086 C   0  0  0  0  0  0  0  0  0  0  0  0
  -41.3784   60.1418   63.6531 O   0  0  0  0  0  0  0  0  0  0  0  0
  -41.1287   61.2506   62.7608 C   0  0  0  0  0  0  0  0  0  0  0  0
  -40.2719   60.7265   61.6313 C   0  0  0  0  0  0  0  0  0  0  0  0
  -40.6830   61.3279   60.4036 O   0  0  0  0  0  0  0  0  0  0  0  0
  -40.5313   62.2850   60.4456 H   0  0  0  0  0  0  0  0  0  0  0  0
  -38.7885   60.9508   61.7976 C   0  0  0  0  0  0  0  0  0  0  0  0
  -38.5312   61.3219   63.1669 O   0  0  0  0  0  0  0  0  0  0  0  0
  -37.0366   61.5839   63.6431 P   0  0  0  0  0  0  0  0  0  0  0  0
  -36.3545   60.2742   63.6684 O   0  0  0  0  0  0  0  0  0  0  0  0
  -36.4976   62.6592   62.7874 O   0  0  0  0  0  0  0  0  0  0  0  0
  -36.4564   62.3512   61.8685 H   0  0  0  0  0  0  0  0  0  0  0  0
  -37.0804   62.1430   65.1272 O   0  0  0  0  0  0  0  0  0  0  0  0
  -36.0813   61.7180   66.0836 C   0  0  0  0  0  0  0  0  0  0  0  0
  -34.7861   62.3609   65.6425 C   0  0  0  0  0  0  0  0  0  0  0  0
  -34.4443   63.6890   66.2885 N   0  0  0  0  0  0  0  0  0  0  0  0
  -32.9951   63.7558   66.6492 C   0  0  0  0  0  0  0  0  0  0  0  0
  -35.2548   63.8634   67.5326 C   0  0  0  0  0  0  0  0  0  0  0  0
  -34.7527   64.8029   65.3379 C   0  0  0  0  0  0  0  0  0  0  0  0
 34 33  1  0  0  0
 34 35  1  0  0  0
 34 36  1  0  0  0
 34 37  1  0  0  0
 22 23  1  0  0  0
 22 25  1  0  0  0
 22 21  1  0  0  0
 23 24  1  0  0  0
 27 26  1  0  0  0
 27 28  2  0  0  0
 27 31  1  0  0  0
 27 29  1  0  0  0
 25 26  1  0  0  0
 32 33  1  0  0  0
 32 31  1  0  0  0
 29 30  1  0  0  0
 20 21  1  0  0  0
 20  2  1  0  0  0
  1  2  2  0  0  0
  2  3  1  0  0  0
  3  4  1  0  0  0
  4  5  1  0  0  0
  5  6  1  0  0  0
  6  7  1  0  0  0
  7  8  1  0  0  0
  8  9  1  0  0  0
  9 10  1  0  0  0
 10 11  2  0  0  0
 11 12  1  0  0  0
 12 13  1  0  0  0
 13 14  1  0  0  0
 14 15  1  0  0  0
 15 16  1  0  0  0
 16 17  1  0  0  0
 17 18  1  0  0  0
 18 19  1  0  0  0
M  CHG 1  28  -1
M  END
> <minimizedAffinity>
-7.79203

> <CNNscore>
0.7196643949

> <CNNaffinity>
6.4373207092

> <CNN_VS>
4.6327104568

> <CNNaffinity_variance>
0.3106738925

$$$$
/media/chris/experiments/cd1a-new-docking/inputs/ligands/4x6c_ligand.pdb


 37 36  0  0  0  0  0  0  0  0999 V2000
  -41.6595   58.6814   66.6959 O   0  0  0  0  0  0  0  0  0  0  0  0
  -42.1261   59.3354   65.8141 C   0  0  0  0  0  0  0  0  0  0  0  0
  -43.5863   59.5914   65.6317 C   0  0  0  0  0  0  0  0  0  0  0  0
  -44.2080   58.7242   64.5533 C   0  0  0  0  0  0  0  0  0  0  0  0
  -44.6501   57.3712   65.0675 C   0  0  0  0  0  0  0  0  0  0  0  0
  -45.9830   57.3763   65.7781 C   0  0  0  0  0  0  0  0  0  0  0  0
  -47.1496   57.7135   64.8849 C   0  0  0  0  0  0  0  0  0  0  0  0
  -48.1944   58.5352   65.5911 C   0  0  0  0  0  0  0  0  0  0  0  0
  -49.5943   58.3775   65.0759 C   0  0  0  0  0  0  0  0  0  0  0  0
  -50.4190   59.5818   65.2515 C   0  0  0  0  0  0  0  0  0  0  0  0
  -51.0769   60.2527   64.3318 C   0  0  0  0  0  0  0  0  0  0  0  0
  -51.1766   59.9558   62.8805 C   0  0  0  0  0  0  0  0  0  0  0  0
  -49.9241   60.2240   62.0714 C   0  0  0  0  0  0  0  0  0  0  0  0
  -49.5426   59.0665   61.1900 C   0  0  0  0  0  0  0  0  0  0  0  0
  -50.3653   57.8204   61.3960 C   0  0  0  0  0  0  0  0  0  0  0  0
  -50.0257   56.7288   60.4052 C   0  0  0  0  0  0  0  0  0  0  0  0
  -49.7365   57.2076   59.0099 C   0  0  0  0  0  0  0  0  0  0  0  0
  -48.3221   57.0434   58.6202 C   0  0  0  0  0  0  0  0  0  0  0  0
  -47.8570   55.6597   58.6938 C   0  0  0  0  0  0  0  0  0  0  0  0
  -41.4005   59.9224   64.8623 O   0  0  0  0  0  0  0  0  0  0  0  0
  -40.9650   61.2801   65.0966 C   0  0  0  0  0  0  0  0  0  0  0  0
  -39.5426   61.3821   64.5958 C   0  0  0  0  0  0  0  0  0  0  0  0
  -38.7400   62.0437   65.5737 O   0  0  0  0  0  0  0  0  0  0  0  0
  -38.7114   61.5102   66.3834 H   0  0  0  0  0  0  0  0  0  0  0  0
  -38.8889   60.0646   64.2563 C   0  0  0  0  0  0  0  0  0  0  0  0
  -38.8747   59.9154   62.8224 O   0  0  0  0  0  0  0  0  0  0  0  0
  -37.9386   58.8164   62.1552 P   0  0  0  0  0  0  0  0  0  0  0  0
  -38.2911   57.5188   62.7663 O   0  0  0  0  0  0  0  0  0  0  0  0
  -38.0619   58.9802   60.6933 O   0  0  0  0  0  0  0  0  0  0  0  0
  -38.9724   58.7850   60.4218 H   0  0  0  0  0  0  0  0  0  0  0  0
  -36.4352   59.1472   62.5390 O   0  0  0  0  0  0  0  0  0  0  0  0
  -35.4130   58.1371   62.3704 C   0  0  0  0  0  0  0  0  0  0  0  0
  -34.6298   58.1207   63.6633 C   0  0  0  0  0  0  0  0  0  0  0  0
  -33.2224   58.6804   63.6004 N   0  0  0  0  0  0  0  0  0  0  0  0
  -32.5501   58.3056   62.3189 C   0  0  0  0  0  0  0  0  0  0  0  0
  -32.4176   58.1392   64.7383 C   0  0  0  0  0  0  0  0  0  0  0  0
  -33.2718   60.1730   63.6963 C   0  0  0  0  0  0  0  0  0  0  0  0
 34 33  1  0  0  0
 34 35  1  0  0  0
 34 36  1  0  0  0
 34 37  1  0  0  0
 22 23  1  0  0  0
 22 25  1  0  0  0
 22 21  1  0  0  0
 23 24  1  0  0  0
 27 26  1  0  0  0
 27 28  2  0  0  0
 27 31  1  0  0  0
 27 29  1  0  0  0
 25 26  1  0  0  0
 32 33  1  0  0  0
 32 31  1  0  0  0
 29 30  1  0  0  0
 20 21  1  0  0  0
 20  2  1  0  0  0
  1  2  2  0  0  0
  2  3  1  0  0  0
  3  4  1  0  0  0
  4  5  1  0  0  0
  5  6  1  0  0  0
  6  7  1  0  0  0
  7  8  1  0  0  0
  8  9  1  0  0  0
  9 10  1  0  0  0
 10 11  2  0  0  0
 11 12  1  0  0  0
 12 13  1  0  0  0
 13 14  1  0  0  0
 14 15  1  0  0  0
 15 16  1  0  0  0
 16 17  1  0  0  0
 17 18  1  0  0  0
 18 19  1  0  0  0
M  CHG 1  28  -1
M  END
> <minimizedAffinity>
-8.03917

> <CNNscore>
0.7085359097

> <CNNaffinity>
6.5533471107

> <CNN_VS>
4.6432819366

> <CNNaffinity_variance>
0.4400072992

$$$$
