/media/chris/experiments/cd1a-new-docking/inputs/ligands/4x6c_ligand.pdb


 37 36  0  0  0  0  0  0  0  0999 V2000
  -41.9702   57.9019   65.7271 O   0  0  0  0  0  0  0  0  0  0  0  0
  -42.8346   58.6787   65.4580 C   0  0  0  0  0  0  0  0  0  0  0  0
  -44.2546   58.3038   65.1856 C   0  0  0  0  0  0  0  0  0  0  0  0
  -45.2287   59.4306   65.4731 C   0  0  0  0  0  0  0  0  0  0  0  0
  -46.6130   58.9355   65.8322 C   0  0  0  0  0  0  0  0  0  0  0  0
  -47.5053   58.6556   64.6459 C   0  0  0  0  0  0  0  0  0  0  0  0
  -48.6396   57.7090   64.9451 C   0  0  0  0  0  0  0  0  0  0  0  0
  -49.9173   58.4314   65.2781 C   0  0  0  0  0  0  0  0  0  0  0  0
  -49.9998   59.8495   64.7959 C   0  0  0  0  0  0  0  0  0  0  0  0
  -51.1250   60.0894   63.8810 C   0  0  0  0  0  0  0  0  0  0  0  0
  -51.1776   59.8629   62.5869 C   0  0  0  0  0  0  0  0  0  0  0  0
  -50.1224   59.2848   61.7170 C   0  0  0  0  0  0  0  0  0  0  0  0
  -50.1308   57.7746   61.5957 C   0  0  0  0  0  0  0  0  0  0  0  0
  -48.9866   57.2512   60.7718 C   0  0  0  0  0  0  0  0  0  0  0  0
  -49.2781   55.9715   60.0308 C   0  0  0  0  0  0  0  0  0  0  0  0
  -48.2743   55.6929   58.9338 C   0  0  0  0  0  0  0  0  0  0  0  0
  -47.4905   56.8902   58.4736 C   0  0  0  0  0  0  0  0  0  0  0  0
  -46.8817   56.7095   57.1410 C   0  0  0  0  0  0  0  0  0  0  0  0
  -47.2439   55.4447   56.5044 C   0  0  0  0  0  0  0  0  0  0  0  0
  -42.6443   59.9941   65.3559 O   0  0  0  0  0  0  0  0  0  0  0  0
  -41.7096   60.6066   66.2719 C   0  0  0  0  0  0  0  0  0  0  0  0
  -40.6643   61.3082   65.4356 C   0  0  0  0  0  0  0  0  0  0  0  0
  -40.5122   62.6521   65.8929 O   0  0  0  0  0  0  0  0  0  0  0  0
  -40.1810   62.6479   66.8046 H   0  0  0  0  0  0  0  0  0  0  0  0
  -39.3052   60.6514   65.4289 C   0  0  0  0  0  0  0  0  0  0  0  0
  -38.3635   61.5388   66.0651 O   0  0  0  0  0  0  0  0  0  0  0  0
  -36.9619   61.8268   65.3709 P   0  0  0  0  0  0  0  0  0  0  0  0
  -37.2470   62.3251   64.0102 O   0  0  0  0  0  0  0  0  0  0  0  0
  -36.1907   62.6751   66.3008 O   0  0  0  0  0  0  0  0  0  0  0  0
  -36.6391   63.5286   66.4073 H   0  0  0  0  0  0  0  0  0  0  0  0
  -36.1838   60.4508   65.2365 O   0  0  0  0  0  0  0  0  0  0  0  0
  -35.7759   59.9821   63.9297 C   0  0  0  0  0  0  0  0  0  0  0  0
  -36.1550   58.5195   63.8776 C   0  0  0  0  0  0  0  0  0  0  0  0
  -37.2762   58.1523   62.9257 N   0  0  0  0  0  0  0  0  0  0  0  0
  -36.8284   57.1252   61.9361 C   0  0  0  0  0  0  0  0  0  0  0  0
  -37.7197   59.3710   62.1817 C   0  0  0  0  0  0  0  0  0  0  0  0
  -38.4307   57.5992   63.7005 C   0  0  0  0  0  0  0  0  0  0  0  0
 34 33  1  0  0  0
 34 35  1  0  0  0
 34 36  1  0  0  0
 34 37  1  0  0  0
 22 23  1  0  0  0
 22 25  1  0  0  0
 22 21  1  0  0  0
 23 24  1  0  0  0
 27 26  1  0  0  0
 27 28  2  0  0  0
 27 31  1  0  0  0
 27 29  1  0  0  0
 25 26  1  0  0  0
 32 33  1  0  0  0
 32 31  1  0  0  0
 29 30  1  0  0  0
 20 21  1  0  0  0
 20  2  1  0  0  0
  1  2  2  0  0  0
  2  3  1  0  0  0
  3  4  1  0  0  0
  4  5  1  0  0  0
  5  6  1  0  0  0
  6  7  1  0  0  0
  7  8  1  0  0  0
  8  9  1  0  0  0
  9 10  1  0  0  0
 10 11  2  0  0  0
 11 12  1  0  0  0
 12 13  1  0  0  0
 13 14  1  0  0  0
 14 15  1  0  0  0
 15 16  1  0  0  0
 16 17  1  0  0  0
 17 18  1  0  0  0
 18 19  1  0  0  0
M  CHG 1  28  -1
M  END
> <minimizedAffinity>
-8.29236

> <CNNscore>
0.9134684801

> <CNNaffinity>
7.1644768715

> <CNN_VS>
6.5445237160

> <CNNaffinity_variance>
0.3947234452

$$$$
/media/chris/experiments/cd1a-new-docking/inputs/ligands/4x6c_ligand.pdb


 37 36  0  0  0  0  0  0  0  0999 V2000
  -41.9235   57.7983   65.6789 O   0  0  0  0  0  0  0  0  0  0  0  0
  -42.8425   58.5563   65.6194 C   0  0  0  0  0  0  0  0  0  0  0  0
  -44.1890   58.2125   65.0718 C   0  0  0  0  0  0  0  0  0  0  0  0
  -45.0471   57.4393   66.0554 C   0  0  0  0  0  0  0  0  0  0  0  0
  -46.2705   58.2098   66.5024 C   0  0  0  0  0  0  0  0  0  0  0  0
  -46.4780   59.5247   65.7884 C   0  0  0  0  0  0  0  0  0  0  0  0
  -47.7372   59.5782   64.9615 C   0  0  0  0  0  0  0  0  0  0  0  0
  -48.5409   58.3093   65.0570 C   0  0  0  0  0  0  0  0  0  0  0  0
  -50.0222   58.4947   65.2037 C   0  0  0  0  0  0  0  0  0  0  0  0
  -50.4958   59.8027   64.7284 C   0  0  0  0  0  0  0  0  0  0  0  0
  -50.9698   60.1084   63.5408 C   0  0  0  0  0  0  0  0  0  0  0  0
  -51.1715   59.2074   62.3780 C   0  0  0  0  0  0  0  0  0  0  0  0
  -49.9282   58.8947   61.5706 C   0  0  0  0  0  0  0  0  0  0  0  0
  -50.0422   57.6062   60.8032 C   0  0  0  0  0  0  0  0  0  0  0  0
  -49.0699   57.4663   59.6601 C   0  0  0  0  0  0  0  0  0  0  0  0
  -48.7409   56.0227   59.3497 C   0  0  0  0  0  0  0  0  0  0  0  0
  -47.3129   55.7696   58.9540 C   0  0  0  0  0  0  0  0  0  0  0  0
  -47.1527   55.4641   57.5187 C   0  0  0  0  0  0  0  0  0  0  0  0
  -48.1189   56.1551   56.6671 C   0  0  0  0  0  0  0  0  0  0  0  0
  -42.7867   59.8234   66.0296 O   0  0  0  0  0  0  0  0  0  0  0  0
  -41.4876   60.3600   66.3652 C   0  0  0  0  0  0  0  0  0  0  0  0
  -41.1921   61.4601   65.3718 C   0  0  0  0  0  0  0  0  0  0  0  0
  -40.2683   62.3845   65.9463 O   0  0  0  0  0  0  0  0  0  0  0  0
  -39.4267   61.9347   66.1204 H   0  0  0  0  0  0  0  0  0  0  0  0
  -40.6370   60.9933   64.0480 C   0  0  0  0  0  0  0  0  0  0  0  0
  -39.2216   61.2672   64.0218 O   0  0  0  0  0  0  0  0  0  0  0  0
  -38.2659   60.3808   63.1106 P   0  0  0  0  0  0  0  0  0  0  0  0
  -39.0463   59.2021   62.6832 O   0  0  0  0  0  0  0  0  0  0  0  0
  -37.6994   61.2788   62.0851 O   0  0  0  0  0  0  0  0  0  0  0  0
  -38.4118   61.6104   61.5165 H   0  0  0  0  0  0  0  0  0  0  0  0
  -37.0596   59.8719   64.0065 O   0  0  0  0  0  0  0  0  0  0  0  0
  -35.7535   60.4779   63.8623 C   0  0  0  0  0  0  0  0  0  0  0  0
  -34.8150   59.6438   64.7045 C   0  0  0  0  0  0  0  0  0  0  0  0
  -33.5979   59.0842   63.9951 N   0  0  0  0  0  0  0  0  0  0  0  0
  -33.9961   58.2070   62.8520 C   0  0  0  0  0  0  0  0  0  0  0  0
  -32.7860   58.2769   64.9565 C   0  0  0  0  0  0  0  0  0  0  0  0
  -32.7639   60.2091   63.4673 C   0  0  0  0  0  0  0  0  0  0  0  0
 34 33  1  0  0  0
 34 35  1  0  0  0
 34 36  1  0  0  0
 34 37  1  0  0  0
 22 23  1  0  0  0
 22 25  1  0  0  0
 22 21  1  0  0  0
 23 24  1  0  0  0
 27 26  1  0  0  0
 27 28  2  0  0  0
 27 31  1  0  0  0
 27 29  1  0  0  0
 25 26  1  0  0  0
 32 33  1  0  0  0
 32 31  1  0  0  0
 29 30  1  0  0  0
 20 21  1  0  0  0
 20  2  1  0  0  0
  1  2  2  0  0  0
  2  3  1  0  0  0
  3  4  1  0  0  0
  4  5  1  0  0  0
  5  6  1  0  0  0
  6  7  1  0  0  0
  7  8  1  0  0  0
  8  9  1  0  0  0
  9 10  1  0  0  0
 10 11  2  0  0  0
 11 12  1  0  0  0
 12 13  1  0  0  0
 13 14  1  0  0  0
 14 15  1  0  0  0
 15 16  1  0  0  0
 16 17  1  0  0  0
 17 18  1  0  0  0
 18 19  1  0  0  0
M  CHG 1  28  -1
M  END
> <minimizedAffinity>
-7.85451

> <CNNscore>
0.8947655559

> <CNNaffinity>
6.9091734886

> <CNN_VS>
6.1820902824

> <CNNaffinity_variance>
0.4056865573

$$$$
/media/chris/experiments/cd1a-new-docking/inputs/ligands/4x6c_ligand.pdb


 37 36  0  0  0  0  0  0  0  0999 V2000
  -42.5019   60.5102   67.4787 O   0  0  0  0  0  0  0  0  0  0  0  0
  -42.1970   60.0790   66.4092 C   0  0  0  0  0  0  0  0  0  0  0  0
  -43.1055   59.2893   65.5248 C   0  0  0  0  0  0  0  0  0  0  0  0
  -42.9000   57.7917   65.6529 C   0  0  0  0  0  0  0  0  0  0  0  0
  -44.1474   56.9964   65.3338 C   0  0  0  0  0  0  0  0  0  0  0  0
  -45.2787   57.8120   64.7536 C   0  0  0  0  0  0  0  0  0  0  0  0
  -46.5123   57.8471   65.6193 C   0  0  0  0  0  0  0  0  0  0  0  0
  -46.8590   59.2412   66.0683 C   0  0  0  0  0  0  0  0  0  0  0  0
  -48.2814   59.6575   65.8362 C   0  0  0  0  0  0  0  0  0  0  0  0
  -48.5011   60.2730   64.5195 C   0  0  0  0  0  0  0  0  0  0  0  0
  -49.0262   59.7228   63.4470 C   0  0  0  0  0  0  0  0  0  0  0  0
  -49.5547   58.3439   63.2933 C   0  0  0  0  0  0  0  0  0  0  0  0
  -50.4243   58.1097   62.0749 C   0  0  0  0  0  0  0  0  0  0  0  0
  -49.6925   58.3510   60.7832 C   0  0  0  0  0  0  0  0  0  0  0  0
  -49.9043   57.2916   59.7323 C   0  0  0  0  0  0  0  0  0  0  0  0
  -48.9653   56.1165   59.8934 C   0  0  0  0  0  0  0  0  0  0  0  0
  -47.6766   56.2260   59.1271 C   0  0  0  0  0  0  0  0  0  0  0  0
  -47.7702   57.1212   57.9571 C   0  0  0  0  0  0  0  0  0  0  0  0
  -47.4535   56.4590   56.6931 C   0  0  0  0  0  0  0  0  0  0  0  0
  -40.9926   60.2389   65.8607 O   0  0  0  0  0  0  0  0  0  0  0  0
  -40.5232   61.5912   65.6633 C   0  0  0  0  0  0  0  0  0  0  0  0
  -39.3777   61.5239   64.6796 C   0  0  0  0  0  0  0  0  0  0  0  0
  -38.2513   62.2207   65.2122 O   0  0  0  0  0  0  0  0  0  0  0  0
  -37.9493   61.7773   66.0203 H   0  0  0  0  0  0  0  0  0  0  0  0
  -38.9400   60.1291   64.3034 C   0  0  0  0  0  0  0  0  0  0  0  0
  -39.4407   59.8310   62.9846 O   0  0  0  0  0  0  0  0  0  0  0  0
  -38.7320   60.4686   61.7116 P   0  0  0  0  0  0  0  0  0  0  0  0
  -39.7999   60.8320   60.7583 O   0  0  0  0  0  0  0  0  0  0  0  0
  -37.8241   61.5204   62.2099 O   0  0  0  0  0  0  0  0  0  0  0  0
  -38.3435   62.2229   62.6313 H   0  0  0  0  0  0  0  0  0  0  0  0
  -37.8301   59.3521   61.0357 O   0  0  0  0  0  0  0  0  0  0  0  0
  -37.5652   58.1183   61.7437 C   0  0  0  0  0  0  0  0  0  0  0  0
  -36.0634   57.9453   61.7264 C   0  0  0  0  0  0  0  0  0  0  0  0
  -35.3663   58.0143   63.0707 N   0  0  0  0  0  0  0  0  0  0  0  0
  -36.0464   57.1415   64.0759 C   0  0  0  0  0  0  0  0  0  0  0  0
  -35.3839   59.4229   63.5714 C   0  0  0  0  0  0  0  0  0  0  0  0
  -33.9481   57.5599   62.9239 C   0  0  0  0  0  0  0  0  0  0  0  0
 34 33  1  0  0  0
 34 35  1  0  0  0
 34 36  1  0  0  0
 34 37  1  0  0  0
 22 23  1  0  0  0
 22 25  1  0  0  0
 22 21  1  0  0  0
 23 24  1  0  0  0
 27 26  1  0  0  0
 27 28  2  0  0  0
 27 31  1  0  0  0
 27 29  1  0  0  0
 25 26  1  0  0  0
 32 33  1  0  0  0
 32 31  1  0  0  0
 29 30  1  0  0  0
 20 21  1  0  0  0
 20  2  1  0  0  0
  1  2  2  0  0  0
  2  3  1  0  0  0
  3  4  1  0  0  0
  4  5  1  0  0  0
  5  6  1  0  0  0
  6  7  1  0  0  0
  7  8  1  0  0  0
  8  9  1  0  0  0
  9 10  1  0  0  0
 10 11  2  0  0  0
 11 12  1  0  0  0
 12 13  1  0  0  0
 13 14  1  0  0  0
 14 15  1  0  0  0
 15 16  1  0  0  0
 16 17  1  0  0  0
 17 18  1  0  0  0
 18 19  1  0  0  0
M  CHG 1  28  -1
M  END
> <minimizedAffinity>
-8.17887

> <CNNscore>
0.8641895652

> <CNNaffinity>
6.9947638512

> <CNN_VS>
6.0448017120

> <CNNaffinity_variance>
0.5289350748

$$$$
/media/chris/experiments/cd1a-new-docking/inputs/ligands/4x6c_ligand.pdb


 37 36  0  0  0  0  0  0  0  0999 V2000
  -42.2338   57.9005   66.4571 O   0  0  0  0  0  0  0  0  0  0  0  0
  -42.7605   58.5214   65.5853 C   0  0  0  0  0  0  0  0  0  0  0  0
  -44.0494   58.1395   64.9341 C   0  0  0  0  0  0  0  0  0  0  0  0
  -44.6019   56.8223   65.4451 C   0  0  0  0  0  0  0  0  0  0  0  0
  -46.0040   56.9474   66.0008 C   0  0  0  0  0  0  0  0  0  0  0  0
  -46.4064   58.3548   66.3740 C   0  0  0  0  0  0  0  0  0  0  0  0
  -47.3232   59.0129   65.3747 C   0  0  0  0  0  0  0  0  0  0  0  0
  -48.1569   58.0150   64.6168 C   0  0  0  0  0  0  0  0  0  0  0  0
  -49.6114   57.9814   64.9822 C   0  0  0  0  0  0  0  0  0  0  0  0
  -50.1617   59.3054   65.3065 C   0  0  0  0  0  0  0  0  0  0  0  0
  -50.8106   60.1282   64.5124 C   0  0  0  0  0  0  0  0  0  0  0  0
  -51.1764   59.9246   63.0879 C   0  0  0  0  0  0  0  0  0  0  0  0
  -50.0986   60.2708   62.0808 C   0  0  0  0  0  0  0  0  0  0  0  0
  -49.6027   59.0695   61.3239 C   0  0  0  0  0  0  0  0  0  0  0  0
  -50.5742   57.9188   61.2628 C   0  0  0  0  0  0  0  0  0  0  0  0
  -50.1496   56.8506   60.2794 C   0  0  0  0  0  0  0  0  0  0  0  0
  -48.7809   57.0422   59.6880 C   0  0  0  0  0  0  0  0  0  0  0  0
  -48.7445   56.8343   58.2270 C   0  0  0  0  0  0  0  0  0  0  0  0
  -47.4328   57.0930   57.6366 C   0  0  0  0  0  0  0  0  0  0  0  0
  -42.2604   59.6431   65.0670 O   0  0  0  0  0  0  0  0  0  0  0  0
  -41.8117   60.6621   65.9880 C   0  0  0  0  0  0  0  0  0  0  0  0
  -40.7941   61.5056   65.2549 C   0  0  0  0  0  0  0  0  0  0  0  0
  -40.4272   62.6212   66.0667 O   0  0  0  0  0  0  0  0  0  0  0  0
  -39.9943   62.3045   66.8749 H   0  0  0  0  0  0  0  0  0  0  0  0
  -39.5354   60.7784   64.8485 C   0  0  0  0  0  0  0  0  0  0  0  0
  -38.4840   61.7480   64.6657 O   0  0  0  0  0  0  0  0  0  0  0  0
  -37.0726   61.5183   65.3620 P   0  0  0  0  0  0  0  0  0  0  0  0
  -37.3103   60.6842   66.5573 O   0  0  0  0  0  0  0  0  0  0  0  0
  -36.1539   61.0298   64.3150 O   0  0  0  0  0  0  0  0  0  0  0  0
  -36.4594   60.1670   63.9937 H   0  0  0  0  0  0  0  0  0  0  0  0
  -36.5248   62.9260   65.8470 O   0  0  0  0  0  0  0  0  0  0  0  0
  -35.1004   63.1257   66.0047 C   0  0  0  0  0  0  0  0  0  0  0  0
  -34.7846   64.4269   65.3027 C   0  0  0  0  0  0  0  0  0  0  0  0
  -34.0507   64.3133   63.9811 N   0  0  0  0  0  0  0  0  0  0  0  0
  -33.2972   63.0252   63.8921 C   0  0  0  0  0  0  0  0  0  0  0  0
  -33.0814   65.4439   63.8487 C   0  0  0  0  0  0  0  0  0  0  0  0
  -35.0343   64.3713   62.8548 C   0  0  0  0  0  0  0  0  0  0  0  0
 34 33  1  0  0  0
 34 35  1  0  0  0
 34 36  1  0  0  0
 34 37  1  0  0  0
 22 23  1  0  0  0
 22 25  1  0  0  0
 22 21  1  0  0  0
 23 24  1  0  0  0
 27 26  1  0  0  0
 27 28  2  0  0  0
 27 31  1  0  0  0
 27 29  1  0  0  0
 25 26  1  0  0  0
 32 33  1  0  0  0
 32 31  1  0  0  0
 29 30  1  0  0  0
 20 21  1  0  0  0
 20  2  1  0  0  0
  1  2  2  0  0  0
  2  3  1  0  0  0
  3  4  1  0  0  0
  4  5  1  0  0  0
  5  6  1  0  0  0
  6  7  1  0  0  0
  7  8  1  0  0  0
  8  9  1  0  0  0
  9 10  1  0  0  0
 10 11  2  0  0  0
 11 12  1  0  0  0
 12 13  1  0  0  0
 13 14  1  0  0  0
 14 15  1  0  0  0
 15 16  1  0  0  0
 16 17  1  0  0  0
 17 18  1  0  0  0
 18 19  1  0  0  0
M  CHG 1  28  -1
M  END
> <minimizedAffinity>
-8.14233

> <CNNscore>
0.8186655045

> <CNNaffinity>
6.4994392395

> <CNN_VS>
5.3208665848

> <CNNaffinity_variance>
0.2759781182

$$$$
/media/chris/experiments/cd1a-new-docking/inputs/ligands/4x6c_ligand.pdb


 37 36  0  0  0  0  0  0  0  0999 V2000
  -41.7344   58.4765   66.1411 O   0  0  0  0  0  0  0  0  0  0  0  0
  -41.8912   59.4644   65.4912 C   0  0  0  0  0  0  0  0  0  0  0  0
  -43.1300   59.7818   64.7193 C   0  0  0  0  0  0  0  0  0  0  0  0
  -44.4005   59.4992   65.4987 C   0  0  0  0  0  0  0  0  0  0  0  0
  -45.2256   58.3829   64.8958 C   0  0  0  0  0  0  0  0  0  0  0  0
  -46.6867   58.4074   65.2782 C   0  0  0  0  0  0  0  0  0  0  0  0
  -47.0902   59.6253   66.0696 C   0  0  0  0  0  0  0  0  0  0  0  0
  -48.1123   60.4642   65.3508 C   0  0  0  0  0  0  0  0  0  0  0  0
  -49.2717   59.7097   64.7705 C   0  0  0  0  0  0  0  0  0  0  0  0
  -49.9727   60.4452   63.7082 C   0  0  0  0  0  0  0  0  0  0  0  0
  -50.6016   59.9534   62.6636 C   0  0  0  0  0  0  0  0  0  0  0  0
  -50.7870   58.5266   62.2972 C   0  0  0  0  0  0  0  0  0  0  0  0
  -49.6528   57.9014   61.5109 C   0  0  0  0  0  0  0  0  0  0  0  0
  -49.6544   58.3099   60.0634 C   0  0  0  0  0  0  0  0  0  0  0  0
  -49.4855   57.1731   59.0883 C   0  0  0  0  0  0  0  0  0  0  0  0
  -48.4456   56.1707   59.5380 C   0  0  0  0  0  0  0  0  0  0  0  0
  -47.0790   56.3659   58.9432 C   0  0  0  0  0  0  0  0  0  0  0  0
  -47.1118   56.6762   57.5004 C   0  0  0  0  0  0  0  0  0  0  0  0
  -47.2818   55.4950   56.6565 C   0  0  0  0  0  0  0  0  0  0  0  0
  -40.9710   60.4199   65.3601 O   0  0  0  0  0  0  0  0  0  0  0  0
  -39.5850   60.0355   65.4988 C   0  0  0  0  0  0  0  0  0  0  0  0
  -38.7557   61.2805   65.2831 C   0  0  0  0  0  0  0  0  0  0  0  0
  -39.4184   62.4012   65.8688 O   0  0  0  0  0  0  0  0  0  0  0  0
  -39.4827   62.2736   66.8283 H   0  0  0  0  0  0  0  0  0  0  0  0
  -37.3519   61.2165   65.8342 C   0  0  0  0  0  0  0  0  0  0  0  0
  -36.8054   62.5506   65.8539 O   0  0  0  0  0  0  0  0  0  0  0  0
  -35.3972   62.8134   66.5449 P   0  0  0  0  0  0  0  0  0  0  0  0
  -35.6280   63.7667   67.6490 O   0  0  0  0  0  0  0  0  0  0  0  0
  -34.8155   61.4906   66.8463 O   0  0  0  0  0  0  0  0  0  0  0  0
  -35.3726   61.0327   67.4950 H   0  0  0  0  0  0  0  0  0  0  0  0
  -34.4476   63.5125   65.4835 O   0  0  0  0  0  0  0  0  0  0  0  0
  -34.5740   64.9320   65.2332 C   0  0  0  0  0  0  0  0  0  0  0  0
  -34.1264   65.1419   63.8045 C   0  0  0  0  0  0  0  0  0  0  0  0
  -32.6459   65.3935   63.5973 N   0  0  0  0  0  0  0  0  0  0  0  0
  -32.0050   65.9007   64.8489 C   0  0  0  0  0  0  0  0  0  0  0  0
  -32.4580   66.4110   62.5181 C   0  0  0  0  0  0  0  0  0  0  0  0
  -31.9720   64.1188   63.1970 C   0  0  0  0  0  0  0  0  0  0  0  0
 34 33  1  0  0  0
 34 35  1  0  0  0
 34 36  1  0  0  0
 34 37  1  0  0  0
 22 23  1  0  0  0
 22 25  1  0  0  0
 22 21  1  0  0  0
 23 24  1  0  0  0
 27 26  1  0  0  0
 27 28  2  0  0  0
 27 31  1  0  0  0
 27 29  1  0  0  0
 25 26  1  0  0  0
 32 33  1  0  0  0
 32 31  1  0  0  0
 29 30  1  0  0  0
 20 21  1  0  0  0
 20  2  1  0  0  0
  1  2  2  0  0  0
  2  3  1  0  0  0
  3  4  1  0  0  0
  4  5  1  0  0  0
  5  6  1  0  0  0
  6  7  1  0  0  0
  7  8  1  0  0  0
  8  9  1  0  0  0
  9 10  1  0  0  0
 10 11  2  0  0  0
 11 12  1  0  0  0
 12 13  1  0  0  0
 13 14  1  0  0  0
 14 15  1  0  0  0
 15 16  1  0  0  0
 16 17  1  0  0  0
 17 18  1  0  0  0
 18 19  1  0  0  0
M  CHG 1  28  -1
M  END
> <minimizedAffinity>
-8.21039

> <CNNscore>
0.7870008945

> <CNNaffinity>
6.3237829208

> <CNN_VS>
4.9768228531

> <CNNaffinity_variance>
0.7378067970

$$$$
/media/chris/experiments/cd1a-new-docking/inputs/ligands/4x6c_ligand.pdb


 37 36  0  0  0  0  0  0  0  0999 V2000
  -42.7617   60.2261   67.1045 O   0  0  0  0  0  0  0  0  0  0  0  0
  -42.9198   59.7686   66.0143 C   0  0  0  0  0  0  0  0  0  0  0  0
  -44.2189   59.7683   65.2770 C   0  0  0  0  0  0  0  0  0  0  0  0
  -44.6015   58.3962   64.7550 C   0  0  0  0  0  0  0  0  0  0  0  0
  -45.8765   57.8650   65.3735 C   0  0  0  0  0  0  0  0  0  0  0  0
  -47.1311   58.5845   64.9374 C   0  0  0  0  0  0  0  0  0  0  0  0
  -48.2809   57.6650   64.6140 C   0  0  0  0  0  0  0  0  0  0  0  0
  -49.5821   58.1459   65.1980 C   0  0  0  0  0  0  0  0  0  0  0  0
  -49.8095   59.6271   65.1315 C   0  0  0  0  0  0  0  0  0  0  0  0
  -50.9740   60.0020   64.3165 C   0  0  0  0  0  0  0  0  0  0  0  0
  -51.0070   60.2757   63.0309 C   0  0  0  0  0  0  0  0  0  0  0  0
  -49.8811   60.2554   62.0634 C   0  0  0  0  0  0  0  0  0  0  0  0
  -49.5783   58.9073   61.4418 C   0  0  0  0  0  0  0  0  0  0  0  0
  -50.7940   58.0275   61.3407 C   0  0  0  0  0  0  0  0  0  0  0  0
  -50.5817   56.7460   60.5762 C   0  0  0  0  0  0  0  0  0  0  0  0
  -49.4766   56.8576   59.5491 C   0  0  0  0  0  0  0  0  0  0  0  0
  -48.4961   55.7183   59.5476 C   0  0  0  0  0  0  0  0  0  0  0  0
  -47.4230   55.8760   58.5461 C   0  0  0  0  0  0  0  0  0  0  0  0
  -47.4697   57.1562   57.8425 C   0  0  0  0  0  0  0  0  0  0  0  0
  -41.9521   59.1851   65.3072 O   0  0  0  0  0  0  0  0  0  0  0  0
  -40.6227   59.7423   65.4081 C   0  0  0  0  0  0  0  0  0  0  0  0
  -40.6358   61.0581   64.6646 C   0  0  0  0  0  0  0  0  0  0  0  0
  -40.5589   62.1340   65.5999 O   0  0  0  0  0  0  0  0  0  0  0  0
  -39.7132   62.0912   66.0731 H   0  0  0  0  0  0  0  0  0  0  0  0
  -39.5312   61.2297   63.6502 C   0  0  0  0  0  0  0  0  0  0  0  0
  -38.3025   60.7374   64.2220 O   0  0  0  0  0  0  0  0  0  0  0  0
  -37.1355   61.7581   64.5762 P   0  0  0  0  0  0  0  0  0  0  0  0
  -36.7612   62.4401   63.3209 O   0  0  0  0  0  0  0  0  0  0  0  0
  -37.6051   62.5640   65.7203 O   0  0  0  0  0  0  0  0  0  0  0  0
  -38.3746   63.0898   65.4513 H   0  0  0  0  0  0  0  0  0  0  0  0
  -35.8815   60.9234   65.0738 O   0  0  0  0  0  0  0  0  0  0  0  0
  -34.9384   61.5243   65.9920 C   0  0  0  0  0  0  0  0  0  0  0  0
  -33.9889   62.3344   65.1389 C   0  0  0  0  0  0  0  0  0  0  0  0
  -33.6068   63.6999   65.6749 N   0  0  0  0  0  0  0  0  0  0  0  0
  -32.2777   64.1340   65.1460 C   0  0  0  0  0  0  0  0  0  0  0  0
  -33.5336   63.6487   67.1673 C   0  0  0  0  0  0  0  0  0  0  0  0
  -34.6366   64.7054   65.2651 C   0  0  0  0  0  0  0  0  0  0  0  0
 34 33  1  0  0  0
 34 35  1  0  0  0
 34 36  1  0  0  0
 34 37  1  0  0  0
 22 23  1  0  0  0
 22 25  1  0  0  0
 22 21  1  0  0  0
 23 24  1  0  0  0
 27 26  1  0  0  0
 27 28  2  0  0  0
 27 31  1  0  0  0
 27 29  1  0  0  0
 25 26  1  0  0  0
 32 33  1  0  0  0
 32 31  1  0  0  0
 29 30  1  0  0  0
 20 21  1  0  0  0
 20  2  1  0  0  0
  1  2  2  0  0  0
  2  3  1  0  0  0
  3  4  1  0  0  0
  4  5  1  0  0  0
  5  6  1  0  0  0
  6  7  1  0  0  0
  7  8  1  0  0  0
  8  9  1  0  0  0
  9 10  1  0  0  0
 10 11  2  0  0  0
 11 12  1  0  0  0
 12 13  1  0  0  0
 13 14  1  0  0  0
 14 15  1  0  0  0
 15 16  1  0  0  0
 16 17  1  0  0  0
 17 18  1  0  0  0
 18 19  1  0  0  0
M  CHG 1  28  -1
M  END
> <minimizedAffinity>
-8.09768

> <CNNscore>
0.7567360401

> <CNNaffinity>
6.4315614700

> <CNN_VS>
4.8669943810

> <CNNaffinity_variance>
0.2819183767

$$$$
/media/chris/experiments/cd1a-new-docking/inputs/ligands/4x6c_ligand.pdb


 37 36  0  0  0  0  0  0  0  0999 V2000
  -40.6905   60.0896   65.8757 O   0  0  0  0  0  0  0  0  0  0  0  0
  -41.2330   60.4643   64.8817 C   0  0  0  0  0  0  0  0  0  0  0  0
  -42.5588   59.9696   64.4034 C   0  0  0  0  0  0  0  0  0  0  0  0
  -43.1330   58.8745   65.2824 C   0  0  0  0  0  0  0  0  0  0  0  0
  -44.5448   58.4890   64.8969 C   0  0  0  0  0  0  0  0  0  0  0  0
  -45.2597   57.6314   65.9143 C   0  0  0  0  0  0  0  0  0  0  0  0
  -46.6539   57.2315   65.5038 C   0  0  0  0  0  0  0  0  0  0  0  0
  -47.2952   58.2416   64.5906 C   0  0  0  0  0  0  0  0  0  0  0  0
  -48.1477   59.2730   65.2687 C   0  0  0  0  0  0  0  0  0  0  0  0
  -48.3052   60.5062   64.4842 C   0  0  0  0  0  0  0  0  0  0  0  0
  -49.3661   60.9145   63.8237 C   0  0  0  0  0  0  0  0  0  0  0  0
  -50.6883   60.2477   63.7167 C   0  0  0  0  0  0  0  0  0  0  0  0
  -50.9347   59.4882   62.4291 C   0  0  0  0  0  0  0  0  0  0  0  0
  -50.4561   58.0638   62.4936 C   0  0  0  0  0  0  0  0  0  0  0  0
  -49.4701   57.6818   61.4195 C   0  0  0  0  0  0  0  0  0  0  0  0
  -50.0677   57.7477   60.0313 C   0  0  0  0  0  0  0  0  0  0  0  0
  -49.2642   57.0605   58.9627 C   0  0  0  0  0  0  0  0  0  0  0  0
  -48.4201   55.9668   59.4828 C   0  0  0  0  0  0  0  0  0  0  0  0
  -47.1267   55.8621   58.8103 C   0  0  0  0  0  0  0  0  0  0  0  0
  -40.7201   61.3755   64.0551 O   0  0  0  0  0  0  0  0  0  0  0  0
  -40.9343   61.1876   62.6384 C   0  0  0  0  0  0  0  0  0  0  0  0
  -39.6582   60.6111   62.0696 C   0  0  0  0  0  0  0  0  0  0  0  0
  -39.7723   60.5113   60.6500 O   0  0  0  0  0  0  0  0  0  0  0  0
  -39.8692   61.3986   60.2703 H   0  0  0  0  0  0  0  0  0  0  0  0
  -38.4059   61.3895   62.3926 C   0  0  0  0  0  0  0  0  0  0  0  0
  -37.8007   60.8173   63.5696 O   0  0  0  0  0  0  0  0  0  0  0  0
  -37.1908   61.7737   64.6844 P   0  0  0  0  0  0  0  0  0  0  0  0
  -36.4371   62.8318   63.9818 O   0  0  0  0  0  0  0  0  0  0  0  0
  -38.3038   62.1546   65.5762 O   0  0  0  0  0  0  0  0  0  0  0  0
  -38.9546   62.6731   65.0778 H   0  0  0  0  0  0  0  0  0  0  0  0
  -36.1626   60.9318   65.5508 O   0  0  0  0  0  0  0  0  0  0  0  0
  -35.5092   59.7793   64.9688 C   0  0  0  0  0  0  0  0  0  0  0  0
  -34.1155   60.2356   64.6011 C   0  0  0  0  0  0  0  0  0  0  0  0
  -33.2432   59.2178   63.8931 N   0  0  0  0  0  0  0  0  0  0  0  0
  -32.6452   58.2517   64.8646 C   0  0  0  0  0  0  0  0  0  0  0  0
  -32.1360   59.9211   63.1757 C   0  0  0  0  0  0  0  0  0  0  0  0
  -34.0661   58.4541   62.9037 C   0  0  0  0  0  0  0  0  0  0  0  0
 34 33  1  0  0  0
 34 35  1  0  0  0
 34 36  1  0  0  0
 34 37  1  0  0  0
 22 23  1  0  0  0
 22 25  1  0  0  0
 22 21  1  0  0  0
 23 24  1  0  0  0
 27 26  1  0  0  0
 27 28  2  0  0  0
 27 31  1  0  0  0
 27 29  1  0  0  0
 25 26  1  0  0  0
 32 33  1  0  0  0
 32 31  1  0  0  0
 29 30  1  0  0  0
 20 21  1  0  0  0
 20  2  1  0  0  0
  1  2  2  0  0  0
  2  3  1  0  0  0
  3  4  1  0  0  0
  4  5  1  0  0  0
  5  6  1  0  0  0
  6  7  1  0  0  0
  7  8  1  0  0  0
  8  9  1  0  0  0
  9 10  1  0  0  0
 10 11  2  0  0  0
 11 12  1  0  0  0
 12 13  1  0  0  0
 13 14  1  0  0  0
 14 15  1  0  0  0
 15 16  1  0  0  0
 16 17  1  0  0  0
 17 18  1  0  0  0
 18 19  1  0  0  0
M  CHG 1  28  -1
M  END
> <minimizedAffinity>
-7.82646

> <CNNscore>
0.7387084365

> <CNNaffinity>
6.5904655457

> <CNN_VS>
4.8684325218

> <CNNaffinity_variance>
0.3331030309

$$$$
/media/chris/experiments/cd1a-new-docking/inputs/ligands/4x6c_ligand.pdb


 37 36  0  0  0  0  0  0  0  0999 V2000
  -40.4549   61.8497   66.1448 O   0  0  0  0  0  0  0  0  0  0  0  0
  -40.5661   60.7116   65.8050 C   0  0  0  0  0  0  0  0  0  0  0  0
  -41.5230   59.7374   66.4102 C   0  0  0  0  0  0  0  0  0  0  0  0
  -42.2940   58.9440   65.3721 C   0  0  0  0  0  0  0  0  0  0  0  0
  -42.6233   57.5393   65.8292 C   0  0  0  0  0  0  0  0  0  0  0  0
  -43.9455   57.0107   65.3252 C   0  0  0  0  0  0  0  0  0  0  0  0
  -44.9719   58.0832   65.0635 C   0  0  0  0  0  0  0  0  0  0  0  0
  -46.3642   57.6479   65.4343 C   0  0  0  0  0  0  0  0  0  0  0  0
  -47.4745   58.4252   64.7915 C   0  0  0  0  0  0  0  0  0  0  0  0
  -48.7976   57.8111   64.9743 C   0  0  0  0  0  0  0  0  0  0  0  0
  -49.9616   58.2592   64.5585 C   0  0  0  0  0  0  0  0  0  0  0  0
  -50.2403   59.4902   63.7767 C   0  0  0  0  0  0  0  0  0  0  0  0
  -50.7653   59.2677   62.3730 C   0  0  0  0  0  0  0  0  0  0  0  0
  -50.5429   57.8625   61.8851 C   0  0  0  0  0  0  0  0  0  0  0  0
  -49.1857   57.6142   61.2785 C   0  0  0  0  0  0  0  0  0  0  0  0
  -49.2684   57.1110   59.8543 C   0  0  0  0  0  0  0  0  0  0  0  0
  -48.6616   55.7548   59.6255 C   0  0  0  0  0  0  0  0  0  0  0  0
  -47.6611   55.7412   58.5401 C   0  0  0  0  0  0  0  0  0  0  0  0
  -47.4772   57.0442   57.9041 C   0  0  0  0  0  0  0  0  0  0  0  0
  -39.8393   60.1519   64.8378 O   0  0  0  0  0  0  0  0  0  0  0  0
  -38.4295   59.9585   65.0890 C   0  0  0  0  0  0  0  0  0  0  0  0
  -37.6837   60.9260   64.1990 C   0  0  0  0  0  0  0  0  0  0  0  0
  -38.5050   61.2786   63.0858 O   0  0  0  0  0  0  0  0  0  0  0  0
  -39.2949   61.7448   63.4016 H   0  0  0  0  0  0  0  0  0  0  0  0
  -37.2290   62.1962   64.8760 C   0  0  0  0  0  0  0  0  0  0  0  0
  -36.7722   61.8701   66.2042 O   0  0  0  0  0  0  0  0  0  0  0  0
  -35.4735   62.5804   66.7857 P   0  0  0  0  0  0  0  0  0  0  0  0
  -35.3186   63.8586   66.0623 O   0  0  0  0  0  0  0  0  0  0  0  0
  -35.6175   62.5980   68.2547 O   0  0  0  0  0  0  0  0  0  0  0  0
  -36.3788   63.1475   68.4984 H   0  0  0  0  0  0  0  0  0  0  0  0
  -34.2184   61.6706   66.4483 O   0  0  0  0  0  0  0  0  0  0  0  0
  -33.9238   61.3367   65.0716 C   0  0  0  0  0  0  0  0  0  0  0  0
  -34.1570   59.8481   64.9477 C   0  0  0  0  0  0  0  0  0  0  0  0
  -33.2639   59.1099   63.9702 N   0  0  0  0  0  0  0  0  0  0  0  0
  -34.0728   58.3767   62.9489 C   0  0  0  0  0  0  0  0  0  0  0  0
  -32.4208   58.1222   64.7110 C   0  0  0  0  0  0  0  0  0  0  0  0
  -32.3761   60.0872   63.2659 C   0  0  0  0  0  0  0  0  0  0  0  0
 34 33  1  0  0  0
 34 35  1  0  0  0
 34 36  1  0  0  0
 34 37  1  0  0  0
 22 23  1  0  0  0
 22 25  1  0  0  0
 22 21  1  0  0  0
 23 24  1  0  0  0
 27 26  1  0  0  0
 27 28  2  0  0  0
 27 31  1  0  0  0
 27 29  1  0  0  0
 25 26  1  0  0  0
 32 33  1  0  0  0
 32 31  1  0  0  0
 29 30  1  0  0  0
 20 21  1  0  0  0
 20  2  1  0  0  0
  1  2  2  0  0  0
  2  3  1  0  0  0
  3  4  1  0  0  0
  4  5  1  0  0  0
  5  6  1  0  0  0
  6  7  1  0  0  0
  7  8  1  0  0  0
  8  9  1  0  0  0
  9 10  1  0  0  0
 10 11  2  0  0  0
 11 12  1  0  0  0
 12 13  1  0  0  0
 13 14  1  0  0  0
 14 15  1  0  0  0
 15 16  1  0  0  0
 16 17  1  0  0  0
 17 18  1  0  0  0
 18 19  1  0  0  0
M  CHG 1  28  -1
M  END
> <minimizedAffinity>
-7.99102

> <CNNscore>
0.7014940977

> <CNNaffinity>
6.4113183022

> <CNN_VS>
4.4975018501

> <CNNaffinity_variance>
0.4076930881

$$$$
/media/chris/experiments/cd1a-new-docking/inputs/ligands/4x6c_ligand.pdb


 37 36  0  0  0  0  0  0  0  0999 V2000
  -41.4421   60.4806   66.3563 O   0  0  0  0  0  0  0  0  0  0  0  0
  -41.5663   59.9248   65.3082 C   0  0  0  0  0  0  0  0  0  0  0  0
  -42.8408   59.3204   64.8166 C   0  0  0  0  0  0  0  0  0  0  0  0
  -43.4023   58.2755   65.7622 C   0  0  0  0  0  0  0  0  0  0  0  0
  -44.2930   57.2691   65.0664 C   0  0  0  0  0  0  0  0  0  0  0  0
  -45.7260   57.2651   65.5444 C   0  0  0  0  0  0  0  0  0  0  0  0
  -46.6215   58.2198   64.7969 C   0  0  0  0  0  0  0  0  0  0  0  0
  -46.7296   59.5577   65.4777 C   0  0  0  0  0  0  0  0  0  0  0  0
  -48.0967   60.1753   65.4707 C   0  0  0  0  0  0  0  0  0  0  0  0
  -49.1811   59.1920   65.6055 C   0  0  0  0  0  0  0  0  0  0  0  0
  -50.3718   59.2198   65.0488 C   0  0  0  0  0  0  0  0  0  0  0  0
  -50.9230   60.2397   64.1212 C   0  0  0  0  0  0  0  0  0  0  0  0
  -51.1775   59.7651   62.7050 C   0  0  0  0  0  0  0  0  0  0  0  0
  -50.5135   58.4494   62.4047 C   0  0  0  0  0  0  0  0  0  0  0  0
  -49.6649   58.4424   61.1591 C   0  0  0  0  0  0  0  0  0  0  0  0
  -50.2410   57.5675   60.0676 C   0  0  0  0  0  0  0  0  0  0  0  0
  -49.2425   57.0748   59.0578 C   0  0  0  0  0  0  0  0  0  0  0  0
  -48.5744   55.8227   59.4639 C   0  0  0  0  0  0  0  0  0  0  0  0
  -47.2679   55.6324   58.8368 C   0  0  0  0  0  0  0  0  0  0  0  0
  -40.5741   59.7611   64.4332 O   0  0  0  0  0  0  0  0  0  0  0  0
  -39.6419   58.6838   64.6748 C   0  0  0  0  0  0  0  0  0  0  0  0
  -38.5267   58.8274   63.6647 C   0  0  0  0  0  0  0  0  0  0  0  0
  -38.9274   59.7362   62.6393 O   0  0  0  0  0  0  0  0  0  0  0  0
  -39.0684   60.6156   63.0237 H   0  0  0  0  0  0  0  0  0  0  0  0
  -37.2092   59.2993   64.2305 C   0  0  0  0  0  0  0  0  0  0  0  0
  -37.4742   60.1298   65.3791 O   0  0  0  0  0  0  0  0  0  0  0  0
  -37.5816   61.7066   65.2014 P   0  0  0  0  0  0  0  0  0  0  0  0
  -37.0509   62.0283   63.8613 O   0  0  0  0  0  0  0  0  0  0  0  0
  -38.9703   62.0806   65.5341 O   0  0  0  0  0  0  0  0  0  0  0  0
  -39.5762   61.6774   64.8928 H   0  0  0  0  0  0  0  0  0  0  0  0
  -36.6404   62.3916   66.2793 O   0  0  0  0  0  0  0  0  0  0  0  0
  -35.2035   62.3237   66.1234 C   0  0  0  0  0  0  0  0  0  0  0  0
  -34.7360   63.7531   65.9678 C   0  0  0  0  0  0  0  0  0  0  0  0
  -33.7610   64.0191   64.8380 N   0  0  0  0  0  0  0  0  0  0  0  0
  -33.5928   62.8099   63.9753 C   0  0  0  0  0  0  0  0  0  0  0  0
  -32.4283   64.3908   65.4047 C   0  0  0  0  0  0  0  0  0  0  0  0
  -34.2690   65.1439   63.9918 C   0  0  0  0  0  0  0  0  0  0  0  0
 34 33  1  0  0  0
 34 35  1  0  0  0
 34 36  1  0  0  0
 34 37  1  0  0  0
 22 23  1  0  0  0
 22 25  1  0  0  0
 22 21  1  0  0  0
 23 24  1  0  0  0
 27 26  1  0  0  0
 27 28  2  0  0  0
 27 31  1  0  0  0
 27 29  1  0  0  0
 25 26  1  0  0  0
 32 33  1  0  0  0
 32 31  1  0  0  0
 29 30  1  0  0  0
 20 21  1  0  0  0
 20  2  1  0  0  0
  1  2  2  0  0  0
  2  3  1  0  0  0
  3  4  1  0  0  0
  4  5  1  0  0  0
  5  6  1  0  0  0
  6  7  1  0  0  0
  7  8  1  0  0  0
  8  9  1  0  0  0
  9 10  1  0  0  0
 10 11  2  0  0  0
 11 12  1  0  0  0
 12 13  1  0  0  0
 13 14  1  0  0  0
 14 15  1  0  0  0
 15 16  1  0  0  0
 16 17  1  0  0  0
 17 18  1  0  0  0
 18 19  1  0  0  0
M  CHG 1  28  -1
M  END
> <minimizedAffinity>
-7.91192

> <CNNscore>
0.6936907768

> <CNNaffinity>
6.3630795479

> <CNN_VS>
4.4140095711

> <CNNaffinity_variance>
0.2875964940

$$$$
