/media/chris/experiments/cd1a-new-docking/inputs/ligands/4x6c_ligand.pdb


 37 36  0  0  0  0  0  0  0  0999 V2000
  -41.9544   57.9159   66.3780 O   0  0  0  0  0  0  0  0  0  0  0  0
  -42.3574   58.5653   65.4620 C   0  0  0  0  0  0  0  0  0  0  0  0
  -43.7903   58.6471   65.0484 C   0  0  0  0  0  0  0  0  0  0  0  0
  -44.5178   57.3217   65.1730 C   0  0  0  0  0  0  0  0  0  0  0  0
  -45.9154   57.4673   65.7351 C   0  0  0  0  0  0  0  0  0  0  0  0
  -46.3117   58.8865   66.0679 C   0  0  0  0  0  0  0  0  0  0  0  0
  -47.6748   59.2756   65.5553 C   0  0  0  0  0  0  0  0  0  0  0  0
  -48.5755   58.0859   65.3589 C   0  0  0  0  0  0  0  0  0  0  0  0
  -50.0418   58.3936   65.2834 C   0  0  0  0  0  0  0  0  0  0  0  0
  -50.3262   59.7931   64.9345 C   0  0  0  0  0  0  0  0  0  0  0  0
  -50.7915   60.2648   63.7989 C   0  0  0  0  0  0  0  0  0  0  0  0
  -51.1722   59.5051   62.5814 C   0  0  0  0  0  0  0  0  0  0  0  0
  -50.0185   58.9952   61.7422 C   0  0  0  0  0  0  0  0  0  0  0  0
  -50.1699   57.5474   61.3644 C   0  0  0  0  0  0  0  0  0  0  0  0
  -50.0287   57.2632   59.8909 C   0  0  0  0  0  0  0  0  0  0  0  0
  -49.0326   56.1614   59.6039 C   0  0  0  0  0  0  0  0  0  0  0  0
  -47.7930   56.6020   58.8766 C   0  0  0  0  0  0  0  0  0  0  0  0
  -47.1148   55.5014   58.1639 C   0  0  0  0  0  0  0  0  0  0  0  0
  -47.5448   55.3582   56.7744 C   0  0  0  0  0  0  0  0  0  0  0  0
  -41.5747   59.3035   64.6751 O   0  0  0  0  0  0  0  0  0  0  0  0
  -41.7942   60.7317   64.6656 C   0  0  0  0  0  0  0  0  0  0  0  0
  -40.4519   61.3882   64.8926 C   0  0  0  0  0  0  0  0  0  0  0  0
  -40.5612   62.3421   65.9492 O   0  0  0  0  0  0  0  0  0  0  0  0
  -40.7898   61.8860   66.7742 H   0  0  0  0  0  0  0  0  0  0  0  0
  -39.3246   60.4401   65.2224 C   0  0  0  0  0  0  0  0  0  0  0  0
  -38.2481   60.6650   64.2901 O   0  0  0  0  0  0  0  0  0  0  0  0
  -37.1065   61.7139   64.6450 P   0  0  0  0  0  0  0  0  0  0  0  0
  -36.7119   62.3684   63.3812 O   0  0  0  0  0  0  0  0  0  0  0  0
  -37.6170   62.5420   65.7552 O   0  0  0  0  0  0  0  0  0  0  0  0
  -38.3878   63.0477   65.4535 H   0  0  0  0  0  0  0  0  0  0  0  0
  -35.8522   60.9133   65.1953 O   0  0  0  0  0  0  0  0  0  0  0  0
  -35.0461   61.4824   66.2538 C   0  0  0  0  0  0  0  0  0  0  0  0
  -34.1045   62.4545   65.5800 C   0  0  0  0  0  0  0  0  0  0  0  0
  -34.0638   63.8557   66.1567 N   0  0  0  0  0  0  0  0  0  0  0  0
  -34.7989   63.9251   67.4565 C   0  0  0  0  0  0  0  0  0  0  0  0
  -34.6988   64.8102   65.1971 C   0  0  0  0  0  0  0  0  0  0  0  0
  -32.6420   64.2611   66.3887 C   0  0  0  0  0  0  0  0  0  0  0  0
 34 33  1  0  0  0
 34 35  1  0  0  0
 34 36  1  0  0  0
 34 37  1  0  0  0
 22 23  1  0  0  0
 22 25  1  0  0  0
 22 21  1  0  0  0
 23 24  1  0  0  0
 27 26  1  0  0  0
 27 28  2  0  0  0
 27 31  1  0  0  0
 27 29  1  0  0  0
 25 26  1  0  0  0
 32 33  1  0  0  0
 32 31  1  0  0  0
 29 30  1  0  0  0
 20 21  1  0  0  0
 20  2  1  0  0  0
  1  2  2  0  0  0
  2  3  1  0  0  0
  3  4  1  0  0  0
  4  5  1  0  0  0
  5  6  1  0  0  0
  6  7  1  0  0  0
  7  8  1  0  0  0
  8  9  1  0  0  0
  9 10  1  0  0  0
 10 11  2  0  0  0
 11 12  1  0  0  0
 12 13  1  0  0  0
 13 14  1  0  0  0
 14 15  1  0  0  0
 15 16  1  0  0  0
 16 17  1  0  0  0
 17 18  1  0  0  0
 18 19  1  0  0  0
M  CHG 1  28  -1
M  END
> <minimizedAffinity>
-8.13373

> <CNNscore>
0.9209445119

> <CNNaffinity>
6.9073586464

> <CNN_VS>
6.3612942696

> <CNNaffinity_variance>
0.5062375665

$$$$
/media/chris/experiments/cd1a-new-docking/inputs/ligands/4x6c_ligand.pdb


 37 36  0  0  0  0  0  0  0  0999 V2000
  -40.7386   61.3429   65.4751 O   0  0  0  0  0  0  0  0  0  0  0  0
  -41.4674   60.5575   64.9506 C   0  0  0  0  0  0  0  0  0  0  0  0
  -42.0474   59.3587   65.6270 C   0  0  0  0  0  0  0  0  0  0  0  0
  -43.3521   58.9013   65.0023 C   0  0  0  0  0  0  0  0  0  0  0  0
  -43.7049   57.4724   65.3544 C   0  0  0  0  0  0  0  0  0  0  0  0
  -45.1822   57.1614   65.3033 C   0  0  0  0  0  0  0  0  0  0  0  0
  -46.0510   58.2208   65.9319 C   0  0  0  0  0  0  0  0  0  0  0  0
  -47.4966   58.0877   65.5347 C   0  0  0  0  0  0  0  0  0  0  0  0
  -48.1961   59.3742   65.2090 C   0  0  0  0  0  0  0  0  0  0  0  0
  -49.6108   59.3856   65.6083 C   0  0  0  0  0  0  0  0  0  0  0  0
  -50.6443   59.8046   64.9119 C   0  0  0  0  0  0  0  0  0  0  0  0
  -50.6544   60.3540   63.5326 C   0  0  0  0  0  0  0  0  0  0  0  0
  -51.1765   59.4191   62.4609 C   0  0  0  0  0  0  0  0  0  0  0  0
  -50.2743   58.2382   62.2298 C   0  0  0  0  0  0  0  0  0  0  0  0
  -50.4859   57.5321   60.9151 C   0  0  0  0  0  0  0  0  0  0  0  0
  -49.2789   56.7271   60.4864 C   0  0  0  0  0  0  0  0  0  0  0  0
  -49.0129   56.7236   59.0069 C   0  0  0  0  0  0  0  0  0  0  0  0
  -47.6006   56.4564   58.6707 C   0  0  0  0  0  0  0  0  0  0  0  0
  -47.1310   57.2010   57.5040 C   0  0  0  0  0  0  0  0  0  0  0  0
  -41.8573   60.6422   63.6788 O   0  0  0  0  0  0  0  0  0  0  0  0
  -41.2064   61.6267   62.8451 C   0  0  0  0  0  0  0  0  0  0  0  0
  -40.5427   60.8790   61.7117 C   0  0  0  0  0  0  0  0  0  0  0  0
  -41.0241   61.3801   60.4645 O   0  0  0  0  0  0  0  0  0  0  0  0
  -40.7686   62.3109   60.3697 H   0  0  0  0  0  0  0  0  0  0  0  0
  -39.0347   60.9438   61.7001 C   0  0  0  0  0  0  0  0  0  0  0  0
  -38.5271   59.9933   62.6580 O   0  0  0  0  0  0  0  0  0  0  0  0
  -37.7902   58.6795   62.1476 P   0  0  0  0  0  0  0  0  0  0  0  0
  -38.3032   57.5542   62.9548 O   0  0  0  0  0  0  0  0  0  0  0  0
  -37.9483   58.6433   60.6804 O   0  0  0  0  0  0  0  0  0  0  0  0
  -38.8880   58.5500   60.4587 H   0  0  0  0  0  0  0  0  0  0  0  0
  -36.2400   58.8326   62.4486 O   0  0  0  0  0  0  0  0  0  0  0  0
  -35.4323   57.6525   62.6698 C   0  0  0  0  0  0  0  0  0  0  0  0
  -34.8332   57.8134   64.0484 C   0  0  0  0  0  0  0  0  0  0  0  0
  -33.5857   58.6696   64.1402 N   0  0  0  0  0  0  0  0  0  0  0  0
  -33.0103   58.9308   62.7854 C   0  0  0  0  0  0  0  0  0  0  0  0
  -32.5576   57.9682   64.9687 C   0  0  0  0  0  0  0  0  0  0  0  0
  -33.9232   59.9807   64.7778 C   0  0  0  0  0  0  0  0  0  0  0  0
 34 33  1  0  0  0
 34 35  1  0  0  0
 34 36  1  0  0  0
 34 37  1  0  0  0
 22 23  1  0  0  0
 22 25  1  0  0  0
 22 21  1  0  0  0
 23 24  1  0  0  0
 27 26  1  0  0  0
 27 28  2  0  0  0
 27 31  1  0  0  0
 27 29  1  0  0  0
 25 26  1  0  0  0
 32 33  1  0  0  0
 32 31  1  0  0  0
 29 30  1  0  0  0
 20 21  1  0  0  0
 20  2  1  0  0  0
  1  2  2  0  0  0
  2  3  1  0  0  0
  3  4  1  0  0  0
  4  5  1  0  0  0
  5  6  1  0  0  0
  6  7  1  0  0  0
  7  8  1  0  0  0
  8  9  1  0  0  0
  9 10  1  0  0  0
 10 11  2  0  0  0
 11 12  1  0  0  0
 12 13  1  0  0  0
 13 14  1  0  0  0
 14 15  1  0  0  0
 15 16  1  0  0  0
 16 17  1  0  0  0
 17 18  1  0  0  0
 18 19  1  0  0  0
M  CHG 1  28  -1
M  END
> <minimizedAffinity>
-7.89052

> <CNNscore>
0.8516757488

> <CNNaffinity>
6.9019689560

> <CNN_VS>
5.8782396317

> <CNNaffinity_variance>
1.0756437778

$$$$
/media/chris/experiments/cd1a-new-docking/inputs/ligands/4x6c_ligand.pdb


 37 36  0  0  0  0  0  0  0  0999 V2000
  -42.7421   57.1136   65.9770 O   0  0  0  0  0  0  0  0  0  0  0  0
  -42.6062   58.2376   65.6013 C   0  0  0  0  0  0  0  0  0  0  0  0
  -43.6359   59.0053   64.8388 C   0  0  0  0  0  0  0  0  0  0  0  0
  -44.8421   58.1649   64.4641 C   0  0  0  0  0  0  0  0  0  0  0  0
  -46.0393   58.4233   65.3531 C   0  0  0  0  0  0  0  0  0  0  0  0
  -47.3505   58.5557   64.6148 C   0  0  0  0  0  0  0  0  0  0  0  0
  -48.3626   57.4979   64.9738 C   0  0  0  0  0  0  0  0  0  0  0  0
  -49.7378   58.0696   65.1917 C   0  0  0  0  0  0  0  0  0  0  0  0
  -49.8326   59.5649   65.1184 C   0  0  0  0  0  0  0  0  0  0  0  0
  -51.0022   60.0383   64.3641 C   0  0  0  0  0  0  0  0  0  0  0  0
  -51.1727   60.0511   63.0605 C   0  0  0  0  0  0  0  0  0  0  0  0
  -50.2381   59.5698   62.0121 C   0  0  0  0  0  0  0  0  0  0  0  0
  -50.4889   58.1628   61.5094 C   0  0  0  0  0  0  0  0  0  0  0  0
  -49.2254   57.4592   61.0964 C   0  0  0  0  0  0  0  0  0  0  0  0
  -49.3738   56.5454   59.9069 C   0  0  0  0  0  0  0  0  0  0  0  0
  -48.2290   56.6762   58.9267 C   0  0  0  0  0  0  0  0  0  0  0  0
  -47.6770   55.3729   58.4200 C   0  0  0  0  0  0  0  0  0  0  0  0
  -47.6385   55.2913   56.9466 C   0  0  0  0  0  0  0  0  0  0  0  0
  -47.6363   56.5986   56.2930 C   0  0  0  0  0  0  0  0  0  0  0  0
  -41.5052   58.9603   65.8068 O   0  0  0  0  0  0  0  0  0  0  0  0
  -41.6743   60.3616   66.1157 C   0  0  0  0  0  0  0  0  0  0  0  0
  -40.5502   61.1053   65.4319 C   0  0  0  0  0  0  0  0  0  0  0  0
  -40.4563   62.4247   65.9693 O   0  0  0  0  0  0  0  0  0  0  0  0
  -40.2241   62.3750   66.9097 H   0  0  0  0  0  0  0  0  0  0  0  0
  -39.1941   60.4510   65.5376 C   0  0  0  0  0  0  0  0  0  0  0  0
  -38.3734   60.9172   64.4477 O   0  0  0  0  0  0  0  0  0  0  0  0
  -36.9824   61.6236   64.7567 P   0  0  0  0  0  0  0  0  0  0  0  0
  -36.5546   62.2991   63.5150 O   0  0  0  0  0  0  0  0  0  0  0  0
  -37.1725   62.4241   65.9823 O   0  0  0  0  0  0  0  0  0  0  0  0
  -37.8198   63.1263   65.8127 H   0  0  0  0  0  0  0  0  0  0  0  0
  -35.9183   60.4960   65.0933 O   0  0  0  0  0  0  0  0  0  0  0  0
  -34.5424   60.8623   65.3516 C   0  0  0  0  0  0  0  0  0  0  0  0
  -33.7796   60.5200   64.0921 C   0  0  0  0  0  0  0  0  0  0  0  0
  -33.2190   59.1140   64.0105 N   0  0  0  0  0  0  0  0  0  0  0  0
  -33.2235   58.4532   65.3514 C   0  0  0  0  0  0  0  0  0  0  0  0
  -31.8120   59.1649   63.5077 C   0  0  0  0  0  0  0  0  0  0  0  0
  -34.0498   58.2968   63.0715 C   0  0  0  0  0  0  0  0  0  0  0  0
 34 33  1  0  0  0
 34 35  1  0  0  0
 34 36  1  0  0  0
 34 37  1  0  0  0
 22 23  1  0  0  0
 22 25  1  0  0  0
 22 21  1  0  0  0
 23 24  1  0  0  0
 27 26  1  0  0  0
 27 28  2  0  0  0
 27 31  1  0  0  0
 27 29  1  0  0  0
 25 26  1  0  0  0
 32 33  1  0  0  0
 32 31  1  0  0  0
 29 30  1  0  0  0
 20 21  1  0  0  0
 20  2  1  0  0  0
  1  2  2  0  0  0
  2  3  1  0  0  0
  3  4  1  0  0  0
  4  5  1  0  0  0
  5  6  1  0  0  0
  6  7  1  0  0  0
  7  8  1  0  0  0
  8  9  1  0  0  0
  9 10  1  0  0  0
 10 11  2  0  0  0
 11 12  1  0  0  0
 12 13  1  0  0  0
 13 14  1  0  0  0
 14 15  1  0  0  0
 15 16  1  0  0  0
 16 17  1  0  0  0
 17 18  1  0  0  0
 18 19  1  0  0  0
M  CHG 1  28  -1
M  END
> <minimizedAffinity>
-8.18862

> <CNNscore>
0.8506451249

> <CNNaffinity>
6.6579985619

> <CNN_VS>
5.6635942459

> <CNNaffinity_variance>
0.2690832019

$$$$
/media/chris/experiments/cd1a-new-docking/inputs/ligands/4x6c_ligand.pdb


 37 36  0  0  0  0  0  0  0  0999 V2000
  -42.7656   60.1778   67.2404 O   0  0  0  0  0  0  0  0  0  0  0  0
  -42.7023   59.8728   66.0889 C   0  0  0  0  0  0  0  0  0  0  0  0
  -43.8486   59.3475   65.2882 C   0  0  0  0  0  0  0  0  0  0  0  0
  -45.1007   59.1353   66.1180 C   0  0  0  0  0  0  0  0  0  0  0  0
  -46.0754   58.1706   65.4778 C   0  0  0  0  0  0  0  0  0  0  0  0
  -47.4517   58.7424   65.2313 C   0  0  0  0  0  0  0  0  0  0  0  0
  -48.4873   57.7073   64.8728 C   0  0  0  0  0  0  0  0  0  0  0  0
  -49.8919   58.1974   65.1014 C   0  0  0  0  0  0  0  0  0  0  0  0
  -50.0834   59.6807   64.9849 C   0  0  0  0  0  0  0  0  0  0  0  0
  -51.1274   60.0595   64.0218 C   0  0  0  0  0  0  0  0  0  0  0  0
  -50.9977   60.2732   62.7310 C   0  0  0  0  0  0  0  0  0  0  0  0
  -49.7680   60.1653   61.9060 C   0  0  0  0  0  0  0  0  0  0  0  0
  -49.4073   58.7659   61.4511 C   0  0  0  0  0  0  0  0  0  0  0  0
  -50.6156   57.9042   61.2078 C   0  0  0  0  0  0  0  0  0  0  0  0
  -50.4080   56.7972   60.2062 C   0  0  0  0  0  0  0  0  0  0  0  0
  -49.6280   57.2504   58.9918 C   0  0  0  0  0  0  0  0  0  0  0  0
  -48.4251   56.4111   58.6622 C   0  0  0  0  0  0  0  0  0  0  0  0
  -47.6633   56.9166   57.5032 C   0  0  0  0  0  0  0  0  0  0  0  0
  -47.0578   55.8564   56.6999 C   0  0  0  0  0  0  0  0  0  0  0  0
  -41.5888   59.9534   65.3605 O   0  0  0  0  0  0  0  0  0  0  0  0
  -41.4686   61.0651   64.4454 C   0  0  0  0  0  0  0  0  0  0  0  0
  -40.0571   61.5910   64.5694 C   0  0  0  0  0  0  0  0  0  0  0  0
  -39.7907   61.9223   65.9323 O   0  0  0  0  0  0  0  0  0  0  0  0
  -39.8362   61.1197   66.4750 H   0  0  0  0  0  0  0  0  0  0  0  0
  -38.9799   60.6489   64.0896 C   0  0  0  0  0  0  0  0  0  0  0  0
  -39.4531   59.9752   62.9059 O   0  0  0  0  0  0  0  0  0  0  0  0
  -38.7669   60.2749   61.5028 P   0  0  0  0  0  0  0  0  0  0  0  0
  -39.8460   60.6379   60.5620 O   0  0  0  0  0  0  0  0  0  0  0  0
  -37.6789   61.2397   61.7565 O   0  0  0  0  0  0  0  0  0  0  0  0
  -38.0552   62.0746   62.0763 H   0  0  0  0  0  0  0  0  0  0  0  0
  -38.0941   58.9350   60.9843 O   0  0  0  0  0  0  0  0  0  0  0  0
  -37.5355   57.9982   61.9353 C   0  0  0  0  0  0  0  0  0  0  0  0
  -36.0376   58.1952   61.8793 C   0  0  0  0  0  0  0  0  0  0  0  0
  -35.3067   58.1504   63.2065 N   0  0  0  0  0  0  0  0  0  0  0  0
  -33.8699   57.7830   63.0184 C   0  0  0  0  0  0  0  0  0  0  0  0
  -35.9472   57.1338   64.0962 C   0  0  0  0  0  0  0  0  0  0  0  0
  -35.3752   59.4939   63.8622 C   0  0  0  0  0  0  0  0  0  0  0  0
 34 33  1  0  0  0
 34 35  1  0  0  0
 34 36  1  0  0  0
 34 37  1  0  0  0
 22 23  1  0  0  0
 22 25  1  0  0  0
 22 21  1  0  0  0
 23 24  1  0  0  0
 27 26  1  0  0  0
 27 28  2  0  0  0
 27 31  1  0  0  0
 27 29  1  0  0  0
 25 26  1  0  0  0
 32 33  1  0  0  0
 32 31  1  0  0  0
 29 30  1  0  0  0
 20 21  1  0  0  0
 20  2  1  0  0  0
  1  2  2  0  0  0
  2  3  1  0  0  0
  3  4  1  0  0  0
  4  5  1  0  0  0
  5  6  1  0  0  0
  6  7  1  0  0  0
  7  8  1  0  0  0
  8  9  1  0  0  0
  9 10  1  0  0  0
 10 11  2  0  0  0
 11 12  1  0  0  0
 12 13  1  0  0  0
 13 14  1  0  0  0
 14 15  1  0  0  0
 15 16  1  0  0  0
 16 17  1  0  0  0
 17 18  1  0  0  0
 18 19  1  0  0  0
M  CHG 1  28  -1
M  END
> <minimizedAffinity>
-8.37130

> <CNNscore>
0.8144229650

> <CNNaffinity>
6.7673807144

> <CNN_VS>
5.5115103722

> <CNNaffinity_variance>
0.3794415593

$$$$
/media/chris/experiments/cd1a-new-docking/inputs/ligands/4x6c_ligand.pdb


 37 36  0  0  0  0  0  0  0  0999 V2000
  -41.8651   58.0010   66.3313 O   0  0  0  0  0  0  0  0  0  0  0  0
  -41.8301   59.1001   65.8688 C   0  0  0  0  0  0  0  0  0  0  0  0
  -42.7702   59.6097   64.8259 C   0  0  0  0  0  0  0  0  0  0  0  0
  -44.2248   59.5201   65.2472 C   0  0  0  0  0  0  0  0  0  0  0  0
  -44.9452   58.3407   64.6306 C   0  0  0  0  0  0  0  0  0  0  0  0
  -45.2108   57.2004   65.5851 C   0  0  0  0  0  0  0  0  0  0  0  0
  -46.6728   56.9745   65.8744 C   0  0  0  0  0  0  0  0  0  0  0  0
  -47.5432   58.0721   65.3239 C   0  0  0  0  0  0  0  0  0  0  0  0
  -48.5812   57.6351   64.3330 C   0  0  0  0  0  0  0  0  0  0  0  0
  -49.7967   58.4614   64.3598 C   0  0  0  0  0  0  0  0  0  0  0  0
  -50.4652   58.9499   63.3384 C   0  0  0  0  0  0  0  0  0  0  0  0
  -50.1797   58.7752   61.8919 C   0  0  0  0  0  0  0  0  0  0  0  0
  -50.8062   57.5570   61.2449 C   0  0  0  0  0  0  0  0  0  0  0  0
  -50.4567   57.4282   59.7877 C   0  0  0  0  0  0  0  0  0  0  0  0
  -48.9895   57.5781   59.4767 C   0  0  0  0  0  0  0  0  0  0  0  0
  -48.3874   56.3194   58.8922 C   0  0  0  0  0  0  0  0  0  0  0  0
  -46.9325   56.4231   58.5284 C   0  0  0  0  0  0  0  0  0  0  0  0
  -46.7111   56.7985   57.1180 C   0  0  0  0  0  0  0  0  0  0  0  0
  -47.7382   56.2858   56.2132 C   0  0  0  0  0  0  0  0  0  0  0  0
  -40.9349   60.0237   66.2185 O   0  0  0  0  0  0  0  0  0  0  0  0
  -39.6686   60.0235   65.5227 C   0  0  0  0  0  0  0  0  0  0  0  0
  -39.4449   61.4270   65.0084 C   0  0  0  0  0  0  0  0  0  0  0  0
  -40.1089   62.3584   65.8627 O   0  0  0  0  0  0  0  0  0  0  0  0
  -39.7157   62.3218   66.7486 H   0  0  0  0  0  0  0  0  0  0  0  0
  -37.9982   61.8401   64.8876 C   0  0  0  0  0  0  0  0  0  0  0  0
  -37.3012   61.4246   66.0794 O   0  0  0  0  0  0  0  0  0  0  0  0
  -35.8954   62.0772   66.4363 P   0  0  0  0  0  0  0  0  0  0  0  0
  -35.7768   63.3136   65.6374 O   0  0  0  0  0  0  0  0  0  0  0  0
  -35.8251   62.1624   67.9083 O   0  0  0  0  0  0  0  0  0  0  0  0
  -36.5122   62.7665   68.2304 H   0  0  0  0  0  0  0  0  0  0  0  0
  -34.7535   61.0798   65.9692 O   0  0  0  0  0  0  0  0  0  0  0  0
  -34.6723   60.6825   64.5801 C   0  0  0  0  0  0  0  0  0  0  0  0
  -34.5530   59.1754   64.5870 C   0  0  0  0  0  0  0  0  0  0  0  0
  -35.7103   58.4098   63.9769 N   0  0  0  0  0  0  0  0  0  0  0  0
  -36.4751   59.2634   63.0172 C   0  0  0  0  0  0  0  0  0  0  0  0
  -36.6378   57.9590   65.0594 C   0  0  0  0  0  0  0  0  0  0  0  0
  -35.1891   57.2139   63.2435 C   0  0  0  0  0  0  0  0  0  0  0  0
 34 33  1  0  0  0
 34 35  1  0  0  0
 34 36  1  0  0  0
 34 37  1  0  0  0
 22 23  1  0  0  0
 22 25  1  0  0  0
 22 21  1  0  0  0
 23 24  1  0  0  0
 27 26  1  0  0  0
 27 28  2  0  0  0
 27 31  1  0  0  0
 27 29  1  0  0  0
 25 26  1  0  0  0
 32 33  1  0  0  0
 32 31  1  0  0  0
 29 30  1  0  0  0
 20 21  1  0  0  0
 20  2  1  0  0  0
  1  2  2  0  0  0
  2  3  1  0  0  0
  3  4  1  0  0  0
  4  5  1  0  0  0
  5  6  1  0  0  0
  6  7  1  0  0  0
  7  8  1  0  0  0
  8  9  1  0  0  0
  9 10  1  0  0  0
 10 11  2  0  0  0
 11 12  1  0  0  0
 12 13  1  0  0  0
 13 14  1  0  0  0
 14 15  1  0  0  0
 15 16  1  0  0  0
 16 17  1  0  0  0
 17 18  1  0  0  0
 18 19  1  0  0  0
M  CHG 1  28  -1
M  END
> <minimizedAffinity>
-8.28400

> <CNNscore>
0.7473209500

> <CNNaffinity>
6.7427201271

> <CNN_VS>
5.0389761925

> <CNNaffinity_variance>
0.3939035535

$$$$
/media/chris/experiments/cd1a-new-docking/inputs/ligands/4x6c_ligand.pdb


 37 36  0  0  0  0  0  0  0  0999 V2000
  -42.3176   57.6120   65.6117 O   0  0  0  0  0  0  0  0  0  0  0  0
  -42.5515   58.7184   65.9915 C   0  0  0  0  0  0  0  0  0  0  0  0
  -43.9024   59.3550   65.9629 C   0  0  0  0  0  0  0  0  0  0  0  0
  -44.7865   58.8153   64.8546 C   0  0  0  0  0  0  0  0  0  0  0  0
  -45.7898   57.7942   65.3457 C   0  0  0  0  0  0  0  0  0  0  0  0
  -47.1578   58.3571   65.6513 C   0  0  0  0  0  0  0  0  0  0  0  0
  -48.2248   57.9316   64.6752 C   0  0  0  0  0  0  0  0  0  0  0  0
  -49.6121   58.2410   65.1702 C   0  0  0  0  0  0  0  0  0  0  0  0
  -49.9743   59.6963   65.2035 C   0  0  0  0  0  0  0  0  0  0  0  0
  -51.0507   60.0504   64.2670 C   0  0  0  0  0  0  0  0  0  0  0  0
  -50.9540   60.2941   62.9786 C   0  0  0  0  0  0  0  0  0  0  0  0
  -49.7366   60.2529   62.1298 C   0  0  0  0  0  0  0  0  0  0  0  0
  -49.7524   59.2278   61.0143 C   0  0  0  0  0  0  0  0  0  0  0  0
  -50.4882   57.9711   61.3902 C   0  0  0  0  0  0  0  0  0  0  0  0
  -50.5265   56.9179   60.3127 C   0  0  0  0  0  0  0  0  0  0  0  0
  -49.3394   56.9982   59.3784 C   0  0  0  0  0  0  0  0  0  0  0  0
  -48.3514   55.8731   59.5116 C   0  0  0  0  0  0  0  0  0  0  0  0
  -47.3044   55.8924   58.4710 C   0  0  0  0  0  0  0  0  0  0  0  0
  -47.2755   57.1339   57.7001 C   0  0  0  0  0  0  0  0  0  0  0  0
  -41.6291   59.5424   66.4884 O   0  0  0  0  0  0  0  0  0  0  0  0
  -41.5753   60.8841   65.9546 C   0  0  0  0  0  0  0  0  0  0  0  0
  -41.1561   60.7690   64.5070 C   0  0  0  0  0  0  0  0  0  0  0  0
  -41.6374   61.9000   63.7808 O   0  0  0  0  0  0  0  0  0  0  0  0
  -41.2232   62.7062   64.1261 H   0  0  0  0  0  0  0  0  0  0  0  0
  -39.6682   60.6559   64.2799 C   0  0  0  0  0  0  0  0  0  0  0  0
  -38.9869   61.3294   65.3574 O   0  0  0  0  0  0  0  0  0  0  0  0
  -37.4025   61.2406   65.4636 P   0  0  0  0  0  0  0  0  0  0  0  0
  -37.0747   61.0441   66.8902 O   0  0  0  0  0  0  0  0  0  0  0  0
  -36.9640   60.2319   64.4791 O   0  0  0  0  0  0  0  0  0  0  0  0
  -37.3175   59.3633   64.7268 H   0  0  0  0  0  0  0  0  0  0  0  0
  -36.7968   62.6345   65.0085 O   0  0  0  0  0  0  0  0  0  0  0  0
  -35.7757   62.6727   63.9840 C   0  0  0  0  0  0  0  0  0  0  0  0
  -34.4537   62.6072   64.7145 C   0  0  0  0  0  0  0  0  0  0  0  0
  -33.8964   63.9272   65.2092 N   0  0  0  0  0  0  0  0  0  0  0  0
  -34.0517   64.0567   66.6903 C   0  0  0  0  0  0  0  0  0  0  0  0
  -34.6248   65.0554   64.5520 C   0  0  0  0  0  0  0  0  0  0  0  0
  -32.4413   64.0153   64.8710 C   0  0  0  0  0  0  0  0  0  0  0  0
 34 33  1  0  0  0
 34 35  1  0  0  0
 34 36  1  0  0  0
 34 37  1  0  0  0
 22 23  1  0  0  0
 22 25  1  0  0  0
 22 21  1  0  0  0
 23 24  1  0  0  0
 27 26  1  0  0  0
 27 28  2  0  0  0
 27 31  1  0  0  0
 27 29  1  0  0  0
 25 26  1  0  0  0
 32 33  1  0  0  0
 32 31  1  0  0  0
 29 30  1  0  0  0
 20 21  1  0  0  0
 20  2  1  0  0  0
  1  2  2  0  0  0
  2  3  1  0  0  0
  3  4  1  0  0  0
  4  5  1  0  0  0
  5  6  1  0  0  0
  6  7  1  0  0  0
  7  8  1  0  0  0
  8  9  1  0  0  0
  9 10  1  0  0  0
 10 11  2  0  0  0
 11 12  1  0  0  0
 12 13  1  0  0  0
 13 14  1  0  0  0
 14 15  1  0  0  0
 15 16  1  0  0  0
 16 17  1  0  0  0
 17 18  1  0  0  0
 18 19  1  0  0  0
M  CHG 1  28  -1
M  END
> <minimizedAffinity>
-7.84369

> <CNNscore>
0.7383990884

> <CNNaffinity>
6.4282312393

> <CNN_VS>
4.7466001511

> <CNNaffinity_variance>
0.4404691160

$$$$
/media/chris/experiments/cd1a-new-docking/inputs/ligands/4x6c_ligand.pdb


 37 36  0  0  0  0  0  0  0  0999 V2000
  -40.7282   58.5403   65.0700 O   0  0  0  0  0  0  0  0  0  0  0  0
  -41.0991   59.6649   64.9260 C   0  0  0  0  0  0  0  0  0  0  0  0
  -42.2880   60.2578   65.6086 C   0  0  0  0  0  0  0  0  0  0  0  0
  -43.3640   59.2338   65.9169 C   0  0  0  0  0  0  0  0  0  0  0  0
  -44.6775   59.5336   65.2276 C   0  0  0  0  0  0  0  0  0  0  0  0
  -45.9009   59.0688   65.9819 C   0  0  0  0  0  0  0  0  0  0  0  0
  -47.1463   58.9909   65.1361 C   0  0  0  0  0  0  0  0  0  0  0  0
  -47.6183   60.3463   64.6830 C   0  0  0  0  0  0  0  0  0  0  0  0
  -49.0332   60.4032   64.1879 C   0  0  0  0  0  0  0  0  0  0  0  0
  -49.1344   60.5990   62.7344 C   0  0  0  0  0  0  0  0  0  0  0  0
  -49.8817   59.9364   61.8793 C   0  0  0  0  0  0  0  0  0  0  0  0
  -50.8346   58.8334   62.1618 C   0  0  0  0  0  0  0  0  0  0  0  0
  -50.7551   57.6455   61.2249 C   0  0  0  0  0  0  0  0  0  0  0  0
  -49.3542   57.3715   60.7512 C   0  0  0  0  0  0  0  0  0  0  0  0
  -49.1113   55.9577   60.2886 C   0  0  0  0  0  0  0  0  0  0  0  0
  -48.2277   55.8906   59.0624 C   0  0  0  0  0  0  0  0  0  0  0  0
  -48.1368   57.1689   58.2766 C   0  0  0  0  0  0  0  0  0  0  0  0
  -47.0231   57.1779   57.3077 C   0  0  0  0  0  0  0  0  0  0  0  0
  -46.9360   55.9545   56.5127 C   0  0  0  0  0  0  0  0  0  0  0  0
  -40.5014   60.5460   64.1240 O   0  0  0  0  0  0  0  0  0  0  0  0
  -39.6494   61.5378   64.7389 C   0  0  0  0  0  0  0  0  0  0  0  0
  -38.2344   61.0113   64.6699 C   0  0  0  0  0  0  0  0  0  0  0  0
  -37.5071   61.7306   63.6738 O   0  0  0  0  0  0  0  0  0  0  0  0
  -37.4434   62.6637   63.9306 H   0  0  0  0  0  0  0  0  0  0  0  0
  -37.4629   61.0810   65.9653 C   0  0  0  0  0  0  0  0  0  0  0  0
  -36.9372   62.4152   66.1153 O   0  0  0  0  0  0  0  0  0  0  0  0
  -35.4724   62.6225   66.6989 P   0  0  0  0  0  0  0  0  0  0  0  0
  -34.9685   63.9017   66.1595 O   0  0  0  0  0  0  0  0  0  0  0  0
  -35.5659   62.4454   68.1614 O   0  0  0  0  0  0  0  0  0  0  0  0
  -36.1258   63.1431   68.5364 H   0  0  0  0  0  0  0  0  0  0  0  0
  -34.5488   61.4582   66.1436 O   0  0  0  0  0  0  0  0  0  0  0  0
  -34.1541   61.4578   64.7515 C   0  0  0  0  0  0  0  0  0  0  0  0
  -34.5500   60.1032   64.2094 C   0  0  0  0  0  0  0  0  0  0  0  0
  -33.4127   59.1783   63.8236 N   0  0  0  0  0  0  0  0  0  0  0  0
  -33.8577   58.1683   62.8153 C   0  0  0  0  0  0  0  0  0  0  0  0
  -32.9209   58.4570   65.0373 C   0  0  0  0  0  0  0  0  0  0  0  0
  -32.2926   59.9787   63.2370 C   0  0  0  0  0  0  0  0  0  0  0  0
 34 33  1  0  0  0
 34 35  1  0  0  0
 34 36  1  0  0  0
 34 37  1  0  0  0
 22 23  1  0  0  0
 22 25  1  0  0  0
 22 21  1  0  0  0
 23 24  1  0  0  0
 27 26  1  0  0  0
 27 28  2  0  0  0
 27 31  1  0  0  0
 27 29  1  0  0  0
 25 26  1  0  0  0
 32 33  1  0  0  0
 32 31  1  0  0  0
 29 30  1  0  0  0
 20 21  1  0  0  0
 20  2  1  0  0  0
  1  2  2  0  0  0
  2  3  1  0  0  0
  3  4  1  0  0  0
  4  5  1  0  0  0
  5  6  1  0  0  0
  6  7  1  0  0  0
  7  8  1  0  0  0
  8  9  1  0  0  0
  9 10  1  0  0  0
 10 11  2  0  0  0
 11 12  1  0  0  0
 12 13  1  0  0  0
 13 14  1  0  0  0
 14 15  1  0  0  0
 15 16  1  0  0  0
 16 17  1  0  0  0
 17 18  1  0  0  0
 18 19  1  0  0  0
M  CHG 1  28  -1
M  END
> <minimizedAffinity>
-7.93636

> <CNNscore>
0.7258048058

> <CNNaffinity>
6.4346122742

> <CNN_VS>
4.6702723503

> <CNNaffinity_variance>
0.3926270604

$$$$
/media/chris/experiments/cd1a-new-docking/inputs/ligands/4x6c_ligand.pdb


 37 36  0  0  0  0  0  0  0  0999 V2000
  -41.1085   61.1921   65.3247 O   0  0  0  0  0  0  0  0  0  0  0  0
  -41.8226   60.4678   64.7014 C   0  0  0  0  0  0  0  0  0  0  0  0
  -42.5128   59.2693   65.2654 C   0  0  0  0  0  0  0  0  0  0  0  0
  -43.9240   59.0966   64.7361 C   0  0  0  0  0  0  0  0  0  0  0  0
  -44.6783   57.9788   65.4231 C   0  0  0  0  0  0  0  0  0  0  0  0
  -46.0268   58.3793   65.9737 C   0  0  0  0  0  0  0  0  0  0  0  0
  -46.6697   59.5273   65.2382 C   0  0  0  0  0  0  0  0  0  0  0  0
  -48.1431   59.3142   65.0170 C   0  0  0  0  0  0  0  0  0  0  0  0
  -48.8300   60.3659   64.1970 C   0  0  0  0  0  0  0  0  0  0  0  0
  -50.2923   60.2180   64.1662 C   0  0  0  0  0  0  0  0  0  0  0  0
  -51.0399   59.7774   63.1785 C   0  0  0  0  0  0  0  0  0  0  0  0
  -50.6003   59.2932   61.8455 C   0  0  0  0  0  0  0  0  0  0  0  0
  -50.3169   57.8079   61.7510 C   0  0  0  0  0  0  0  0  0  0  0  0
  -49.2025   57.4886   60.7928 C   0  0  0  0  0  0  0  0  0  0  0  0
  -49.1718   56.0589   60.3168 C   0  0  0  0  0  0  0  0  0  0  0  0
  -48.6590   55.9286   58.8995 C   0  0  0  0  0  0  0  0  0  0  0  0
  -47.4709   56.7902   58.5742 C   0  0  0  0  0  0  0  0  0  0  0  0
  -47.2049   56.8908   57.1257 C   0  0  0  0  0  0  0  0  0  0  0  0
  -47.2168   55.5988   56.4425 C   0  0  0  0  0  0  0  0  0  0  0  0
  -42.0948   60.6290   63.4066 O   0  0  0  0  0  0  0  0  0  0  0  0
  -41.2856   61.5698   62.6663 C   0  0  0  0  0  0  0  0  0  0  0  0
  -40.6690   60.8127   61.5126 C   0  0  0  0  0  0  0  0  0  0  0  0
  -40.9284   61.5091   60.2935 O   0  0  0  0  0  0  0  0  0  0  0  0
  -40.4958   62.3769   60.3185 H   0  0  0  0  0  0  0  0  0  0  0  0
  -39.1812   60.5827   61.6217 C   0  0  0  0  0  0  0  0  0  0  0  0
  -38.9516   59.4873   62.5306 O   0  0  0  0  0  0  0  0  0  0  0  0
  -37.6304   58.6130   62.3908 P   0  0  0  0  0  0  0  0  0  0  0  0
  -38.0290   57.1990   62.5426 O   0  0  0  0  0  0  0  0  0  0  0  0
  -36.9632   59.0427   61.1461 O   0  0  0  0  0  0  0  0  0  0  0  0
  -37.5288   58.8319   60.3868 H   0  0  0  0  0  0  0  0  0  0  0  0
  -36.6630   58.9818   63.5929 O   0  0  0  0  0  0  0  0  0  0  0  0
  -36.5418   60.3592   64.0194 C   0  0  0  0  0  0  0  0  0  0  0  0
  -35.1367   60.5035   64.5582 C   0  0  0  0  0  0  0  0  0  0  0  0
  -34.7215   61.8992   64.9795 N   0  0  0  0  0  0  0  0  0  0  0  0
  -34.3179   61.9302   66.4185 C   0  0  0  0  0  0  0  0  0  0  0  0
  -35.8654   62.8418   64.7837 C   0  0  0  0  0  0  0  0  0  0  0  0
  -33.5622   62.3500   64.1475 C   0  0  0  0  0  0  0  0  0  0  0  0
 34 33  1  0  0  0
 34 35  1  0  0  0
 34 36  1  0  0  0
 34 37  1  0  0  0
 22 23  1  0  0  0
 22 25  1  0  0  0
 22 21  1  0  0  0
 23 24  1  0  0  0
 27 26  1  0  0  0
 27 28  2  0  0  0
 27 31  1  0  0  0
 27 29  1  0  0  0
 25 26  1  0  0  0
 32 33  1  0  0  0
 32 31  1  0  0  0
 29 30  1  0  0  0
 20 21  1  0  0  0
 20  2  1  0  0  0
  1  2  2  0  0  0
  2  3  1  0  0  0
  3  4  1  0  0  0
  4  5  1  0  0  0
  5  6  1  0  0  0
  6  7  1  0  0  0
  7  8  1  0  0  0
  8  9  1  0  0  0
  9 10  1  0  0  0
 10 11  2  0  0  0
 11 12  1  0  0  0
 12 13  1  0  0  0
 13 14  1  0  0  0
 14 15  1  0  0  0
 15 16  1  0  0  0
 16 17  1  0  0  0
 17 18  1  0  0  0
 18 19  1  0  0  0
M  CHG 1  28  -1
M  END
> <minimizedAffinity>
-7.78493

> <CNNscore>
0.6874482036

> <CNNaffinity>
6.7139053345

> <CNN_VS>
4.6154623032

> <CNNaffinity_variance>
0.7478987575

$$$$
/media/chris/experiments/cd1a-new-docking/inputs/ligands/4x6c_ligand.pdb


 37 36  0  0  0  0  0  0  0  0999 V2000
  -41.7834   60.0878   66.0390 O   0  0  0  0  0  0  0  0  0  0  0  0
  -42.4185   60.0419   65.0302 C   0  0  0  0  0  0  0  0  0  0  0  0
  -43.8696   59.6951   64.9588 C   0  0  0  0  0  0  0  0  0  0  0  0
  -44.1286   58.2065   65.0951 C   0  0  0  0  0  0  0  0  0  0  0  0
  -45.2642   57.8907   66.0444 C   0  0  0  0  0  0  0  0  0  0  0  0
  -46.5144   57.3712   65.3744 C   0  0  0  0  0  0  0  0  0  0  0  0
  -47.5441   58.4359   65.0943 C   0  0  0  0  0  0  0  0  0  0  0  0
  -48.7519   57.8924   64.3794 C   0  0  0  0  0  0  0  0  0  0  0  0
  -50.0613   58.0930   65.0834 C   0  0  0  0  0  0  0  0  0  0  0  0
  -50.4699   59.5028   65.1636 C   0  0  0  0  0  0  0  0  0  0  0  0
  -50.9013   60.2762   64.1918 C   0  0  0  0  0  0  0  0  0  0  0  0
  -51.1098   59.9209   62.7654 C   0  0  0  0  0  0  0  0  0  0  0  0
  -49.9545   60.2371   61.8378 C   0  0  0  0  0  0  0  0  0  0  0  0
  -49.8012   59.2263   60.7347 C   0  0  0  0  0  0  0  0  0  0  0  0
  -50.4215   57.8828   61.0213 C   0  0  0  0  0  0  0  0  0  0  0  0
  -49.6097   56.7359   60.4608 C   0  0  0  0  0  0  0  0  0  0  0  0
  -49.1427   56.9233   59.0443 C   0  0  0  0  0  0  0  0  0  0  0  0
  -47.7181   56.5876   58.8525 C   0  0  0  0  0  0  0  0  0  0  0  0
  -47.1796   57.0516   57.5754 C   0  0  0  0  0  0  0  0  0  0  0  0
  -41.9110   60.2883   63.8225 O   0  0  0  0  0  0  0  0  0  0  0  0
  -41.3071   61.5825   63.6033 C   0  0  0  0  0  0  0  0  0  0  0  0
  -39.8092   61.3876   63.6559 C   0  0  0  0  0  0  0  0  0  0  0  0
  -39.3229   61.7805   64.9394 O   0  0  0  0  0  0  0  0  0  0  0  0
  -39.7018   61.2022   65.6197 H   0  0  0  0  0  0  0  0  0  0  0  0
  -39.3379   59.9806   63.3790 C   0  0  0  0  0  0  0  0  0  0  0  0
  -38.8061   59.9299   62.0398 O   0  0  0  0  0  0  0  0  0  0  0  0
  -37.7349   58.8173   61.6605 P   0  0  0  0  0  0  0  0  0  0  0  0
  -38.1134   57.5872   62.3849 O   0  0  0  0  0  0  0  0  0  0  0  0
  -37.6525   58.7879   60.1870 O   0  0  0  0  0  0  0  0  0  0  0  0
  -38.5044   58.5028   59.8212 H   0  0  0  0  0  0  0  0  0  0  0  0
  -36.3193   59.2884   62.2002 O   0  0  0  0  0  0  0  0  0  0  0  0
  -35.8650   58.8481   63.5016 C   0  0  0  0  0  0  0  0  0  0  0  0
  -34.5452   58.1498   63.2648 C   0  0  0  0  0  0  0  0  0  0  0  0
  -33.3020   58.9078   63.6863 N   0  0  0  0  0  0  0  0  0  0  0  0
  -33.6359   60.3067   64.0939 C   0  0  0  0  0  0  0  0  0  0  0  0
  -32.3372   58.9600   62.5453 C   0  0  0  0  0  0  0  0  0  0  0  0
  -32.6594   58.2121   64.8450 C   0  0  0  0  0  0  0  0  0  0  0  0
 34 33  1  0  0  0
 34 35  1  0  0  0
 34 36  1  0  0  0
 34 37  1  0  0  0
 22 23  1  0  0  0
 22 25  1  0  0  0
 22 21  1  0  0  0
 23 24  1  0  0  0
 27 26  1  0  0  0
 27 28  2  0  0  0
 27 31  1  0  0  0
 27 29  1  0  0  0
 25 26  1  0  0  0
 32 33  1  0  0  0
 32 31  1  0  0  0
 29 30  1  0  0  0
 20 21  1  0  0  0
 20  2  1  0  0  0
  1  2  2  0  0  0
  2  3  1  0  0  0
  3  4  1  0  0  0
  4  5  1  0  0  0
  5  6  1  0  0  0
  6  7  1  0  0  0
  7  8  1  0  0  0
  8  9  1  0  0  0
  9 10  1  0  0  0
 10 11  2  0  0  0
 11 12  1  0  0  0
 12 13  1  0  0  0
 13 14  1  0  0  0
 14 15  1  0  0  0
 15 16  1  0  0  0
 16 17  1  0  0  0
 17 18  1  0  0  0
 18 19  1  0  0  0
M  CHG 1  28  -1
M  END
> <minimizedAffinity>
-7.98240

> <CNNscore>
0.6766442657

> <CNNaffinity>
6.5358939171

> <CNN_VS>
4.4224753380

> <CNNaffinity_variance>
0.4991418421

$$$$
