/media/chris/experiments/cd1a-new-docking/inputs/ligands/4x6c_ligand.pdb


 37 36  0  0  0  0  0  0  0  0999 V2000
  -42.2829   57.9129   66.2647 O   0  0  0  0  0  0  0  0  0  0  0  0
  -42.8147   58.6583   65.5001 C   0  0  0  0  0  0  0  0  0  0  0  0
  -44.2162   58.5062   65.0062 C   0  0  0  0  0  0  0  0  0  0  0  0
  -44.7963   57.1331   65.2884 C   0  0  0  0  0  0  0  0  0  0  0  0
  -46.2527   57.1815   65.6969 C   0  0  0  0  0  0  0  0  0  0  0  0
  -47.0507   58.2839   65.0413 C   0  0  0  0  0  0  0  0  0  0  0  0
  -48.3045   57.8047   64.3553 C   0  0  0  0  0  0  0  0  0  0  0  0
  -49.5530   58.2154   65.0889 C   0  0  0  0  0  0  0  0  0  0  0  0
  -49.9321   59.6607   64.9559 C   0  0  0  0  0  0  0  0  0  0  0  0
  -51.0182   59.8919   63.9925 C   0  0  0  0  0  0  0  0  0  0  0  0
  -50.9184   60.1363   62.7045 C   0  0  0  0  0  0  0  0  0  0  0  0
  -49.6841   60.2199   61.8834 C   0  0  0  0  0  0  0  0  0  0  0  0
  -49.6474   59.3190   60.6658 C   0  0  0  0  0  0  0  0  0  0  0  0
  -49.7331   57.8598   61.0196 C   0  0  0  0  0  0  0  0  0  0  0  0
  -50.1168   56.9562   59.8759 C   0  0  0  0  0  0  0  0  0  0  0  0
  -49.2607   57.1767   58.6482 C   0  0  0  0  0  0  0  0  0  0  0  0
  -47.8632   56.6310   58.7443 C   0  0  0  0  0  0  0  0  0  0  0  0
  -47.0803   56.8163   57.5066 C   0  0  0  0  0  0  0  0  0  0  0  0
  -47.7880   56.3858   56.3023 C   0  0  0  0  0  0  0  0  0  0  0  0
  -42.2210   59.7298   64.9747 O   0  0  0  0  0  0  0  0  0  0  0  0
  -41.5849   60.6543   65.8851 C   0  0  0  0  0  0  0  0  0  0  0  0
  -40.3454   61.1747   65.1943 C   0  0  0  0  0  0  0  0  0  0  0  0
  -39.8123   62.2719   65.9359 O   0  0  0  0  0  0  0  0  0  0  0  0
  -39.5328   61.9643   66.8125 H   0  0  0  0  0  0  0  0  0  0  0  0
  -39.2489   60.1563   64.9970 C   0  0  0  0  0  0  0  0  0  0  0  0
  -38.6444   60.3772   63.7067 O   0  0  0  0  0  0  0  0  0  0  0  0
  -37.8336   59.2018   63.0065 P   0  0  0  0  0  0  0  0  0  0  0  0
  -38.6278   57.9680   63.1749 O   0  0  0  0  0  0  0  0  0  0  0  0
  -37.5022   59.6636   61.6442 O   0  0  0  0  0  0  0  0  0  0  0  0
  -38.3198   59.7899   61.1377 H   0  0  0  0  0  0  0  0  0  0  0  0
  -36.4636   59.0133   63.7841 O   0  0  0  0  0  0  0  0  0  0  0  0
  -35.7090   57.7895   63.6213 C   0  0  0  0  0  0  0  0  0  0  0  0
  -34.4313   58.1820   62.9146 C   0  0  0  0  0  0  0  0  0  0  0  0
  -33.2798   58.6100   63.8027 N   0  0  0  0  0  0  0  0  0  0  0  0
  -33.4750   58.1326   65.2059 C   0  0  0  0  0  0  0  0  0  0  0  0
  -33.1852   60.1021   63.8145 C   0  0  0  0  0  0  0  0  0  0  0  0
  -32.0011   58.0381   63.2761 C   0  0  0  0  0  0  0  0  0  0  0  0
 34 33  1  0  0  0
 34 35  1  0  0  0
 34 36  1  0  0  0
 34 37  1  0  0  0
 22 23  1  0  0  0
 22 25  1  0  0  0
 22 21  1  0  0  0
 23 24  1  0  0  0
 27 26  1  0  0  0
 27 28  2  0  0  0
 27 31  1  0  0  0
 27 29  1  0  0  0
 25 26  1  0  0  0
 32 33  1  0  0  0
 32 31  1  0  0  0
 29 30  1  0  0  0
 20 21  1  0  0  0
 20  2  1  0  0  0
  1  2  2  0  0  0
  2  3  1  0  0  0
  3  4  1  0  0  0
  4  5  1  0  0  0
  5  6  1  0  0  0
  6  7  1  0  0  0
  7  8  1  0  0  0
  8  9  1  0  0  0
  9 10  1  0  0  0
 10 11  2  0  0  0
 11 12  1  0  0  0
 12 13  1  0  0  0
 13 14  1  0  0  0
 14 15  1  0  0  0
 15 16  1  0  0  0
 16 17  1  0  0  0
 17 18  1  0  0  0
 18 19  1  0  0  0
M  CHG 1  28  -1
M  END
> <minimizedAffinity>
-7.98840

> <CNNscore>
0.8794586062

> <CNNaffinity>
6.7902450562

> <CNN_VS>
5.9717392921

> <CNNaffinity_variance>
0.5850556493

$$$$
/media/chris/experiments/cd1a-new-docking/inputs/ligands/4x6c_ligand.pdb


 37 36  0  0  0  0  0  0  0  0999 V2000
  -40.7196   60.9889   65.7316 O   0  0  0  0  0  0  0  0  0  0  0  0
  -41.3842   60.2366   65.0871 C   0  0  0  0  0  0  0  0  0  0  0  0
  -42.3436   59.2479   65.6642 C   0  0  0  0  0  0  0  0  0  0  0  0
  -43.7902   59.5696   65.3398 C   0  0  0  0  0  0  0  0  0  0  0  0
  -44.5303   58.4009   64.7258 C   0  0  0  0  0  0  0  0  0  0  0  0
  -45.7814   57.9928   65.4673 C   0  0  0  0  0  0  0  0  0  0  0  0
  -47.0242   58.7131   65.0102 C   0  0  0  0  0  0  0  0  0  0  0  0
  -48.1431   57.7664   64.6674 C   0  0  0  0  0  0  0  0  0  0  0  0
  -49.5005   58.1669   65.1647 C   0  0  0  0  0  0  0  0  0  0  0  0
  -49.7537   59.6118   65.0677 C   0  0  0  0  0  0  0  0  0  0  0  0
  -50.4486   60.2514   64.1530 C   0  0  0  0  0  0  0  0  0  0  0  0
  -51.1773   59.6788   62.9929 C   0  0  0  0  0  0  0  0  0  0  0  0
  -50.3367   59.4109   61.7613 C   0  0  0  0  0  0  0  0  0  0  0  0
  -50.0659   57.9467   61.5495 C   0  0  0  0  0  0  0  0  0  0  0  0
  -50.7597   57.3446   60.3545 C   0  0  0  0  0  0  0  0  0  0  0  0
  -49.8360   57.1799   59.1678 C   0  0  0  0  0  0  0  0  0  0  0  0
  -48.4574   56.6827   59.5026 C   0  0  0  0  0  0  0  0  0  0  0  0
  -47.4917   56.8597   58.4001 C   0  0  0  0  0  0  0  0  0  0  0  0
  -48.0143   56.4466   57.0991 C   0  0  0  0  0  0  0  0  0  0  0  0
  -41.3523   60.1727   63.7561 O   0  0  0  0  0  0  0  0  0  0  0  0
  -40.7067   61.2561   63.0509 C   0  0  0  0  0  0  0  0  0  0  0  0
  -39.6012   60.6473   62.2193 C   0  0  0  0  0  0  0  0  0  0  0  0
  -39.8766   60.8571   60.8343 O   0  0  0  0  0  0  0  0  0  0  0  0
  -39.8744   61.8085   60.6447 H   0  0  0  0  0  0  0  0  0  0  0  0
  -38.2170   61.1724   62.5139 C   0  0  0  0  0  0  0  0  0  0  0  0
  -37.9484   60.9944   63.9193 O   0  0  0  0  0  0  0  0  0  0  0  0
  -36.8843   61.9303   64.6412 P   0  0  0  0  0  0  0  0  0  0  0  0
  -36.3582   62.8568   63.6184 O   0  0  0  0  0  0  0  0  0  0  0  0
  -37.5447   62.4826   65.8403 O   0  0  0  0  0  0  0  0  0  0  0  0
  -38.2865   63.0463   65.5703 H   0  0  0  0  0  0  0  0  0  0  0  0
  -35.6849   61.0212   65.1431 O   0  0  0  0  0  0  0  0  0  0  0  0
  -35.7335   59.5902   64.9343 C   0  0  0  0  0  0  0  0  0  0  0  0
  -34.8059   59.3095   63.7738 C   0  0  0  0  0  0  0  0  0  0  0  0
  -35.0341   58.0057   63.0351 N   0  0  0  0  0  0  0  0  0  0  0  0
  -35.5084   56.9353   63.9647 C   0  0  0  0  0  0  0  0  0  0  0  0
  -33.7547   57.5579   62.4041 C   0  0  0  0  0  0  0  0  0  0  0  0
  -36.0661   58.2066   61.9702 C   0  0  0  0  0  0  0  0  0  0  0  0
 34 33  1  0  0  0
 34 35  1  0  0  0
 34 36  1  0  0  0
 34 37  1  0  0  0
 22 23  1  0  0  0
 22 25  1  0  0  0
 22 21  1  0  0  0
 23 24  1  0  0  0
 27 26  1  0  0  0
 27 28  2  0  0  0
 27 31  1  0  0  0
 27 29  1  0  0  0
 25 26  1  0  0  0
 32 33  1  0  0  0
 32 31  1  0  0  0
 29 30  1  0  0  0
 20 21  1  0  0  0
 20  2  1  0  0  0
  1  2  2  0  0  0
  2  3  1  0  0  0
  3  4  1  0  0  0
  4  5  1  0  0  0
  5  6  1  0  0  0
  6  7  1  0  0  0
  7  8  1  0  0  0
  8  9  1  0  0  0
  9 10  1  0  0  0
 10 11  2  0  0  0
 11 12  1  0  0  0
 12 13  1  0  0  0
 13 14  1  0  0  0
 14 15  1  0  0  0
 15 16  1  0  0  0
 16 17  1  0  0  0
 17 18  1  0  0  0
 18 19  1  0  0  0
M  CHG 1  28  -1
M  END
> <minimizedAffinity>
-8.00425

> <CNNscore>
0.8594493866

> <CNNaffinity>
6.8097543716

> <CNN_VS>
5.8526391983

> <CNNaffinity_variance>
0.4286768436

$$$$
/media/chris/experiments/cd1a-new-docking/inputs/ligands/4x6c_ligand.pdb


 37 36  0  0  0  0  0  0  0  0999 V2000
  -42.0966   60.6995   66.8839 O   0  0  0  0  0  0  0  0  0  0  0  0
  -41.8070   60.0944   65.8974 C   0  0  0  0  0  0  0  0  0  0  0  0
  -42.7290   59.1721   65.1691 C   0  0  0  0  0  0  0  0  0  0  0  0
  -44.1258   59.7409   65.0054 C   0  0  0  0  0  0  0  0  0  0  0  0
  -45.1345   59.1032   65.9362 C   0  0  0  0  0  0  0  0  0  0  0  0
  -45.1369   57.5927   65.9167 C   0  0  0  0  0  0  0  0  0  0  0  0
  -46.4996   56.9874   65.6950 C   0  0  0  0  0  0  0  0  0  0  0  0
  -47.4385   57.9294   64.9903 C   0  0  0  0  0  0  0  0  0  0  0  0
  -48.8904   57.5577   65.0526 C   0  0  0  0  0  0  0  0  0  0  0  0
  -49.7696   58.5285   64.3850 C   0  0  0  0  0  0  0  0  0  0  0  0
  -50.0674   58.6044   63.1067 C   0  0  0  0  0  0  0  0  0  0  0  0
  -49.6114   57.7157   62.0081 C   0  0  0  0  0  0  0  0  0  0  0  0
  -50.3577   57.8617   60.6976 C   0  0  0  0  0  0  0  0  0  0  0  0
  -49.6691   57.1656   59.5560 C   0  0  0  0  0  0  0  0  0  0  0  0
  -48.9904   55.8714   59.9251 C   0  0  0  0  0  0  0  0  0  0  0  0
  -47.8475   55.5283   58.9951 C   0  0  0  0  0  0  0  0  0  0  0  0
  -47.0664   56.7090   58.4894 C   0  0  0  0  0  0  0  0  0  0  0  0
  -46.7238   56.6090   57.0569 C   0  0  0  0  0  0  0  0  0  0  0  0
  -47.8710   56.2981   56.2062 C   0  0  0  0  0  0  0  0  0  0  0  0
  -40.6099   60.1557   65.3145 O   0  0  0  0  0  0  0  0  0  0  0  0
  -39.6271   61.0394   65.8987 C   0  0  0  0  0  0  0  0  0  0  0  0
  -38.8698   61.6771   64.7567 C   0  0  0  0  0  0  0  0  0  0  0  0
  -37.7113   62.3390   65.2645 O   0  0  0  0  0  0  0  0  0  0  0  0
  -37.1145   61.6861   65.6629 H   0  0  0  0  0  0  0  0  0  0  0  0
  -38.4354   60.7259   63.6682 C   0  0  0  0  0  0  0  0  0  0  0  0
  -37.3487   59.9212   64.1687 O   0  0  0  0  0  0  0  0  0  0  0  0
  -37.4417   58.3357   64.0872 P   0  0  0  0  0  0  0  0  0  0  0  0
  -36.8760   57.8038   65.3435 O   0  0  0  0  0  0  0  0  0  0  0  0
  -38.8359   58.0071   63.7304 O   0  0  0  0  0  0  0  0  0  0  0  0
  -39.4282   58.2933   64.4432 H   0  0  0  0  0  0  0  0  0  0  0  0
  -36.5232   57.8465   62.8897 O   0  0  0  0  0  0  0  0  0  0  0  0
  -35.2518   57.2161   63.1722 C   0  0  0  0  0  0  0  0  0  0  0  0
  -34.1952   58.1639   62.6514 C   0  0  0  0  0  0  0  0  0  0  0  0
  -33.1209   58.5759   63.6382 N   0  0  0  0  0  0  0  0  0  0  0  0
  -33.4610   58.1281   65.0234 C   0  0  0  0  0  0  0  0  0  0  0  0
  -32.9854   60.0649   63.6372 C   0  0  0  0  0  0  0  0  0  0  0  0
  -31.8149   57.9609   63.2436 C   0  0  0  0  0  0  0  0  0  0  0  0
 34 33  1  0  0  0
 34 35  1  0  0  0
 34 36  1  0  0  0
 34 37  1  0  0  0
 22 23  1  0  0  0
 22 25  1  0  0  0
 22 21  1  0  0  0
 23 24  1  0  0  0
 27 26  1  0  0  0
 27 28  2  0  0  0
 27 31  1  0  0  0
 27 29  1  0  0  0
 25 26  1  0  0  0
 32 33  1  0  0  0
 32 31  1  0  0  0
 29 30  1  0  0  0
 20 21  1  0  0  0
 20  2  1  0  0  0
  1  2  2  0  0  0
  2  3  1  0  0  0
  3  4  1  0  0  0
  4  5  1  0  0  0
  5  6  1  0  0  0
  6  7  1  0  0  0
  7  8  1  0  0  0
  8  9  1  0  0  0
  9 10  1  0  0  0
 10 11  2  0  0  0
 11 12  1  0  0  0
 12 13  1  0  0  0
 13 14  1  0  0  0
 14 15  1  0  0  0
 15 16  1  0  0  0
 16 17  1  0  0  0
 17 18  1  0  0  0
 18 19  1  0  0  0
M  CHG 1  28  -1
M  END
> <minimizedAffinity>
-7.69676

> <CNNscore>
0.8204452395

> <CNNaffinity>
6.7183799744

> <CNN_VS>
5.5120630264

> <CNNaffinity_variance>
0.8136793971

$$$$
/media/chris/experiments/cd1a-new-docking/inputs/ligands/4x6c_ligand.pdb


 37 36  0  0  0  0  0  0  0  0999 V2000
  -41.2969   57.9343   65.3628 O   0  0  0  0  0  0  0  0  0  0  0  0
  -42.3582   58.4378   65.5708 C   0  0  0  0  0  0  0  0  0  0  0  0
  -43.6478   57.6891   65.6566 C   0  0  0  0  0  0  0  0  0  0  0  0
  -44.8618   58.5811   65.4779 C   0  0  0  0  0  0  0  0  0  0  0  0
  -46.1293   57.8023   65.1996 C   0  0  0  0  0  0  0  0  0  0  0  0
  -47.2426   58.6172   64.5844 C   0  0  0  0  0  0  0  0  0  0  0  0
  -48.4880   57.8221   64.2861 C   0  0  0  0  0  0  0  0  0  0  0  0
  -49.6612   58.2577   65.1224 C   0  0  0  0  0  0  0  0  0  0  0  0
  -50.0569   59.6973   64.9763 C   0  0  0  0  0  0  0  0  0  0  0  0
  -51.0975   59.9154   63.9610 C   0  0  0  0  0  0  0  0  0  0  0  0
  -50.9378   60.2003   62.6875 C   0  0  0  0  0  0  0  0  0  0  0  0
  -49.6651   60.3536   61.9382 C   0  0  0  0  0  0  0  0  0  0  0  0
  -49.5691   59.5679   60.6464 C   0  0  0  0  0  0  0  0  0  0  0  0
  -49.9319   58.1186   60.8192 C   0  0  0  0  0  0  0  0  0  0  0  0
  -49.7476   57.2721   59.5858 C   0  0  0  0  0  0  0  0  0  0  0  0
  -48.9405   56.0210   59.8544 C   0  0  0  0  0  0  0  0  0  0  0  0
  -47.8225   55.7677   58.8819 C   0  0  0  0  0  0  0  0  0  0  0  0
  -47.6324   56.8671   57.9152 C   0  0  0  0  0  0  0  0  0  0  0  0
  -47.6052   56.4185   56.5244 C   0  0  0  0  0  0  0  0  0  0  0  0
  -42.5360   59.7469   65.7477 O   0  0  0  0  0  0  0  0  0  0  0  0
  -41.4425   60.4980   66.3206 C   0  0  0  0  0  0  0  0  0  0  0  0
  -41.1528   61.6458   65.3810 C   0  0  0  0  0  0  0  0  0  0  0  0
  -40.0449   62.3980   65.8758 O   0  0  0  0  0  0  0  0  0  0  0  0
  -39.2521   61.8389   65.8834 H   0  0  0  0  0  0  0  0  0  0  0  0
  -40.8577   61.2458   63.9557 C   0  0  0  0  0  0  0  0  0  0  0  0
  -39.4913   61.5942   63.6549 O   0  0  0  0  0  0  0  0  0  0  0  0
  -38.6083   60.6164   62.7642 P   0  0  0  0  0  0  0  0  0  0  0  0
  -39.0010   59.2369   63.1163 O   0  0  0  0  0  0  0  0  0  0  0  0
  -38.7474   61.0691   61.3660 O   0  0  0  0  0  0  0  0  0  0  0  0
  -39.6688   60.9630   61.0819 H   0  0  0  0  0  0  0  0  0  0  0  0
  -37.0876   60.8128   63.1716 O   0  0  0  0  0  0  0  0  0  0  0  0
  -36.6189   62.1175   63.5859 C   0  0  0  0  0  0  0  0  0  0  0  0
  -35.8899   61.8997   64.8925 C   0  0  0  0  0  0  0  0  0  0  0  0
  -34.6460   62.7376   65.1124 N   0  0  0  0  0  0  0  0  0  0  0  0
  -33.5275   62.2837   64.2305 C   0  0  0  0  0  0  0  0  0  0  0  0
  -34.2089   62.6195   66.5374 C   0  0  0  0  0  0  0  0  0  0  0  0
  -34.9462   64.1711   64.8052 C   0  0  0  0  0  0  0  0  0  0  0  0
 34 33  1  0  0  0
 34 35  1  0  0  0
 34 36  1  0  0  0
 34 37  1  0  0  0
 22 23  1  0  0  0
 22 25  1  0  0  0
 22 21  1  0  0  0
 23 24  1  0  0  0
 27 26  1  0  0  0
 27 28  2  0  0  0
 27 31  1  0  0  0
 27 29  1  0  0  0
 25 26  1  0  0  0
 32 33  1  0  0  0
 32 31  1  0  0  0
 29 30  1  0  0  0
 20 21  1  0  0  0
 20  2  1  0  0  0
  1  2  2  0  0  0
  2  3  1  0  0  0
  3  4  1  0  0  0
  4  5  1  0  0  0
  5  6  1  0  0  0
  6  7  1  0  0  0
  7  8  1  0  0  0
  8  9  1  0  0  0
  9 10  1  0  0  0
 10 11  2  0  0  0
 11 12  1  0  0  0
 12 13  1  0  0  0
 13 14  1  0  0  0
 14 15  1  0  0  0
 15 16  1  0  0  0
 16 17  1  0  0  0
 17 18  1  0  0  0
 18 19  1  0  0  0
M  CHG 1  28  -1
M  END
> <minimizedAffinity>
-7.99248

> <CNNscore>
0.7645791173

> <CNNaffinity>
6.6627874374

> <CNN_VS>
5.0942282677

> <CNNaffinity_variance>
0.4546880126

$$$$
/media/chris/experiments/cd1a-new-docking/inputs/ligands/4x6c_ligand.pdb


 37 36  0  0  0  0  0  0  0  0999 V2000
  -41.7924   59.7112   67.1168 O   0  0  0  0  0  0  0  0  0  0  0  0
  -42.0197   59.3715   65.9961 C   0  0  0  0  0  0  0  0  0  0  0  0
  -42.8951   58.2207   65.6216 C   0  0  0  0  0  0  0  0  0  0  0  0
  -44.1397   58.6465   64.8659 C   0  0  0  0  0  0  0  0  0  0  0  0
  -45.1108   59.4289   65.7234 C   0  0  0  0  0  0  0  0  0  0  0  0
  -46.5218   59.4777   65.1861 C   0  0  0  0  0  0  0  0  0  0  0  0
  -47.3085   58.2136   65.4213 C   0  0  0  0  0  0  0  0  0  0  0  0
  -48.7419   58.3390   64.9797 C   0  0  0  0  0  0  0  0  0  0  0  0
  -49.2035   59.7344   64.6796 C   0  0  0  0  0  0  0  0  0  0  0  0
  -50.5917   59.7985   64.2000 C   0  0  0  0  0  0  0  0  0  0  0  0
  -51.0275   59.6739   62.9659 C   0  0  0  0  0  0  0  0  0  0  0  0
  -50.2336   59.4135   61.7385 C   0  0  0  0  0  0  0  0  0  0  0  0
  -49.9161   57.9580   61.4626 C   0  0  0  0  0  0  0  0  0  0  0  0
  -50.5173   57.4659   60.1748 C   0  0  0  0  0  0  0  0  0  0  0  0
  -49.5186   57.1804   59.0825 C   0  0  0  0  0  0  0  0  0  0  0  0
  -48.4661   56.1789   59.5040 C   0  0  0  0  0  0  0  0  0  0  0  0
  -47.1455   56.3132   58.7984 C   0  0  0  0  0  0  0  0  0  0  0  0
  -47.2186   57.1453   57.5812 C   0  0  0  0  0  0  0  0  0  0  0  0
  -47.3252   56.3647   56.3501 C   0  0  0  0  0  0  0  0  0  0  0  0
  -41.5118   59.9741   64.9210 O   0  0  0  0  0  0  0  0  0  0  0  0
  -40.1895   59.5765   64.4949 C   0  0  0  0  0  0  0  0  0  0  0  0
  -39.2896   60.7793   64.6614 C   0  0  0  0  0  0  0  0  0  0  0  0
  -40.0875   61.9528   64.8176 O   0  0  0  0  0  0  0  0  0  0  0  0
  -40.6100   61.8825   65.6319 H   0  0  0  0  0  0  0  0  0  0  0  0
  -38.3267   60.7010   65.8212 C   0  0  0  0  0  0  0  0  0  0  0  0
  -37.7141   61.9943   65.9971 O   0  0  0  0  0  0  0  0  0  0  0  0
  -36.1371   62.1002   66.1733 P   0  0  0  0  0  0  0  0  0  0  0  0
  -35.6804   63.2170   65.3217 O   0  0  0  0  0  0  0  0  0  0  0  0
  -35.8714   62.1471   67.6247 O   0  0  0  0  0  0  0  0  0  0  0  0
  -36.2570   62.9550   67.9981 H   0  0  0  0  0  0  0  0  0  0  0  0
  -35.4860   60.7634   65.6203 O   0  0  0  0  0  0  0  0  0  0  0  0
  -35.0940   60.6783   64.2300 C   0  0  0  0  0  0  0  0  0  0  0  0
  -34.4910   59.3031   64.0535 C   0  0  0  0  0  0  0  0  0  0  0  0
  -35.3728   58.2665   63.3859 N   0  0  0  0  0  0  0  0  0  0  0  0
  -35.8452   57.2459   64.3708 C   0  0  0  0  0  0  0  0  0  0  0  0
  -34.6010   57.5712   62.3105 C   0  0  0  0  0  0  0  0  0  0  0  0
  -36.5664   58.9374   62.7821 C   0  0  0  0  0  0  0  0  0  0  0  0
 34 33  1  0  0  0
 34 35  1  0  0  0
 34 36  1  0  0  0
 34 37  1  0  0  0
 22 23  1  0  0  0
 22 25  1  0  0  0
 22 21  1  0  0  0
 23 24  1  0  0  0
 27 26  1  0  0  0
 27 28  2  0  0  0
 27 31  1  0  0  0
 27 29  1  0  0  0
 25 26  1  0  0  0
 32 33  1  0  0  0
 32 31  1  0  0  0
 29 30  1  0  0  0
 20 21  1  0  0  0
 20  2  1  0  0  0
  1  2  2  0  0  0
  2  3  1  0  0  0
  3  4  1  0  0  0
  4  5  1  0  0  0
  5  6  1  0  0  0
  6  7  1  0  0  0
  7  8  1  0  0  0
  8  9  1  0  0  0
  9 10  1  0  0  0
 10 11  2  0  0  0
 11 12  1  0  0  0
 12 13  1  0  0  0
 13 14  1  0  0  0
 14 15  1  0  0  0
 15 16  1  0  0  0
 16 17  1  0  0  0
 17 18  1  0  0  0
 18 19  1  0  0  0
M  CHG 1  28  -1
M  END
> <minimizedAffinity>
-8.03765

> <CNNscore>
0.7616837025

> <CNNaffinity>
6.7551054955

> <CNN_VS>
5.1452536583

> <CNNaffinity_variance>
0.4719359279

$$$$
/media/chris/experiments/cd1a-new-docking/inputs/ligands/4x6c_ligand.pdb


 37 36  0  0  0  0  0  0  0  0999 V2000
  -40.4152   61.7402   65.8687 O   0  0  0  0  0  0  0  0  0  0  0  0
  -41.1437   60.9003   65.4362 C   0  0  0  0  0  0  0  0  0  0  0  0
  -42.1118   60.1145   66.2585 C   0  0  0  0  0  0  0  0  0  0  0  0
  -42.3761   58.7300   65.6975 C   0  0  0  0  0  0  0  0  0  0  0  0
  -43.8094   58.5390   65.2507 C   0  0  0  0  0  0  0  0  0  0  0  0
  -44.3884   57.1804   65.5680 C   0  0  0  0  0  0  0  0  0  0  0  0
  -45.8566   57.2071   65.9085 C   0  0  0  0  0  0  0  0  0  0  0  0
  -46.2943   58.5380   66.4586 C   0  0  0  0  0  0  0  0  0  0  0  0
  -47.5742   59.0789   65.8933 C   0  0  0  0  0  0  0  0  0  0  0  0
  -47.5283   60.5237   65.6255 C   0  0  0  0  0  0  0  0  0  0  0  0
  -48.1013   61.1827   64.6427 C   0  0  0  0  0  0  0  0  0  0  0  0
  -48.9625   60.6425   63.5605 C   0  0  0  0  0  0  0  0  0  0  0  0
  -50.4379   60.5404   63.8895 C   0  0  0  0  0  0  0  0  0  0  0  0
  -51.1764   59.6108   62.9662 C   0  0  0  0  0  0  0  0  0  0  0  0
  -50.4356   59.2602   61.7013 C   0  0  0  0  0  0  0  0  0  0  0  0
  -50.4292   57.7729   61.4243 C   0  0  0  0  0  0  0  0  0  0  0  0
  -50.5437   57.3985   59.9729 C   0  0  0  0  0  0  0  0  0  0  0  0
  -49.2424   57.0904   59.3475 C   0  0  0  0  0  0  0  0  0  0  0  0
  -48.7153   55.7792   59.7204 C   0  0  0  0  0  0  0  0  0  0  0  0
  -41.1847   60.5436   64.1525 O   0  0  0  0  0  0  0  0  0  0  0  0
  -40.3638   61.2888   63.2258 C   0  0  0  0  0  0  0  0  0  0  0  0
  -39.5902   60.2800   62.4085 C   0  0  0  0  0  0  0  0  0  0  0  0
  -39.0484   60.9188   61.2524 O   0  0  0  0  0  0  0  0  0  0  0  0
  -38.4135   61.5991   61.5266 H   0  0  0  0  0  0  0  0  0  0  0  0
  -38.4654   59.5910   63.1423 C   0  0  0  0  0  0  0  0  0  0  0  0
  -37.3101   59.5537   62.2803 O   0  0  0  0  0  0  0  0  0  0  0  0
  -37.0537   58.2799   61.3634 P   0  0  0  0  0  0  0  0  0  0  0  0
  -37.6935   57.1291   62.0324 O   0  0  0  0  0  0  0  0  0  0  0  0
  -37.4777   58.6443   59.9972 O   0  0  0  0  0  0  0  0  0  0  0  0
  -38.4324   58.8161   59.9898 H   0  0  0  0  0  0  0  0  0  0  0  0
  -35.4909   58.0118   61.3136 O   0  0  0  0  0  0  0  0  0  0  0  0
  -34.8722   57.1856   62.3277 C   0  0  0  0  0  0  0  0  0  0  0  0
  -33.9246   58.0927   63.0793 C   0  0  0  0  0  0  0  0  0  0  0  0
  -34.3476   58.4894   64.4798 N   0  0  0  0  0  0  0  0  0  0  0  0
  -34.7389   59.9312   64.5366 C   0  0  0  0  0  0  0  0  0  0  0  0
  -33.2132   58.2645   65.4275 C   0  0  0  0  0  0  0  0  0  0  0  0
  -35.5179   57.6589   64.9043 C   0  0  0  0  0  0  0  0  0  0  0  0
 34 33  1  0  0  0
 34 35  1  0  0  0
 34 36  1  0  0  0
 34 37  1  0  0  0
 22 23  1  0  0  0
 22 25  1  0  0  0
 22 21  1  0  0  0
 23 24  1  0  0  0
 27 26  1  0  0  0
 27 28  2  0  0  0
 27 31  1  0  0  0
 27 29  1  0  0  0
 25 26  1  0  0  0
 32 33  1  0  0  0
 32 31  1  0  0  0
 29 30  1  0  0  0
 20 21  1  0  0  0
 20  2  1  0  0  0
  1  2  2  0  0  0
  2  3  1  0  0  0
  3  4  1  0  0  0
  4  5  1  0  0  0
  5  6  1  0  0  0
  6  7  1  0  0  0
  7  8  1  0  0  0
  8  9  1  0  0  0
  9 10  1  0  0  0
 10 11  2  0  0  0
 11 12  1  0  0  0
 12 13  1  0  0  0
 13 14  1  0  0  0
 14 15  1  0  0  0
 15 16  1  0  0  0
 16 17  1  0  0  0
 17 18  1  0  0  0
 18 19  1  0  0  0
M  CHG 1  28  -1
M  END
> <minimizedAffinity>
-8.00012

> <CNNscore>
0.7489624619

> <CNNaffinity>
6.6728515625

> <CNN_VS>
4.9977154732

> <CNNaffinity_variance>
0.3957967162

$$$$
/media/chris/experiments/cd1a-new-docking/inputs/ligands/4x6c_ligand.pdb


 37 36  0  0  0  0  0  0  0  0999 V2000
  -42.5625   60.2648   66.9673 O   0  0  0  0  0  0  0  0  0  0  0  0
  -42.6214   59.9899   65.8079 C   0  0  0  0  0  0  0  0  0  0  0  0
  -43.8907   59.8737   65.0292 C   0  0  0  0  0  0  0  0  0  0  0  0
  -44.6329   58.5783   65.2991 C   0  0  0  0  0  0  0  0  0  0  0  0
  -45.9442   58.7906   66.0242 C   0  0  0  0  0  0  0  0  0  0  0  0
  -47.0591   57.8714   65.5841 C   0  0  0  0  0  0  0  0  0  0  0  0
  -48.2062   58.5816   64.9117 C   0  0  0  0  0  0  0  0  0  0  0  0
  -48.1253   60.0766   65.0658 C   0  0  0  0  0  0  0  0  0  0  0  0
  -48.6673   60.8728   63.9158 C   0  0  0  0  0  0  0  0  0  0  0  0
  -50.1237   60.7500   63.7572 C   0  0  0  0  0  0  0  0  0  0  0  0
  -50.7836   60.0988   62.8250 C   0  0  0  0  0  0  0  0  0  0  0  0
  -50.2299   59.2992   61.7030 C   0  0  0  0  0  0  0  0  0  0  0  0
  -50.4052   57.7990   61.8214 C   0  0  0  0  0  0  0  0  0  0  0  0
  -50.7943   57.1547   60.5192 C   0  0  0  0  0  0  0  0  0  0  0  0
  -49.7084   57.1421   59.4739 C   0  0  0  0  0  0  0  0  0  0  0  0
  -48.7550   55.9793   59.6397 C   0  0  0  0  0  0  0  0  0  0  0  0
  -47.4683   56.1010   58.8721 C   0  0  0  0  0  0  0  0  0  0  0  0
  -47.5430   57.0710   57.7618 C   0  0  0  0  0  0  0  0  0  0  0  0
  -47.1768   56.5004   56.4670 C   0  0  0  0  0  0  0  0  0  0  0  0
  -41.5539   59.7402   65.0498 O   0  0  0  0  0  0  0  0  0  0  0  0
  -41.0771   60.8045   64.1966 C   0  0  0  0  0  0  0  0  0  0  0  0
  -39.8661   61.4056   64.8722 C   0  0  0  0  0  0  0  0  0  0  0  0
  -40.2897   62.2860   65.9131 O   0  0  0  0  0  0  0  0  0  0  0  0
  -40.7633   61.7799   66.5918 H   0  0  0  0  0  0  0  0  0  0  0  0
  -38.8998   60.4054   65.4589 C   0  0  0  0  0  0  0  0  0  0  0  0
  -38.0172   61.0973   66.3651 O   0  0  0  0  0  0  0  0  0  0  0  0
  -36.5705   61.5367   65.8719 P   0  0  0  0  0  0  0  0  0  0  0  0
  -35.8015   61.9199   67.0732 O   0  0  0  0  0  0  0  0  0  0  0  0
  -36.0643   60.4502   65.0102 O   0  0  0  0  0  0  0  0  0  0  0  0
  -35.9553   59.6434   65.5376 H   0  0  0  0  0  0  0  0  0  0  0  0
  -36.7283   62.8245   64.9589 O   0  0  0  0  0  0  0  0  0  0  0  0
  -35.9427   62.9473   63.7500 C   0  0  0  0  0  0  0  0  0  0  0  0
  -35.0779   64.1727   63.9410 C   0  0  0  0  0  0  0  0  0  0  0  0
  -33.5841   63.9306   64.0274 N   0  0  0  0  0  0  0  0  0  0  0  0
  -33.2659   62.4750   63.9049 C   0  0  0  0  0  0  0  0  0  0  0  0
  -33.0730   64.4222   65.3437 C   0  0  0  0  0  0  0  0  0  0  0  0
  -32.8922   64.6663   62.9231 C   0  0  0  0  0  0  0  0  0  0  0  0
 34 33  1  0  0  0
 34 35  1  0  0  0
 34 36  1  0  0  0
 34 37  1  0  0  0
 22 23  1  0  0  0
 22 25  1  0  0  0
 22 21  1  0  0  0
 23 24  1  0  0  0
 27 26  1  0  0  0
 27 28  2  0  0  0
 27 31  1  0  0  0
 27 29  1  0  0  0
 25 26  1  0  0  0
 32 33  1  0  0  0
 32 31  1  0  0  0
 29 30  1  0  0  0
 20 21  1  0  0  0
 20  2  1  0  0  0
  1  2  2  0  0  0
  2  3  1  0  0  0
  3  4  1  0  0  0
  4  5  1  0  0  0
  5  6  1  0  0  0
  6  7  1  0  0  0
  7  8  1  0  0  0
  8  9  1  0  0  0
  9 10  1  0  0  0
 10 11  2  0  0  0
 11 12  1  0  0  0
 12 13  1  0  0  0
 13 14  1  0  0  0
 14 15  1  0  0  0
 15 16  1  0  0  0
 16 17  1  0  0  0
 17 18  1  0  0  0
 18 19  1  0  0  0
M  CHG 1  28  -1
M  END
> <minimizedAffinity>
-8.11439

> <CNNscore>
0.7425028682

> <CNNaffinity>
6.3979830742

> <CNN_VS>
4.7505207062

> <CNNaffinity_variance>
0.5855606794

$$$$
/media/chris/experiments/cd1a-new-docking/inputs/ligands/4x6c_ligand.pdb


 37 36  0  0  0  0  0  0  0  0999 V2000
  -41.7180   58.2209   65.5275 O   0  0  0  0  0  0  0  0  0  0  0  0
  -42.5044   59.0484   65.1812 C   0  0  0  0  0  0  0  0  0  0  0  0
  -43.9415   58.7760   64.8786 C   0  0  0  0  0  0  0  0  0  0  0  0
  -44.5115   57.6333   65.6977 C   0  0  0  0  0  0  0  0  0  0  0  0
  -45.9914   57.7875   65.9743 C   0  0  0  0  0  0  0  0  0  0  0  0
  -46.4624   59.2186   66.0820 C   0  0  0  0  0  0  0  0  0  0  0  0
  -47.5434   59.5812   65.0959 C   0  0  0  0  0  0  0  0  0  0  0  0
  -48.2439   58.3701   64.5409 C   0  0  0  0  0  0  0  0  0  0  0  0
  -49.6684   58.1939   64.9769 C   0  0  0  0  0  0  0  0  0  0  0  0
  -50.3820   59.4655   65.1637 C   0  0  0  0  0  0  0  0  0  0  0  0
  -51.0075   60.1827   64.2564 C   0  0  0  0  0  0  0  0  0  0  0  0
  -51.1753   59.8837   62.8117 C   0  0  0  0  0  0  0  0  0  0  0  0
  -50.0093   60.2705   61.9250 C   0  0  0  0  0  0  0  0  0  0  0  0
  -49.6920   59.2240   60.8925 C   0  0  0  0  0  0  0  0  0  0  0  0
  -50.3370   57.8836   61.1359 C   0  0  0  0  0  0  0  0  0  0  0  0
  -49.7104   56.7789   60.3139 C   0  0  0  0  0  0  0  0  0  0  0  0
  -49.0921   57.2261   59.0187 C   0  0  0  0  0  0  0  0  0  0  0  0
  -47.7930   56.5820   58.7416 C   0  0  0  0  0  0  0  0  0  0  0  0
  -47.1848   57.0187   57.4863 C   0  0  0  0  0  0  0  0  0  0  0  0
  -42.2001   60.3347   65.0092 O   0  0  0  0  0  0  0  0  0  0  0  0
  -41.1508   60.6526   64.0679 C   0  0  0  0  0  0  0  0  0  0  0  0
  -40.2274   61.6363   64.7490 C   0  0  0  0  0  0  0  0  0  0  0  0
  -40.9216   62.2794   65.8179 O   0  0  0  0  0  0  0  0  0  0  0  0
  -41.1670   61.6208   66.4866 H   0  0  0  0  0  0  0  0  0  0  0  0
  -38.9536   61.0415   65.2987 C   0  0  0  0  0  0  0  0  0  0  0  0
  -38.1099   62.1141   65.7640 O   0  0  0  0  0  0  0  0  0  0  0  0
  -36.5610   62.1096   65.4030 P   0  0  0  0  0  0  0  0  0  0  0  0
  -36.4337   62.6531   64.0356 O   0  0  0  0  0  0  0  0  0  0  0  0
  -35.8613   62.7850   66.5135 O   0  0  0  0  0  0  0  0  0  0  0  0
  -36.1433   63.7121   66.5572 H   0  0  0  0  0  0  0  0  0  0  0  0
  -36.0620   60.6038   65.3809 O   0  0  0  0  0  0  0  0  0  0  0  0
  -35.5802   60.0259   64.1449 C   0  0  0  0  0  0  0  0  0  0  0  0
  -36.0933   58.6039   64.1252 C   0  0  0  0  0  0  0  0  0  0  0  0
  -37.1768   58.2975   63.1104 N   0  0  0  0  0  0  0  0  0  0  0  0
  -37.5441   59.5179   62.3290 C   0  0  0  0  0  0  0  0  0  0  0  0
  -38.3962   57.7973   63.8163 C   0  0  0  0  0  0  0  0  0  0  0  0
  -36.6913   57.2487   62.1597 C   0  0  0  0  0  0  0  0  0  0  0  0
 34 33  1  0  0  0
 34 35  1  0  0  0
 34 36  1  0  0  0
 34 37  1  0  0  0
 22 23  1  0  0  0
 22 25  1  0  0  0
 22 21  1  0  0  0
 23 24  1  0  0  0
 27 26  1  0  0  0
 27 28  2  0  0  0
 27 31  1  0  0  0
 27 29  1  0  0  0
 25 26  1  0  0  0
 32 33  1  0  0  0
 32 31  1  0  0  0
 29 30  1  0  0  0
 20 21  1  0  0  0
 20  2  1  0  0  0
  1  2  2  0  0  0
  2  3  1  0  0  0
  3  4  1  0  0  0
  4  5  1  0  0  0
  5  6  1  0  0  0
  6  7  1  0  0  0
  7  8  1  0  0  0
  8  9  1  0  0  0
  9 10  1  0  0  0
 10 11  2  0  0  0
 11 12  1  0  0  0
 12 13  1  0  0  0
 13 14  1  0  0  0
 14 15  1  0  0  0
 15 16  1  0  0  0
 16 17  1  0  0  0
 17 18  1  0  0  0
 18 19  1  0  0  0
M  CHG 1  28  -1
M  END
> <minimizedAffinity>
-8.04673

> <CNNscore>
0.7389978766

> <CNNaffinity>
6.8231210709

> <CNN_VS>
5.0422720909

> <CNNaffinity_variance>
0.3541879654

$$$$
/media/chris/experiments/cd1a-new-docking/inputs/ligands/4x6c_ligand.pdb


 37 36  0  0  0  0  0  0  0  0999 V2000
  -41.4841   59.4930   66.8041 O   0  0  0  0  0  0  0  0  0  0  0  0
  -41.8632   58.8628   65.8649 C   0  0  0  0  0  0  0  0  0  0  0  0
  -43.0044   57.8996   65.8969 C   0  0  0  0  0  0  0  0  0  0  0  0
  -44.1296   58.2852   64.9553 C   0  0  0  0  0  0  0  0  0  0  0  0
  -44.8586   59.5381   65.3903 C   0  0  0  0  0  0  0  0  0  0  0  0
  -46.2053   59.2895   66.0277 C   0  0  0  0  0  0  0  0  0  0  0  0
  -46.8998   58.0502   65.5235 C   0  0  0  0  0  0  0  0  0  0  0  0
  -47.9712   58.3632   64.5137 C   0  0  0  0  0  0  0  0  0  0  0  0
  -49.3791   58.1264   64.9743 C   0  0  0  0  0  0  0  0  0  0  0  0
  -50.1094   59.3658   65.2769 C   0  0  0  0  0  0  0  0  0  0  0  0
  -50.8442   60.0909   64.4627 C   0  0  0  0  0  0  0  0  0  0  0  0
  -51.1461   59.8346   63.0317 C   0  0  0  0  0  0  0  0  0  0  0  0
  -50.0886   60.2937   62.0487 C   0  0  0  0  0  0  0  0  0  0  0  0
  -49.7696   59.2537   61.0101 C   0  0  0  0  0  0  0  0  0  0  0  0
  -49.9319   57.8291   61.4752 C   0  0  0  0  0  0  0  0  0  0  0  0
  -50.2344   56.8773   60.3389 C   0  0  0  0  0  0  0  0  0  0  0  0
  -49.5269   57.1860   59.0489 C   0  0  0  0  0  0  0  0  0  0  0  0
  -48.2512   56.4588   58.8970 C   0  0  0  0  0  0  0  0  0  0  0  0
  -47.5489   56.7724   57.6541 C   0  0  0  0  0  0  0  0  0  0  0  0
  -41.3088   58.9294   64.6545 O   0  0  0  0  0  0  0  0  0  0  0  0
  -39.9828   59.4955   64.5576 C   0  0  0  0  0  0  0  0  0  0  0  0
  -40.1095   60.7930   63.7931 C   0  0  0  0  0  0  0  0  0  0  0  0
  -40.3797   61.8582   64.7044 O   0  0  0  0  0  0  0  0  0  0  0  0
  -39.6286   61.9647   65.3091 H   0  0  0  0  0  0  0  0  0  0  0  0
  -38.9030   61.1682   62.9671 C   0  0  0  0  0  0  0  0  0  0  0  0
  -37.7150   60.8562   63.7222 O   0  0  0  0  0  0  0  0  0  0  0  0
  -36.8618   62.0328   64.3679 P   0  0  0  0  0  0  0  0  0  0  0  0
  -36.6480   63.0425   63.3115 O   0  0  0  0  0  0  0  0  0  0  0  0
  -37.5516   62.4282   65.6116 O   0  0  0  0  0  0  0  0  0  0  0  0
  -38.4247   62.7915   65.3958 H   0  0  0  0  0  0  0  0  0  0  0  0
  -35.4462   61.4485   64.7820 O   0  0  0  0  0  0  0  0  0  0  0  0
  -34.2492   62.2202   64.5263 C   0  0  0  0  0  0  0  0  0  0  0  0
  -33.7051   62.6022   65.8842 C   0  0  0  0  0  0  0  0  0  0  0  0
  -33.9195   64.0411   66.3102 N   0  0  0  0  0  0  0  0  0  0  0  0
  -34.4858   64.8557   65.1920 C   0  0  0  0  0  0  0  0  0  0  0  0
  -32.6134   64.6401   66.7238 C   0  0  0  0  0  0  0  0  0  0  0  0
  -34.8709   64.0858   67.4645 C   0  0  0  0  0  0  0  0  0  0  0  0
 34 33  1  0  0  0
 34 35  1  0  0  0
 34 36  1  0  0  0
 34 37  1  0  0  0
 22 23  1  0  0  0
 22 25  1  0  0  0
 22 21  1  0  0  0
 23 24  1  0  0  0
 27 26  1  0  0  0
 27 28  2  0  0  0
 27 31  1  0  0  0
 27 29  1  0  0  0
 25 26  1  0  0  0
 32 33  1  0  0  0
 32 31  1  0  0  0
 29 30  1  0  0  0
 20 21  1  0  0  0
 20  2  1  0  0  0
  1  2  2  0  0  0
  2  3  1  0  0  0
  3  4  1  0  0  0
  4  5  1  0  0  0
  5  6  1  0  0  0
  6  7  1  0  0  0
  7  8  1  0  0  0
  8  9  1  0  0  0
  9 10  1  0  0  0
 10 11  2  0  0  0
 11 12  1  0  0  0
 12 13  1  0  0  0
 13 14  1  0  0  0
 14 15  1  0  0  0
 15 16  1  0  0  0
 16 17  1  0  0  0
 17 18  1  0  0  0
 18 19  1  0  0  0
M  CHG 1  28  -1
M  END
> <minimizedAffinity>
-7.86877

> <CNNscore>
0.7338687181

> <CNNaffinity>
6.3292112350

> <CNN_VS>
4.6448101997

> <CNNaffinity_variance>
0.2770421505

$$$$
