/media/chris/experiments/cd1a-new-docking/inputs/ligands/4x6c_ligand.pdb


 37 36  0  0  0  0  0  0  0  0999 V2000
  -42.5856   57.2709   65.7255 O   0  0  0  0  0  0  0  0  0  0  0  0
  -42.6472   58.4613   65.6793 C   0  0  0  0  0  0  0  0  0  0  0  0
  -43.8348   59.2643   66.0986 C   0  0  0  0  0  0  0  0  0  0  0  0
  -44.9622   59.2256   65.0841 C   0  0  0  0  0  0  0  0  0  0  0  0
  -46.1988   58.5251   65.6041 C   0  0  0  0  0  0  0  0  0  0  0  0
  -47.3588   58.5020   64.6367 C   0  0  0  0  0  0  0  0  0  0  0  0
  -48.4742   57.5731   65.0433 C   0  0  0  0  0  0  0  0  0  0  0  0
  -49.7543   58.3079   65.3383 C   0  0  0  0  0  0  0  0  0  0  0  0
  -49.7606   59.7628   64.9729 C   0  0  0  0  0  0  0  0  0  0  0  0
  -50.9452   60.1646   64.2007 C   0  0  0  0  0  0  0  0  0  0  0  0
  -51.1768   59.9790   62.9199 C   0  0  0  0  0  0  0  0  0  0  0  0
  -50.3126   59.2951   61.9248 C   0  0  0  0  0  0  0  0  0  0  0  0
  -50.4255   57.7847   61.8901 C   0  0  0  0  0  0  0  0  0  0  0  0
  -50.7437   57.2570   60.5180 C   0  0  0  0  0  0  0  0  0  0  0  0
  -49.5598   57.1623   59.5900 C   0  0  0  0  0  0  0  0  0  0  0  0
  -48.8412   55.8355   59.6975 C   0  0  0  0  0  0  0  0  0  0  0  0
  -47.6298   55.6981   58.8179 C   0  0  0  0  0  0  0  0  0  0  0  0
  -47.7291   56.4745   57.5662 C   0  0  0  0  0  0  0  0  0  0  0  0
  -46.4806   57.1372   57.1940 C   0  0  0  0  0  0  0  0  0  0  0  0
  -41.6589   59.2384   65.2361 O   0  0  0  0  0  0  0  0  0  0  0  0
  -41.5640   60.5735   65.7808 C   0  0  0  0  0  0  0  0  0  0  0  0
  -40.2745   61.1713   65.2667 C   0  0  0  0  0  0  0  0  0  0  0  0
  -40.0400   62.4233   65.9116 O   0  0  0  0  0  0  0  0  0  0  0  0
  -39.9189   62.2792   66.8631 H   0  0  0  0  0  0  0  0  0  0  0  0
  -39.0516   60.3057   65.4493 C   0  0  0  0  0  0  0  0  0  0  0  0
  -38.0835   61.0375   66.2278 O   0  0  0  0  0  0  0  0  0  0  0  0
  -36.8493   61.7281   65.5004 P   0  0  0  0  0  0  0  0  0  0  0  0
  -35.8098   60.6922   65.3341 O   0  0  0  0  0  0  0  0  0  0  0  0
  -37.3842   62.4088   64.3047 O   0  0  0  0  0  0  0  0  0  0  0  0
  -37.7464   61.7496   63.6922 H   0  0  0  0  0  0  0  0  0  0  0  0
  -36.2733   62.8514   66.4612 O   0  0  0  0  0  0  0  0  0  0  0  0
  -34.8724   62.8365   66.8232 C   0  0  0  0  0  0  0  0  0  0  0  0
  -34.3568   64.2292   66.5404 C   0  0  0  0  0  0  0  0  0  0  0  0
  -33.6874   64.4350   65.1961 N   0  0  0  0  0  0  0  0  0  0  0  0
  -32.5199   65.3616   65.3115 C   0  0  0  0  0  0  0  0  0  0  0  0
  -34.6693   65.0212   64.2329 C   0  0  0  0  0  0  0  0  0  0  0  0
  -33.2045   63.1199   64.6701 C   0  0  0  0  0  0  0  0  0  0  0  0
 34 33  1  0  0  0
 34 35  1  0  0  0
 34 36  1  0  0  0
 34 37  1  0  0  0
 22 23  1  0  0  0
 22 25  1  0  0  0
 22 21  1  0  0  0
 23 24  1  0  0  0
 27 26  1  0  0  0
 27 28  2  0  0  0
 27 31  1  0  0  0
 27 29  1  0  0  0
 25 26  1  0  0  0
 32 33  1  0  0  0
 32 31  1  0  0  0
 29 30  1  0  0  0
 20 21  1  0  0  0
 20  2  1  0  0  0
  1  2  2  0  0  0
  2  3  1  0  0  0
  3  4  1  0  0  0
  4  5  1  0  0  0
  5  6  1  0  0  0
  6  7  1  0  0  0
  7  8  1  0  0  0
  8  9  1  0  0  0
  9 10  1  0  0  0
 10 11  2  0  0  0
 11 12  1  0  0  0
 12 13  1  0  0  0
 13 14  1  0  0  0
 14 15  1  0  0  0
 15 16  1  0  0  0
 16 17  1  0  0  0
 17 18  1  0  0  0
 18 19  1  0  0  0
M  CHG 1  28  -1
M  END
> <minimizedAffinity>
-8.45335

> <CNNscore>
0.8446655869

> <CNNaffinity>
6.5473122597

> <CNN_VS>
5.5302891731

> <CNNaffinity_variance>
0.4053640366

$$$$
/media/chris/experiments/cd1a-new-docking/inputs/ligands/4x6c_ligand.pdb


 37 36  0  0  0  0  0  0  0  0999 V2000
  -42.5530   57.2236   65.8317 O   0  0  0  0  0  0  0  0  0  0  0  0
  -42.5235   58.4153   65.7873 C   0  0  0  0  0  0  0  0  0  0  0  0
  -43.7073   59.2812   65.5045 C   0  0  0  0  0  0  0  0  0  0  0  0
  -44.8603   58.5195   64.8785 C   0  0  0  0  0  0  0  0  0  0  0  0
  -46.1788   58.7659   65.5796 C   0  0  0  0  0  0  0  0  0  0  0  0
  -47.3650   58.8983   64.6538 C   0  0  0  0  0  0  0  0  0  0  0  0
  -48.2924   57.7102   64.6761 C   0  0  0  0  0  0  0  0  0  0  0  0
  -49.7078   58.0930   65.0160 C   0  0  0  0  0  0  0  0  0  0  0  0
  -50.0028   59.5634   64.9829 C   0  0  0  0  0  0  0  0  0  0  0  0
  -51.0963   59.9179   64.0666 C   0  0  0  0  0  0  0  0  0  0  0  0
  -51.0156   60.2188   62.7893 C   0  0  0  0  0  0  0  0  0  0  0  0
  -49.8022   60.2567   61.9344 C   0  0  0  0  0  0  0  0  0  0  0  0
  -49.7779   59.2637   60.7904 C   0  0  0  0  0  0  0  0  0  0  0  0
  -49.6593   57.8395   61.2593 C   0  0  0  0  0  0  0  0  0  0  0  0
  -49.6392   56.8131   60.1556 C   0  0  0  0  0  0  0  0  0  0  0  0
  -48.8246   57.2591   58.9614 C   0  0  0  0  0  0  0  0  0  0  0  0
  -47.5657   56.4725   58.7241 C   0  0  0  0  0  0  0  0  0  0  0  0
  -46.8345   56.8967   57.5139 C   0  0  0  0  0  0  0  0  0  0  0  0
  -47.4555   56.4415   56.2715 C   0  0  0  0  0  0  0  0  0  0  0  0
  -41.4194   59.1374   65.9777 O   0  0  0  0  0  0  0  0  0  0  0  0
  -41.5840   60.5148   66.3823 C   0  0  0  0  0  0  0  0  0  0  0  0
  -40.5507   61.3237   65.6325 C   0  0  0  0  0  0  0  0  0  0  0  0
  -40.6463   62.6944   66.0201 O   0  0  0  0  0  0  0  0  0  0  0  0
  -40.4344   62.7794   66.9628 H   0  0  0  0  0  0  0  0  0  0  0  0
  -39.1232   60.8731   65.8260 C   0  0  0  0  0  0  0  0  0  0  0  0
  -38.2725   62.0371   65.8405 O   0  0  0  0  0  0  0  0  0  0  0  0
  -36.7064   61.8695   65.6203 P   0  0  0  0  0  0  0  0  0  0  0  0
  -36.2635   63.0020   64.7822 O   0  0  0  0  0  0  0  0  0  0  0  0
  -36.1044   61.6841   66.9554 O   0  0  0  0  0  0  0  0  0  0  0  0
  -36.2359   62.4869   67.4837 H   0  0  0  0  0  0  0  0  0  0  0  0
  -36.4613   60.5306   64.8053 O   0  0  0  0  0  0  0  0  0  0  0  0
  -36.6198   60.5271   63.3671 C   0  0  0  0  0  0  0  0  0  0  0  0
  -36.3469   59.1077   62.9239 C   0  0  0  0  0  0  0  0  0  0  0  0
  -37.5042   58.3753   62.2742 N   0  0  0  0  0  0  0  0  0  0  0  0
  -37.0724   57.0441   61.7483 C   0  0  0  0  0  0  0  0  0  0  0  0
  -38.0359   59.1883   61.1378 C   0  0  0  0  0  0  0  0  0  0  0  0
  -38.5912   58.1627   63.2805 C   0  0  0  0  0  0  0  0  0  0  0  0
 34 33  1  0  0  0
 34 35  1  0  0  0
 34 36  1  0  0  0
 34 37  1  0  0  0
 22 23  1  0  0  0
 22 25  1  0  0  0
 22 21  1  0  0  0
 23 24  1  0  0  0
 27 26  1  0  0  0
 27 28  2  0  0  0
 27 31  1  0  0  0
 27 29  1  0  0  0
 25 26  1  0  0  0
 32 33  1  0  0  0
 32 31  1  0  0  0
 29 30  1  0  0  0
 20 21  1  0  0  0
 20  2  1  0  0  0
  1  2  2  0  0  0
  2  3  1  0  0  0
  3  4  1  0  0  0
  4  5  1  0  0  0
  5  6  1  0  0  0
  6  7  1  0  0  0
  7  8  1  0  0  0
  8  9  1  0  0  0
  9 10  1  0  0  0
 10 11  2  0  0  0
 11 12  1  0  0  0
 12 13  1  0  0  0
 13 14  1  0  0  0
 14 15  1  0  0  0
 15 16  1  0  0  0
 16 17  1  0  0  0
 17 18  1  0  0  0
 18 19  1  0  0  0
M  CHG 1  28  -1
M  END
> <minimizedAffinity>
-8.40385

> <CNNscore>
0.8399395943

> <CNNaffinity>
7.0965981483

> <CNN_VS>
5.9607138634

> <CNNaffinity_variance>
0.3556823730

$$$$
/media/chris/experiments/cd1a-new-docking/inputs/ligands/4x6c_ligand.pdb


 37 36  0  0  0  0  0  0  0  0999 V2000
  -42.5619   57.2211   66.1445 O   0  0  0  0  0  0  0  0  0  0  0  0
  -42.6196   58.3505   65.7647 C   0  0  0  0  0  0  0  0  0  0  0  0
  -43.8278   58.9749   65.1470 C   0  0  0  0  0  0  0  0  0  0  0  0
  -44.8140   57.9528   64.6141 C   0  0  0  0  0  0  0  0  0  0  0  0
  -46.2560   58.3729   64.7995 C   0  0  0  0  0  0  0  0  0  0  0  0
  -46.4363   59.7089   65.4811 C   0  0  0  0  0  0  0  0  0  0  0  0
  -47.8770   60.0844   65.7168 C   0  0  0  0  0  0  0  0  0  0  0  0
  -48.8121   58.9205   65.5262 C   0  0  0  0  0  0  0  0  0  0  0  0
  -50.2625   59.2762   65.3850 C   0  0  0  0  0  0  0  0  0  0  0  0
  -50.5422   60.1326   64.2234 C   0  0  0  0  0  0  0  0  0  0  0  0
  -50.6234   59.7799   62.9594 C   0  0  0  0  0  0  0  0  0  0  0  0
  -50.4764   58.4212   62.3788 C   0  0  0  0  0  0  0  0  0  0  0  0
  -50.0498   58.3745   60.9258 C   0  0  0  0  0  0  0  0  0  0  0  0
  -50.5283   57.1361   60.2190 C   0  0  0  0  0  0  0  0  0  0  0  0
  -49.4582   56.1070   59.9583 C   0  0  0  0  0  0  0  0  0  0  0  0
  -48.0784   56.7175   59.8496 C   0  0  0  0  0  0  0  0  0  0  0  0
  -47.2495   56.2094   58.7030 C   0  0  0  0  0  0  0  0  0  0  0  0
  -47.2633   57.1086   57.5323 C   0  0  0  0  0  0  0  0  0  0  0  0
  -47.4412   56.4059   56.2631 C   0  0  0  0  0  0  0  0  0  0  0  0
  -41.6026   59.2093   65.8344 O   0  0  0  0  0  0  0  0  0  0  0  0
  -41.9216   60.6134   65.9565 C   0  0  0  0  0  0  0  0  0  0  0  0
  -40.9349   61.3686   65.0961 C   0  0  0  0  0  0  0  0  0  0  0  0
  -40.0377   62.1005   65.9314 O   0  0  0  0  0  0  0  0  0  0  0  0
  -39.5196   61.4819   66.4696 H   0  0  0  0  0  0  0  0  0  0  0  0
  -40.1197   60.5127   64.1575 C   0  0  0  0  0  0  0  0  0  0  0  0
  -40.0100   61.1954   62.8923 O   0  0  0  0  0  0  0  0  0  0  0  0
  -39.0716   60.5986   61.7553 P   0  0  0  0  0  0  0  0  0  0  0  0
  -39.8099   60.7115   60.4813 O   0  0  0  0  0  0  0  0  0  0  0  0
  -37.7613   61.2654   61.8890 O   0  0  0  0  0  0  0  0  0  0  0  0
  -37.8614   62.2136   61.7106 H   0  0  0  0  0  0  0  0  0  0  0  0
  -38.8465   59.0575   62.0571 O   0  0  0  0  0  0  0  0  0  0  0  0
  -37.5549   58.4576   61.8012 C   0  0  0  0  0  0  0  0  0  0  0  0
  -37.2225   57.6486   63.0343 C   0  0  0  0  0  0  0  0  0  0  0  0
  -35.8225   57.8196   63.5897 N   0  0  0  0  0  0  0  0  0  0  0  0
  -35.5682   59.2394   63.9825 C   0  0  0  0  0  0  0  0  0  0  0  0
  -34.8211   57.4242   62.5522 C   0  0  0  0  0  0  0  0  0  0  0  0
  -35.6524   56.9513   64.7965 C   0  0  0  0  0  0  0  0  0  0  0  0
 34 33  1  0  0  0
 34 35  1  0  0  0
 34 36  1  0  0  0
 34 37  1  0  0  0
 22 23  1  0  0  0
 22 25  1  0  0  0
 22 21  1  0  0  0
 23 24  1  0  0  0
 27 26  1  0  0  0
 27 28  2  0  0  0
 27 31  1  0  0  0
 27 29  1  0  0  0
 25 26  1  0  0  0
 32 33  1  0  0  0
 32 31  1  0  0  0
 29 30  1  0  0  0
 20 21  1  0  0  0
 20  2  1  0  0  0
  1  2  2  0  0  0
  2  3  1  0  0  0
  3  4  1  0  0  0
  4  5  1  0  0  0
  5  6  1  0  0  0
  6  7  1  0  0  0
  7  8  1  0  0  0
  8  9  1  0  0  0
  9 10  1  0  0  0
 10 11  2  0  0  0
 11 12  1  0  0  0
 12 13  1  0  0  0
 13 14  1  0  0  0
 14 15  1  0  0  0
 15 16  1  0  0  0
 16 17  1  0  0  0
 17 18  1  0  0  0
 18 19  1  0  0  0
M  CHG 1  28  -1
M  END
> <minimizedAffinity>
-8.39670

> <CNNscore>
0.8389397860

> <CNNaffinity>
7.0131835938

> <CNN_VS>
5.8836388588

> <CNNaffinity_variance>
0.4458752275

$$$$
/media/chris/experiments/cd1a-new-docking/inputs/ligands/4x6c_ligand.pdb


 37 36  0  0  0  0  0  0  0  0999 V2000
  -43.2960   59.5896   64.1842 O   0  0  0  0  0  0  0  0  0  0  0  0
  -42.9548   59.2536   65.2768 C   0  0  0  0  0  0  0  0  0  0  0  0
  -42.9335   57.8402   65.7594 C   0  0  0  0  0  0  0  0  0  0  0  0
  -44.0760   57.0096   65.2060 C   0  0  0  0  0  0  0  0  0  0  0  0
  -45.4118   57.3574   65.8266 C   0  0  0  0  0  0  0  0  0  0  0  0
  -46.4570   57.8256   64.8416 C   0  0  0  0  0  0  0  0  0  0  0  0
  -47.8543   57.8630   65.4059 C   0  0  0  0  0  0  0  0  0  0  0  0
  -48.2964   59.2594   65.7520 C   0  0  0  0  0  0  0  0  0  0  0  0
  -49.6704   59.6351   65.2818 C   0  0  0  0  0  0  0  0  0  0  0  0
  -49.6880   60.1984   63.9241 C   0  0  0  0  0  0  0  0  0  0  0  0
  -49.9354   59.5753   62.7931 C   0  0  0  0  0  0  0  0  0  0  0  0
  -50.2837   58.1455   62.5949 C   0  0  0  0  0  0  0  0  0  0  0  0
  -50.7113   57.7659   61.1920 C   0  0  0  0  0  0  0  0  0  0  0  0
  -49.6855   58.1282   60.1535 C   0  0  0  0  0  0  0  0  0  0  0  0
  -49.6791   57.2376   58.9375 C   0  0  0  0  0  0  0  0  0  0  0  0
  -48.3400   56.5708   58.7120 C   0  0  0  0  0  0  0  0  0  0  0  0
  -47.4120   57.3098   57.7886 C   0  0  0  0  0  0  0  0  0  0  0  0
  -46.9551   56.4928   56.6472 C   0  0  0  0  0  0  0  0  0  0  0  0
  -47.5613   55.1634   56.6059 C   0  0  0  0  0  0  0  0  0  0  0  0
  -42.5518   60.1028   66.2218 O   0  0  0  0  0  0  0  0  0  0  0  0
  -41.1517   60.0883   66.5795 C   0  0  0  0  0  0  0  0  0  0  0  0
  -40.3967   60.7353   65.4413 C   0  0  0  0  0  0  0  0  0  0  0  0
  -39.9397   62.0259   65.8461 O   0  0  0  0  0  0  0  0  0  0  0  0
  -39.3102   61.9311   66.5780 H   0  0  0  0  0  0  0  0  0  0  0  0
  -39.2129   59.9498   64.9316 C   0  0  0  0  0  0  0  0  0  0  0  0
  -39.1760   60.0561   63.4942 O   0  0  0  0  0  0  0  0  0  0  0  0
  -37.7853   60.2872   62.7581 P   0  0  0  0  0  0  0  0  0  0  0  0
  -37.2838   58.9585   62.3533 O   0  0  0  0  0  0  0  0  0  0  0  0
  -38.0149   61.3151   61.7237 O   0  0  0  0  0  0  0  0  0  0  0  0
  -38.6371   60.9747   61.0620 H   0  0  0  0  0  0  0  0  0  0  0  0
  -36.7647   60.8980   63.8079 O   0  0  0  0  0  0  0  0  0  0  0  0
  -36.6444   62.3340   63.9394 C   0  0  0  0  0  0  0  0  0  0  0  0
  -35.2385   62.5881   64.4339 C   0  0  0  0  0  0  0  0  0  0  0  0
  -34.5665   63.8471   63.9227 N   0  0  0  0  0  0  0  0  0  0  0  0
  -33.1367   63.5897   63.5702 C   0  0  0  0  0  0  0  0  0  0  0  0
  -34.6154   64.9041   64.9789 C   0  0  0  0  0  0  0  0  0  0  0  0
  -35.2801   64.3357   62.7015 C   0  0  0  0  0  0  0  0  0  0  0  0
 34 33  1  0  0  0
 34 35  1  0  0  0
 34 36  1  0  0  0
 34 37  1  0  0  0
 22 23  1  0  0  0
 22 25  1  0  0  0
 22 21  1  0  0  0
 23 24  1  0  0  0
 27 26  1  0  0  0
 27 28  2  0  0  0
 27 31  1  0  0  0
 27 29  1  0  0  0
 25 26  1  0  0  0
 32 33  1  0  0  0
 32 31  1  0  0  0
 29 30  1  0  0  0
 20 21  1  0  0  0
 20  2  1  0  0  0
  1  2  2  0  0  0
  2  3  1  0  0  0
  3  4  1  0  0  0
  4  5  1  0  0  0
  5  6  1  0  0  0
  6  7  1  0  0  0
  7  8  1  0  0  0
  8  9  1  0  0  0
  9 10  1  0  0  0
 10 11  2  0  0  0
 11 12  1  0  0  0
 12 13  1  0  0  0
 13 14  1  0  0  0
 14 15  1  0  0  0
 15 16  1  0  0  0
 16 17  1  0  0  0
 17 18  1  0  0  0
 18 19  1  0  0  0
M  CHG 1  28  -1
M  END
> <minimizedAffinity>
-7.89747

> <CNNscore>
0.7982279062

> <CNNaffinity>
6.6024007797

> <CNN_VS>
5.2702207565

> <CNNaffinity_variance>
0.6324263811

$$$$
/media/chris/experiments/cd1a-new-docking/inputs/ligands/4x6c_ligand.pdb


 37 36  0  0  0  0  0  0  0  0999 V2000
  -42.4387   57.4929   66.1515 O   0  0  0  0  0  0  0  0  0  0  0  0
  -42.6640   58.5183   65.5852 C   0  0  0  0  0  0  0  0  0  0  0  0
  -44.0261   58.9821   65.1844 C   0  0  0  0  0  0  0  0  0  0  0  0
  -44.9430   57.8430   64.7804 C   0  0  0  0  0  0  0  0  0  0  0  0
  -46.4059   58.2304   64.7960 C   0  0  0  0  0  0  0  0  0  0  0  0
  -46.9182   58.6878   66.1414 C   0  0  0  0  0  0  0  0  0  0  0  0
  -47.6599   59.9995   66.0983 C   0  0  0  0  0  0  0  0  0  0  0  0
  -47.4640   60.7271   64.7954 C   0  0  0  0  0  0  0  0  0  0  0  0
  -48.7179   61.0164   64.0246 C   0  0  0  0  0  0  0  0  0  0  0  0
  -49.8703   60.2171   64.4650 C   0  0  0  0  0  0  0  0  0  0  0  0
  -50.7438   59.5779   63.7187 C   0  0  0  0  0  0  0  0  0  0  0  0
  -50.7806   59.4782   62.2376 C   0  0  0  0  0  0  0  0  0  0  0  0
  -50.0735   58.2759   61.6462 C   0  0  0  0  0  0  0  0  0  0  0  0
  -49.6565   58.4915   60.2173 C   0  0  0  0  0  0  0  0  0  0  0  0
  -49.7037   57.2564   59.3547 C   0  0  0  0  0  0  0  0  0  0  0  0
  -48.7093   56.2034   59.7916 C   0  0  0  0  0  0  0  0  0  0  0  0
  -47.6929   55.8218   58.7518 C   0  0  0  0  0  0  0  0  0  0  0  0
  -47.4032   56.9085   57.7956 C   0  0  0  0  0  0  0  0  0  0  0  0
  -47.4393   56.4776   56.3994 C   0  0  0  0  0  0  0  0  0  0  0  0
  -41.7214   59.3893   65.2250 O   0  0  0  0  0  0  0  0  0  0  0  0
  -41.4040   60.4511   66.1524 C   0  0  0  0  0  0  0  0  0  0  0  0
  -40.8678   61.6057   65.3378 C   0  0  0  0  0  0  0  0  0  0  0  0
  -39.6135   62.0254   65.8754 O   0  0  0  0  0  0  0  0  0  0  0  0
  -38.9691   61.3051   65.7931 H   0  0  0  0  0  0  0  0  0  0  0  0
  -40.6831   61.3188   63.8675 C   0  0  0  0  0  0  0  0  0  0  0  0
  -39.3114   61.5902   63.5158 O   0  0  0  0  0  0  0  0  0  0  0  0
  -38.4860   60.5164   62.6820 P   0  0  0  0  0  0  0  0  0  0  0  0
  -39.0140   59.1862   63.0468 O   0  0  0  0  0  0  0  0  0  0  0  0
  -38.5303   60.9455   61.2702 O   0  0  0  0  0  0  0  0  0  0  0  0
  -39.4459   60.9146   60.9515 H   0  0  0  0  0  0  0  0  0  0  0  0
  -36.9707   60.5870   63.1464 O   0  0  0  0  0  0  0  0  0  0  0  0
  -36.5595   59.9109   64.3578 C   0  0  0  0  0  0  0  0  0  0  0  0
  -35.0606   59.7448   64.2508 C   0  0  0  0  0  0  0  0  0  0  0  0
  -34.5383   58.3233   64.3178 N   0  0  0  0  0  0  0  0  0  0  0  0
  -35.6211   57.3691   64.7076 C   0  0  0  0  0  0  0  0  0  0  0  0
  -33.4415   58.2407   65.3304 C   0  0  0  0  0  0  0  0  0  0  0  0
  -34.0054   57.9214   62.9785 C   0  0  0  0  0  0  0  0  0  0  0  0
 34 33  1  0  0  0
 34 35  1  0  0  0
 34 36  1  0  0  0
 34 37  1  0  0  0
 22 23  1  0  0  0
 22 25  1  0  0  0
 22 21  1  0  0  0
 23 24  1  0  0  0
 27 26  1  0  0  0
 27 28  2  0  0  0
 27 31  1  0  0  0
 27 29  1  0  0  0
 25 26  1  0  0  0
 32 33  1  0  0  0
 32 31  1  0  0  0
 29 30  1  0  0  0
 20 21  1  0  0  0
 20  2  1  0  0  0
  1  2  2  0  0  0
  2  3  1  0  0  0
  3  4  1  0  0  0
  4  5  1  0  0  0
  5  6  1  0  0  0
  6  7  1  0  0  0
  7  8  1  0  0  0
  8  9  1  0  0  0
  9 10  1  0  0  0
 10 11  2  0  0  0
 11 12  1  0  0  0
 12 13  1  0  0  0
 13 14  1  0  0  0
 14 15  1  0  0  0
 15 16  1  0  0  0
 16 17  1  0  0  0
 17 18  1  0  0  0
 18 19  1  0  0  0
M  CHG 1  28  -1
M  END
> <minimizedAffinity>
-8.06672

> <CNNscore>
0.7721037269

> <CNNaffinity>
6.8202590942

> <CNN_VS>
5.2659473419

> <CNNaffinity_variance>
0.3369111419

$$$$
/media/chris/experiments/cd1a-new-docking/inputs/ligands/4x6c_ligand.pdb


 37 36  0  0  0  0  0  0  0  0999 V2000
  -42.2841   60.3987   66.7728 O   0  0  0  0  0  0  0  0  0  0  0  0
  -42.4233   60.2049   65.6040 C   0  0  0  0  0  0  0  0  0  0  0  0
  -43.7154   59.8272   64.9568 C   0  0  0  0  0  0  0  0  0  0  0  0
  -44.6729   59.1353   65.9086 C   0  0  0  0  0  0  0  0  0  0  0  0
  -44.7446   57.6397   65.6884 C   0  0  0  0  0  0  0  0  0  0  0  0
  -46.1443   57.0718   65.6978 C   0  0  0  0  0  0  0  0  0  0  0  0
  -47.2270   58.1181   65.7717 C   0  0  0  0  0  0  0  0  0  0  0  0
  -48.0994   58.1289   64.5451 C   0  0  0  0  0  0  0  0  0  0  0  0
  -49.5707   57.9862   64.8001 C   0  0  0  0  0  0  0  0  0  0  0  0
  -50.2132   59.2390   65.2230 C   0  0  0  0  0  0  0  0  0  0  0  0
  -50.8295   60.1252   64.4725 C   0  0  0  0  0  0  0  0  0  0  0  0
  -51.0571   60.0804   63.0059 C   0  0  0  0  0  0  0  0  0  0  0  0
  -49.8552   60.4186   62.1478 C   0  0  0  0  0  0  0  0  0  0  0  0
  -49.8258   59.6456   60.8579 C   0  0  0  0  0  0  0  0  0  0  0  0
  -49.7573   58.1489   61.0225 C   0  0  0  0  0  0  0  0  0  0  0  0
  -50.1412   57.4070   59.7613 C   0  0  0  0  0  0  0  0  0  0  0  0
  -48.9860   56.9976   58.8907 C   0  0  0  0  0  0  0  0  0  0  0  0
  -48.2608   55.8185   59.4036 C   0  0  0  0  0  0  0  0  0  0  0  0
  -47.0131   55.5498   58.6914 C   0  0  0  0  0  0  0  0  0  0  0  0
  -41.4342   60.2929   64.7148 O   0  0  0  0  0  0  0  0  0  0  0  0
  -40.1008   59.9648   65.1647 C   0  0  0  0  0  0  0  0  0  0  0  0
  -39.2634   61.2144   65.0179 C   0  0  0  0  0  0  0  0  0  0  0  0
  -39.6826   62.1839   65.9784 O   0  0  0  0  0  0  0  0  0  0  0  0
  -39.5200   61.8445   66.8724 H   0  0  0  0  0  0  0  0  0  0  0  0
  -37.7758   61.0079   65.1686 C   0  0  0  0  0  0  0  0  0  0  0  0
  -37.1905   62.2297   65.6619 O   0  0  0  0  0  0  0  0  0  0  0  0
  -35.6885   62.5909   65.2840 P   0  0  0  0  0  0  0  0  0  0  0  0
  -34.8199   61.6383   66.0045 O   0  0  0  0  0  0  0  0  0  0  0  0
  -35.6216   62.6529   63.8106 O   0  0  0  0  0  0  0  0  0  0  0  0
  -35.8076   61.7754   63.4413 H   0  0  0  0  0  0  0  0  0  0  0  0
  -35.3772   64.0478   65.8293 O   0  0  0  0  0  0  0  0  0  0  0  0
  -34.7066   65.0050   64.9762 C   0  0  0  0  0  0  0  0  0  0  0  0
  -33.2280   64.8254   65.2348 C   0  0  0  0  0  0  0  0  0  0  0  0
  -32.3426   64.7159   64.0093 N   0  0  0  0  0  0  0  0  0  0  0  0
  -32.0409   63.2873   63.6883 C   0  0  0  0  0  0  0  0  0  0  0  0
  -31.0540   65.4322   64.2576 C   0  0  0  0  0  0  0  0  0  0  0  0
  -33.0333   65.3348   62.8349 C   0  0  0  0  0  0  0  0  0  0  0  0
 34 33  1  0  0  0
 34 35  1  0  0  0
 34 36  1  0  0  0
 34 37  1  0  0  0
 22 23  1  0  0  0
 22 25  1  0  0  0
 22 21  1  0  0  0
 23 24  1  0  0  0
 27 26  1  0  0  0
 27 28  2  0  0  0
 27 31  1  0  0  0
 27 29  1  0  0  0
 25 26  1  0  0  0
 32 33  1  0  0  0
 32 31  1  0  0  0
 29 30  1  0  0  0
 20 21  1  0  0  0
 20  2  1  0  0  0
  1  2  2  0  0  0
  2  3  1  0  0  0
  3  4  1  0  0  0
  4  5  1  0  0  0
  5  6  1  0  0  0
  6  7  1  0  0  0
  7  8  1  0  0  0
  8  9  1  0  0  0
  9 10  1  0  0  0
 10 11  2  0  0  0
 11 12  1  0  0  0
 12 13  1  0  0  0
 13 14  1  0  0  0
 14 15  1  0  0  0
 15 16  1  0  0  0
 16 17  1  0  0  0
 17 18  1  0  0  0
 18 19  1  0  0  0
M  CHG 1  28  -1
M  END
> <minimizedAffinity>
-8.15850

> <CNNscore>
0.7596510649

> <CNNaffinity>
6.3607649803

> <CNN_VS>
4.8319621086

> <CNNaffinity_variance>
0.3645156324

$$$$
/media/chris/experiments/cd1a-new-docking/inputs/ligands/4x6c_ligand.pdb


 37 36  0  0  0  0  0  0  0  0999 V2000
  -42.1825   57.9043   66.5249 O   0  0  0  0  0  0  0  0  0  0  0  0
  -42.2966   59.0298   66.1463 C   0  0  0  0  0  0  0  0  0  0  0  0
  -43.5730   59.6335   65.6593 C   0  0  0  0  0  0  0  0  0  0  0  0
  -44.3618   58.7013   64.7591 C   0  0  0  0  0  0  0  0  0  0  0  0
  -45.5117   58.0251   65.4739 C   0  0  0  0  0  0  0  0  0  0  0  0
  -46.1668   58.8677   66.5429 C   0  0  0  0  0  0  0  0  0  0  0  0
  -47.4735   59.4866   66.1168 C   0  0  0  0  0  0  0  0  0  0  0  0
  -48.0728   58.7962   64.9211 C   0  0  0  0  0  0  0  0  0  0  0  0
  -49.5357   58.4812   65.0255 C   0  0  0  0  0  0  0  0  0  0  0  0
  -50.3860   59.6783   65.0960 C   0  0  0  0  0  0  0  0  0  0  0  0
  -51.0681   60.2440   64.1247 C   0  0  0  0  0  0  0  0  0  0  0  0
  -51.1752   59.8083   62.7093 C   0  0  0  0  0  0  0  0  0  0  0  0
  -49.9713   60.1093   61.8403 C   0  0  0  0  0  0  0  0  0  0  0  0
  -49.7206   59.0465   60.8061 C   0  0  0  0  0  0  0  0  0  0  0  0
  -49.5616   57.6539   61.3604 C   0  0  0  0  0  0  0  0  0  0  0  0
  -49.5138   56.5987   60.2774 C   0  0  0  0  0  0  0  0  0  0  0  0
  -48.2018   56.4959   59.5508 C   0  0  0  0  0  0  0  0  0  0  0  0
  -48.2828   56.9255   58.1408 C   0  0  0  0  0  0  0  0  0  0  0  0
  -47.4417   56.1351   57.2442 C   0  0  0  0  0  0  0  0  0  0  0  0
  -41.2899   59.9023   66.1000 O   0  0  0  0  0  0  0  0  0  0  0  0
  -40.8488   60.3440   64.7967 C   0  0  0  0  0  0  0  0  0  0  0  0
  -39.8294   61.4371   65.0207 C   0  0  0  0  0  0  0  0  0  0  0  0
  -40.4186   62.4875   65.7874 O   0  0  0  0  0  0  0  0  0  0  0  0
  -40.6614   62.1509   66.6641 H   0  0  0  0  0  0  0  0  0  0  0  0
  -38.5620   60.9968   65.7121 C   0  0  0  0  0  0  0  0  0  0  0  0
  -37.7230   62.1522   65.9119 O   0  0  0  0  0  0  0  0  0  0  0  0
  -36.3610   62.2848   65.1015 P   0  0  0  0  0  0  0  0  0  0  0  0
  -36.7192   62.4777   63.6818 O   0  0  0  0  0  0  0  0  0  0  0  0
  -35.5547   63.3144   65.7863 O   0  0  0  0  0  0  0  0  0  0  0  0
  -36.0074   64.1704   65.7293 H   0  0  0  0  0  0  0  0  0  0  0  0
  -35.5744   60.9128   65.2270 O   0  0  0  0  0  0  0  0  0  0  0  0
  -35.3576   60.1000   64.0497 C   0  0  0  0  0  0  0  0  0  0  0  0
  -36.0181   58.7708   64.3370 C   0  0  0  0  0  0  0  0  0  0  0  0
  -37.0273   58.2898   63.3133 N   0  0  0  0  0  0  0  0  0  0  0  0
  -38.2644   57.7753   63.9765 C   0  0  0  0  0  0  0  0  0  0  0  0
  -36.4280   57.1881   62.4995 C   0  0  0  0  0  0  0  0  0  0  0  0
  -37.4040   59.4221   62.4103 C   0  0  0  0  0  0  0  0  0  0  0  0
 34 33  1  0  0  0
 34 35  1  0  0  0
 34 36  1  0  0  0
 34 37  1  0  0  0
 22 23  1  0  0  0
 22 25  1  0  0  0
 22 21  1  0  0  0
 23 24  1  0  0  0
 27 26  1  0  0  0
 27 28  2  0  0  0
 27 31  1  0  0  0
 27 29  1  0  0  0
 25 26  1  0  0  0
 32 33  1  0  0  0
 32 31  1  0  0  0
 29 30  1  0  0  0
 20 21  1  0  0  0
 20  2  1  0  0  0
  1  2  2  0  0  0
  2  3  1  0  0  0
  3  4  1  0  0  0
  4  5  1  0  0  0
  5  6  1  0  0  0
  6  7  1  0  0  0
  7  8  1  0  0  0
  8  9  1  0  0  0
  9 10  1  0  0  0
 10 11  2  0  0  0
 11 12  1  0  0  0
 12 13  1  0  0  0
 13 14  1  0  0  0
 14 15  1  0  0  0
 15 16  1  0  0  0
 16 17  1  0  0  0
 17 18  1  0  0  0
 18 19  1  0  0  0
M  CHG 1  28  -1
M  END
> <minimizedAffinity>
-8.06330

> <CNNscore>
0.7518038750

> <CNNaffinity>
6.8507432938

> <CNN_VS>
5.1504154205

> <CNNaffinity_variance>
0.2744236588

$$$$
/media/chris/experiments/cd1a-new-docking/inputs/ligands/4x6c_ligand.pdb


 37 36  0  0  0  0  0  0  0  0999 V2000
  -42.1657   60.7683   64.2507 O   0  0  0  0  0  0  0  0  0  0  0  0
  -41.4392   59.8607   64.5183 C   0  0  0  0  0  0  0  0  0  0  0  0
  -41.7146   58.8387   65.5722 C   0  0  0  0  0  0  0  0  0  0  0  0
  -43.1879   58.7268   65.9161 C   0  0  0  0  0  0  0  0  0  0  0  0
  -43.9070   57.6794   65.0936 C   0  0  0  0  0  0  0  0  0  0  0  0
  -45.3619   57.9843   64.8251 C   0  0  0  0  0  0  0  0  0  0  0  0
  -45.7904   59.3583   65.2734 C   0  0  0  0  0  0  0  0  0  0  0  0
  -46.8948   59.3103   66.2948 C   0  0  0  0  0  0  0  0  0  0  0  0
  -48.0631   60.2111   66.0229 C   0  0  0  0  0  0  0  0  0  0  0  0
  -47.9895   60.8830   64.7174 C   0  0  0  0  0  0  0  0  0  0  0  0
  -48.9100   60.9317   63.7800 C   0  0  0  0  0  0  0  0  0  0  0  0
  -50.2717   60.3403   63.8050 C   0  0  0  0  0  0  0  0  0  0  0  0
  -50.7957   59.8505   62.4705 C   0  0  0  0  0  0  0  0  0  0  0  0
  -50.6941   58.3576   62.3186 C   0  0  0  0  0  0  0  0  0  0  0  0
  -49.3756   57.8684   61.7763 C   0  0  0  0  0  0  0  0  0  0  0  0
  -49.5419   56.9344   60.5980 C   0  0  0  0  0  0  0  0  0  0  0  0
  -49.1132   57.5027   59.2739 C   0  0  0  0  0  0  0  0  0  0  0  0
  -48.4664   56.5075   58.3961 C   0  0  0  0  0  0  0  0  0  0  0  0
  -47.0244   56.7037   58.2605 C   0  0  0  0  0  0  0  0  0  0  0  0
  -40.2723   59.6415   63.9127 O   0  0  0  0  0  0  0  0  0  0  0  0
  -39.3778   58.6794   64.5149 C   0  0  0  0  0  0  0  0  0  0  0  0
  -38.2373   58.4674   63.5461 C   0  0  0  0  0  0  0  0  0  0  0  0
  -38.5691   59.0498   62.2855 O   0  0  0  0  0  0  0  0  0  0  0  0
  -38.6704   60.0089   62.3891 H   0  0  0  0  0  0  0  0  0  0  0  0
  -36.9078   59.0253   63.9926 C   0  0  0  0  0  0  0  0  0  0  0  0
  -37.1490   60.0741   64.9520 O   0  0  0  0  0  0  0  0  0  0  0  0
  -36.9248   61.5915   64.5316 P   0  0  0  0  0  0  0  0  0  0  0  0
  -37.3052   61.7072   63.1092 O   0  0  0  0  0  0  0  0  0  0  0  0
  -37.6242   62.4204   65.5330 O   0  0  0  0  0  0  0  0  0  0  0  0
  -38.5776   62.2474   65.4869 H   0  0  0  0  0  0  0  0  0  0  0  0
  -35.3765   61.9155   64.6533 O   0  0  0  0  0  0  0  0  0  0  0  0
  -34.8349   63.0858   63.9971 C   0  0  0  0  0  0  0  0  0  0  0  0
  -33.5812   63.4461   64.7614 C   0  0  0  0  0  0  0  0  0  0  0  0
  -32.3956   63.8937   63.9296 N   0  0  0  0  0  0  0  0  0  0  0  0
  -31.7135   62.7264   63.2914 C   0  0  0  0  0  0  0  0  0  0  0  0
  -31.4113   64.6033   64.8030 C   0  0  0  0  0  0  0  0  0  0  0  0
  -32.8609   64.8233   62.8531 C   0  0  0  0  0  0  0  0  0  0  0  0
 34 33  1  0  0  0
 34 35  1  0  0  0
 34 36  1  0  0  0
 34 37  1  0  0  0
 22 23  1  0  0  0
 22 25  1  0  0  0
 22 21  1  0  0  0
 23 24  1  0  0  0
 27 26  1  0  0  0
 27 28  2  0  0  0
 27 31  1  0  0  0
 27 29  1  0  0  0
 25 26  1  0  0  0
 32 33  1  0  0  0
 32 31  1  0  0  0
 29 30  1  0  0  0
 20 21  1  0  0  0
 20  2  1  0  0  0
  1  2  2  0  0  0
  2  3  1  0  0  0
  3  4  1  0  0  0
  4  5  1  0  0  0
  5  6  1  0  0  0
  6  7  1  0  0  0
  7  8  1  0  0  0
  8  9  1  0  0  0
  9 10  1  0  0  0
 10 11  2  0  0  0
 11 12  1  0  0  0
 12 13  1  0  0  0
 13 14  1  0  0  0
 14 15  1  0  0  0
 15 16  1  0  0  0
 16 17  1  0  0  0
 17 18  1  0  0  0
 18 19  1  0  0  0
M  CHG 1  28  -1
M  END
> <minimizedAffinity>
-7.65712

> <CNNscore>
0.6918329000

> <CNNaffinity>
6.2539157867

> <CNN_VS>
4.3266649246

> <CNNaffinity_variance>
0.3396372497

$$$$
/media/chris/experiments/cd1a-new-docking/inputs/ligands/4x6c_ligand.pdb


 37 36  0  0  0  0  0  0  0  0999 V2000
  -41.6874   61.0041   63.0600 O   0  0  0  0  0  0  0  0  0  0  0  0
  -41.2677   60.3180   63.9410 C   0  0  0  0  0  0  0  0  0  0  0  0
  -42.1218   59.5399   64.8876 C   0  0  0  0  0  0  0  0  0  0  0  0
  -43.5803   59.9550   64.8453 C   0  0  0  0  0  0  0  0  0  0  0  0
  -44.4285   59.2324   65.8694 C   0  0  0  0  0  0  0  0  0  0  0  0
  -45.5038   58.3494   65.2812 C   0  0  0  0  0  0  0  0  0  0  0  0
  -46.8693   58.9872   65.2526 C   0  0  0  0  0  0  0  0  0  0  0  0
  -47.7985   58.3109   64.2806 C   0  0  0  0  0  0  0  0  0  0  0  0
  -49.2031   58.1088   64.7668 C   0  0  0  0  0  0  0  0  0  0  0  0
  -49.9236   59.3676   65.0065 C   0  0  0  0  0  0  0  0  0  0  0  0
  -50.6755   60.0420   64.1648 C   0  0  0  0  0  0  0  0  0  0  0  0
  -51.0112   59.6962   62.7604 C   0  0  0  0  0  0  0  0  0  0  0  0
  -49.9212   59.9653   61.7431 C   0  0  0  0  0  0  0  0  0  0  0  0
  -49.8673   58.9237   60.6595 C   0  0  0  0  0  0  0  0  0  0  0  0
  -49.8325   57.5007   61.1554 C   0  0  0  0  0  0  0  0  0  0  0  0
  -49.1112   56.5710   60.2048 C   0  0  0  0  0  0  0  0  0  0  0  0
  -48.5867   57.2239   58.9563 C   0  0  0  0  0  0  0  0  0  0  0  0
  -47.6256   56.3803   58.2189 C   0  0  0  0  0  0  0  0  0  0  0  0
  -47.7856   56.4513   56.7678 C   0  0  0  0  0  0  0  0  0  0  0  0
  -39.9706   60.1602   64.2043 O   0  0  0  0  0  0  0  0  0  0  0  0
  -39.1582   59.5177   63.1967 C   0  0  0  0  0  0  0  0  0  0  0  0
  -37.9905   60.4356   62.9172 C   0  0  0  0  0  0  0  0  0  0  0  0
  -38.0378   60.8652   61.5565 O   0  0  0  0  0  0  0  0  0  0  0  0
  -38.8421   61.3872   61.4100 H   0  0  0  0  0  0  0  0  0  0  0  0
  -37.9132   61.6578   63.7995 C   0  0  0  0  0  0  0  0  0  0  0  0
  -36.5631   61.7857   64.2892 O   0  0  0  0  0  0  0  0  0  0  0  0
  -36.2718   61.6224   65.8441 P   0  0  0  0  0  0  0  0  0  0  0  0
  -37.4684   61.0000   66.4457 O   0  0  0  0  0  0  0  0  0  0  0  0
  -34.9682   60.9402   65.9654 O   0  0  0  0  0  0  0  0  0  0  0  0
  -35.0340   60.0481   65.5902 H   0  0  0  0  0  0  0  0  0  0  0  0
  -36.1037   63.0699   66.4713 O   0  0  0  0  0  0  0  0  0  0  0  0
  -34.7782   63.6077   66.6893 C   0  0  0  0  0  0  0  0  0  0  0  0
  -34.5339   64.5786   65.5565 C   0  0  0  0  0  0  0  0  0  0  0  0
  -33.1603   64.5291   64.9172 N   0  0  0  0  0  0  0  0  0  0  0  0
  -32.9606   63.2514   64.1673 C   0  0  0  0  0  0  0  0  0  0  0  0
  -32.1112   64.6298   65.9777 C   0  0  0  0  0  0  0  0  0  0  0  0
  -33.0098   65.6724   63.9635 C   0  0  0  0  0  0  0  0  0  0  0  0
 34 33  1  0  0  0
 34 35  1  0  0  0
 34 36  1  0  0  0
 34 37  1  0  0  0
 22 23  1  0  0  0
 22 25  1  0  0  0
 22 21  1  0  0  0
 23 24  1  0  0  0
 27 26  1  0  0  0
 27 28  2  0  0  0
 27 31  1  0  0  0
 27 29  1  0  0  0
 25 26  1  0  0  0
 32 33  1  0  0  0
 32 31  1  0  0  0
 29 30  1  0  0  0
 20 21  1  0  0  0
 20  2  1  0  0  0
  1  2  2  0  0  0
  2  3  1  0  0  0
  3  4  1  0  0  0
  4  5  1  0  0  0
  5  6  1  0  0  0
  6  7  1  0  0  0
  7  8  1  0  0  0
  8  9  1  0  0  0
  9 10  1  0  0  0
 10 11  2  0  0  0
 11 12  1  0  0  0
 12 13  1  0  0  0
 13 14  1  0  0  0
 14 15  1  0  0  0
 15 16  1  0  0  0
 16 17  1  0  0  0
 17 18  1  0  0  0
 18 19  1  0  0  0
M  CHG 1  28  -1
M  END
> <minimizedAffinity>
-7.91093

> <CNNscore>
0.6178225279

> <CNNaffinity>
6.1808686256

> <CNN_VS>
3.8186798096

> <CNNaffinity_variance>
0.4937207103

$$$$
