/media/chris/experiments/cd1a-new-docking/inputs/ligands/4x6c_ligand.pdb


 37 36  0  0  0  0  0  0  0  0999 V2000
  -41.8274   58.1289   65.6897 O   0  0  0  0  0  0  0  0  0  0  0  0
  -42.7825   58.8207   65.5101 C   0  0  0  0  0  0  0  0  0  0  0  0
  -44.0724   58.3472   64.9245 C   0  0  0  0  0  0  0  0  0  0  0  0
  -44.5734   57.0635   65.5590 C   0  0  0  0  0  0  0  0  0  0  0  0
  -45.9520   57.2057   66.1669 C   0  0  0  0  0  0  0  0  0  0  0  0
  -46.3276   58.6195   66.5434 C   0  0  0  0  0  0  0  0  0  0  0  0
  -47.6245   59.0890   65.9353 C   0  0  0  0  0  0  0  0  0  0  0  0
  -48.2152   58.0769   64.9907 C   0  0  0  0  0  0  0  0  0  0  0  0
  -49.7135   58.0033   64.9804 C   0  0  0  0  0  0  0  0  0  0  0  0
  -50.3622   59.2883   65.2788 C   0  0  0  0  0  0  0  0  0  0  0  0
  -50.9407   60.1167   64.4375 C   0  0  0  0  0  0  0  0  0  0  0  0
  -51.1093   59.9597   62.9708 C   0  0  0  0  0  0  0  0  0  0  0  0
  -49.9518   60.4483   62.1243 C   0  0  0  0  0  0  0  0  0  0  0  0
  -49.6821   59.5606   60.9404 C   0  0  0  0  0  0  0  0  0  0  0  0
  -49.8524   58.0869   61.2070 C   0  0  0  0  0  0  0  0  0  0  0  0
  -49.8719   57.2646   59.9374 C   0  0  0  0  0  0  0  0  0  0  0  0
  -49.1803   55.9334   60.0343 C   0  0  0  0  0  0  0  0  0  0  0  0
  -48.0892   55.7724   59.0531 C   0  0  0  0  0  0  0  0  0  0  0  0
  -47.8942   56.9462   58.2044 C   0  0  0  0  0  0  0  0  0  0  0  0
  -42.8224   60.1205   65.8033 O   0  0  0  0  0  0  0  0  0  0  0  0
  -41.7391   60.6605   66.5924 C   0  0  0  0  0  0  0  0  0  0  0  0
  -40.8305   61.4091   65.6446 C   0  0  0  0  0  0  0  0  0  0  0  0
  -40.7112   62.7662   66.0714 O   0  0  0  0  0  0  0  0  0  0  0  0
  -40.2868   62.7948   66.9432 H   0  0  0  0  0  0  0  0  0  0  0  0
  -39.4430   60.8321   65.5005 C   0  0  0  0  0  0  0  0  0  0  0  0
  -38.6843   61.6777   64.6129 O   0  0  0  0  0  0  0  0  0  0  0  0
  -37.1059   61.7782   64.7805 P   0  0  0  0  0  0  0  0  0  0  0  0
  -36.5747   62.3653   63.5338 O   0  0  0  0  0  0  0  0  0  0  0  0
  -36.8552   62.4648   66.0629 O   0  0  0  0  0  0  0  0  0  0  0  0
  -37.1973   63.3713   66.0166 H   0  0  0  0  0  0  0  0  0  0  0  0
  -36.5275   60.3070   64.9154 O   0  0  0  0  0  0  0  0  0  0  0  0
  -35.7030   59.7608   63.8592 C   0  0  0  0  0  0  0  0  0  0  0  0
  -36.1422   58.3238   63.6923 C   0  0  0  0  0  0  0  0  0  0  0  0
  -37.2846   58.0811   62.7259 N   0  0  0  0  0  0  0  0  0  0  0  0
  -36.9826   56.9384   61.8105 C   0  0  0  0  0  0  0  0  0  0  0  0
  -37.5109   59.3073   61.9009 C   0  0  0  0  0  0  0  0  0  0  0  0
  -38.5304   57.7643   63.4920 C   0  0  0  0  0  0  0  0  0  0  0  0
 34 33  1  0  0  0
 34 35  1  0  0  0
 34 36  1  0  0  0
 34 37  1  0  0  0
 22 23  1  0  0  0
 22 25  1  0  0  0
 22 21  1  0  0  0
 23 24  1  0  0  0
 27 26  1  0  0  0
 27 28  2  0  0  0
 27 31  1  0  0  0
 27 29  1  0  0  0
 25 26  1  0  0  0
 32 33  1  0  0  0
 32 31  1  0  0  0
 29 30  1  0  0  0
 20 21  1  0  0  0
 20  2  1  0  0  0
  1  2  2  0  0  0
  2  3  1  0  0  0
  3  4  1  0  0  0
  4  5  1  0  0  0
  5  6  1  0  0  0
  6  7  1  0  0  0
  7  8  1  0  0  0
  8  9  1  0  0  0
  9 10  1  0  0  0
 10 11  2  0  0  0
 11 12  1  0  0  0
 12 13  1  0  0  0
 13 14  1  0  0  0
 14 15  1  0  0  0
 15 16  1  0  0  0
 16 17  1  0  0  0
 17 18  1  0  0  0
 18 19  1  0  0  0
M  CHG 1  28  -1
M  END
> <minimizedAffinity>
-8.29539

> <CNNscore>
0.9138174057

> <CNNaffinity>
7.1544961929

> <CNN_VS>
6.5379033089

> <CNNaffinity_variance>
0.3889579773

$$$$
/media/chris/experiments/cd1a-new-docking/inputs/ligands/4x6c_ligand.pdb


 37 36  0  0  0  0  0  0  0  0999 V2000
  -42.6126   58.0917   66.0289 O   0  0  0  0  0  0  0  0  0  0  0  0
  -43.1245   59.1660   65.9464 C   0  0  0  0  0  0  0  0  0  0  0  0
  -44.5778   59.3933   65.6865 C   0  0  0  0  0  0  0  0  0  0  0  0
  -45.1767   58.3676   64.7428 C   0  0  0  0  0  0  0  0  0  0  0  0
  -45.8174   57.2036   65.4673 C   0  0  0  0  0  0  0  0  0  0  0  0
  -47.2579   57.4284   65.8625 C   0  0  0  0  0  0  0  0  0  0  0  0
  -48.1913   57.6057   64.6922 C   0  0  0  0  0  0  0  0  0  0  0  0
  -49.4817   58.2744   65.0833 C   0  0  0  0  0  0  0  0  0  0  0  0
  -49.6311   59.6980   64.6344 C   0  0  0  0  0  0  0  0  0  0  0  0
  -50.8951   59.9574   63.9300 C   0  0  0  0  0  0  0  0  0  0  0  0
  -51.1751   59.7387   62.6642 C   0  0  0  0  0  0  0  0  0  0  0  0
  -50.2954   59.1521   61.6219 C   0  0  0  0  0  0  0  0  0  0  0  0
  -50.5273   57.6855   61.3212 C   0  0  0  0  0  0  0  0  0  0  0  0
  -49.8856   57.2476   60.0332 C   0  0  0  0  0  0  0  0  0  0  0  0
  -48.9981   56.0353   60.1525 C   0  0  0  0  0  0  0  0  0  0  0  0
  -48.2700   55.7185   58.8648 C   0  0  0  0  0  0  0  0  0  0  0  0
  -47.0643   56.5739   58.5920 C   0  0  0  0  0  0  0  0  0  0  0  0
  -46.7534   56.6989   57.1544 C   0  0  0  0  0  0  0  0  0  0  0  0
  -47.8842   56.3766   56.2861 C   0  0  0  0  0  0  0  0  0  0  0  0
  -42.4604   60.3154   66.0682 O   0  0  0  0  0  0  0  0  0  0  0  0
  -41.0166   60.2554   66.0691 C   0  0  0  0  0  0  0  0  0  0  0  0
  -40.5271   61.3444   65.1424 C   0  0  0  0  0  0  0  0  0  0  0  0
  -39.4541   62.0518   65.7640 O   0  0  0  0  0  0  0  0  0  0  0  0
  -38.7069   61.4490   65.9028 H   0  0  0  0  0  0  0  0  0  0  0  0
  -40.0615   60.8687   63.7876 C   0  0  0  0  0  0  0  0  0  0  0  0
  -39.3222   59.6430   63.9608 O   0  0  0  0  0  0  0  0  0  0  0  0
  -38.1793   59.2607   62.9229 P   0  0  0  0  0  0  0  0  0  0  0  0
  -38.3049   57.8139   62.6542 O   0  0  0  0  0  0  0  0  0  0  0  0
  -38.2859   60.2128   61.7999 O   0  0  0  0  0  0  0  0  0  0  0  0
  -39.1360   60.0880   61.3497 H   0  0  0  0  0  0  0  0  0  0  0  0
  -36.7753   59.5106   63.6181 O   0  0  0  0  0  0  0  0  0  0  0  0
  -35.8518   58.4094   63.7858 C   0  0  0  0  0  0  0  0  0  0  0  0
  -34.6611   58.7309   62.9114 C   0  0  0  0  0  0  0  0  0  0  0  0
  -33.3103   58.7462   63.5992 N   0  0  0  0  0  0  0  0  0  0  0  0
  -32.3789   57.7545   62.9796 C   0  0  0  0  0  0  0  0  0  0  0  0
  -33.4810   58.4032   65.0444 C   0  0  0  0  0  0  0  0  0  0  0  0
  -32.7042   60.1094   63.4832 C   0  0  0  0  0  0  0  0  0  0  0  0
 34 33  1  0  0  0
 34 35  1  0  0  0
 34 36  1  0  0  0
 34 37  1  0  0  0
 22 23  1  0  0  0
 22 25  1  0  0  0
 22 21  1  0  0  0
 23 24  1  0  0  0
 27 26  1  0  0  0
 27 28  2  0  0  0
 27 31  1  0  0  0
 27 29  1  0  0  0
 25 26  1  0  0  0
 32 33  1  0  0  0
 32 31  1  0  0  0
 29 30  1  0  0  0
 20 21  1  0  0  0
 20  2  1  0  0  0
  1  2  2  0  0  0
  2  3  1  0  0  0
  3  4  1  0  0  0
  4  5  1  0  0  0
  5  6  1  0  0  0
  6  7  1  0  0  0
  7  8  1  0  0  0
  8  9  1  0  0  0
  9 10  1  0  0  0
 10 11  2  0  0  0
 11 12  1  0  0  0
 12 13  1  0  0  0
 13 14  1  0  0  0
 14 15  1  0  0  0
 15 16  1  0  0  0
 16 17  1  0  0  0
 17 18  1  0  0  0
 18 19  1  0  0  0
M  CHG 1  28  -1
M  END
> <minimizedAffinity>
-7.86368

> <CNNscore>
0.8957172632

> <CNNaffinity>
6.8825225830

> <CNN_VS>
6.1647944450

> <CNNaffinity_variance>
0.6348353028

$$$$
/media/chris/experiments/cd1a-new-docking/inputs/ligands/4x6c_ligand.pdb


 37 36  0  0  0  0  0  0  0  0999 V2000
  -43.9880   60.1489   64.8142 O   0  0  0  0  0  0  0  0  0  0  0  0
  -43.2815   59.4736   65.4983 C   0  0  0  0  0  0  0  0  0  0  0  0
  -43.3093   57.9805   65.5289 C   0  0  0  0  0  0  0  0  0  0  0  0
  -44.5945   57.4019   64.9677 C   0  0  0  0  0  0  0  0  0  0  0  0
  -45.5850   57.0136   66.0440 C   0  0  0  0  0  0  0  0  0  0  0  0
  -46.7233   57.9893   66.2289 C   0  0  0  0  0  0  0  0  0  0  0  0
  -47.1843   58.6388   64.9491 C   0  0  0  0  0  0  0  0  0  0  0  0
  -48.3170   57.8893   64.3007 C   0  0  0  0  0  0  0  0  0  0  0  0
  -49.6278   57.9478   65.0279 C   0  0  0  0  0  0  0  0  0  0  0  0
  -50.1382   59.3157   65.2000 C   0  0  0  0  0  0  0  0  0  0  0  0
  -50.7307   60.0761   64.3059 C   0  0  0  0  0  0  0  0  0  0  0  0
  -51.0589   59.7435   62.8967 C   0  0  0  0  0  0  0  0  0  0  0  0
  -49.9580   60.0077   61.8899 C   0  0  0  0  0  0  0  0  0  0  0  0
  -49.9303   58.9936   60.7794 C   0  0  0  0  0  0  0  0  0  0  0  0
  -50.0677   57.5621   61.2307 C   0  0  0  0  0  0  0  0  0  0  0  0
  -49.7788   56.5728   60.1233 C   0  0  0  0  0  0  0  0  0  0  0  0
  -49.1176   57.1588   58.9071 C   0  0  0  0  0  0  0  0  0  0  0  0
  -47.8429   56.4983   58.5634 C   0  0  0  0  0  0  0  0  0  0  0  0
  -47.1153   57.1665   57.4862 C   0  0  0  0  0  0  0  0  0  0  0  0
  -42.3719   59.9666   66.3388 O   0  0  0  0  0  0  0  0  0  0  0  0
  -41.0213   60.1171   65.8477 C   0  0  0  0  0  0  0  0  0  0  0  0
  -40.9417   61.4690   65.1766 C   0  0  0  0  0  0  0  0  0  0  0  0
  -39.9144   62.2463   65.7919 O   0  0  0  0  0  0  0  0  0  0  0  0
  -39.0561   61.8163   65.6523 H   0  0  0  0  0  0  0  0  0  0  0  0
  -40.6827   61.4298   63.6900 C   0  0  0  0  0  0  0  0  0  0  0  0
  -39.4348   60.7456   63.4595 O   0  0  0  0  0  0  0  0  0  0  0  0
  -38.8570   60.6404   61.9814 P   0  0  0  0  0  0  0  0  0  0  0  0
  -39.9486   61.0197   61.0619 O   0  0  0  0  0  0  0  0  0  0  0  0
  -37.5975   61.4099   61.9592 O   0  0  0  0  0  0  0  0  0  0  0  0
  -37.7876   62.3462   62.1272 H   0  0  0  0  0  0  0  0  0  0  0  0
  -38.4848   59.1237   61.7020 O   0  0  0  0  0  0  0  0  0  0  0  0
  -38.2528   58.2257   62.8127 C   0  0  0  0  0  0  0  0  0  0  0  0
  -36.9093   57.5833   62.5519 C   0  0  0  0  0  0  0  0  0  0  0  0
  -35.8421   57.8131   63.6036 N   0  0  0  0  0  0  0  0  0  0  0  0
  -35.7227   59.2643   63.9421 C   0  0  0  0  0  0  0  0  0  0  0  0
  -34.5227   57.3321   63.0907 C   0  0  0  0  0  0  0  0  0  0  0  0
  -36.1933   57.0588   64.8473 C   0  0  0  0  0  0  0  0  0  0  0  0
 34 33  1  0  0  0
 34 35  1  0  0  0
 34 36  1  0  0  0
 34 37  1  0  0  0
 22 23  1  0  0  0
 22 25  1  0  0  0
 22 21  1  0  0  0
 23 24  1  0  0  0
 27 26  1  0  0  0
 27 28  2  0  0  0
 27 31  1  0  0  0
 27 29  1  0  0  0
 25 26  1  0  0  0
 32 33  1  0  0  0
 32 31  1  0  0  0
 29 30  1  0  0  0
 20 21  1  0  0  0
 20  2  1  0  0  0
  1  2  2  0  0  0
  2  3  1  0  0  0
  3  4  1  0  0  0
  4  5  1  0  0  0
  5  6  1  0  0  0
  6  7  1  0  0  0
  7  8  1  0  0  0
  8  9  1  0  0  0
  9 10  1  0  0  0
 10 11  2  0  0  0
 11 12  1  0  0  0
 12 13  1  0  0  0
 13 14  1  0  0  0
 14 15  1  0  0  0
 15 16  1  0  0  0
 16 17  1  0  0  0
 17 18  1  0  0  0
 18 19  1  0  0  0
M  CHG 1  28  -1
M  END
> <minimizedAffinity>
-8.40524

> <CNNscore>
0.8261657953

> <CNNaffinity>
6.9909796715

> <CNN_VS>
5.7757081985

> <CNNaffinity_variance>
0.3451864719

$$$$
/media/chris/experiments/cd1a-new-docking/inputs/ligands/4x6c_ligand.pdb


 37 36  0  0  0  0  0  0  0  0999 V2000
  -40.5572   61.5713   65.9193 O   0  0  0  0  0  0  0  0  0  0  0  0
  -41.1552   60.7136   65.3449 C   0  0  0  0  0  0  0  0  0  0  0  0
  -42.2679   59.9140   65.9394 C   0  0  0  0  0  0  0  0  0  0  0  0
  -43.4486   59.7549   65.0001 C   0  0  0  0  0  0  0  0  0  0  0  0
  -44.7064   59.2980   65.7070 C   0  0  0  0  0  0  0  0  0  0  0  0
  -45.5088   58.2647   64.9519 C   0  0  0  0  0  0  0  0  0  0  0  0
  -46.9559   58.1925   65.3675 C   0  0  0  0  0  0  0  0  0  0  0  0
  -47.3493   59.3258   66.2766 C   0  0  0  0  0  0  0  0  0  0  0  0
  -48.5626   60.0996   65.8530 C   0  0  0  0  0  0  0  0  0  0  0  0
  -49.6751   59.2448   65.4141 C   0  0  0  0  0  0  0  0  0  0  0  0
  -50.4082   59.3652   64.3293 C   0  0  0  0  0  0  0  0  0  0  0  0
  -50.2889   60.3821   63.2541 C   0  0  0  0  0  0  0  0  0  0  0  0
  -49.9886   59.8390   61.8720 C   0  0  0  0  0  0  0  0  0  0  0  0
  -49.7728   58.3505   61.8665 C   0  0  0  0  0  0  0  0  0  0  0  0
  -50.7566   57.5750   61.0283 C   0  0  0  0  0  0  0  0  0  0  0  0
  -50.0908   56.5066   60.1895 C   0  0  0  0  0  0  0  0  0  0  0  0
  -48.6407   56.7554   59.8813 C   0  0  0  0  0  0  0  0  0  0  0  0
  -48.3988   57.1087   58.4685 C   0  0  0  0  0  0  0  0  0  0  0  0
  -47.5318   56.1593   57.7733 C   0  0  0  0  0  0  0  0  0  0  0  0
  -40.9019   60.3468   64.0886 O   0  0  0  0  0  0  0  0  0  0  0  0
  -40.1047   61.2406   63.2800 C   0  0  0  0  0  0  0  0  0  0  0  0
  -39.2005   60.3799   62.4279 C   0  0  0  0  0  0  0  0  0  0  0  0
  -39.2723   60.8131   61.0695 O   0  0  0  0  0  0  0  0  0  0  0  0
  -38.9365   61.7206   61.0014 H   0  0  0  0  0  0  0  0  0  0  0  0
  -37.7504   60.3669   62.8470 C   0  0  0  0  0  0  0  0  0  0  0  0
  -37.5096   61.5024   63.7021 O   0  0  0  0  0  0  0  0  0  0  0  0
  -36.8561   61.2830   65.1354 P   0  0  0  0  0  0  0  0  0  0  0  0
  -37.1836   62.4725   65.9472 O   0  0  0  0  0  0  0  0  0  0  0  0
  -37.2889   59.9515   65.6031 O   0  0  0  0  0  0  0  0  0  0  0  0
  -38.2515   59.9479   65.7229 H   0  0  0  0  0  0  0  0  0  0  0  0
  -35.2805   61.2285   64.9581 O   0  0  0  0  0  0  0  0  0  0  0  0
  -34.5811   59.9749   65.1400 C   0  0  0  0  0  0  0  0  0  0  0  0
  -34.3355   59.4325   63.7503 C   0  0  0  0  0  0  0  0  0  0  0  0
  -32.9537   58.8678   63.4868 N   0  0  0  0  0  0  0  0  0  0  0  0
  -32.9859   57.8554   62.3873 C   0  0  0  0  0  0  0  0  0  0  0  0
  -32.4372   58.2105   64.7264 C   0  0  0  0  0  0  0  0  0  0  0  0
  -32.0270   59.9743   63.0916 C   0  0  0  0  0  0  0  0  0  0  0  0
 34 33  1  0  0  0
 34 35  1  0  0  0
 34 36  1  0  0  0
 34 37  1  0  0  0
 22 23  1  0  0  0
 22 25  1  0  0  0
 22 21  1  0  0  0
 23 24  1  0  0  0
 27 26  1  0  0  0
 27 28  2  0  0  0
 27 31  1  0  0  0
 27 29  1  0  0  0
 25 26  1  0  0  0
 32 33  1  0  0  0
 32 31  1  0  0  0
 29 30  1  0  0  0
 20 21  1  0  0  0
 20  2  1  0  0  0
  1  2  2  0  0  0
  2  3  1  0  0  0
  3  4  1  0  0  0
  4  5  1  0  0  0
  5  6  1  0  0  0
  6  7  1  0  0  0
  7  8  1  0  0  0
  8  9  1  0  0  0
  9 10  1  0  0  0
 10 11  2  0  0  0
 11 12  1  0  0  0
 12 13  1  0  0  0
 13 14  1  0  0  0
 14 15  1  0  0  0
 15 16  1  0  0  0
 16 17  1  0  0  0
 17 18  1  0  0  0
 18 19  1  0  0  0
M  CHG 1  28  -1
M  END
> <minimizedAffinity>
-7.66113

> <CNNscore>
0.7739588618

> <CNNaffinity>
6.5924186707

> <CNN_VS>
5.1022610664

> <CNNaffinity_variance>
0.8637417555

$$$$
/media/chris/experiments/cd1a-new-docking/inputs/ligands/4x6c_ligand.pdb


 37 36  0  0  0  0  0  0  0  0999 V2000
  -41.0736   61.9686   64.9267 O   0  0  0  0  0  0  0  0  0  0  0  0
  -41.3016   60.9564   64.3379 C   0  0  0  0  0  0  0  0  0  0  0  0
  -42.5825   60.1936   64.4305 C   0  0  0  0  0  0  0  0  0  0  0  0
  -42.6572   59.3117   65.6627 C   0  0  0  0  0  0  0  0  0  0  0  0
  -43.4487   58.0427   65.4318 C   0  0  0  0  0  0  0  0  0  0  0  0
  -44.8220   58.2599   64.8413 C   0  0  0  0  0  0  0  0  0  0  0  0
  -45.7891   58.9373   65.7785 C   0  0  0  0  0  0  0  0  0  0  0  0
  -47.2188   58.7930   65.3308 C   0  0  0  0  0  0  0  0  0  0  0  0
  -48.1069   59.9660   65.6235 C   0  0  0  0  0  0  0  0  0  0  0  0
  -48.1393   60.9575   64.5385 C   0  0  0  0  0  0  0  0  0  0  0  0
  -48.9829   61.0280   63.5325 C   0  0  0  0  0  0  0  0  0  0  0  0
  -50.1356   60.1384   63.2426 C   0  0  0  0  0  0  0  0  0  0  0  0
  -50.1113   59.4577   61.8893 C   0  0  0  0  0  0  0  0  0  0  0  0
  -50.8424   58.1433   61.8865 C   0  0  0  0  0  0  0  0  0  0  0  0
  -50.6385   57.3123   60.6456 C   0  0  0  0  0  0  0  0  0  0  0  0
  -49.2988   57.5650   59.9901 C   0  0  0  0  0  0  0  0  0  0  0  0
  -49.1950   57.1042   58.5630 C   0  0  0  0  0  0  0  0  0  0  0  0
  -47.8156   56.7672   58.1596 C   0  0  0  0  0  0  0  0  0  0  0  0
  -47.2371   55.6692   58.9317 C   0  0  0  0  0  0  0  0  0  0  0  0
  -40.4332   60.3630   63.5190 O   0  0  0  0  0  0  0  0  0  0  0  0
  -39.0269   60.6019   63.7505 C   0  0  0  0  0  0  0  0  0  0  0  0
  -38.5010   59.4242   64.5385 C   0  0  0  0  0  0  0  0  0  0  0  0
  -39.4144   58.3324   64.4295 O   0  0  0  0  0  0  0  0  0  0  0  0
  -39.4669   58.0459   63.5043 H   0  0  0  0  0  0  0  0  0  0  0  0
  -37.1312   58.9413   64.1275 C   0  0  0  0  0  0  0  0  0  0  0  0
  -37.2824   57.7277   63.3640 O   0  0  0  0  0  0  0  0  0  0  0  0
  -36.8454   57.7009   61.8350 P   0  0  0  0  0  0  0  0  0  0  0  0
  -36.8933   56.2917   61.3957 O   0  0  0  0  0  0  0  0  0  0  0  0
  -37.6757   58.7011   61.1356 O   0  0  0  0  0  0  0  0  0  0  0  0
  -38.6067   58.4315   61.1729 H   0  0  0  0  0  0  0  0  0  0  0  0
  -35.3400   58.1931   61.7415 O   0  0  0  0  0  0  0  0  0  0  0  0
  -34.2959   57.4365   62.3982 C   0  0  0  0  0  0  0  0  0  0  0  0
  -33.0187   58.2143   62.1756 C   0  0  0  0  0  0  0  0  0  0  0  0
  -32.4774   58.9692   63.3734 N   0  0  0  0  0  0  0  0  0  0  0  0
  -32.3884   58.0827   64.5739 C   0  0  0  0  0  0  0  0  0  0  0  0
  -33.3820   60.1161   63.6924 C   0  0  0  0  0  0  0  0  0  0  0  0
  -31.1100   59.4906   63.0611 C   0  0  0  0  0  0  0  0  0  0  0  0
 34 33  1  0  0  0
 34 35  1  0  0  0
 34 36  1  0  0  0
 34 37  1  0  0  0
 22 23  1  0  0  0
 22 25  1  0  0  0
 22 21  1  0  0  0
 23 24  1  0  0  0
 27 26  1  0  0  0
 27 28  2  0  0  0
 27 31  1  0  0  0
 27 29  1  0  0  0
 25 26  1  0  0  0
 32 33  1  0  0  0
 32 31  1  0  0  0
 29 30  1  0  0  0
 20 21  1  0  0  0
 20  2  1  0  0  0
  1  2  2  0  0  0
  2  3  1  0  0  0
  3  4  1  0  0  0
  4  5  1  0  0  0
  5  6  1  0  0  0
  6  7  1  0  0  0
  7  8  1  0  0  0
  8  9  1  0  0  0
  9 10  1  0  0  0
 10 11  2  0  0  0
 11 12  1  0  0  0
 12 13  1  0  0  0
 13 14  1  0  0  0
 14 15  1  0  0  0
 15 16  1  0  0  0
 16 17  1  0  0  0
 17 18  1  0  0  0
 18 19  1  0  0  0
M  CHG 1  28  -1
M  END
> <minimizedAffinity>
-7.53280

> <CNNscore>
0.7287356257

> <CNNaffinity>
6.4082298279

> <CNN_VS>
4.6699051857

> <CNNaffinity_variance>
0.6763898730

$$$$
/media/chris/experiments/cd1a-new-docking/inputs/ligands/4x6c_ligand.pdb


 37 36  0  0  0  0  0  0  0  0999 V2000
  -42.2957   57.7921   65.8730 O   0  0  0  0  0  0  0  0  0  0  0  0
  -42.8018   58.7874   65.4530 C   0  0  0  0  0  0  0  0  0  0  0  0
  -44.0990   58.8302   64.7137 C   0  0  0  0  0  0  0  0  0  0  0  0
  -44.9504   57.5956   64.9424 C   0  0  0  0  0  0  0  0  0  0  0  0
  -45.8678   57.7260   66.1390 C   0  0  0  0  0  0  0  0  0  0  0  0
  -46.6736   59.0033   66.1740 C   0  0  0  0  0  0  0  0  0  0  0  0
  -47.6764   59.1231   65.0550 C   0  0  0  0  0  0  0  0  0  0  0  0
  -48.5519   57.9046   64.9359 C   0  0  0  0  0  0  0  0  0  0  0  0
  -49.9982   58.1153   65.2738 C   0  0  0  0  0  0  0  0  0  0  0  0
  -50.3789   59.5334   65.3477 C   0  0  0  0  0  0  0  0  0  0  0  0
  -50.8643   60.2914   64.3894 C   0  0  0  0  0  0  0  0  0  0  0  0
  -51.1757   59.9070   62.9896 C   0  0  0  0  0  0  0  0  0  0  0  0
  -50.0849   60.1889   61.9767 C   0  0  0  0  0  0  0  0  0  0  0  0
  -49.3713   58.9429   61.5289 C   0  0  0  0  0  0  0  0  0  0  0  0
  -50.1853   57.6789   61.6349 C   0  0  0  0  0  0  0  0  0  0  0  0
  -50.7734   57.2528   60.3078 C   0  0  0  0  0  0  0  0  0  0  0  0
  -49.8947   57.5069   59.1149 C   0  0  0  0  0  0  0  0  0  0  0  0
  -48.7813   56.5448   58.9975 C   0  0  0  0  0  0  0  0  0  0  0  0
  -47.9614   56.7488   57.8048 C   0  0  0  0  0  0  0  0  0  0  0  0
  -42.2682   60.0021   65.5818 O   0  0  0  0  0  0  0  0  0  0  0  0
  -41.0329   60.1134   66.3232 C   0  0  0  0  0  0  0  0  0  0  0  0
  -40.1366   61.0553   65.5525 C   0  0  0  0  0  0  0  0  0  0  0  0
  -40.4300   62.4022   65.9237 O   0  0  0  0  0  0  0  0  0  0  0  0
  -40.2250   62.5307   66.8631 H   0  0  0  0  0  0  0  0  0  0  0  0
  -38.6566   60.8227   65.7370 C   0  0  0  0  0  0  0  0  0  0  0  0
  -37.9791   62.0929   65.6585 O   0  0  0  0  0  0  0  0  0  0  0  0
  -36.3913   62.1336   65.5751 P   0  0  0  0  0  0  0  0  0  0  0  0
  -35.9278   63.0817   66.6081 O   0  0  0  0  0  0  0  0  0  0  0  0
  -35.9249   60.7339   65.6219 O   0  0  0  0  0  0  0  0  0  0  0  0
  -36.1575   60.3441   66.4792 H   0  0  0  0  0  0  0  0  0  0  0  0
  -35.9848   62.7162   64.1565 O   0  0  0  0  0  0  0  0  0  0  0  0
  -35.2563   63.9637   64.0754 C   0  0  0  0  0  0  0  0  0  0  0  0
  -33.9700   63.6454   63.3474 C   0  0  0  0  0  0  0  0  0  0  0  0
  -32.7753   64.5136   63.6889 N   0  0  0  0  0  0  0  0  0  0  0  0
  -31.5521   64.0579   62.9601 C   0  0  0  0  0  0  0  0  0  0  0  0
  -32.5097   64.4435   65.1585 C   0  0  0  0  0  0  0  0  0  0  0  0
  -33.0603   65.9317   63.3056 C   0  0  0  0  0  0  0  0  0  0  0  0
 34 33  1  0  0  0
 34 35  1  0  0  0
 34 36  1  0  0  0
 34 37  1  0  0  0
 22 23  1  0  0  0
 22 25  1  0  0  0
 22 21  1  0  0  0
 23 24  1  0  0  0
 27 26  1  0  0  0
 27 28  2  0  0  0
 27 31  1  0  0  0
 27 29  1  0  0  0
 25 26  1  0  0  0
 32 33  1  0  0  0
 32 31  1  0  0  0
 29 30  1  0  0  0
 20 21  1  0  0  0
 20  2  1  0  0  0
  1  2  2  0  0  0
  2  3  1  0  0  0
  3  4  1  0  0  0
  4  5  1  0  0  0
  5  6  1  0  0  0
  6  7  1  0  0  0
  7  8  1  0  0  0
  8  9  1  0  0  0
  9 10  1  0  0  0
 10 11  2  0  0  0
 11 12  1  0  0  0
 12 13  1  0  0  0
 13 14  1  0  0  0
 14 15  1  0  0  0
 15 16  1  0  0  0
 16 17  1  0  0  0
 17 18  1  0  0  0
 18 19  1  0  0  0
M  CHG 1  28  -1
M  END
> <minimizedAffinity>
-8.17136

> <CNNscore>
0.7255485654

> <CNNaffinity>
6.2084245682

> <CNN_VS>
4.5045137405

> <CNNaffinity_variance>
0.1824878454

$$$$
/media/chris/experiments/cd1a-new-docking/inputs/ligands/4x6c_ligand.pdb


 37 36  0  0  0  0  0  0  0  0999 V2000
  -43.0842   58.0099   65.6290 O   0  0  0  0  0  0  0  0  0  0  0  0
  -43.5146   59.1214   65.5809 C   0  0  0  0  0  0  0  0  0  0  0  0
  -44.9192   59.4699   65.2112 C   0  0  0  0  0  0  0  0  0  0  0  0
  -45.9381   58.9552   66.2104 C   0  0  0  0  0  0  0  0  0  0  0  0
  -46.7176   57.7640   65.6966 C   0  0  0  0  0  0  0  0  0  0  0  0
  -47.6556   58.0751   64.5541 C   0  0  0  0  0  0  0  0  0  0  0  0
  -49.1016   57.7706   64.8516 C   0  0  0  0  0  0  0  0  0  0  0  0
  -49.7958   58.9086   65.5505 C   0  0  0  0  0  0  0  0  0  0  0  0
  -49.9792   60.1517   64.7312 C   0  0  0  0  0  0  0  0  0  0  0  0
  -51.1193   60.0771   63.8060 C   0  0  0  0  0  0  0  0  0  0  0  0
  -51.0957   59.8584   62.5098 C   0  0  0  0  0  0  0  0  0  0  0  0
  -49.9140   59.6075   61.6467 C   0  0  0  0  0  0  0  0  0  0  0  0
  -49.7022   58.1657   61.2323 C   0  0  0  0  0  0  0  0  0  0  0  0
  -50.3090   57.8508   59.8926 C   0  0  0  0  0  0  0  0  0  0  0  0
  -49.4347   57.0250   58.9841 C   0  0  0  0  0  0  0  0  0  0  0  0
  -48.1675   56.5563   59.6645 C   0  0  0  0  0  0  0  0  0  0  0  0
  -47.0598   56.1529   58.7318 C   0  0  0  0  0  0  0  0  0  0  0  0
  -47.0196   56.9573   57.4946 C   0  0  0  0  0  0  0  0  0  0  0  0
  -46.7924   56.1596   56.2911 C   0  0  0  0  0  0  0  0  0  0  0  0
  -42.7906   60.2091   65.8450 O   0  0  0  0  0  0  0  0  0  0  0  0
  -41.3853   60.1732   65.5106 C   0  0  0  0  0  0  0  0  0  0  0  0
  -41.0109   61.5528   65.0200 C   0  0  0  0  0  0  0  0  0  0  0  0
  -39.8826   62.0290   65.7536 O   0  0  0  0  0  0  0  0  0  0  0  0
  -39.1191   61.4564   65.5802 H   0  0  0  0  0  0  0  0  0  0  0  0
  -40.6931   61.6426   63.5471 C   0  0  0  0  0  0  0  0  0  0  0  0
  -40.2326   60.3524   63.0976 O   0  0  0  0  0  0  0  0  0  0  0  0
  -39.0459   60.2648   62.0423 P   0  0  0  0  0  0  0  0  0  0  0  0
  -38.4233   58.9350   62.2004 O   0  0  0  0  0  0  0  0  0  0  0  0
  -39.6104   60.6436   60.7320 O   0  0  0  0  0  0  0  0  0  0  0  0
  -40.2787   59.9923   60.4673 H   0  0  0  0  0  0  0  0  0  0  0  0
  -37.9640   61.3614   62.4216 O   0  0  0  0  0  0  0  0  0  0  0  0
  -36.9671   61.0674   63.4283 C   0  0  0  0  0  0  0  0  0  0  0  0
  -36.8806   62.3011   64.2979 C   0  0  0  0  0  0  0  0  0  0  0  0
  -35.5065   62.6442   64.8382 N   0  0  0  0  0  0  0  0  0  0  0  0
  -34.4862   61.6491   64.3869 C   0  0  0  0  0  0  0  0  0  0  0  0
  -35.5431   62.6467   66.3329 C   0  0  0  0  0  0  0  0  0  0  0  0
  -35.1009   63.9999   64.3517 C   0  0  0  0  0  0  0  0  0  0  0  0
 34 33  1  0  0  0
 34 35  1  0  0  0
 34 36  1  0  0  0
 34 37  1  0  0  0
 22 23  1  0  0  0
 22 25  1  0  0  0
 22 21  1  0  0  0
 23 24  1  0  0  0
 27 26  1  0  0  0
 27 28  2  0  0  0
 27 31  1  0  0  0
 27 29  1  0  0  0
 25 26  1  0  0  0
 32 33  1  0  0  0
 32 31  1  0  0  0
 29 30  1  0  0  0
 20 21  1  0  0  0
 20  2  1  0  0  0
  1  2  2  0  0  0
  2  3  1  0  0  0
  3  4  1  0  0  0
  4  5  1  0  0  0
  5  6  1  0  0  0
  6  7  1  0  0  0
  7  8  1  0  0  0
  8  9  1  0  0  0
  9 10  1  0  0  0
 10 11  2  0  0  0
 11 12  1  0  0  0
 12 13  1  0  0  0
 13 14  1  0  0  0
 14 15  1  0  0  0
 15 16  1  0  0  0
 16 17  1  0  0  0
 17 18  1  0  0  0
 18 19  1  0  0  0
M  CHG 1  28  -1
M  END
> <minimizedAffinity>
-8.16468

> <CNNscore>
0.7030659318

> <CNNaffinity>
6.5234513283

> <CNN_VS>
4.5864162445

> <CNNaffinity_variance>
0.3657775223

$$$$
/media/chris/experiments/cd1a-new-docking/inputs/ligands/4x6c_ligand.pdb


 37 36  0  0  0  0  0  0  0  0999 V2000
  -40.6844   61.4832   65.5627 O   0  0  0  0  0  0  0  0  0  0  0  0
  -41.0437   60.4795   65.0273 C   0  0  0  0  0  0  0  0  0  0  0  0
  -41.2071   59.1645   65.7166 C   0  0  0  0  0  0  0  0  0  0  0  0
  -42.6188   58.6177   65.6191 C   0  0  0  0  0  0  0  0  0  0  0  0
  -43.6616   59.5822   66.1414 C   0  0  0  0  0  0  0  0  0  0  0  0
  -44.7618   59.9075   65.1588 C   0  0  0  0  0  0  0  0  0  0  0  0
  -46.1235   59.4203   65.5840 C   0  0  0  0  0  0  0  0  0  0  0  0
  -47.2141   60.4030   65.2521 C   0  0  0  0  0  0  0  0  0  0  0  0
  -48.1645   59.9708   64.1750 C   0  0  0  0  0  0  0  0  0  0  0  0
  -48.5993   58.5727   64.3079 C   0  0  0  0  0  0  0  0  0  0  0  0
  -49.5508   57.9551   63.6432 C   0  0  0  0  0  0  0  0  0  0  0  0
  -50.4184   58.5020   62.5697 C   0  0  0  0  0  0  0  0  0  0  0  0
  -50.5186   57.6565   61.3165 C   0  0  0  0  0  0  0  0  0  0  0  0
  -49.1744   57.3366   60.7222 C   0  0  0  0  0  0  0  0  0  0  0  0
  -49.0697   55.9660   60.1040 C   0  0  0  0  0  0  0  0  0  0  0  0
  -48.6278   56.0124   58.6579 C   0  0  0  0  0  0  0  0  0  0  0  0
  -47.8776   57.2542   58.2644 C   0  0  0  0  0  0  0  0  0  0  0  0
  -46.8735   57.0168   57.2087 C   0  0  0  0  0  0  0  0  0  0  0  0
  -47.0526   55.7438   56.5133 C   0  0  0  0  0  0  0  0  0  0  0  0
  -41.3413   60.3961   63.7307 O   0  0  0  0  0  0  0  0  0  0  0  0
  -40.8038   61.4127   62.8556 C   0  0  0  0  0  0  0  0  0  0  0  0
  -39.8820   60.7165   61.8810 C   0  0  0  0  0  0  0  0  0  0  0  0
  -40.2781   61.0283   60.5453 O   0  0  0  0  0  0  0  0  0  0  0  0
  -40.1760   61.9806   60.3917 H   0  0  0  0  0  0  0  0  0  0  0  0
  -38.4186   61.0533   62.0340 C   0  0  0  0  0  0  0  0  0  0  0  0
  -38.0476   60.8703   63.4152 O   0  0  0  0  0  0  0  0  0  0  0  0
  -37.0922   61.9288   64.1198 P   0  0  0  0  0  0  0  0  0  0  0  0
  -36.7408   62.9395   63.1020 O   0  0  0  0  0  0  0  0  0  0  0  0
  -37.7713   62.3600   65.3575 O   0  0  0  0  0  0  0  0  0  0  0  0
  -38.5938   62.8217   65.1310 H   0  0  0  0  0  0  0  0  0  0  0  0
  -35.7600   61.1831   64.5513 O   0  0  0  0  0  0  0  0  0  0  0  0
  -35.8222   60.0993   65.5079 C   0  0  0  0  0  0  0  0  0  0  0  0
  -35.2143   58.9006   64.8156 C   0  0  0  0  0  0  0  0  0  0  0  0
  -36.1746   57.7944   64.4261 N   0  0  0  0  0  0  0  0  0  0  0  0
  -36.2026   57.6022   62.9438 C   0  0  0  0  0  0  0  0  0  0  0  0
  -37.5530   58.1426   64.8888 C   0  0  0  0  0  0  0  0  0  0  0  0
  -35.7478   56.5113   65.0671 C   0  0  0  0  0  0  0  0  0  0  0  0
 34 33  1  0  0  0
 34 35  1  0  0  0
 34 36  1  0  0  0
 34 37  1  0  0  0
 22 23  1  0  0  0
 22 25  1  0  0  0
 22 21  1  0  0  0
 23 24  1  0  0  0
 27 26  1  0  0  0
 27 28  2  0  0  0
 27 31  1  0  0  0
 27 29  1  0  0  0
 25 26  1  0  0  0
 32 33  1  0  0  0
 32 31  1  0  0  0
 29 30  1  0  0  0
 20 21  1  0  0  0
 20  2  1  0  0  0
  1  2  2  0  0  0
  2  3  1  0  0  0
  3  4  1  0  0  0
  4  5  1  0  0  0
  5  6  1  0  0  0
  6  7  1  0  0  0
  7  8  1  0  0  0
  8  9  1  0  0  0
  9 10  1  0  0  0
 10 11  2  0  0  0
 11 12  1  0  0  0
 12 13  1  0  0  0
 13 14  1  0  0  0
 14 15  1  0  0  0
 15 16  1  0  0  0
 16 17  1  0  0  0
 17 18  1  0  0  0
 18 19  1  0  0  0
M  CHG 1  28  -1
M  END
> <minimizedAffinity>
-7.71327

> <CNNscore>
0.7027440667

> <CNNaffinity>
6.7918081284

> <CNN_VS>
4.7729029655

> <CNNaffinity_variance>
0.1838190258

$$$$
/media/chris/experiments/cd1a-new-docking/inputs/ligands/4x6c_ligand.pdb


 37 36  0  0  0  0  0  0  0  0999 V2000
  -41.8136   59.5615   66.9695 O   0  0  0  0  0  0  0  0  0  0  0  0
  -42.0981   59.0227   65.9438 C   0  0  0  0  0  0  0  0  0  0  0  0
  -42.8590   57.7413   65.8435 C   0  0  0  0  0  0  0  0  0  0  0  0
  -44.0052   57.8108   64.8521 C   0  0  0  0  0  0  0  0  0  0  0  0
  -45.3629   57.7111   65.5132 C   0  0  0  0  0  0  0  0  0  0  0  0
  -45.9787   59.0401   65.8824 C   0  0  0  0  0  0  0  0  0  0  0  0
  -47.2921   59.3159   65.1959 C   0  0  0  0  0  0  0  0  0  0  0  0
  -47.9611   58.0582   64.7102 C   0  0  0  0  0  0  0  0  0  0  0  0
  -49.4415   57.9856   64.9418 C   0  0  0  0  0  0  0  0  0  0  0  0
  -50.0446   59.2857   65.2693 C   0  0  0  0  0  0  0  0  0  0  0  0
  -50.7367   60.0777   64.4804 C   0  0  0  0  0  0  0  0  0  0  0  0
  -51.1085   59.8553   63.0604 C   0  0  0  0  0  0  0  0  0  0  0  0
  -50.0500   60.2269   62.0421 C   0  0  0  0  0  0  0  0  0  0  0  0
  -49.8953   59.1930   60.9607 C   0  0  0  0  0  0  0  0  0  0  0  0
  -50.1890   57.7797   61.3946 C   0  0  0  0  0  0  0  0  0  0  0  0
  -49.7922   56.7571   60.3528 C   0  0  0  0  0  0  0  0  0  0  0  0
  -49.6811   57.2906   58.9518 C   0  0  0  0  0  0  0  0  0  0  0  0
  -48.4433   56.8701   58.2660 C   0  0  0  0  0  0  0  0  0  0  0  0
  -47.5421   56.0966   59.1180 C   0  0  0  0  0  0  0  0  0  0  0  0
  -41.7646   59.4928   64.7418 O   0  0  0  0  0  0  0  0  0  0  0  0
  -42.1219   60.8593   64.4367 C   0  0  0  0  0  0  0  0  0  0  0  0
  -40.8506   61.6743   64.4985 C   0  0  0  0  0  0  0  0  0  0  0  0
  -40.7568   62.3143   65.7711 O   0  0  0  0  0  0  0  0  0  0  0  0
  -40.6894   61.6420   66.4670 H   0  0  0  0  0  0  0  0  0  0  0  0
  -39.5798   60.8942   64.2635 C   0  0  0  0  0  0  0  0  0  0  0  0
  -38.7184   61.0652   65.4069 O   0  0  0  0  0  0  0  0  0  0  0  0
  -37.1989   61.4826   65.1914 P   0  0  0  0  0  0  0  0  0  0  0  0
  -36.4685   60.2644   64.7868 O   0  0  0  0  0  0  0  0  0  0  0  0
  -37.2007   62.6526   64.2913 O   0  0  0  0  0  0  0  0  0  0  0  0
  -37.5530   62.3938   63.4253 H   0  0  0  0  0  0  0  0  0  0  0  0
  -36.6152   61.9645   66.5857 O   0  0  0  0  0  0  0  0  0  0  0  0
  -35.1827   62.0331   66.7785 C   0  0  0  0  0  0  0  0  0  0  0  0
  -34.8332   63.5039   66.7651 C   0  0  0  0  0  0  0  0  0  0  0  0
  -33.8977   63.9594   65.6628 N   0  0  0  0  0  0  0  0  0  0  0  0
  -34.5401   65.0046   64.8084 C   0  0  0  0  0  0  0  0  0  0  0  0
  -33.5359   62.7932   64.8000 C   0  0  0  0  0  0  0  0  0  0  0  0
  -32.6538   64.5324   66.2659 C   0  0  0  0  0  0  0  0  0  0  0  0
 34 33  1  0  0  0
 34 35  1  0  0  0
 34 36  1  0  0  0
 34 37  1  0  0  0
 22 23  1  0  0  0
 22 25  1  0  0  0
 22 21  1  0  0  0
 23 24  1  0  0  0
 27 26  1  0  0  0
 27 28  2  0  0  0
 27 31  1  0  0  0
 27 29  1  0  0  0
 25 26  1  0  0  0
 32 33  1  0  0  0
 32 31  1  0  0  0
 29 30  1  0  0  0
 20 21  1  0  0  0
 20  2  1  0  0  0
  1  2  2  0  0  0
  2  3  1  0  0  0
  3  4  1  0  0  0
  4  5  1  0  0  0
  5  6  1  0  0  0
  6  7  1  0  0  0
  7  8  1  0  0  0
  8  9  1  0  0  0
  9 10  1  0  0  0
 10 11  2  0  0  0
 11 12  1  0  0  0
 12 13  1  0  0  0
 13 14  1  0  0  0
 14 15  1  0  0  0
 15 16  1  0  0  0
 16 17  1  0  0  0
 17 18  1  0  0  0
 18 19  1  0  0  0
M  CHG 1  28  -1
M  END
> <minimizedAffinity>
-7.96855

> <CNNscore>
0.6709325314

> <CNNaffinity>
6.3634629250

> <CNN_VS>
4.2694544792

> <CNNaffinity_variance>
0.2889693081

$$$$
