/media/chris/experiments/cd1a-new-docking/inputs/ligands/4x6c_ligand.pdb


 37 36  0  0  0  0  0  0  0  0999 V2000
  -42.2256   60.2968   63.8209 O   0  0  0  0  0  0  0  0  0  0  0  0
  -42.1255   60.3738   65.0071 C   0  0  0  0  0  0  0  0  0  0  0  0
  -42.9656   59.6113   65.9785 C   0  0  0  0  0  0  0  0  0  0  0  0
  -43.3258   58.2225   65.4854 C   0  0  0  0  0  0  0  0  0  0  0  0
  -44.7935   58.0804   65.1451 C   0  0  0  0  0  0  0  0  0  0  0  0
  -45.6075   59.3369   65.3460 C   0  0  0  0  0  0  0  0  0  0  0  0
  -46.8972   59.1157   66.0943 C   0  0  0  0  0  0  0  0  0  0  0  0
  -47.9114   60.1938   65.8214 C   0  0  0  0  0  0  0  0  0  0  0  0
  -48.0746   60.5742   64.3795 C   0  0  0  0  0  0  0  0  0  0  0  0
  -49.4414   60.9950   64.0390 C   0  0  0  0  0  0  0  0  0  0  0  0
  -50.4137   60.2616   63.5437 C   0  0  0  0  0  0  0  0  0  0  0  0
  -50.3915   58.8127   63.2206 C   0  0  0  0  0  0  0  0  0  0  0  0
  -49.9184   58.4619   61.8247 C   0  0  0  0  0  0  0  0  0  0  0  0
  -50.7996   57.4467   61.1502 C   0  0  0  0  0  0  0  0  0  0  0  0
  -50.0825   56.5238   60.1985 C   0  0  0  0  0  0  0  0  0  0  0  0
  -48.8109   57.1304   59.6474 C   0  0  0  0  0  0  0  0  0  0  0  0
  -48.5714   56.8790   58.1849 C   0  0  0  0  0  0  0  0  0  0  0  0
  -47.4949   55.9011   57.9317 C   0  0  0  0  0  0  0  0  0  0  0  0
  -47.5432   55.3189   56.5920 C   0  0  0  0  0  0  0  0  0  0  0  0
  -41.2487   61.1631   65.6277 O   0  0  0  0  0  0  0  0  0  0  0  0
  -39.9452   60.6124   65.9206 C   0  0  0  0  0  0  0  0  0  0  0  0
  -38.9552   61.3129   65.0186 C   0  0  0  0  0  0  0  0  0  0  0  0
  -38.2242   62.2791   65.7735 O   0  0  0  0  0  0  0  0  0  0  0  0
  -37.7052   61.8291   66.4584 H   0  0  0  0  0  0  0  0  0  0  0  0
  -37.9684   60.4046   64.3261 C   0  0  0  0  0  0  0  0  0  0  0  0
  -38.5797   59.8939   63.1243 O   0  0  0  0  0  0  0  0  0  0  0  0
  -37.7584   58.9126   62.1799 P   0  0  0  0  0  0  0  0  0  0  0  0
  -38.2397   57.5437   62.4549 O   0  0  0  0  0  0  0  0  0  0  0  0
  -37.8641   59.4505   60.8094 O   0  0  0  0  0  0  0  0  0  0  0  0
  -38.7896   59.4196   60.5203 H   0  0  0  0  0  0  0  0  0  0  0  0
  -36.2295   58.9881   62.5968 O   0  0  0  0  0  0  0  0  0  0  0  0
  -35.5791   57.8212   63.1526 C   0  0  0  0  0  0  0  0  0  0  0  0
  -34.6129   58.3417   64.1924 C   0  0  0  0  0  0  0  0  0  0  0  0
  -33.2442   58.7535   63.6875 N   0  0  0  0  0  0  0  0  0  0  0  0
  -32.1589   58.1572   64.5250 C   0  0  0  0  0  0  0  0  0  0  0  0
  -33.1207   60.2427   63.7351 C   0  0  0  0  0  0  0  0  0  0  0  0
  -33.0698   58.2883   62.2759 C   0  0  0  0  0  0  0  0  0  0  0  0
 34 33  1  0  0  0
 34 35  1  0  0  0
 34 36  1  0  0  0
 34 37  1  0  0  0
 22 23  1  0  0  0
 22 25  1  0  0  0
 22 21  1  0  0  0
 23 24  1  0  0  0
 27 26  1  0  0  0
 27 28  2  0  0  0
 27 31  1  0  0  0
 27 29  1  0  0  0
 25 26  1  0  0  0
 32 33  1  0  0  0
 32 31  1  0  0  0
 29 30  1  0  0  0
 20 21  1  0  0  0
 20  2  1  0  0  0
  1  2  2  0  0  0
  2  3  1  0  0  0
  3  4  1  0  0  0
  4  5  1  0  0  0
  5  6  1  0  0  0
  6  7  1  0  0  0
  7  8  1  0  0  0
  8  9  1  0  0  0
  9 10  1  0  0  0
 10 11  2  0  0  0
 11 12  1  0  0  0
 12 13  1  0  0  0
 13 14  1  0  0  0
 14 15  1  0  0  0
 15 16  1  0  0  0
 16 17  1  0  0  0
 17 18  1  0  0  0
 18 19  1  0  0  0
M  CHG 1  28  -1
M  END
> <minimizedAffinity>
-7.76062

> <CNNscore>
0.8586037159

> <CNNaffinity>
6.8757066727

> <CNN_VS>
5.9035072327

> <CNNaffinity_variance>
1.0313680172

$$$$
/media/chris/experiments/cd1a-new-docking/inputs/ligands/4x6c_ligand.pdb


 37 36  0  0  0  0  0  0  0  0999 V2000
  -43.9303   59.8615   64.9769 O   0  0  0  0  0  0  0  0  0  0  0  0
  -43.2071   59.0407   65.4526 C   0  0  0  0  0  0  0  0  0  0  0  0
  -43.5687   57.6045   65.6465 C   0  0  0  0  0  0  0  0  0  0  0  0
  -44.8488   57.2158   64.9312 C   0  0  0  0  0  0  0  0  0  0  0  0
  -46.0037   56.9752   65.8793 C   0  0  0  0  0  0  0  0  0  0  0  0
  -46.6256   58.2323   66.4403 C   0  0  0  0  0  0  0  0  0  0  0  0
  -47.5205   58.9572   65.4676 C   0  0  0  0  0  0  0  0  0  0  0  0
  -48.4354   58.0223   64.7230 C   0  0  0  0  0  0  0  0  0  0  0  0
  -49.8784   58.0740   65.1296 C   0  0  0  0  0  0  0  0  0  0  0  0
  -50.4012   59.4427   65.2500 C   0  0  0  0  0  0  0  0  0  0  0  0
  -50.9360   60.1899   64.3097 C   0  0  0  0  0  0  0  0  0  0  0  0
  -51.1720   59.8378   62.8868 C   0  0  0  0  0  0  0  0  0  0  0  0
  -50.0119   60.0995   61.9481 C   0  0  0  0  0  0  0  0  0  0  0  0
  -49.8796   59.0484   60.8804 C   0  0  0  0  0  0  0  0  0  0  0  0
  -49.9285   57.6289   61.3849 C   0  0  0  0  0  0  0  0  0  0  0  0
  -49.6330   56.6160   60.3008 C   0  0  0  0  0  0  0  0  0  0  0  0
  -49.4861   57.1910   58.9198 C   0  0  0  0  0  0  0  0  0  0  0  0
  -48.2999   56.6840   58.2021 C   0  0  0  0  0  0  0  0  0  0  0  0
  -47.2544   56.1819   59.0914 C   0  0  0  0  0  0  0  0  0  0  0  0
  -41.9732   59.3005   65.8848 O   0  0  0  0  0  0  0  0  0  0  0  0
  -41.6908   60.6464   66.3288 C   0  0  0  0  0  0  0  0  0  0  0  0
  -40.7385   61.2539   65.3246 C   0  0  0  0  0  0  0  0  0  0  0  0
  -40.1028   62.3947   65.9011 O   0  0  0  0  0  0  0  0  0  0  0  0
  -39.5658   62.1168   66.6596 H   0  0  0  0  0  0  0  0  0  0  0  0
  -39.6681   60.3204   64.8136 C   0  0  0  0  0  0  0  0  0  0  0  0
  -39.1981   60.8129   63.5427 O   0  0  0  0  0  0  0  0  0  0  0  0
  -38.0863   60.0005   62.7468 P   0  0  0  0  0  0  0  0  0  0  0  0
  -38.5604   58.6057   62.6433 O   0  0  0  0  0  0  0  0  0  0  0  0
  -37.8056   60.7583   61.5115 O   0  0  0  0  0  0  0  0  0  0  0  0
  -38.6005   60.7770   60.9559 H   0  0  0  0  0  0  0  0  0  0  0  0
  -36.7562   60.0037   63.6115 O   0  0  0  0  0  0  0  0  0  0  0  0
  -36.0890   58.7539   63.9059 C   0  0  0  0  0  0  0  0  0  0  0  0
  -34.8911   58.6974   62.9853 C   0  0  0  0  0  0  0  0  0  0  0  0
  -33.5312   58.7097   63.6549 N   0  0  0  0  0  0  0  0  0  0  0  0
  -32.9268   60.0766   63.6224 C   0  0  0  0  0  0  0  0  0  0  0  0
  -32.6153   57.7654   62.9444 C   0  0  0  0  0  0  0  0  0  0  0  0
  -33.6713   58.2820   65.0821 C   0  0  0  0  0  0  0  0  0  0  0  0
 34 33  1  0  0  0
 34 35  1  0  0  0
 34 36  1  0  0  0
 34 37  1  0  0  0
 22 23  1  0  0  0
 22 25  1  0  0  0
 22 21  1  0  0  0
 23 24  1  0  0  0
 27 26  1  0  0  0
 27 28  2  0  0  0
 27 31  1  0  0  0
 27 29  1  0  0  0
 25 26  1  0  0  0
 32 33  1  0  0  0
 32 31  1  0  0  0
 29 30  1  0  0  0
 20 21  1  0  0  0
 20  2  1  0  0  0
  1  2  2  0  0  0
  2  3  1  0  0  0
  3  4  1  0  0  0
  4  5  1  0  0  0
  5  6  1  0  0  0
  6  7  1  0  0  0
  7  8  1  0  0  0
  8  9  1  0  0  0
  9 10  1  0  0  0
 10 11  2  0  0  0
 11 12  1  0  0  0
 12 13  1  0  0  0
 13 14  1  0  0  0
 14 15  1  0  0  0
 15 16  1  0  0  0
 16 17  1  0  0  0
 17 18  1  0  0  0
 18 19  1  0  0  0
M  CHG 1  28  -1
M  END
> <minimizedAffinity>
-8.07787

> <CNNscore>
0.7541783452

> <CNNaffinity>
6.6397385597

> <CNN_VS>
5.0075469017

> <CNNaffinity_variance>
0.3362307549

$$$$
/media/chris/experiments/cd1a-new-docking/inputs/ligands/4x6c_ligand.pdb


 37 36  0  0  0  0  0  0  0  0999 V2000
  -41.8747   58.1789   66.1942 O   0  0  0  0  0  0  0  0  0  0  0  0
  -42.3729   59.1514   65.7155 C   0  0  0  0  0  0  0  0  0  0  0  0
  -43.8394   59.3296   65.4948 C   0  0  0  0  0  0  0  0  0  0  0  0
  -44.4510   58.2183   64.6627 C   0  0  0  0  0  0  0  0  0  0  0  0
  -44.8543   57.0167   65.4896 C   0  0  0  0  0  0  0  0  0  0  0  0
  -46.1386   57.1927   66.2651 C   0  0  0  0  0  0  0  0  0  0  0  0
  -47.3815   57.0947   65.4178 C   0  0  0  0  0  0  0  0  0  0  0  0
  -48.1878   58.3656   65.4322 C   0  0  0  0  0  0  0  0  0  0  0  0
  -49.6232   58.2222   65.0207 C   0  0  0  0  0  0  0  0  0  0  0  0
  -50.4168   59.4400   65.2404 C   0  0  0  0  0  0  0  0  0  0  0  0
  -51.0309   60.1782   64.3423 C   0  0  0  0  0  0  0  0  0  0  0  0
  -51.1017   59.9614   62.8752 C   0  0  0  0  0  0  0  0  0  0  0  0
  -49.8958   60.4299   62.0868 C   0  0  0  0  0  0  0  0  0  0  0  0
  -49.6936   59.6509   60.8161 C   0  0  0  0  0  0  0  0  0  0  0  0
  -49.4057   58.1849   61.0155 C   0  0  0  0  0  0  0  0  0  0  0  0
  -49.9614   57.3263   59.9008 C   0  0  0  0  0  0  0  0  0  0  0  0
  -48.9928   57.0229   58.7921 C   0  0  0  0  0  0  0  0  0  0  0  0
  -47.7859   56.3090   59.2535 C   0  0  0  0  0  0  0  0  0  0  0  0
  -47.2197   55.4149   58.2455 C   0  0  0  0  0  0  0  0  0  0  0  0
  -41.6803   60.2132   65.3035 O   0  0  0  0  0  0  0  0  0  0  0  0
  -40.3134   59.9982   64.8869 C   0  0  0  0  0  0  0  0  0  0  0  0
  -39.6633   61.3585   64.7801 C   0  0  0  0  0  0  0  0  0  0  0  0
  -40.0350   62.1534   65.9061 O   0  0  0  0  0  0  0  0  0  0  0  0
  -39.6930   61.7455   66.7170 H   0  0  0  0  0  0  0  0  0  0  0  0
  -38.1569   61.3409   64.6868 C   0  0  0  0  0  0  0  0  0  0  0  0
  -37.6180   62.0279   65.8341 O   0  0  0  0  0  0  0  0  0  0  0  0
  -36.0575   62.3249   65.9116 P   0  0  0  0  0  0  0  0  0  0  0  0
  -35.6763   62.2680   67.3373 O   0  0  0  0  0  0  0  0  0  0  0  0
  -35.4007   61.4128   64.9546 O   0  0  0  0  0  0  0  0  0  0  0  0
  -35.5330   60.4951   65.2397 H   0  0  0  0  0  0  0  0  0  0  0  0
  -35.8085   63.8044   65.3959 O   0  0  0  0  0  0  0  0  0  0  0  0
  -34.8854   64.0386   64.3065 C   0  0  0  0  0  0  0  0  0  0  0  0
  -33.9740   65.1529   64.7685 C   0  0  0  0  0  0  0  0  0  0  0  0
  -32.4947   64.8271   64.8264 N   0  0  0  0  0  0  0  0  0  0  0  0
  -32.1764   63.6190   64.0055 C   0  0  0  0  0  0  0  0  0  0  0  0
  -32.0963   64.5609   66.2426 C   0  0  0  0  0  0  0  0  0  0  0  0
  -31.7055   65.9847   64.3006 C   0  0  0  0  0  0  0  0  0  0  0  0
 34 33  1  0  0  0
 34 35  1  0  0  0
 34 36  1  0  0  0
 34 37  1  0  0  0
 22 23  1  0  0  0
 22 25  1  0  0  0
 22 21  1  0  0  0
 23 24  1  0  0  0
 27 26  1  0  0  0
 27 28  2  0  0  0
 27 31  1  0  0  0
 27 29  1  0  0  0
 25 26  1  0  0  0
 32 33  1  0  0  0
 32 31  1  0  0  0
 29 30  1  0  0  0
 20 21  1  0  0  0
 20  2  1  0  0  0
  1  2  2  0  0  0
  2  3  1  0  0  0
  3  4  1  0  0  0
  4  5  1  0  0  0
  5  6  1  0  0  0
  6  7  1  0  0  0
  7  8  1  0  0  0
  8  9  1  0  0  0
  9 10  1  0  0  0
 10 11  2  0  0  0
 11 12  1  0  0  0
 12 13  1  0  0  0
 13 14  1  0  0  0
 14 15  1  0  0  0
 15 16  1  0  0  0
 16 17  1  0  0  0
 17 18  1  0  0  0
 18 19  1  0  0  0
M  CHG 1  28  -1
M  END
> <minimizedAffinity>
-8.20460

> <CNNscore>
0.7430975437

> <CNNaffinity>
6.3226814270

> <CNN_VS>
4.6983690262

> <CNNaffinity_variance>
0.2428787947

$$$$
/media/chris/experiments/cd1a-new-docking/inputs/ligands/4x6c_ligand.pdb


 37 36  0  0  0  0  0  0  0  0999 V2000
  -42.1637   59.4001   67.1900 O   0  0  0  0  0  0  0  0  0  0  0  0
  -42.3913   59.9576   66.1603 C   0  0  0  0  0  0  0  0  0  0  0  0
  -43.6980   59.9022   65.4387 C   0  0  0  0  0  0  0  0  0  0  0  0
  -44.0844   58.4951   65.0237 C   0  0  0  0  0  0  0  0  0  0  0  0
  -45.5708   58.3383   64.7858 C   0  0  0  0  0  0  0  0  0  0  0  0
  -46.4323   59.3305   65.5308 C   0  0  0  0  0  0  0  0  0  0  0  0
  -47.6956   59.7105   64.8015 C   0  0  0  0  0  0  0  0  0  0  0  0
  -48.8885   59.7785   65.7169 C   0  0  0  0  0  0  0  0  0  0  0  0
  -50.1754   59.2714   65.1362 C   0  0  0  0  0  0  0  0  0  0  0  0
  -50.8074   60.2175   64.2054 C   0  0  0  0  0  0  0  0  0  0  0  0
  -50.7830   60.1974   62.8910 C   0  0  0  0  0  0  0  0  0  0  0  0
  -50.1299   59.2013   62.0046 C   0  0  0  0  0  0  0  0  0  0  0  0
  -50.8468   57.8729   61.8753 C   0  0  0  0  0  0  0  0  0  0  0  0
  -50.7407   57.2872   60.4940 C   0  0  0  0  0  0  0  0  0  0  0  0
  -49.5185   57.7134   59.7216 C   0  0  0  0  0  0  0  0  0  0  0  0
  -49.0101   56.6316   58.7943 C   0  0  0  0  0  0  0  0  0  0  0  0
  -47.7317   55.9725   59.2310 C   0  0  0  0  0  0  0  0  0  0  0  0
  -46.5316   56.5559   58.5995 C   0  0  0  0  0  0  0  0  0  0  0  0
  -46.7955   57.1499   57.2904 C   0  0  0  0  0  0  0  0  0  0  0  0
  -41.4998   60.7036   65.5079 O   0  0  0  0  0  0  0  0  0  0  0  0
  -40.1976   60.1267   65.2636 C   0  0  0  0  0  0  0  0  0  0  0  0
  -39.2203   61.2734   65.1429 C   0  0  0  0  0  0  0  0  0  0  0  0
  -39.7382   62.4143   65.8271 O   0  0  0  0  0  0  0  0  0  0  0  0
  -39.8173   62.2157   66.7732 H   0  0  0  0  0  0  0  0  0  0  0  0
  -37.8351   60.9903   65.6713 C   0  0  0  0  0  0  0  0  0  0  0  0
  -37.2108   62.2431   66.0170 O   0  0  0  0  0  0  0  0  0  0  0  0
  -35.6545   62.2831   66.3418 P   0  0  0  0  0  0  0  0  0  0  0  0
  -35.0785   63.3984   65.5636 O   0  0  0  0  0  0  0  0  0  0  0  0
  -35.5247   62.2896   67.8122 O   0  0  0  0  0  0  0  0  0  0  0  0
  -35.9133   63.1042   68.1676 H   0  0  0  0  0  0  0  0  0  0  0  0
  -35.0045   60.9334   65.8194 O   0  0  0  0  0  0  0  0  0  0  0  0
  -34.1001   60.9627   64.6903 C   0  0  0  0  0  0  0  0  0  0  0  0
  -34.1978   59.5984   64.0462 C   0  0  0  0  0  0  0  0  0  0  0  0
  -32.9181   59.0469   63.4494 N   0  0  0  0  0  0  0  0  0  0  0  0
  -33.1978   58.2548   62.2128 C   0  0  0  0  0  0  0  0  0  0  0  0
  -32.2450   58.1571   64.4446 C   0  0  0  0  0  0  0  0  0  0  0  0
  -32.0017   60.1763   63.0975 C   0  0  0  0  0  0  0  0  0  0  0  0
 34 33  1  0  0  0
 34 35  1  0  0  0
 34 36  1  0  0  0
 34 37  1  0  0  0
 22 23  1  0  0  0
 22 25  1  0  0  0
 22 21  1  0  0  0
 23 24  1  0  0  0
 27 26  1  0  0  0
 27 28  2  0  0  0
 27 31  1  0  0  0
 27 29  1  0  0  0
 25 26  1  0  0  0
 32 33  1  0  0  0
 32 31  1  0  0  0
 29 30  1  0  0  0
 20 21  1  0  0  0
 20  2  1  0  0  0
  1  2  2  0  0  0
  2  3  1  0  0  0
  3  4  1  0  0  0
  4  5  1  0  0  0
  5  6  1  0  0  0
  6  7  1  0  0  0
  7  8  1  0  0  0
  8  9  1  0  0  0
  9 10  1  0  0  0
 10 11  2  0  0  0
 11 12  1  0  0  0
 12 13  1  0  0  0
 13 14  1  0  0  0
 14 15  1  0  0  0
 15 16  1  0  0  0
 16 17  1  0  0  0
 17 18  1  0  0  0
 18 19  1  0  0  0
M  CHG 1  28  -1
M  END
> <minimizedAffinity>
-8.19289

> <CNNscore>
0.7399554849

> <CNNaffinity>
6.4065575600

> <CNN_VS>
4.7405672073

> <CNNaffinity_variance>
0.3786541820

$$$$
/media/chris/experiments/cd1a-new-docking/inputs/ligands/4x6c_ligand.pdb


 37 36  0  0  0  0  0  0  0  0999 V2000
  -42.9478   60.2002   67.2717 O   0  0  0  0  0  0  0  0  0  0  0  0
  -42.6595   59.9617   66.1390 C   0  0  0  0  0  0  0  0  0  0  0  0
  -43.6440   59.8448   65.0218 C   0  0  0  0  0  0  0  0  0  0  0  0
  -44.3585   58.5067   65.0015 C   0  0  0  0  0  0  0  0  0  0  0  0
  -45.8645   58.6419   65.0652 C   0  0  0  0  0  0  0  0  0  0  0  0
  -46.3748   59.4004   66.2677 C   0  0  0  0  0  0  0  0  0  0  0  0
  -47.7349   60.0187   66.0674 C   0  0  0  0  0  0  0  0  0  0  0  0
  -48.3672   59.6052   64.7656 C   0  0  0  0  0  0  0  0  0  0  0  0
  -49.7784   59.1062   64.8650 C   0  0  0  0  0  0  0  0  0  0  0  0
  -50.7519   59.9714   64.1830 C   0  0  0  0  0  0  0  0  0  0  0  0
  -51.0371   60.0136   62.9003 C   0  0  0  0  0  0  0  0  0  0  0  0
  -50.4669   59.1830   61.8098 C   0  0  0  0  0  0  0  0  0  0  0  0
  -50.8064   57.7076   61.8670 C   0  0  0  0  0  0  0  0  0  0  0  0
  -50.5924   57.0104   60.5515 C   0  0  0  0  0  0  0  0  0  0  0  0
  -50.0342   57.8857   59.4587 C   0  0  0  0  0  0  0  0  0  0  0  0
  -48.9429   57.2010   58.6656 C   0  0  0  0  0  0  0  0  0  0  0  0
  -48.2548   56.0713   59.3797 C   0  0  0  0  0  0  0  0  0  0  0  0
  -47.1223   55.5070   58.6193 C   0  0  0  0  0  0  0  0  0  0  0  0
  -47.3967   55.3629   57.1910 C   0  0  0  0  0  0  0  0  0  0  0  0
  -41.4110   59.7586   65.7185 O   0  0  0  0  0  0  0  0  0  0  0  0
  -40.9465   60.5471   64.6002 C   0  0  0  0  0  0  0  0  0  0  0  0
  -39.6816   61.2449   65.0448 C   0  0  0  0  0  0  0  0  0  0  0  0
  -40.0195   62.3876   65.8310 O   0  0  0  0  0  0  0  0  0  0  0  0
  -40.4765   62.1017   66.6374 H   0  0  0  0  0  0  0  0  0  0  0  0
  -38.7245   60.3883   65.8375 C   0  0  0  0  0  0  0  0  0  0  0  0
  -37.8293   59.7298   64.9190 O   0  0  0  0  0  0  0  0  0  0  0  0
  -36.3043   60.1761   64.8507 P   0  0  0  0  0  0  0  0  0  0  0  0
  -35.4885   58.9569   65.0216 O   0  0  0  0  0  0  0  0  0  0  0  0
  -36.1486   60.9793   63.6221 O   0  0  0  0  0  0  0  0  0  0  0  0
  -36.3195   60.4215   62.8472 H   0  0  0  0  0  0  0  0  0  0  0  0
  -36.0138   61.1369   66.0793 O   0  0  0  0  0  0  0  0  0  0  0  0
  -34.6665   61.6067   66.3197 C   0  0  0  0  0  0  0  0  0  0  0  0
  -34.7763   63.1036   66.5011 C   0  0  0  0  0  0  0  0  0  0  0  0
  -33.8687   63.9514   65.6320 N   0  0  0  0  0  0  0  0  0  0  0  0
  -34.6362   65.0386   64.9510 C   0  0  0  0  0  0  0  0  0  0  0  0
  -33.2298   63.0921   64.5885 C   0  0  0  0  0  0  0  0  0  0  0  0
  -32.8036   64.5751   66.4781 C   0  0  0  0  0  0  0  0  0  0  0  0
 34 33  1  0  0  0
 34 35  1  0  0  0
 34 36  1  0  0  0
 34 37  1  0  0  0
 22 23  1  0  0  0
 22 25  1  0  0  0
 22 21  1  0  0  0
 23 24  1  0  0  0
 27 26  1  0  0  0
 27 28  2  0  0  0
 27 31  1  0  0  0
 27 29  1  0  0  0
 25 26  1  0  0  0
 32 33  1  0  0  0
 32 31  1  0  0  0
 29 30  1  0  0  0
 20 21  1  0  0  0
 20  2  1  0  0  0
  1  2  2  0  0  0
  2  3  1  0  0  0
  3  4  1  0  0  0
  4  5  1  0  0  0
  5  6  1  0  0  0
  6  7  1  0  0  0
  7  8  1  0  0  0
  8  9  1  0  0  0
  9 10  1  0  0  0
 10 11  2  0  0  0
 11 12  1  0  0  0
 12 13  1  0  0  0
 13 14  1  0  0  0
 14 15  1  0  0  0
 15 16  1  0  0  0
 16 17  1  0  0  0
 17 18  1  0  0  0
 18 19  1  0  0  0
M  CHG 1  28  -1
M  END
> <minimizedAffinity>
-7.90100

> <CNNscore>
0.7365938425

> <CNNaffinity>
6.4884986877

> <CNN_VS>
4.7793879509

> <CNNaffinity_variance>
0.5578033328

$$$$
/media/chris/experiments/cd1a-new-docking/inputs/ligands/4x6c_ligand.pdb


 37 36  0  0  0  0  0  0  0  0999 V2000
  -42.2450   57.7593   65.8357 O   0  0  0  0  0  0  0  0  0  0  0  0
  -42.6247   58.8860   65.7387 C   0  0  0  0  0  0  0  0  0  0  0  0
  -43.8607   59.3028   65.0110 C   0  0  0  0  0  0  0  0  0  0  0  0
  -45.1341   58.9087   65.7354 C   0  0  0  0  0  0  0  0  0  0  0  0
  -46.2180   58.4209   64.7985 C   0  0  0  0  0  0  0  0  0  0  0  0
  -47.6239   58.7499   65.2423 C   0  0  0  0  0  0  0  0  0  0  0  0
  -48.6069   57.6252   65.0394 C   0  0  0  0  0  0  0  0  0  0  0  0
  -50.0328   58.1067   65.0146 C   0  0  0  0  0  0  0  0  0  0  0  0
  -50.2151   59.5876   65.1690 C   0  0  0  0  0  0  0  0  0  0  0  0
  -51.1157   60.1717   64.1645 C   0  0  0  0  0  0  0  0  0  0  0  0
  -50.8384   60.4963   62.9209 C   0  0  0  0  0  0  0  0  0  0  0  0
  -49.5501   60.3365   62.2006 C   0  0  0  0  0  0  0  0  0  0  0  0
  -49.6066   59.4994   60.9391 C   0  0  0  0  0  0  0  0  0  0  0  0
  -49.7535   58.0297   61.2227 C   0  0  0  0  0  0  0  0  0  0  0  0
  -50.1914   57.2013   60.0421 C   0  0  0  0  0  0  0  0  0  0  0  0
  -49.1131   57.0745   58.9887 C   0  0  0  0  0  0  0  0  0  0  0  0
  -48.0161   56.1013   59.3192 C   0  0  0  0  0  0  0  0  0  0  0  0
  -46.8809   56.1631   58.3776 C   0  0  0  0  0  0  0  0  0  0  0  0
  -47.0231   57.2074   57.3650 C   0  0  0  0  0  0  0  0  0  0  0  0
  -41.9866   59.9316   66.2646 O   0  0  0  0  0  0  0  0  0  0  0  0
  -40.5939   60.1057   65.9207 C   0  0  0  0  0  0  0  0  0  0  0  0
  -40.4994   61.3528   65.0720 C   0  0  0  0  0  0  0  0  0  0  0  0
  -40.3363   62.4921   65.9166 O   0  0  0  0  0  0  0  0  0  0  0  0
  -39.4974   62.4203   66.3982 H   0  0  0  0  0  0  0  0  0  0  0  0
  -39.3836   61.3506   64.0555 C   0  0  0  0  0  0  0  0  0  0  0  0
  -39.7127   60.4086   63.0149 O   0  0  0  0  0  0  0  0  0  0  0  0
  -38.8699   60.4002   61.6662 P   0  0  0  0  0  0  0  0  0  0  0  0
  -39.8061   60.7165   60.5687 O   0  0  0  0  0  0  0  0  0  0  0  0
  -37.7002   61.2729   61.8878 O   0  0  0  0  0  0  0  0  0  0  0  0
  -37.9995   62.1840   62.0337 H   0  0  0  0  0  0  0  0  0  0  0  0
  -38.3208   58.9299   61.4343 O   0  0  0  0  0  0  0  0  0  0  0  0
  -36.9477   58.6163   61.7658 C   0  0  0  0  0  0  0  0  0  0  0  0
  -37.0106   57.7006   62.9671 C   0  0  0  0  0  0  0  0  0  0  0  0
  -36.1852   58.1155   64.1689 N   0  0  0  0  0  0  0  0  0  0  0  0
  -35.0047   58.9341   63.7552 C   0  0  0  0  0  0  0  0  0  0  0  0
  -35.6949   56.8973   64.8837 C   0  0  0  0  0  0  0  0  0  0  0  0
  -37.0288   58.9284   65.1000 C   0  0  0  0  0  0  0  0  0  0  0  0
 34 33  1  0  0  0
 34 35  1  0  0  0
 34 36  1  0  0  0
 34 37  1  0  0  0
 22 23  1  0  0  0
 22 25  1  0  0  0
 22 21  1  0  0  0
 23 24  1  0  0  0
 27 26  1  0  0  0
 27 28  2  0  0  0
 27 31  1  0  0  0
 27 29  1  0  0  0
 25 26  1  0  0  0
 32 33  1  0  0  0
 32 31  1  0  0  0
 29 30  1  0  0  0
 20 21  1  0  0  0
 20  2  1  0  0  0
  1  2  2  0  0  0
  2  3  1  0  0  0
  3  4  1  0  0  0
  4  5  1  0  0  0
  5  6  1  0  0  0
  6  7  1  0  0  0
  7  8  1  0  0  0
  8  9  1  0  0  0
  9 10  1  0  0  0
 10 11  2  0  0  0
 11 12  1  0  0  0
 12 13  1  0  0  0
 13 14  1  0  0  0
 14 15  1  0  0  0
 15 16  1  0  0  0
 16 17  1  0  0  0
 17 18  1  0  0  0
 18 19  1  0  0  0
M  CHG 1  28  -1
M  END
> <minimizedAffinity>
-8.41565

> <CNNscore>
0.7035123110

> <CNNaffinity>
6.7837266922

> <CNN_VS>
4.7724351883

> <CNNaffinity_variance>
0.4390710890

$$$$
/media/chris/experiments/cd1a-new-docking/inputs/ligands/4x6c_ligand.pdb


 37 36  0  0  0  0  0  0  0  0999 V2000
  -40.5684   61.4578   65.3080 O   0  0  0  0  0  0  0  0  0  0  0  0
  -41.4949   60.8379   64.8831 C   0  0  0  0  0  0  0  0  0  0  0  0
  -42.5103   60.1451   65.7317 C   0  0  0  0  0  0  0  0  0  0  0  0
  -43.7917   59.8318   64.9825 C   0  0  0  0  0  0  0  0  0  0  0  0
  -44.0747   58.3477   64.8941 C   0  0  0  0  0  0  0  0  0  0  0  0
  -45.5298   57.9989   64.6876 C   0  0  0  0  0  0  0  0  0  0  0  0
  -46.2636   57.6634   65.9609 C   0  0  0  0  0  0  0  0  0  0  0  0
  -47.0363   58.8353   66.5040 C   0  0  0  0  0  0  0  0  0  0  0  0
  -47.9331   59.5270   65.5202 C   0  0  0  0  0  0  0  0  0  0  0  0
  -49.2890   58.9613   65.4699 C   0  0  0  0  0  0  0  0  0  0  0  0
  -49.9046   58.4267   64.4385 C   0  0  0  0  0  0  0  0  0  0  0  0
  -49.3825   58.2345   63.0620 C   0  0  0  0  0  0  0  0  0  0  0  0
  -50.3187   58.6476   61.9448 C   0  0  0  0  0  0  0  0  0  0  0  0
  -49.9041   58.1000   60.6067 C   0  0  0  0  0  0  0  0  0  0  0  0
  -48.9462   56.9381   60.6713 C   0  0  0  0  0  0  0  0  0  0  0  0
  -48.9718   56.0928   59.4169 C   0  0  0  0  0  0  0  0  0  0  0  0
  -47.6574   55.4616   59.0516 C   0  0  0  0  0  0  0  0  0  0  0  0
  -46.6531   56.4381   58.5855 C   0  0  0  0  0  0  0  0  0  0  0  0
  -47.0738   57.1818   57.3997 C   0  0  0  0  0  0  0  0  0  0  0  0
  -41.7440   60.6736   63.5840 O   0  0  0  0  0  0  0  0  0  0  0  0
  -41.1373   61.6086   62.6643 C   0  0  0  0  0  0  0  0  0  0  0  0
  -40.6507   60.8100   61.4769 C   0  0  0  0  0  0  0  0  0  0  0  0
  -40.9983   61.4903   60.2710 O   0  0  0  0  0  0  0  0  0  0  0  0
  -40.5394   62.3443   60.2376 H   0  0  0  0  0  0  0  0  0  0  0  0
  -39.1667   60.5349   61.4570 C   0  0  0  0  0  0  0  0  0  0  0  0
  -38.9030   59.3800   62.2789 O   0  0  0  0  0  0  0  0  0  0  0  0
  -37.6689   58.4368   61.9373 P   0  0  0  0  0  0  0  0  0  0  0  0
  -37.9065   57.1489   62.6201 O   0  0  0  0  0  0  0  0  0  0  0  0
  -37.5109   58.4544   60.4698 O   0  0  0  0  0  0  0  0  0  0  0  0
  -38.2954   58.0624   60.0553 H   0  0  0  0  0  0  0  0  0  0  0  0
  -36.3617   59.0872   62.5577 O   0  0  0  0  0  0  0  0  0  0  0  0
  -36.3428   59.4674   63.9538 C   0  0  0  0  0  0  0  0  0  0  0  0
  -35.0065   60.1365   64.1825 C   0  0  0  0  0  0  0  0  0  0  0  0
  -35.0511   61.5654   64.6865 N   0  0  0  0  0  0  0  0  0  0  0  0
  -36.2481   62.2870   64.1559 C   0  0  0  0  0  0  0  0  0  0  0  0
  -33.8210   62.2907   64.2436 C   0  0  0  0  0  0  0  0  0  0  0  0
  -35.1144   61.5679   66.1816 C   0  0  0  0  0  0  0  0  0  0  0  0
 34 33  1  0  0  0
 34 35  1  0  0  0
 34 36  1  0  0  0
 34 37  1  0  0  0
 22 23  1  0  0  0
 22 25  1  0  0  0
 22 21  1  0  0  0
 23 24  1  0  0  0
 27 26  1  0  0  0
 27 28  2  0  0  0
 27 31  1  0  0  0
 27 29  1  0  0  0
 25 26  1  0  0  0
 32 33  1  0  0  0
 32 31  1  0  0  0
 29 30  1  0  0  0
 20 21  1  0  0  0
 20  2  1  0  0  0
  1  2  2  0  0  0
  2  3  1  0  0  0
  3  4  1  0  0  0
  4  5  1  0  0  0
  5  6  1  0  0  0
  6  7  1  0  0  0
  7  8  1  0  0  0
  8  9  1  0  0  0
  9 10  1  0  0  0
 10 11  2  0  0  0
 11 12  1  0  0  0
 12 13  1  0  0  0
 13 14  1  0  0  0
 14 15  1  0  0  0
 15 16  1  0  0  0
 16 17  1  0  0  0
 17 18  1  0  0  0
 18 19  1  0  0  0
M  CHG 1  28  -1
M  END
> <minimizedAffinity>
-7.87132

> <CNNscore>
0.6867436767

> <CNNaffinity>
6.7419495583

> <CNN_VS>
4.6299910545

> <CNNaffinity_variance>
0.3990239501

$$$$
/media/chris/experiments/cd1a-new-docking/inputs/ligands/4x6c_ligand.pdb


 37 36  0  0  0  0  0  0  0  0999 V2000
  -41.8238   58.6259   66.8261 O   0  0  0  0  0  0  0  0  0  0  0  0
  -42.1837   59.4622   66.0553 C   0  0  0  0  0  0  0  0  0  0  0  0
  -43.5896   59.6240   65.5775 C   0  0  0  0  0  0  0  0  0  0  0  0
  -44.1230   58.3864   64.8810 C   0  0  0  0  0  0  0  0  0  0  0  0
  -45.5201   58.0145   65.3286 C   0  0  0  0  0  0  0  0  0  0  0  0
  -46.3395   59.1716   65.8496 C   0  0  0  0  0  0  0  0  0  0  0  0
  -47.6343   59.3855   65.1080 C   0  0  0  0  0  0  0  0  0  0  0  0
  -48.3255   58.0906   64.7747 C   0  0  0  0  0  0  0  0  0  0  0  0
  -49.8110   58.0813   64.9838 C   0  0  0  0  0  0  0  0  0  0  0  0
  -50.3823   59.4235   65.1658 C   0  0  0  0  0  0  0  0  0  0  0  0
  -50.9479   60.1913   64.2606 C   0  0  0  0  0  0  0  0  0  0  0  0
  -51.1772   59.8935   62.8243 C   0  0  0  0  0  0  0  0  0  0  0  0
  -50.0195   60.2085   61.8991 C   0  0  0  0  0  0  0  0  0  0  0  0
  -49.7812   59.1299   60.8782 C   0  0  0  0  0  0  0  0  0  0  0  0
  -50.2315   57.7544   61.2989 C   0  0  0  0  0  0  0  0  0  0  0  0
  -49.9166   56.6974   60.2634 C   0  0  0  0  0  0  0  0  0  0  0  0
  -49.2101   57.2031   59.0367 C   0  0  0  0  0  0  0  0  0  0  0  0
  -47.8962   56.5664   58.8185 C   0  0  0  0  0  0  0  0  0  0  0  0
  -47.1762   57.1023   57.6650 C   0  0  0  0  0  0  0  0  0  0  0  0
  -41.3704   60.3654   65.5078 O   0  0  0  0  0  0  0  0  0  0  0  0
  -39.9947   59.9803   65.2905 C   0  0  0  0  0  0  0  0  0  0  0  0
  -39.1729   61.2489   65.2972 C   0  0  0  0  0  0  0  0  0  0  0  0
  -39.9427   62.3117   65.8591 O   0  0  0  0  0  0  0  0  0  0  0  0
  -40.1467   62.1086   66.7854 H   0  0  0  0  0  0  0  0  0  0  0  0
  -37.8663   61.1596   66.0476 C   0  0  0  0  0  0  0  0  0  0  0  0
  -37.0862   62.3355   65.7522 O   0  0  0  0  0  0  0  0  0  0  0  0
  -35.6363   62.4970   66.3856 P   0  0  0  0  0  0  0  0  0  0  0  0
  -35.1305   63.8229   65.9764 O   0  0  0  0  0  0  0  0  0  0  0  0
  -35.7610   62.1871   67.8234 O   0  0  0  0  0  0  0  0  0  0  0  0
  -36.3345   62.8446   68.2474 H   0  0  0  0  0  0  0  0  0  0  0  0
  -34.6915   61.3934   65.7481 O   0  0  0  0  0  0  0  0  0  0  0  0
  -34.8563   61.0235   64.3590 C   0  0  0  0  0  0  0  0  0  0  0  0
  -34.5637   59.5419   64.2876 C   0  0  0  0  0  0  0  0  0  0  0  0
  -35.6855   58.6623   63.7722 N   0  0  0  0  0  0  0  0  0  0  0  0
  -36.3822   57.9638   64.8953 C   0  0  0  0  0  0  0  0  0  0  0  0
  -35.1271   57.6330   62.8426 C   0  0  0  0  0  0  0  0  0  0  0  0
  -36.6834   59.5014   63.0378 C   0  0  0  0  0  0  0  0  0  0  0  0
 34 33  1  0  0  0
 34 35  1  0  0  0
 34 36  1  0  0  0
 34 37  1  0  0  0
 22 23  1  0  0  0
 22 25  1  0  0  0
 22 21  1  0  0  0
 23 24  1  0  0  0
 27 26  1  0  0  0
 27 28  2  0  0  0
 27 31  1  0  0  0
 27 29  1  0  0  0
 25 26  1  0  0  0
 32 33  1  0  0  0
 32 31  1  0  0  0
 29 30  1  0  0  0
 20 21  1  0  0  0
 20  2  1  0  0  0
  1  2  2  0  0  0
  2  3  1  0  0  0
  3  4  1  0  0  0
  4  5  1  0  0  0
  5  6  1  0  0  0
  6  7  1  0  0  0
  7  8  1  0  0  0
  8  9  1  0  0  0
  9 10  1  0  0  0
 10 11  2  0  0  0
 11 12  1  0  0  0
 12 13  1  0  0  0
 13 14  1  0  0  0
 14 15  1  0  0  0
 15 16  1  0  0  0
 16 17  1  0  0  0
 17 18  1  0  0  0
 18 19  1  0  0  0
M  CHG 1  28  -1
M  END
> <minimizedAffinity>
-8.33480

> <CNNscore>
0.6560869813

> <CNNaffinity>
6.5514497757

> <CNN_VS>
4.2983207703

> <CNNaffinity_variance>
0.2489323914

$$$$
/media/chris/experiments/cd1a-new-docking/inputs/ligands/4x6c_ligand.pdb


 37 36  0  0  0  0  0  0  0  0999 V2000
  -42.5496   57.4121   65.9376 O   0  0  0  0  0  0  0  0  0  0  0  0
  -42.7909   58.5087   65.5349 C   0  0  0  0  0  0  0  0  0  0  0  0
  -44.1663   59.0359   65.2874 C   0  0  0  0  0  0  0  0  0  0  0  0
  -45.0975   57.9990   64.6880 C   0  0  0  0  0  0  0  0  0  0  0  0
  -46.5307   58.1587   65.1470 C   0  0  0  0  0  0  0  0  0  0  0  0
  -46.7330   59.2075   66.2151 C   0  0  0  0  0  0  0  0  0  0  0  0
  -47.9660   60.0514   66.0162 C   0  0  0  0  0  0  0  0  0  0  0  0
  -47.8131   61.0336   64.8860 C   0  0  0  0  0  0  0  0  0  0  0  0
  -48.7273   60.8169   63.7164 C   0  0  0  0  0  0  0  0  0  0  0  0
  -50.1116   60.5136   64.1073 C   0  0  0  0  0  0  0  0  0  0  0  0
  -51.0267   59.8745   63.4123 C   0  0  0  0  0  0  0  0  0  0  0  0
  -50.8934   59.2732   62.0615 C   0  0  0  0  0  0  0  0  0  0  0  0
  -50.8428   57.7595   62.0225 C   0  0  0  0  0  0  0  0  0  0  0  0
  -50.7213   57.2177   60.6247 C   0  0  0  0  0  0  0  0  0  0  0  0
  -49.6752   57.8940   59.7761 C   0  0  0  0  0  0  0  0  0  0  0  0
  -49.0790   56.9673   58.7396 C   0  0  0  0  0  0  0  0  0  0  0  0
  -47.8928   56.1720   59.2087 C   0  0  0  0  0  0  0  0  0  0  0  0
  -46.8734   55.9745   58.1594 C   0  0  0  0  0  0  0  0  0  0  0  0
  -46.7400   57.1171   57.2577 C   0  0  0  0  0  0  0  0  0  0  0  0
  -41.8567   59.4136   65.2426 O   0  0  0  0  0  0  0  0  0  0  0  0
  -42.2785   60.6079   64.5470 C   0  0  0  0  0  0  0  0  0  0  0  0
  -41.5098   60.6584   63.2466 C   0  0  0  0  0  0  0  0  0  0  0  0
  -41.5276   61.9909   62.7346 O   0  0  0  0  0  0  0  0  0  0  0  0
  -41.0672   62.5807   63.3519 H   0  0  0  0  0  0  0  0  0  0  0  0
  -40.0738   60.2021   63.3353 C   0  0  0  0  0  0  0  0  0  0  0  0
  -39.2375   61.3571   63.5482 O   0  0  0  0  0  0  0  0  0  0  0  0
  -38.5025   61.5491   64.9454 P   0  0  0  0  0  0  0  0  0  0  0  0
  -37.1694   62.1166   64.6588 O   0  0  0  0  0  0  0  0  0  0  0  0
  -39.4301   62.2964   65.8172 O   0  0  0  0  0  0  0  0  0  0  0  0
  -39.5797   63.1807   65.4475 H   0  0  0  0  0  0  0  0  0  0  0  0
  -38.2964   60.1176   65.5976 O   0  0  0  0  0  0  0  0  0  0  0  0
  -37.0542   59.4058   65.3877 C   0  0  0  0  0  0  0  0  0  0  0  0
  -37.4226   58.1394   64.6486 C   0  0  0  0  0  0  0  0  0  0  0  0
  -36.7231   57.9103   63.3235 N   0  0  0  0  0  0  0  0  0  0  0  0
  -37.5401   57.0368   62.4267 C   0  0  0  0  0  0  0  0  0  0  0  0
  -35.4037   57.2486   63.5622 C   0  0  0  0  0  0  0  0  0  0  0  0
  -36.5008   59.2230   62.6404 C   0  0  0  0  0  0  0  0  0  0  0  0
 34 33  1  0  0  0
 34 35  1  0  0  0
 34 36  1  0  0  0
 34 37  1  0  0  0
 22 23  1  0  0  0
 22 25  1  0  0  0
 22 21  1  0  0  0
 23 24  1  0  0  0
 27 26  1  0  0  0
 27 28  2  0  0  0
 27 31  1  0  0  0
 27 29  1  0  0  0
 25 26  1  0  0  0
 32 33  1  0  0  0
 32 31  1  0  0  0
 29 30  1  0  0  0
 20 21  1  0  0  0
 20  2  1  0  0  0
  1  2  2  0  0  0
  2  3  1  0  0  0
  3  4  1  0  0  0
  4  5  1  0  0  0
  5  6  1  0  0  0
  6  7  1  0  0  0
  7  8  1  0  0  0
  8  9  1  0  0  0
  9 10  1  0  0  0
 10 11  2  0  0  0
 11 12  1  0  0  0
 12 13  1  0  0  0
 13 14  1  0  0  0
 14 15  1  0  0  0
 15 16  1  0  0  0
 16 17  1  0  0  0
 17 18  1  0  0  0
 18 19  1  0  0  0
M  CHG 1  28  -1
M  END
> <minimizedAffinity>
-8.13617

> <CNNscore>
0.6404596567

> <CNNaffinity>
6.7318100929

> <CNN_VS>
4.3114528656

> <CNNaffinity_variance>
0.3448107541

$$$$
