/media/chris/experiments/cd1a-new-docking/inputs/ligands/4x6c_ligand.pdb


 37 36  0  0  0  0  0  0  0  0999 V2000
  -41.2404   58.2468   65.2873 O   0  0  0  0  0  0  0  0  0  0  0  0
  -41.6062   59.3423   65.5855 C   0  0  0  0  0  0  0  0  0  0  0  0
  -42.9481   59.6593   66.1600 C   0  0  0  0  0  0  0  0  0  0  0  0
  -44.0145   59.8529   65.0985 C   0  0  0  0  0  0  0  0  0  0  0  0
  -45.3855   59.3992   65.5510 C   0  0  0  0  0  0  0  0  0  0  0  0
  -45.6225   57.9118   65.4358 C   0  0  0  0  0  0  0  0  0  0  0  0
  -47.0648   57.5085   65.6068 C   0  0  0  0  0  0  0  0  0  0  0  0
  -47.9753   58.2056   64.6319 C   0  0  0  0  0  0  0  0  0  0  0  0
  -49.4433   58.0020   64.8633 C   0  0  0  0  0  0  0  0  0  0  0  0
  -50.1431   59.2261   65.2793 C   0  0  0  0  0  0  0  0  0  0  0  0
  -50.8405   60.0528   64.5317 C   0  0  0  0  0  0  0  0  0  0  0  0
  -51.1218   59.9533   63.0772 C   0  0  0  0  0  0  0  0  0  0  0  0
  -49.9801   60.3476   62.1628 C   0  0  0  0  0  0  0  0  0  0  0  0
  -49.7630   59.3634   61.0464 C   0  0  0  0  0  0  0  0  0  0  0  0
  -50.2980   57.9799   61.3140 C   0  0  0  0  0  0  0  0  0  0  0  0
  -50.4125   57.1473   60.0561 C   0  0  0  0  0  0  0  0  0  0  0  0
  -49.1777   57.1215   59.1991 C   0  0  0  0  0  0  0  0  0  0  0  0
  -48.2560   56.0200   59.5404 C   0  0  0  0  0  0  0  0  0  0  0  0
  -47.4117   55.6026   58.4226 C   0  0  0  0  0  0  0  0  0  0  0  0
  -40.8627   60.4387   65.4369 O   0  0  0  0  0  0  0  0  0  0  0  0
  -39.7308   60.3615   64.5422 C   0  0  0  0  0  0  0  0  0  0  0  0
  -38.6536   61.2559   65.1116 C   0  0  0  0  0  0  0  0  0  0  0  0
  -39.2582   62.3236   65.8415 O   0  0  0  0  0  0  0  0  0  0  0  0
  -39.7470   61.9624   66.5974 H   0  0  0  0  0  0  0  0  0  0  0  0
  -37.6607   60.5649   66.0144 C   0  0  0  0  0  0  0  0  0  0  0  0
  -36.8987   61.5701   66.7129 O   0  0  0  0  0  0  0  0  0  0  0  0
  -35.5234   62.0817   66.0995 P   0  0  0  0  0  0  0  0  0  0  0  0
  -35.7597   63.4460   65.5856 O   0  0  0  0  0  0  0  0  0  0  0  0
  -34.4902   61.8710   67.1325 O   0  0  0  0  0  0  0  0  0  0  0  0
  -34.6853   62.4268   67.9032 H   0  0  0  0  0  0  0  0  0  0  0  0
  -35.1532   61.1511   64.8690 O   0  0  0  0  0  0  0  0  0  0  0  0
  -34.3149   59.9898   65.0747 C   0  0  0  0  0  0  0  0  0  0  0  0
  -34.2048   59.3148   63.7264 C   0  0  0  0  0  0  0  0  0  0  0  0
  -35.1788   58.1837   63.4626 N   0  0  0  0  0  0  0  0  0  0  0  0
  -35.5629   57.4960   64.7332 C   0  0  0  0  0  0  0  0  0  0  0  0
  -34.5473   57.1825   62.5495 C   0  0  0  0  0  0  0  0  0  0  0  0
  -36.4160   58.7272   62.8198 C   0  0  0  0  0  0  0  0  0  0  0  0
 34 33  1  0  0  0
 34 35  1  0  0  0
 34 36  1  0  0  0
 34 37  1  0  0  0
 22 23  1  0  0  0
 22 25  1  0  0  0
 22 21  1  0  0  0
 23 24  1  0  0  0
 27 26  1  0  0  0
 27 28  2  0  0  0
 27 31  1  0  0  0
 27 29  1  0  0  0
 25 26  1  0  0  0
 32 33  1  0  0  0
 32 31  1  0  0  0
 29 30  1  0  0  0
 20 21  1  0  0  0
 20  2  1  0  0  0
  1  2  2  0  0  0
  2  3  1  0  0  0
  3  4  1  0  0  0
  4  5  1  0  0  0
  5  6  1  0  0  0
  6  7  1  0  0  0
  7  8  1  0  0  0
  8  9  1  0  0  0
  9 10  1  0  0  0
 10 11  2  0  0  0
 11 12  1  0  0  0
 12 13  1  0  0  0
 13 14  1  0  0  0
 14 15  1  0  0  0
 15 16  1  0  0  0
 16 17  1  0  0  0
 17 18  1  0  0  0
 18 19  1  0  0  0
M  CHG 1  28  -1
M  END
> <minimizedAffinity>
-8.24331

> <CNNscore>
0.7363581657

> <CNNaffinity>
6.6027922630

> <CNN_VS>
4.8620200157

> <CNNaffinity_variance>
0.2718934417

$$$$
/media/chris/experiments/cd1a-new-docking/inputs/ligands/4x6c_ligand.pdb


 37 36  0  0  0  0  0  0  0  0999 V2000
  -41.2621   58.6968   65.5209 O   0  0  0  0  0  0  0  0  0  0  0  0
  -41.7239   59.6258   64.9322 C   0  0  0  0  0  0  0  0  0  0  0  0
  -43.1536   59.7369   64.5143 C   0  0  0  0  0  0  0  0  0  0  0  0
  -44.1140   59.1517   65.5325 C   0  0  0  0  0  0  0  0  0  0  0  0
  -45.0620   58.1360   64.9324 C   0  0  0  0  0  0  0  0  0  0  0  0
  -46.5080   58.5716   64.9003 C   0  0  0  0  0  0  0  0  0  0  0  0
  -46.7702   59.8707   65.6187 C   0  0  0  0  0  0  0  0  0  0  0  0
  -48.2261   60.0593   65.9505 C   0  0  0  0  0  0  0  0  0  0  0  0
  -49.1318   58.9381   65.5349 C   0  0  0  0  0  0  0  0  0  0  0  0
  -50.4457   59.3955   65.0601 C   0  0  0  0  0  0  0  0  0  0  0  0
  -50.7186   60.0821   63.9726 C   0  0  0  0  0  0  0  0  0  0  0  0
  -49.7736   60.5548   62.9294 C   0  0  0  0  0  0  0  0  0  0  0  0
  -49.9048   59.8842   61.5772 C   0  0  0  0  0  0  0  0  0  0  0  0
  -49.6604   58.4014   61.6376 C   0  0  0  0  0  0  0  0  0  0  0  0
  -50.6198   57.5717   60.8233 C   0  0  0  0  0  0  0  0  0  0  0  0
  -50.0923   57.2635   59.4393 C   0  0  0  0  0  0  0  0  0  0  0  0
  -48.5964   57.1518   59.3421 C   0  0  0  0  0  0  0  0  0  0  0  0
  -48.1311   56.7181   58.0099 C   0  0  0  0  0  0  0  0  0  0  0  0
  -47.1992   55.5931   58.0587 C   0  0  0  0  0  0  0  0  0  0  0  0
  -41.0175   60.6930   64.5594 O   0  0  0  0  0  0  0  0  0  0  0  0
  -41.1503   61.1367   63.1907 C   0  0  0  0  0  0  0  0  0  0  0  0
  -40.0752   60.4371   62.3914 C   0  0  0  0  0  0  0  0  0  0  0  0
  -39.8635   61.1360   61.1646 O   0  0  0  0  0  0  0  0  0  0  0  0
  -39.5326   62.0279   61.3535 H   0  0  0  0  0  0  0  0  0  0  0  0
  -38.7467   60.2961   63.0938 C   0  0  0  0  0  0  0  0  0  0  0  0
  -38.2141   61.6137   63.3373 O   0  0  0  0  0  0  0  0  0  0  0  0
  -37.0311   61.8029   64.3832 P   0  0  0  0  0  0  0  0  0  0  0  0
  -35.9937   62.6187   63.7203 O   0  0  0  0  0  0  0  0  0  0  0  0
  -37.6414   62.2934   65.6345 O   0  0  0  0  0  0  0  0  0  0  0  0
  -38.0328   63.1678   65.4824 H   0  0  0  0  0  0  0  0  0  0  0  0
  -36.4101   60.3760   64.6920 O   0  0  0  0  0  0  0  0  0  0  0  0
  -35.6141   59.7071   63.6858 C   0  0  0  0  0  0  0  0  0  0  0  0
  -34.5972   58.8832   64.4427 C   0  0  0  0  0  0  0  0  0  0  0  0
  -33.2241   58.7694   63.8110 N   0  0  0  0  0  0  0  0  0  0  0  0
  -33.2686   57.9348   62.5714 C   0  0  0  0  0  0  0  0  0  0  0  0
  -32.2785   58.1354   64.7801 C   0  0  0  0  0  0  0  0  0  0  0  0
  -32.7229   60.1329   63.4520 C   0  0  0  0  0  0  0  0  0  0  0  0
 34 33  1  0  0  0
 34 35  1  0  0  0
 34 36  1  0  0  0
 34 37  1  0  0  0
 22 23  1  0  0  0
 22 25  1  0  0  0
 22 21  1  0  0  0
 23 24  1  0  0  0
 27 26  1  0  0  0
 27 28  2  0  0  0
 27 31  1  0  0  0
 27 29  1  0  0  0
 25 26  1  0  0  0
 32 33  1  0  0  0
 32 31  1  0  0  0
 29 30  1  0  0  0
 20 21  1  0  0  0
 20  2  1  0  0  0
  1  2  2  0  0  0
  2  3  1  0  0  0
  3  4  1  0  0  0
  4  5  1  0  0  0
  5  6  1  0  0  0
  6  7  1  0  0  0
  7  8  1  0  0  0
  8  9  1  0  0  0
  9 10  1  0  0  0
 10 11  2  0  0  0
 11 12  1  0  0  0
 12 13  1  0  0  0
 13 14  1  0  0  0
 14 15  1  0  0  0
 15 16  1  0  0  0
 16 17  1  0  0  0
 17 18  1  0  0  0
 18 19  1  0  0  0
M  CHG 1  28  -1
M  END
> <minimizedAffinity>
-7.72968

> <CNNscore>
0.7163113356

> <CNNaffinity>
6.5931358337

> <CNN_VS>
4.7227377892

> <CNNaffinity_variance>
0.3352865875

$$$$
/media/chris/experiments/cd1a-new-docking/inputs/ligands/4x6c_ligand.pdb


 37 36  0  0  0  0  0  0  0  0999 V2000
  -39.2025   61.4286   65.9458 O   0  0  0  0  0  0  0  0  0  0  0  0
  -39.3082   60.4765   65.2348 C   0  0  0  0  0  0  0  0  0  0  0  0
  -40.5564   59.6710   65.0791 C   0  0  0  0  0  0  0  0  0  0  0  0
  -41.4272   59.6848   66.3213 C   0  0  0  0  0  0  0  0  0  0  0  0
  -42.6841   58.8556   66.1690 C   0  0  0  0  0  0  0  0  0  0  0  0
  -43.5756   59.2746   65.0238 C   0  0  0  0  0  0  0  0  0  0  0  0
  -44.4272   58.1591   64.4736 C   0  0  0  0  0  0  0  0  0  0  0  0
  -44.8050   57.1523   65.5268 C   0  0  0  0  0  0  0  0  0  0  0  0
  -46.2778   56.9364   65.7121 C   0  0  0  0  0  0  0  0  0  0  0  0
  -47.0374   58.1873   65.8516 C   0  0  0  0  0  0  0  0  0  0  0  0
  -48.0018   58.6383   65.0801 C   0  0  0  0  0  0  0  0  0  0  0  0
  -48.5902   57.9909   63.8804 C   0  0  0  0  0  0  0  0  0  0  0  0
  -50.0495   58.3034   63.6193 C   0  0  0  0  0  0  0  0  0  0  0  0
  -50.4536   58.0435   62.1941 C   0  0  0  0  0  0  0  0  0  0  0  0
  -49.3040   57.8328   61.2422 C   0  0  0  0  0  0  0  0  0  0  0  0
  -49.7247   57.9281   59.7922 C   0  0  0  0  0  0  0  0  0  0  0  0
  -49.0774   56.9257   58.8778 C   0  0  0  0  0  0  0  0  0  0  0  0
  -47.7833   56.4275   59.3841 C   0  0  0  0  0  0  0  0  0  0  0  0
  -47.0697   55.5869   58.4246 C   0  0  0  0  0  0  0  0  0  0  0  0
  -38.3158   59.9969   64.4851 O   0  0  0  0  0  0  0  0  0  0  0  0
  -37.2978   59.2136   65.1467 C   0  0  0  0  0  0  0  0  0  0  0  0
  -37.2216   57.8867   64.4271 C   0  0  0  0  0  0  0  0  0  0  0  0
  -37.9846   57.9541   63.2223 O   0  0  0  0  0  0  0  0  0  0  0  0
  -37.5940   58.6143   62.6287 H   0  0  0  0  0  0  0  0  0  0  0  0
  -35.8262   57.4266   64.0813 C   0  0  0  0  0  0  0  0  0  0  0  0
  -34.8824   58.3577   64.6481 O   0  0  0  0  0  0  0  0  0  0  0  0
  -33.4908   58.6080   63.9201 P   0  0  0  0  0  0  0  0  0  0  0  0
  -32.4351   58.0929   64.8153 O   0  0  0  0  0  0  0  0  0  0  0  0
  -33.6145   58.0508   62.5587 O   0  0  0  0  0  0  0  0  0  0  0  0
  -33.7419   57.0907   62.6125 H   0  0  0  0  0  0  0  0  0  0  0  0
  -33.2852   60.1738   63.7692 O   0  0  0  0  0  0  0  0  0  0  0  0
  -33.9305   61.0749   64.6994 C   0  0  0  0  0  0  0  0  0  0  0  0
  -33.8406   62.4488   64.0748 C   0  0  0  0  0  0  0  0  0  0  0  0
  -34.8848   63.4546   64.5171 N   0  0  0  0  0  0  0  0  0  0  0  0
  -34.5816   63.9809   65.8831 C   0  0  0  0  0  0  0  0  0  0  0  0
  -36.2291   62.8009   64.5445 C   0  0  0  0  0  0  0  0  0  0  0  0
  -34.9132   64.6025   63.5575 C   0  0  0  0  0  0  0  0  0  0  0  0
 34 33  1  0  0  0
 34 35  1  0  0  0
 34 36  1  0  0  0
 34 37  1  0  0  0
 22 23  1  0  0  0
 22 25  1  0  0  0
 22 21  1  0  0  0
 23 24  1  0  0  0
 27 26  1  0  0  0
 27 28  2  0  0  0
 27 31  1  0  0  0
 27 29  1  0  0  0
 25 26  1  0  0  0
 32 33  1  0  0  0
 32 31  1  0  0  0
 29 30  1  0  0  0
 20 21  1  0  0  0
 20  2  1  0  0  0
  1  2  2  0  0  0
  2  3  1  0  0  0
  3  4  1  0  0  0
  4  5  1  0  0  0
  5  6  1  0  0  0
  6  7  1  0  0  0
  7  8  1  0  0  0
  8  9  1  0  0  0
  9 10  1  0  0  0
 10 11  2  0  0  0
 11 12  1  0  0  0
 12 13  1  0  0  0
 13 14  1  0  0  0
 14 15  1  0  0  0
 15 16  1  0  0  0
 16 17  1  0  0  0
 17 18  1  0  0  0
 18 19  1  0  0  0
M  CHG 1  28  -1
M  END
> <minimizedAffinity>
-7.42331

> <CNNscore>
0.7017230392

> <CNNaffinity>
6.6115045547

> <CNN_VS>
4.6394453049

> <CNNaffinity_variance>
0.4612414837

$$$$
/media/chris/experiments/cd1a-new-docking/inputs/ligands/4x6c_ligand.pdb


 37 36  0  0  0  0  0  0  0  0999 V2000
  -40.1248   58.0745   65.0391 O   0  0  0  0  0  0  0  0  0  0  0  0
  -40.5297   59.1925   65.1340 C   0  0  0  0  0  0  0  0  0  0  0  0
  -41.8419   59.5688   65.7404 C   0  0  0  0  0  0  0  0  0  0  0  0
  -42.8969   59.9058   64.7037 C   0  0  0  0  0  0  0  0  0  0  0  0
  -44.3060   59.8287   65.2504 C   0  0  0  0  0  0  0  0  0  0  0  0
  -44.9399   58.4608   65.1569 C   0  0  0  0  0  0  0  0  0  0  0  0
  -46.4434   58.4905   65.0538 C   0  0  0  0  0  0  0  0  0  0  0  0
  -46.9982   59.8860   65.1553 C   0  0  0  0  0  0  0  0  0  0  0  0
  -48.3026   60.0088   65.8858 C   0  0  0  0  0  0  0  0  0  0  0  0
  -49.3076   59.0271   65.4533 C   0  0  0  0  0  0  0  0  0  0  0  0
  -50.1810   59.1401   64.4771 C   0  0  0  0  0  0  0  0  0  0  0  0
  -50.3645   60.2795   63.5428 C   0  0  0  0  0  0  0  0  0  0  0  0
  -49.3585   60.3665   62.4134 C   0  0  0  0  0  0  0  0  0  0  0  0
  -49.8342   59.6889   61.1578 C   0  0  0  0  0  0  0  0  0  0  0  0
  -49.7052   58.1872   61.1653 C   0  0  0  0  0  0  0  0  0  0  0  0
  -49.4571   57.6178   59.7858 C   0  0  0  0  0  0  0  0  0  0  0  0
  -48.7710   56.2805   59.7666 C   0  0  0  0  0  0  0  0  0  0  0  0
  -48.0806   55.9994   58.4923 C   0  0  0  0  0  0  0  0  0  0  0  0
  -47.5328   57.1945   57.8534 C   0  0  0  0  0  0  0  0  0  0  0  0
  -39.8627   60.2622   64.7006 O   0  0  0  0  0  0  0  0  0  0  0  0
  -38.5385   60.0505   64.1627 C   0  0  0  0  0  0  0  0  0  0  0  0
  -37.5542   60.4310   65.2447 C   0  0  0  0  0  0  0  0  0  0  0  0
  -36.3135   59.7629   65.0157 O   0  0  0  0  0  0  0  0  0  0  0  0
  -35.9334   60.0654   64.1762 H   0  0  0  0  0  0  0  0  0  0  0  0
  -37.2819   61.9104   65.3691 C   0  0  0  0  0  0  0  0  0  0  0  0
  -37.0200   62.4410   64.0542 O   0  0  0  0  0  0  0  0  0  0  0  0
  -35.6479   63.1927   63.7685 P   0  0  0  0  0  0  0  0  0  0  0  0
  -34.5637   62.2165   63.9979 O   0  0  0  0  0  0  0  0  0  0  0  0
  -35.7762   63.8267   62.4416 O   0  0  0  0  0  0  0  0  0  0  0  0
  -35.8743   63.1402   61.7633 H   0  0  0  0  0  0  0  0  0  0  0  0
  -35.4912   64.3591   64.8325 O   0  0  0  0  0  0  0  0  0  0  0  0
  -34.1764   64.8817   65.1354 C   0  0  0  0  0  0  0  0  0  0  0  0
  -33.6573   65.4708   63.8434 C   0  0  0  0  0  0  0  0  0  0  0  0
  -32.1561   65.6570   63.7483 N   0  0  0  0  0  0  0  0  0  0  0  0
  -31.4616   64.3474   63.5548 C   0  0  0  0  0  0  0  0  0  0  0  0
  -31.6492   66.2852   65.0068 C   0  0  0  0  0  0  0  0  0  0  0  0
  -31.8336   66.5455   62.5882 C   0  0  0  0  0  0  0  0  0  0  0  0
 34 33  1  0  0  0
 34 35  1  0  0  0
 34 36  1  0  0  0
 34 37  1  0  0  0
 22 23  1  0  0  0
 22 25  1  0  0  0
 22 21  1  0  0  0
 23 24  1  0  0  0
 27 26  1  0  0  0
 27 28  2  0  0  0
 27 31  1  0  0  0
 27 29  1  0  0  0
 25 26  1  0  0  0
 32 33  1  0  0  0
 32 31  1  0  0  0
 29 30  1  0  0  0
 20 21  1  0  0  0
 20  2  1  0  0  0
  1  2  2  0  0  0
  2  3  1  0  0  0
  3  4  1  0  0  0
  4  5  1  0  0  0
  5  6  1  0  0  0
  6  7  1  0  0  0
  7  8  1  0  0  0
  8  9  1  0  0  0
  9 10  1  0  0  0
 10 11  2  0  0  0
 11 12  1  0  0  0
 12 13  1  0  0  0
 13 14  1  0  0  0
 14 15  1  0  0  0
 15 16  1  0  0  0
 16 17  1  0  0  0
 17 18  1  0  0  0
 18 19  1  0  0  0
M  CHG 1  28  -1
M  END
> <minimizedAffinity>
-7.46338

> <CNNscore>
0.6791847348

> <CNNaffinity>
6.2077751160

> <CNN_VS>
4.2162261009

> <CNNaffinity_variance>
0.8255186081

$$$$
/media/chris/experiments/cd1a-new-docking/inputs/ligands/4x6c_ligand.pdb


 37 36  0  0  0  0  0  0  0  0999 V2000
  -40.9799   57.9861   65.1982 O   0  0  0  0  0  0  0  0  0  0  0  0
  -42.0128   58.4004   65.6276 C   0  0  0  0  0  0  0  0  0  0  0  0
  -43.1508   57.5404   66.0711 C   0  0  0  0  0  0  0  0  0  0  0  0
  -44.0178   57.0677   64.9194 C   0  0  0  0  0  0  0  0  0  0  0  0
  -45.3875   57.7112   64.9102 C   0  0  0  0  0  0  0  0  0  0  0  0
  -46.0465   57.8004   66.2665 C   0  0  0  0  0  0  0  0  0  0  0  0
  -46.5809   59.1708   66.5965 C   0  0  0  0  0  0  0  0  0  0  0  0
  -46.7328   60.0371   65.3751 C   0  0  0  0  0  0  0  0  0  0  0  0
  -48.1214   60.5392   65.1105 C   0  0  0  0  0  0  0  0  0  0  0  0
  -49.1715   59.6295   65.5908 C   0  0  0  0  0  0  0  0  0  0  0  0
  -50.4189   59.5474   65.1835 C   0  0  0  0  0  0  0  0  0  0  0  0
  -51.0855   60.3363   64.1168 C   0  0  0  0  0  0  0  0  0  0  0  0
  -51.1745   59.6607   62.7638 C   0  0  0  0  0  0  0  0  0  0  0  0
  -50.1604   60.1849   61.7845 C   0  0  0  0  0  0  0  0  0  0  0  0
  -49.4275   59.1213   61.0075 C   0  0  0  0  0  0  0  0  0  0  0  0
  -50.3293   57.9808   60.5897 C   0  0  0  0  0  0  0  0  0  0  0  0
  -49.6265   56.6749   60.3444 C   0  0  0  0  0  0  0  0  0  0  0  0
  -48.7342   56.7066   59.1687 C   0  0  0  0  0  0  0  0  0  0  0  0
  -47.9369   55.4916   59.0125 C   0  0  0  0  0  0  0  0  0  0  0  0
  -42.2935   59.6966   65.7622 O   0  0  0  0  0  0  0  0  0  0  0  0
  -41.3976   60.4935   66.5683 C   0  0  0  0  0  0  0  0  0  0  0  0
  -40.5323   61.2874   65.6166 C   0  0  0  0  0  0  0  0  0  0  0  0
  -40.5973   62.6723   65.9570 O   0  0  0  0  0  0  0  0  0  0  0  0
  -40.2279   62.8050   66.8440 H   0  0  0  0  0  0  0  0  0  0  0  0
  -39.0809   60.8748   65.5774 C   0  0  0  0  0  0  0  0  0  0  0  0
  -38.4065   61.6635   64.5764 O   0  0  0  0  0  0  0  0  0  0  0  0
  -36.8645   62.0093   64.7551 P   0  0  0  0  0  0  0  0  0  0  0  0
  -36.4628   62.8139   63.5836 O   0  0  0  0  0  0  0  0  0  0  0  0
  -36.7086   62.5801   66.1075 O   0  0  0  0  0  0  0  0  0  0  0  0
  -37.1987   63.4153   66.1645 H   0  0  0  0  0  0  0  0  0  0  0  0
  -36.0451   60.6512   64.7219 O   0  0  0  0  0  0  0  0  0  0  0  0
  -34.7586   60.5734   65.3794 C   0  0  0  0  0  0  0  0  0  0  0  0
  -34.2516   59.1706   65.1326 C   0  0  0  0  0  0  0  0  0  0  0  0
  -33.2848   59.0020   63.9775 N   0  0  0  0  0  0  0  0  0  0  0  0
  -32.8011   60.3268   63.4816 C   0  0  0  0  0  0  0  0  0  0  0  0
  -33.9676   58.2915   62.8532 C   0  0  0  0  0  0  0  0  0  0  0  0
  -32.1043   58.1986   64.4250 C   0  0  0  0  0  0  0  0  0  0  0  0
 34 33  1  0  0  0
 34 35  1  0  0  0
 34 36  1  0  0  0
 34 37  1  0  0  0
 22 23  1  0  0  0
 22 25  1  0  0  0
 22 21  1  0  0  0
 23 24  1  0  0  0
 27 26  1  0  0  0
 27 28  2  0  0  0
 27 31  1  0  0  0
 27 29  1  0  0  0
 25 26  1  0  0  0
 32 33  1  0  0  0
 32 31  1  0  0  0
 29 30  1  0  0  0
 20 21  1  0  0  0
 20  2  1  0  0  0
  1  2  2  0  0  0
  2  3  1  0  0  0
  3  4  1  0  0  0
  4  5  1  0  0  0
  5  6  1  0  0  0
  6  7  1  0  0  0
  7  8  1  0  0  0
  8  9  1  0  0  0
  9 10  1  0  0  0
 10 11  2  0  0  0
 11 12  1  0  0  0
 12 13  1  0  0  0
 13 14  1  0  0  0
 14 15  1  0  0  0
 15 16  1  0  0  0
 16 17  1  0  0  0
 17 18  1  0  0  0
 18 19  1  0  0  0
M  CHG 1  28  -1
M  END
> <minimizedAffinity>
-7.75131

> <CNNscore>
0.6593804359

> <CNNaffinity>
6.4083442688

> <CNN_VS>
4.2255368233

> <CNNaffinity_variance>
0.1377514750

$$$$
/media/chris/experiments/cd1a-new-docking/inputs/ligands/4x6c_ligand.pdb


 37 36  0  0  0  0  0  0  0  0999 V2000
  -40.8568   59.7271   65.7582 O   0  0  0  0  0  0  0  0  0  0  0  0
  -41.2280   60.3517   64.8121 C   0  0  0  0  0  0  0  0  0  0  0  0
  -42.5679   60.1988   64.1698 C   0  0  0  0  0  0  0  0  0  0  0  0
  -43.6458   59.7687   65.1468 C   0  0  0  0  0  0  0  0  0  0  0  0
  -44.3538   58.5003   64.7221 C   0  0  0  0  0  0  0  0  0  0  0  0
  -45.7705   58.3738   65.2306 C   0  0  0  0  0  0  0  0  0  0  0  0
  -46.3570   59.6688   65.7319 C   0  0  0  0  0  0  0  0  0  0  0  0
  -47.7829   59.5144   66.1886 C   0  0  0  0  0  0  0  0  0  0  0  0
  -48.6290   58.5954   65.3581 C   0  0  0  0  0  0  0  0  0  0  0  0
  -50.0465   58.9833   65.3202 C   0  0  0  0  0  0  0  0  0  0  0  0
  -50.6488   59.7626   64.4493 C   0  0  0  0  0  0  0  0  0  0  0  0
  -50.0591   60.4354   63.2643 C   0  0  0  0  0  0  0  0  0  0  0  0
  -50.3478   59.7793   61.9297 C   0  0  0  0  0  0  0  0  0  0  0  0
  -49.8203   58.3732   61.8470 C   0  0  0  0  0  0  0  0  0  0  0  0
  -50.7045   57.4125   61.0939 C   0  0  0  0  0  0  0  0  0  0  0  0
  -50.4701   57.4554   59.6000 C   0  0  0  0  0  0  0  0  0  0  0  0
  -49.0448   57.7000   59.1893 C   0  0  0  0  0  0  0  0  0  0  0  0
  -48.5836   56.7917   58.1208 C   0  0  0  0  0  0  0  0  0  0  0  0
  -47.2066   57.0430   57.7000 C   0  0  0  0  0  0  0  0  0  0  0  0
  -40.4870   61.2706   64.1929 O   0  0  0  0  0  0  0  0  0  0  0  0
  -40.0065   60.9579   62.8666 C   0  0  0  0  0  0  0  0  0  0  0  0
  -38.6522   60.3065   63.0276 C   0  0  0  0  0  0  0  0  0  0  0  0
  -38.4615   59.3426   61.9918 O   0  0  0  0  0  0  0  0  0  0  0  0
  -38.4535   59.7900   61.1312 H   0  0  0  0  0  0  0  0  0  0  0  0
  -37.4802   61.2575   63.0139 C   0  0  0  0  0  0  0  0  0  0  0  0
  -37.5885   62.1356   64.1524 O   0  0  0  0  0  0  0  0  0  0  0  0
  -37.0115   61.6727   65.5602 P   0  0  0  0  0  0  0  0  0  0  0  0
  -36.5136   62.8838   66.2434 O   0  0  0  0  0  0  0  0  0  0  0  0
  -38.0622   60.8625   66.2072 O   0  0  0  0  0  0  0  0  0  0  0  0
  -38.8371   61.4188   66.3833 H   0  0  0  0  0  0  0  0  0  0  0  0
  -35.7749   60.7141   65.2978 O   0  0  0  0  0  0  0  0  0  0  0  0
  -34.4422   61.1475   65.6579 C   0  0  0  0  0  0  0  0  0  0  0  0
  -33.7572   61.5033   64.3579 C   0  0  0  0  0  0  0  0  0  0  0  0
  -33.3838   62.9609   64.1753 N   0  0  0  0  0  0  0  0  0  0  0  0
  -34.4349   63.6943   63.4057 C   0  0  0  0  0  0  0  0  0  0  0  0
  -32.0916   63.0566   63.4294 C   0  0  0  0  0  0  0  0  0  0  0  0
  -33.2304   63.6107   65.5145 C   0  0  0  0  0  0  0  0  0  0  0  0
 34 33  1  0  0  0
 34 35  1  0  0  0
 34 36  1  0  0  0
 34 37  1  0  0  0
 22 23  1  0  0  0
 22 25  1  0  0  0
 22 21  1  0  0  0
 23 24  1  0  0  0
 27 26  1  0  0  0
 27 28  2  0  0  0
 27 31  1  0  0  0
 27 29  1  0  0  0
 25 26  1  0  0  0
 32 33  1  0  0  0
 32 31  1  0  0  0
 29 30  1  0  0  0
 20 21  1  0  0  0
 20  2  1  0  0  0
  1  2  2  0  0  0
  2  3  1  0  0  0
  3  4  1  0  0  0
  4  5  1  0  0  0
  5  6  1  0  0  0
  6  7  1  0  0  0
  7  8  1  0  0  0
  8  9  1  0  0  0
  9 10  1  0  0  0
 10 11  2  0  0  0
 11 12  1  0  0  0
 12 13  1  0  0  0
 13 14  1  0  0  0
 14 15  1  0  0  0
 15 16  1  0  0  0
 16 17  1  0  0  0
 17 18  1  0  0  0
 18 19  1  0  0  0
M  CHG 1  28  -1
M  END
> <minimizedAffinity>
-7.79036

> <CNNscore>
0.6478303075

> <CNNaffinity>
6.2594499588

> <CNN_VS>
4.0550613403

> <CNNaffinity_variance>
0.4512725472

$$$$
/media/chris/experiments/cd1a-new-docking/inputs/ligands/4x6c_ligand.pdb


 37 36  0  0  0  0  0  0  0  0999 V2000
  -40.5060   61.4160   65.6568 O   0  0  0  0  0  0  0  0  0  0  0  0
  -40.9425   60.4445   65.1195 C   0  0  0  0  0  0  0  0  0  0  0  0
  -41.2158   59.1474   65.8080 C   0  0  0  0  0  0  0  0  0  0  0  0
  -42.6713   58.7282   65.7222 C   0  0  0  0  0  0  0  0  0  0  0  0
  -42.8581   57.2284   65.8010 C   0  0  0  0  0  0  0  0  0  0  0  0
  -44.1500   56.7260   65.2008 C   0  0  0  0  0  0  0  0  0  0  0  0
  -45.1378   57.8177   64.8770 C   0  0  0  0  0  0  0  0  0  0  0  0
  -46.5249   57.5008   65.3680 C   0  0  0  0  0  0  0  0  0  0  0  0
  -47.6416   58.1521   64.6073 C   0  0  0  0  0  0  0  0  0  0  0  0
  -48.9690   57.6243   64.9546 C   0  0  0  0  0  0  0  0  0  0  0  0
  -50.0828   58.2969   65.1436 C   0  0  0  0  0  0  0  0  0  0  0  0
  -50.2950   59.7623   65.0331 C   0  0  0  0  0  0  0  0  0  0  0  0
  -50.7873   60.2512   63.6863 C   0  0  0  0  0  0  0  0  0  0  0  0
  -49.6691   60.4817   62.7073 C   0  0  0  0  0  0  0  0  0  0  0  0
  -49.8908   59.8768   61.3446 C   0  0  0  0  0  0  0  0  0  0  0  0
  -50.1340   58.3848   61.4033 C   0  0  0  0  0  0  0  0  0  0  0  0
  -50.0877   57.6829   60.0748 C   0  0  0  0  0  0  0  0  0  0  0  0
  -48.8370   56.9288   59.8589 C   0  0  0  0  0  0  0  0  0  0  0  0
  -48.3244   57.0340   58.4941 C   0  0  0  0  0  0  0  0  0  0  0  0
  -41.2388   60.3849   63.8212 O   0  0  0  0  0  0  0  0  0  0  0  0
  -40.6341   61.3685   62.9525 C   0  0  0  0  0  0  0  0  0  0  0  0
  -39.6081   60.6456   62.1105 C   0  0  0  0  0  0  0  0  0  0  0  0
  -39.8902   60.8609   60.7276 O   0  0  0  0  0  0  0  0  0  0  0  0
  -39.8017   61.8048   60.5228 H   0  0  0  0  0  0  0  0  0  0  0  0
  -38.1749   61.0409   62.3708 C   0  0  0  0  0  0  0  0  0  0  0  0
  -37.8601   60.7464   63.7467 O   0  0  0  0  0  0  0  0  0  0  0  0
  -36.9771   61.7675   64.5874 P   0  0  0  0  0  0  0  0  0  0  0  0
  -36.3469   62.6910   63.6224 O   0  0  0  0  0  0  0  0  0  0  0  0
  -37.8489   62.3166   65.6444 O   0  0  0  0  0  0  0  0  0  0  0  0
  -38.5682   62.8254   65.2385 H   0  0  0  0  0  0  0  0  0  0  0  0
  -35.8246   60.9493   65.3080 O   0  0  0  0  0  0  0  0  0  0  0  0
  -34.5332   60.8152   64.6694 C   0  0  0  0  0  0  0  0  0  0  0  0
  -34.6864   59.7052   63.6544 C   0  0  0  0  0  0  0  0  0  0  0  0
  -34.1949   58.3362   64.0806 N   0  0  0  0  0  0  0  0  0  0  0  0
  -33.1951   58.4427   65.1869 C   0  0  0  0  0  0  0  0  0  0  0  0
  -33.5500   57.6520   62.9181 C   0  0  0  0  0  0  0  0  0  0  0  0
  -35.3510   57.5147   64.5579 C   0  0  0  0  0  0  0  0  0  0  0  0
 34 33  1  0  0  0
 34 35  1  0  0  0
 34 36  1  0  0  0
 34 37  1  0  0  0
 22 23  1  0  0  0
 22 25  1  0  0  0
 22 21  1  0  0  0
 23 24  1  0  0  0
 27 26  1  0  0  0
 27 28  2  0  0  0
 27 31  1  0  0  0
 27 29  1  0  0  0
 25 26  1  0  0  0
 32 33  1  0  0  0
 32 31  1  0  0  0
 29 30  1  0  0  0
 20 21  1  0  0  0
 20  2  1  0  0  0
  1  2  2  0  0  0
  2  3  1  0  0  0
  3  4  1  0  0  0
  4  5  1  0  0  0
  5  6  1  0  0  0
  6  7  1  0  0  0
  7  8  1  0  0  0
  8  9  1  0  0  0
  9 10  1  0  0  0
 10 11  2  0  0  0
 11 12  1  0  0  0
 12 13  1  0  0  0
 13 14  1  0  0  0
 14 15  1  0  0  0
 15 16  1  0  0  0
 16 17  1  0  0  0
 17 18  1  0  0  0
 18 19  1  0  0  0
M  CHG 1  28  -1
M  END
> <minimizedAffinity>
-8.04629

> <CNNscore>
0.6288303137

> <CNNaffinity>
6.4072737694

> <CNN_VS>
4.0290880203

> <CNNaffinity_variance>
0.3999293745

$$$$
/media/chris/experiments/cd1a-new-docking/inputs/ligands/4x6c_ligand.pdb


 37 36  0  0  0  0  0  0  0  0999 V2000
  -42.2609   57.3528   66.1951 O   0  0  0  0  0  0  0  0  0  0  0  0
  -42.3793   58.3329   65.5255 C   0  0  0  0  0  0  0  0  0  0  0  0
  -43.6799   58.8475   65.0012 C   0  0  0  0  0  0  0  0  0  0  0  0
  -44.8385   58.5997   65.9486 C   0  0  0  0  0  0  0  0  0  0  0  0
  -45.9704   57.8276   65.3059 C   0  0  0  0  0  0  0  0  0  0  0  0
  -46.9678   58.6829   64.5607 C   0  0  0  0  0  0  0  0  0  0  0  0
  -47.2074   60.0309   65.1914 C   0  0  0  0  0  0  0  0  0  0  0  0
  -48.5228   60.0981   65.9200 C   0  0  0  0  0  0  0  0  0  0  0  0
  -49.5629   59.1188   65.4625 C   0  0  0  0  0  0  0  0  0  0  0  0
  -50.7516   59.7597   64.8816 C   0  0  0  0  0  0  0  0  0  0  0  0
  -50.8587   60.3609   63.7173 C   0  0  0  0  0  0  0  0  0  0  0  0
  -49.8133   60.5292   62.6764 C   0  0  0  0  0  0  0  0  0  0  0  0
  -49.9368   59.6169   61.4733 C   0  0  0  0  0  0  0  0  0  0  0  0
  -49.3408   58.2567   61.7116 C   0  0  0  0  0  0  0  0  0  0  0  0
  -50.0214   57.1330   60.9728 C   0  0  0  0  0  0  0  0  0  0  0  0
  -50.0809   57.3706   59.4799 C   0  0  0  0  0  0  0  0  0  0  0  0
  -48.7439   57.4433   58.7964 C   0  0  0  0  0  0  0  0  0  0  0  0
  -47.8151   56.3774   59.2211 C   0  0  0  0  0  0  0  0  0  0  0  0
  -47.6547   55.3177   58.2271 C   0  0  0  0  0  0  0  0  0  0  0  0
  -41.3573   59.1004   65.1468 O   0  0  0  0  0  0  0  0  0  0  0  0
  -40.8680   60.0756   66.0940 C   0  0  0  0  0  0  0  0  0  0  0  0
  -40.0126   61.0535   65.3218 C   0  0  0  0  0  0  0  0  0  0  0  0
  -40.2382   62.3747   65.8135 O   0  0  0  0  0  0  0  0  0  0  0  0
  -39.9537   62.4282   66.7392 H   0  0  0  0  0  0  0  0  0  0  0  0
  -38.5293   60.7771   65.3643 C   0  0  0  0  0  0  0  0  0  0  0  0
  -37.8311   61.9442   64.8856 O   0  0  0  0  0  0  0  0  0  0  0  0
  -36.8599   61.8206   63.6323 P   0  0  0  0  0  0  0  0  0  0  0  0
  -35.8994   60.7401   63.9340 O   0  0  0  0  0  0  0  0  0  0  0  0
  -37.7178   61.7073   62.4364 O   0  0  0  0  0  0  0  0  0  0  0  0
  -38.2317   60.8860   62.4837 H   0  0  0  0  0  0  0  0  0  0  0  0
  -36.0471   63.1767   63.4998 O   0  0  0  0  0  0  0  0  0  0  0  0
  -34.6792   63.2416   63.9670 C   0  0  0  0  0  0  0  0  0  0  0  0
  -34.6897   64.1848   65.1486 C   0  0  0  0  0  0  0  0  0  0  0  0
  -34.1529   63.6295   66.4528 N   0  0  0  0  0  0  0  0  0  0  0  0
  -34.0277   62.1410   66.3940 C   0  0  0  0  0  0  0  0  0  0  0  0
  -35.0816   63.9871   67.5686 C   0  0  0  0  0  0  0  0  0  0  0  0
  -32.8026   64.2127   66.7280 C   0  0  0  0  0  0  0  0  0  0  0  0
 34 33  1  0  0  0
 34 35  1  0  0  0
 34 36  1  0  0  0
 34 37  1  0  0  0
 22 23  1  0  0  0
 22 25  1  0  0  0
 22 21  1  0  0  0
 23 24  1  0  0  0
 27 26  1  0  0  0
 27 28  2  0  0  0
 27 31  1  0  0  0
 27 29  1  0  0  0
 25 26  1  0  0  0
 32 33  1  0  0  0
 32 31  1  0  0  0
 29 30  1  0  0  0
 20 21  1  0  0  0
 20  2  1  0  0  0
  1  2  2  0  0  0
  2  3  1  0  0  0
  3  4  1  0  0  0
  4  5  1  0  0  0
  5  6  1  0  0  0
  6  7  1  0  0  0
  7  8  1  0  0  0
  8  9  1  0  0  0
  9 10  1  0  0  0
 10 11  2  0  0  0
 11 12  1  0  0  0
 12 13  1  0  0  0
 13 14  1  0  0  0
 14 15  1  0  0  0
 15 16  1  0  0  0
 16 17  1  0  0  0
 17 18  1  0  0  0
 18 19  1  0  0  0
M  CHG 1  28  -1
M  END
> <minimizedAffinity>
-7.73424

> <CNNscore>
0.6233442426

> <CNNaffinity>
6.2883934975

> <CNN_VS>
3.9198338985

> <CNNaffinity_variance>
0.2127065957

$$$$
/media/chris/experiments/cd1a-new-docking/inputs/ligands/4x6c_ligand.pdb


 37 36  0  0  0  0  0  0  0  0999 V2000
  -40.7735   60.1549   65.9769 O   0  0  0  0  0  0  0  0  0  0  0  0
  -41.4760   60.4602   65.0624 C   0  0  0  0  0  0  0  0  0  0  0  0
  -42.7420   59.7570   64.6962 C   0  0  0  0  0  0  0  0  0  0  0  0
  -43.7966   59.8342   65.7840 C   0  0  0  0  0  0  0  0  0  0  0  0
  -45.2057   59.6954   65.2494 C   0  0  0  0  0  0  0  0  0  0  0  0
  -46.1431   58.9241   66.1483 C   0  0  0  0  0  0  0  0  0  0  0  0
  -47.6014   59.2193   65.9064 C   0  0  0  0  0  0  0  0  0  0  0  0
  -48.2534   58.1978   65.0137 C   0  0  0  0  0  0  0  0  0  0  0  0
  -49.7481   58.1176   65.1115 C   0  0  0  0  0  0  0  0  0  0  0  0
  -50.3888   59.4226   65.3296 C   0  0  0  0  0  0  0  0  0  0  0  0
  -50.9814   60.1911   64.4426 C   0  0  0  0  0  0  0  0  0  0  0  0
  -51.1779   59.9307   62.9941 C   0  0  0  0  0  0  0  0  0  0  0  0
  -49.9826   60.2223   62.1101 C   0  0  0  0  0  0  0  0  0  0  0  0
  -49.7755   59.1767   61.0490 C   0  0  0  0  0  0  0  0  0  0  0  0
  -50.2305   57.7919   61.4325 C   0  0  0  0  0  0  0  0  0  0  0  0
  -50.2625   56.8432   60.2545 C   0  0  0  0  0  0  0  0  0  0  0  0
  -48.9577   56.1584   59.9571 C   0  0  0  0  0  0  0  0  0  0  0  0
  -48.2146   56.7814   58.8440 C   0  0  0  0  0  0  0  0  0  0  0  0
  -46.9016   56.1811   58.6152 C   0  0  0  0  0  0  0  0  0  0  0  0
  -41.2179   61.4726   64.2346 O   0  0  0  0  0  0  0  0  0  0  0  0
  -40.8037   61.1461   62.8894 C   0  0  0  0  0  0  0  0  0  0  0  0
  -39.2969   61.0290   62.9054 C   0  0  0  0  0  0  0  0  0  0  0  0
  -38.7773   61.7270   64.0373 O   0  0  0  0  0  0  0  0  0  0  0  0
  -39.0968   61.3068   64.8510 H   0  0  0  0  0  0  0  0  0  0  0  0
  -38.7662   59.6163   62.9331 C   0  0  0  0  0  0  0  0  0  0  0  0
  -37.4983   59.5888   62.2470 O   0  0  0  0  0  0  0  0  0  0  0  0
  -37.1430   58.3613   61.3002 P   0  0  0  0  0  0  0  0  0  0  0  0
  -37.6547   57.1433   61.9603 O   0  0  0  0  0  0  0  0  0  0  0  0
  -37.6312   58.7073   59.9508 O   0  0  0  0  0  0  0  0  0  0  0  0
  -38.5978   58.7870   59.9671 H   0  0  0  0  0  0  0  0  0  0  0  0
  -35.5633   58.2448   61.2120 O   0  0  0  0  0  0  0  0  0  0  0  0
  -34.8418   57.4972   62.2190 C   0  0  0  0  0  0  0  0  0  0  0  0
  -34.2097   58.5281   63.1264 C   0  0  0  0  0  0  0  0  0  0  0  0
  -34.5870   58.4506   64.5924 N   0  0  0  0  0  0  0  0  0  0  0  0
  -35.2391   59.7161   65.0488 C   0  0  0  0  0  0  0  0  0  0  0  0
  -33.3587   58.2230   65.4137 C   0  0  0  0  0  0  0  0  0  0  0  0
  -35.5406   57.3172   64.8053 C   0  0  0  0  0  0  0  0  0  0  0  0
 34 33  1  0  0  0
 34 35  1  0  0  0
 34 36  1  0  0  0
 34 37  1  0  0  0
 22 23  1  0  0  0
 22 25  1  0  0  0
 22 21  1  0  0  0
 23 24  1  0  0  0
 27 26  1  0  0  0
 27 28  2  0  0  0
 27 31  1  0  0  0
 27 29  1  0  0  0
 25 26  1  0  0  0
 32 33  1  0  0  0
 32 31  1  0  0  0
 29 30  1  0  0  0
 20 21  1  0  0  0
 20  2  1  0  0  0
  1  2  2  0  0  0
  2  3  1  0  0  0
  3  4  1  0  0  0
  4  5  1  0  0  0
  5  6  1  0  0  0
  6  7  1  0  0  0
  7  8  1  0  0  0
  8  9  1  0  0  0
  9 10  1  0  0  0
 10 11  2  0  0  0
 11 12  1  0  0  0
 12 13  1  0  0  0
 13 14  1  0  0  0
 14 15  1  0  0  0
 15 16  1  0  0  0
 16 17  1  0  0  0
 17 18  1  0  0  0
 18 19  1  0  0  0
M  CHG 1  28  -1
M  END
> <minimizedAffinity>
-8.11917

> <CNNscore>
0.5795655847

> <CNNaffinity>
6.4886207581

> <CNN_VS>
3.7605812550

> <CNNaffinity_variance>
0.2073348016

$$$$
