/media/chris/experiments/cd1a-new-docking/inputs/ligands/4x6c_ligand.pdb


 37 36  0  0  0  0  0  0  0  0999 V2000
  -42.0638   58.1016   65.5701 O   0  0  0  0  0  0  0  0  0  0  0  0
  -42.6705   59.0804   65.2587 C   0  0  0  0  0  0  0  0  0  0  0  0
  -44.0765   59.0797   64.7542 C   0  0  0  0  0  0  0  0  0  0  0  0
  -44.7395   57.7190   64.8545 C   0  0  0  0  0  0  0  0  0  0  0  0
  -45.7208   57.6249   66.0028 C   0  0  0  0  0  0  0  0  0  0  0  0
  -47.0342   56.9664   65.6518 C   0  0  0  0  0  0  0  0  0  0  0  0
  -47.8854   57.7702   64.7023 C   0  0  0  0  0  0  0  0  0  0  0  0
  -49.2614   58.0371   65.2506 C   0  0  0  0  0  0  0  0  0  0  0  0
  -49.6395   59.4842   65.3652 C   0  0  0  0  0  0  0  0  0  0  0  0
  -50.8091   59.8472   64.5520 C   0  0  0  0  0  0  0  0  0  0  0  0
  -50.8268   60.3031   63.3190 C   0  0  0  0  0  0  0  0  0  0  0  0
  -49.6718   60.5484   62.4189 C   0  0  0  0  0  0  0  0  0  0  0  0
  -49.7529   59.8882   61.0577 C   0  0  0  0  0  0  0  0  0  0  0  0
  -49.5042   58.4059   61.1149 C   0  0  0  0  0  0  0  0  0  0  0  0
  -50.2437   57.6031   60.0755 C   0  0  0  0  0  0  0  0  0  0  0  0
  -49.3315   57.0773   58.9891 C   0  0  0  0  0  0  0  0  0  0  0  0
  -48.0910   56.3867   59.4830 C   0  0  0  0  0  0  0  0  0  0  0  0
  -47.2933   55.7793   58.3996 C   0  0  0  0  0  0  0  0  0  0  0  0
  -46.9106   56.7302   57.3576 C   0  0  0  0  0  0  0  0  0  0  0  0
  -42.1673   60.3135   65.3126 O   0  0  0  0  0  0  0  0  0  0  0  0
  -40.8723   60.4796   65.9319 C   0  0  0  0  0  0  0  0  0  0  0  0
  -39.9793   61.1569   64.9178 C   0  0  0  0  0  0  0  0  0  0  0  0
  -39.2621   62.2178   65.5488 O   0  0  0  0  0  0  0  0  0  0  0  0
  -38.6784   61.8521   66.2319 H   0  0  0  0  0  0  0  0  0  0  0  0
  -38.9844   60.2496   64.2359 C   0  0  0  0  0  0  0  0  0  0  0  0
  -39.5187   59.8639   62.9536 O   0  0  0  0  0  0  0  0  0  0  0  0
  -38.8102   60.3687   61.6223 P   0  0  0  0  0  0  0  0  0  0  0  0
  -39.8786   60.8174   60.7066 O   0  0  0  0  0  0  0  0  0  0  0  0
  -37.7644   61.3267   62.0315 O   0  0  0  0  0  0  0  0  0  0  0  0
  -38.1783   62.0991   62.4472 H   0  0  0  0  0  0  0  0  0  0  0  0
  -38.0769   59.1319   60.9518 O   0  0  0  0  0  0  0  0  0  0  0  0
  -37.5827   58.0547   61.7821 C   0  0  0  0  0  0  0  0  0  0  0  0
  -36.0787   58.2053   61.8039 C   0  0  0  0  0  0  0  0  0  0  0  0
  -35.4172   58.1212   63.1652 N   0  0  0  0  0  0  0  0  0  0  0  0
  -35.3766   59.4603   63.8284 C   0  0  0  0  0  0  0  0  0  0  0  0
  -34.0163   57.6219   63.0106 C   0  0  0  0  0  0  0  0  0  0  0  0
  -36.1842   57.1779   64.0378 C   0  0  0  0  0  0  0  0  0  0  0  0
 34 33  1  0  0  0
 34 35  1  0  0  0
 34 36  1  0  0  0
 34 37  1  0  0  0
 22 23  1  0  0  0
 22 25  1  0  0  0
 22 21  1  0  0  0
 23 24  1  0  0  0
 27 26  1  0  0  0
 27 28  2  0  0  0
 27 31  1  0  0  0
 27 29  1  0  0  0
 25 26  1  0  0  0
 32 33  1  0  0  0
 32 31  1  0  0  0
 29 30  1  0  0  0
 20 21  1  0  0  0
 20  2  1  0  0  0
  1  2  2  0  0  0
  2  3  1  0  0  0
  3  4  1  0  0  0
  4  5  1  0  0  0
  5  6  1  0  0  0
  6  7  1  0  0  0
  7  8  1  0  0  0
  8  9  1  0  0  0
  9 10  1  0  0  0
 10 11  2  0  0  0
 11 12  1  0  0  0
 12 13  1  0  0  0
 13 14  1  0  0  0
 14 15  1  0  0  0
 15 16  1  0  0  0
 16 17  1  0  0  0
 17 18  1  0  0  0
 18 19  1  0  0  0
M  CHG 1  28  -1
M  END
> <minimizedAffinity>
-8.31369

> <CNNscore>
0.9068715572

> <CNNaffinity>
7.0678544044

> <CNN_VS>
6.4096360207

> <CNNaffinity_variance>
0.4153872430

$$$$
/media/chris/experiments/cd1a-new-docking/inputs/ligands/4x6c_ligand.pdb


 37 36  0  0  0  0  0  0  0  0999 V2000
  -42.1732   57.8246   66.2752 O   0  0  0  0  0  0  0  0  0  0  0  0
  -42.7985   58.6362   65.6643 C   0  0  0  0  0  0  0  0  0  0  0  0
  -44.0671   58.3495   64.9296 C   0  0  0  0  0  0  0  0  0  0  0  0
  -44.6691   57.0052   65.2925 C   0  0  0  0  0  0  0  0  0  0  0  0
  -46.0957   57.1125   65.7863 C   0  0  0  0  0  0  0  0  0  0  0  0
  -46.4945   58.4925   66.2535 C   0  0  0  0  0  0  0  0  0  0  0  0
  -47.5670   59.1356   65.4118 C   0  0  0  0  0  0  0  0  0  0  0  0
  -48.4028   58.1233   64.6756 C   0  0  0  0  0  0  0  0  0  0  0  0
  -49.8494   58.0736   65.0696 C   0  0  0  0  0  0  0  0  0  0  0  0
  -50.4461   59.4027   65.2658 C   0  0  0  0  0  0  0  0  0  0  0  0
  -50.9669   60.1975   64.3572 C   0  0  0  0  0  0  0  0  0  0  0  0
  -51.1087   59.9502   62.9001 C   0  0  0  0  0  0  0  0  0  0  0  0
  -49.8864   60.2656   62.0622 C   0  0  0  0  0  0  0  0  0  0  0  0
  -49.7157   59.3206   60.9046 C   0  0  0  0  0  0  0  0  0  0  0  0
  -49.9509   57.8694   61.2368 C   0  0  0  0  0  0  0  0  0  0  0  0
  -50.0865   57.0048   60.0027 C   0  0  0  0  0  0  0  0  0  0  0  0
  -49.1018   55.8727   59.9112 C   0  0  0  0  0  0  0  0  0  0  0  0
  -47.8313   56.2579   59.2658 C   0  0  0  0  0  0  0  0  0  0  0  0
  -48.0139   56.9316   57.9816 C   0  0  0  0  0  0  0  0  0  0  0  0
  -42.4409   59.9151   65.5490 O   0  0  0  0  0  0  0  0  0  0  0  0
  -41.4030   60.4001   66.4295 C   0  0  0  0  0  0  0  0  0  0  0  0
  -40.4971   61.2836   65.6029 C   0  0  0  0  0  0  0  0  0  0  0  0
  -40.6775   62.6456   65.9908 O   0  0  0  0  0  0  0  0  0  0  0  0
  -40.4057   62.7573   66.9152 H   0  0  0  0  0  0  0  0  0  0  0  0
  -39.0270   60.9539   65.6936 C   0  0  0  0  0  0  0  0  0  0  0  0
  -38.2716   62.1648   65.4890 O   0  0  0  0  0  0  0  0  0  0  0  0
  -36.6972   62.0837   65.2793 P   0  0  0  0  0  0  0  0  0  0  0  0
  -36.4025   62.7006   63.9702 O   0  0  0  0  0  0  0  0  0  0  0  0
  -36.0746   62.6437   66.4949 O   0  0  0  0  0  0  0  0  0  0  0  0
  -36.3059   63.5824   66.5735 H   0  0  0  0  0  0  0  0  0  0  0  0
  -36.2858   60.5533   65.2041 O   0  0  0  0  0  0  0  0  0  0  0  0
  -35.9101   59.9731   63.9328 C   0  0  0  0  0  0  0  0  0  0  0  0
  -36.3872   58.5392   63.9750 C   0  0  0  0  0  0  0  0  0  0  0  0
  -37.5543   58.1953   63.0710 N   0  0  0  0  0  0  0  0  0  0  0  0
  -38.0445   59.4038   62.3404 C   0  0  0  0  0  0  0  0  0  0  0  0
  -38.6769   57.6447   63.8909 C   0  0  0  0  0  0  0  0  0  0  0  0
  -37.1264   57.1704   62.0679 C   0  0  0  0  0  0  0  0  0  0  0  0
 34 33  1  0  0  0
 34 35  1  0  0  0
 34 36  1  0  0  0
 34 37  1  0  0  0
 22 23  1  0  0  0
 22 25  1  0  0  0
 22 21  1  0  0  0
 23 24  1  0  0  0
 27 26  1  0  0  0
 27 28  2  0  0  0
 27 31  1  0  0  0
 27 29  1  0  0  0
 25 26  1  0  0  0
 32 33  1  0  0  0
 32 31  1  0  0  0
 29 30  1  0  0  0
 20 21  1  0  0  0
 20  2  1  0  0  0
  1  2  2  0  0  0
  2  3  1  0  0  0
  3  4  1  0  0  0
  4  5  1  0  0  0
  5  6  1  0  0  0
  6  7  1  0  0  0
  7  8  1  0  0  0
  8  9  1  0  0  0
  9 10  1  0  0  0
 10 11  2  0  0  0
 11 12  1  0  0  0
 12 13  1  0  0  0
 13 14  1  0  0  0
 14 15  1  0  0  0
 15 16  1  0  0  0
 16 17  1  0  0  0
 17 18  1  0  0  0
 18 19  1  0  0  0
M  CHG 1  28  -1
M  END
> <minimizedAffinity>
-8.23970

> <CNNscore>
0.8440155983

> <CNNaffinity>
7.0110106468

> <CNN_VS>
5.9174022675

> <CNNaffinity_variance>
0.3799386621

$$$$
/media/chris/experiments/cd1a-new-docking/inputs/ligands/4x6c_ligand.pdb


 37 36  0  0  0  0  0  0  0  0999 V2000
  -42.2698   58.1329   66.0531 O   0  0  0  0  0  0  0  0  0  0  0  0
  -42.8084   58.9299   65.3476 C   0  0  0  0  0  0  0  0  0  0  0  0
  -44.1432   58.7283   64.7080 C   0  0  0  0  0  0  0  0  0  0  0  0
  -44.7545   57.3777   65.0298 C   0  0  0  0  0  0  0  0  0  0  0  0
  -45.9970   57.4827   65.8875 C   0  0  0  0  0  0  0  0  0  0  0  0
  -46.4356   58.8975   66.1838 C   0  0  0  0  0  0  0  0  0  0  0  0
  -47.6023   59.3621   65.3500 C   0  0  0  0  0  0  0  0  0  0  0  0
  -48.4195   58.2160   64.8172 C   0  0  0  0  0  0  0  0  0  0  0  0
  -49.8690   58.2243   65.2032 C   0  0  0  0  0  0  0  0  0  0  0  0
  -50.4693   59.5661   65.1851 C   0  0  0  0  0  0  0  0  0  0  0  0
  -51.0058   60.1984   64.1648 C   0  0  0  0  0  0  0  0  0  0  0  0
  -51.1657   59.7130   62.7708 C   0  0  0  0  0  0  0  0  0  0  0  0
  -50.0182   60.0296   61.8335 C   0  0  0  0  0  0  0  0  0  0  0  0
  -49.8562   59.0034   60.7459 C   0  0  0  0  0  0  0  0  0  0  0  0
  -50.0335   57.5758   61.1959 C   0  0  0  0  0  0  0  0  0  0  0  0
  -49.2487   56.5975   60.3498 C   0  0  0  0  0  0  0  0  0  0  0  0
  -48.6054   57.1911   59.1278 C   0  0  0  0  0  0  0  0  0  0  0  0
  -47.4096   56.4492   58.6817 C   0  0  0  0  0  0  0  0  0  0  0  0
  -46.8896   56.9065   57.3946 C   0  0  0  0  0  0  0  0  0  0  0  0
  -42.2825   60.1121   65.0275 O   0  0  0  0  0  0  0  0  0  0  0  0
  -41.2163   60.6165   65.8623 C   0  0  0  0  0  0  0  0  0  0  0  0
  -40.4332   61.6068   65.0313 C   0  0  0  0  0  0  0  0  0  0  0  0
  -39.4010   62.1864   65.8293 O   0  0  0  0  0  0  0  0  0  0  0  0
  -38.7757   61.4962   66.1004 H   0  0  0  0  0  0  0  0  0  0  0  0
  -39.8057   61.0375   63.7822 C   0  0  0  0  0  0  0  0  0  0  0  0
  -38.4930   60.5414   64.1131 O   0  0  0  0  0  0  0  0  0  0  0  0
  -37.2203   61.1160   63.3520 P   0  0  0  0  0  0  0  0  0  0  0  0
  -36.1189   60.1550   63.5636 O   0  0  0  0  0  0  0  0  0  0  0  0
  -37.6499   61.4258   61.9742 O   0  0  0  0  0  0  0  0  0  0  0  0
  -37.9080   60.6063   61.5240 H   0  0  0  0  0  0  0  0  0  0  0  0
  -36.8120   62.4883   64.0356 O   0  0  0  0  0  0  0  0  0  0  0  0
  -35.8682   63.3651   63.3766 C   0  0  0  0  0  0  0  0  0  0  0  0
  -35.1737   64.1301   64.4802 C   0  0  0  0  0  0  0  0  0  0  0  0
  -33.7454   64.5557   64.2031 N   0  0  0  0  0  0  0  0  0  0  0  0
  -33.1104   65.1390   65.4243 C   0  0  0  0  0  0  0  0  0  0  0  0
  -33.7317   65.5856   63.1193 C   0  0  0  0  0  0  0  0  0  0  0  0
  -32.9443   63.3692   63.7673 C   0  0  0  0  0  0  0  0  0  0  0  0
 34 33  1  0  0  0
 34 35  1  0  0  0
 34 36  1  0  0  0
 34 37  1  0  0  0
 22 23  1  0  0  0
 22 25  1  0  0  0
 22 21  1  0  0  0
 23 24  1  0  0  0
 27 26  1  0  0  0
 27 28  2  0  0  0
 27 31  1  0  0  0
 27 29  1  0  0  0
 25 26  1  0  0  0
 32 33  1  0  0  0
 32 31  1  0  0  0
 29 30  1  0  0  0
 20 21  1  0  0  0
 20  2  1  0  0  0
  1  2  2  0  0  0
  2  3  1  0  0  0
  3  4  1  0  0  0
  4  5  1  0  0  0
  5  6  1  0  0  0
  6  7  1  0  0  0
  7  8  1  0  0  0
  8  9  1  0  0  0
  9 10  1  0  0  0
 10 11  2  0  0  0
 11 12  1  0  0  0
 12 13  1  0  0  0
 13 14  1  0  0  0
 14 15  1  0  0  0
 15 16  1  0  0  0
 16 17  1  0  0  0
 17 18  1  0  0  0
 18 19  1  0  0  0
M  CHG 1  28  -1
M  END
> <minimizedAffinity>
-8.14291

> <CNNscore>
0.8218049407

> <CNNaffinity>
6.5497713089

> <CNN_VS>
5.3826346397

> <CNNaffinity_variance>
0.3151966333

$$$$
/media/chris/experiments/cd1a-new-docking/inputs/ligands/4x6c_ligand.pdb


 37 36  0  0  0  0  0  0  0  0999 V2000
  -42.9986   57.2231   66.0809 O   0  0  0  0  0  0  0  0  0  0  0  0
  -43.1601   58.2886   65.5694 C   0  0  0  0  0  0  0  0  0  0  0  0
  -44.2907   58.6246   64.6528 C   0  0  0  0  0  0  0  0  0  0  0  0
  -45.5073   59.1573   65.3860 C   0  0  0  0  0  0  0  0  0  0  0  0
  -46.1488   58.1267   66.2897 C   0  0  0  0  0  0  0  0  0  0  0  0
  -47.1394   57.2187   65.5997 C   0  0  0  0  0  0  0  0  0  0  0  0
  -47.9911   57.9155   64.5695 C   0  0  0  0  0  0  0  0  0  0  0  0
  -49.3571   58.2656   65.0957 C   0  0  0  0  0  0  0  0  0  0  0  0
  -49.6751   59.7310   65.1374 C   0  0  0  0  0  0  0  0  0  0  0  0
  -50.9251   60.0760   64.4449 C   0  0  0  0  0  0  0  0  0  0  0  0
  -51.1762   60.0240   63.1554 C   0  0  0  0  0  0  0  0  0  0  0  0
  -50.2704   59.5817   62.0653 C   0  0  0  0  0  0  0  0  0  0  0  0
  -50.5142   58.1811   61.5416 C   0  0  0  0  0  0  0  0  0  0  0  0
  -49.3175   57.6094   60.8321 C   0  0  0  0  0  0  0  0  0  0  0  0
  -49.6438   56.7709   59.6228 C   0  0  0  0  0  0  0  0  0  0  0  0
  -48.4090   56.2020   58.9591 C   0  0  0  0  0  0  0  0  0  0  0  0
  -47.6116   57.1890   58.1532 C   0  0  0  0  0  0  0  0  0  0  0  0
  -47.3229   56.7222   56.7828 C   0  0  0  0  0  0  0  0  0  0  0  0
  -47.3174   55.2662   56.6549 C   0  0  0  0  0  0  0  0  0  0  0  0
  -42.3420   59.3265   65.7432 O   0  0  0  0  0  0  0  0  0  0  0  0
  -42.2636   60.3003   64.6785 C   0  0  0  0  0  0  0  0  0  0  0  0
  -40.8509   60.8376   64.6721 C   0  0  0  0  0  0  0  0  0  0  0  0
  -40.8581   62.2004   65.0974 O   0  0  0  0  0  0  0  0  0  0  0  0
  -41.1701   62.2513   66.0145 H   0  0  0  0  0  0  0  0  0  0  0  0
  -39.8737   60.0756   65.5339 C   0  0  0  0  0  0  0  0  0  0  0  0
  -38.6479   59.9025   64.7947 O   0  0  0  0  0  0  0  0  0  0  0  0
  -37.3634   60.7518   65.1921 P   0  0  0  0  0  0  0  0  0  0  0  0
  -37.5486   61.1882   66.5909 O   0  0  0  0  0  0  0  0  0  0  0  0
  -36.1853   59.9333   64.8439 O   0  0  0  0  0  0  0  0  0  0  0  0
  -36.1778   59.1299   65.3874 H   0  0  0  0  0  0  0  0  0  0  0  0
  -37.3225   62.0462   64.2757 O   0  0  0  0  0  0  0  0  0  0  0  0
  -36.0738   62.4581   63.6714 C   0  0  0  0  0  0  0  0  0  0  0  0
  -35.4238   63.3964   64.6625 C   0  0  0  0  0  0  0  0  0  0  0  0
  -34.3405   64.3038   64.1140 N   0  0  0  0  0  0  0  0  0  0  0  0
  -34.8781   65.1993   63.0445 C   0  0  0  0  0  0  0  0  0  0  0  0
  -33.2397   63.4747   63.5342 C   0  0  0  0  0  0  0  0  0  0  0  0
  -33.7911   65.1524   65.2174 C   0  0  0  0  0  0  0  0  0  0  0  0
 34 33  1  0  0  0
 34 35  1  0  0  0
 34 36  1  0  0  0
 34 37  1  0  0  0
 22 23  1  0  0  0
 22 25  1  0  0  0
 22 21  1  0  0  0
 23 24  1  0  0  0
 27 26  1  0  0  0
 27 28  2  0  0  0
 27 31  1  0  0  0
 27 29  1  0  0  0
 25 26  1  0  0  0
 32 33  1  0  0  0
 32 31  1  0  0  0
 29 30  1  0  0  0
 20 21  1  0  0  0
 20  2  1  0  0  0
  1  2  2  0  0  0
  2  3  1  0  0  0
  3  4  1  0  0  0
  4  5  1  0  0  0
  5  6  1  0  0  0
  6  7  1  0  0  0
  7  8  1  0  0  0
  8  9  1  0  0  0
  9 10  1  0  0  0
 10 11  2  0  0  0
 11 12  1  0  0  0
 12 13  1  0  0  0
 13 14  1  0  0  0
 14 15  1  0  0  0
 15 16  1  0  0  0
 16 17  1  0  0  0
 17 18  1  0  0  0
 18 19  1  0  0  0
M  CHG 1  28  -1
M  END
> <minimizedAffinity>
-7.84695

> <CNNscore>
0.8186535835

> <CNNaffinity>
6.6751770973

> <CNN_VS>
5.4646577835

> <CNNaffinity_variance>
0.5256174207

$$$$
/media/chris/experiments/cd1a-new-docking/inputs/ligands/4x6c_ligand.pdb


 37 36  0  0  0  0  0  0  0  0999 V2000
  -41.9598   58.2458   65.7721 O   0  0  0  0  0  0  0  0  0  0  0  0
  -42.1023   59.3152   65.2631 C   0  0  0  0  0  0  0  0  0  0  0  0
  -43.4016   59.8395   64.7453 C   0  0  0  0  0  0  0  0  0  0  0  0
  -44.6022   59.2721   65.4789 C   0  0  0  0  0  0  0  0  0  0  0  0
  -45.1462   58.0152   64.8349 C   0  0  0  0  0  0  0  0  0  0  0  0
  -46.5482   57.6493   65.2619 C   0  0  0  0  0  0  0  0  0  0  0  0
  -47.6277   58.3101   64.4432 C   0  0  0  0  0  0  0  0  0  0  0  0
  -48.6393   59.0254   65.2977 C   0  0  0  0  0  0  0  0  0  0  0  0
  -50.0750   58.7195   64.9883 C   0  0  0  0  0  0  0  0  0  0  0  0
  -50.7840   59.8367   64.3479 C   0  0  0  0  0  0  0  0  0  0  0  0
  -50.7529   60.1959   63.0836 C   0  0  0  0  0  0  0  0  0  0  0  0
  -50.0115   59.5532   61.9692 C   0  0  0  0  0  0  0  0  0  0  0  0
  -50.4846   58.1663   61.5842 C   0  0  0  0  0  0  0  0  0  0  0  0
  -49.3720   57.2948   61.0696 C   0  0  0  0  0  0  0  0  0  0  0  0
  -49.4417   56.9902   59.5951 C   0  0  0  0  0  0  0  0  0  0  0  0
  -48.4826   55.8958   59.1813 C   0  0  0  0  0  0  0  0  0  0  0  0
  -47.1185   56.3724   58.7669 C   0  0  0  0  0  0  0  0  0  0  0  0
  -47.1266   57.1254   57.4972 C   0  0  0  0  0  0  0  0  0  0  0  0
  -47.5755   56.3319   56.3549 C   0  0  0  0  0  0  0  0  0  0  0  0
  -41.1113   60.1877   65.0806 O   0  0  0  0  0  0  0  0  0  0  0  0
  -39.7870   59.7916   65.5016 C   0  0  0  0  0  0  0  0  0  0  0  0
  -38.8824   60.9859   65.3021 C   0  0  0  0  0  0  0  0  0  0  0  0
  -39.5094   62.1521   65.8360 O   0  0  0  0  0  0  0  0  0  0  0  0
  -39.6241   62.0479   66.7936 H   0  0  0  0  0  0  0  0  0  0  0  0
  -37.5108   60.8585   65.9191 C   0  0  0  0  0  0  0  0  0  0  0  0
  -37.0249   62.1788   66.2343 O   0  0  0  0  0  0  0  0  0  0  0  0
  -35.5012   62.5424   65.9598 P   0  0  0  0  0  0  0  0  0  0  0  0
  -35.4237   64.0113   65.8274 O   0  0  0  0  0  0  0  0  0  0  0  0
  -34.7063   61.8717   67.0072 O   0  0  0  0  0  0  0  0  0  0  0  0
  -34.9377   62.2399   67.8743 H   0  0  0  0  0  0  0  0  0  0  0  0
  -35.0817   61.9018   64.5703 O   0  0  0  0  0  0  0  0  0  0  0  0
  -34.0906   60.8480   64.5364 C   0  0  0  0  0  0  0  0  0  0  0  0
  -34.7011   59.7314   63.7204 C   0  0  0  0  0  0  0  0  0  0  0  0
  -34.3679   58.3202   64.1621 N   0  0  0  0  0  0  0  0  0  0  0  0
  -35.5554   57.6539   64.7790 C   0  0  0  0  0  0  0  0  0  0  0  0
  -33.2645   58.3590   65.1703 C   0  0  0  0  0  0  0  0  0  0  0  0
  -33.9282   57.5154   62.9795 C   0  0  0  0  0  0  0  0  0  0  0  0
 34 33  1  0  0  0
 34 35  1  0  0  0
 34 36  1  0  0  0
 34 37  1  0  0  0
 22 23  1  0  0  0
 22 25  1  0  0  0
 22 21  1  0  0  0
 23 24  1  0  0  0
 27 26  1  0  0  0
 27 28  2  0  0  0
 27 31  1  0  0  0
 27 29  1  0  0  0
 25 26  1  0  0  0
 32 33  1  0  0  0
 32 31  1  0  0  0
 29 30  1  0  0  0
 20 21  1  0  0  0
 20  2  1  0  0  0
  1  2  2  0  0  0
  2  3  1  0  0  0
  3  4  1  0  0  0
  4  5  1  0  0  0
  5  6  1  0  0  0
  6  7  1  0  0  0
  7  8  1  0  0  0
  8  9  1  0  0  0
  9 10  1  0  0  0
 10 11  2  0  0  0
 11 12  1  0  0  0
 12 13  1  0  0  0
 13 14  1  0  0  0
 14 15  1  0  0  0
 15 16  1  0  0  0
 16 17  1  0  0  0
 17 18  1  0  0  0
 18 19  1  0  0  0
M  CHG 1  28  -1
M  END
> <minimizedAffinity>
-8.16991

> <CNNscore>
0.8144580722

> <CNNaffinity>
6.6580533981

> <CNN_VS>
5.4227051735

> <CNNaffinity_variance>
0.3388665318

$$$$
/media/chris/experiments/cd1a-new-docking/inputs/ligands/4x6c_ligand.pdb


 37 36  0  0  0  0  0  0  0  0999 V2000
  -40.7629   61.1950   65.9250 O   0  0  0  0  0  0  0  0  0  0  0  0
  -41.1867   60.2443   65.3422 C   0  0  0  0  0  0  0  0  0  0  0  0
  -42.0967   59.2217   65.9399 C   0  0  0  0  0  0  0  0  0  0  0  0
  -43.4569   59.7841   66.3076 C   0  0  0  0  0  0  0  0  0  0  0  0
  -44.4537   59.7053   65.1715 C   0  0  0  0  0  0  0  0  0  0  0  0
  -45.3794   58.5131   65.2323 C   0  0  0  0  0  0  0  0  0  0  0  0
  -46.8390   58.8663   65.1016 C   0  0  0  0  0  0  0  0  0  0  0  0
  -47.7364   57.6699   65.2703 C   0  0  0  0  0  0  0  0  0  0  0  0
  -49.1841   57.9008   64.9524 C   0  0  0  0  0  0  0  0  0  0  0  0
  -49.6186   59.2854   65.1869 C   0  0  0  0  0  0  0  0  0  0  0  0
  -50.4469   60.0065   64.4641 C   0  0  0  0  0  0  0  0  0  0  0  0
  -51.1766   59.6029   63.2357 C   0  0  0  0  0  0  0  0  0  0  0  0
  -50.3237   59.4356   61.9947 C   0  0  0  0  0  0  0  0  0  0  0  0
  -50.2754   58.0125   61.5102 C   0  0  0  0  0  0  0  0  0  0  0  0
  -50.2413   57.8587   60.0112 C   0  0  0  0  0  0  0  0  0  0  0  0
  -49.2560   56.8045   59.5569 C   0  0  0  0  0  0  0  0  0  0  0  0
  -48.8880   56.8670   58.1008 C   0  0  0  0  0  0  0  0  0  0  0  0
  -47.4308   56.9215   57.8712 C   0  0  0  0  0  0  0  0  0  0  0  0
  -46.6590   56.1730   58.8612 C   0  0  0  0  0  0  0  0  0  0  0  0
  -40.8953   59.9621   64.0725 O   0  0  0  0  0  0  0  0  0  0  0  0
  -40.3832   61.0348   63.2508 C   0  0  0  0  0  0  0  0  0  0  0  0
  -39.2928   60.4478   62.3842 C   0  0  0  0  0  0  0  0  0  0  0  0
  -39.4513   60.9091   61.0425 O   0  0  0  0  0  0  0  0  0  0  0  0
  -39.3382   61.8722   61.0162 H   0  0  0  0  0  0  0  0  0  0  0  0
  -37.8850   60.7586   62.8309 C   0  0  0  0  0  0  0  0  0  0  0  0
  -37.9416   61.7721   63.8548 O   0  0  0  0  0  0  0  0  0  0  0  0
  -37.0217   61.6385   65.1453 P   0  0  0  0  0  0  0  0  0  0  0  0
  -36.3083   62.9220   65.3032 O   0  0  0  0  0  0  0  0  0  0  0  0
  -37.8878   61.1575   66.2396 O   0  0  0  0  0  0  0  0  0  0  0  0
  -38.5624   61.8263   66.4358 H   0  0  0  0  0  0  0  0  0  0  0  0
  -35.9430   60.5082   64.8698 O   0  0  0  0  0  0  0  0  0  0  0  0
  -34.5882   60.6776   65.3491 C   0  0  0  0  0  0  0  0  0  0  0  0
  -33.6941   60.4549   64.1506 C   0  0  0  0  0  0  0  0  0  0  0  0
  -33.1877   59.0408   63.9469 N   0  0  0  0  0  0  0  0  0  0  0  0
  -31.7888   59.0399   63.4199 C   0  0  0  0  0  0  0  0  0  0  0  0
  -34.0672   58.3305   62.9685 C   0  0  0  0  0  0  0  0  0  0  0  0
  -33.2080   58.3082   65.2517 C   0  0  0  0  0  0  0  0  0  0  0  0
 34 33  1  0  0  0
 34 35  1  0  0  0
 34 36  1  0  0  0
 34 37  1  0  0  0
 22 23  1  0  0  0
 22 25  1  0  0  0
 22 21  1  0  0  0
 23 24  1  0  0  0
 27 26  1  0  0  0
 27 28  2  0  0  0
 27 31  1  0  0  0
 27 29  1  0  0  0
 25 26  1  0  0  0
 32 33  1  0  0  0
 32 31  1  0  0  0
 29 30  1  0  0  0
 20 21  1  0  0  0
 20  2  1  0  0  0
  1  2  2  0  0  0
  2  3  1  0  0  0
  3  4  1  0  0  0
  4  5  1  0  0  0
  5  6  1  0  0  0
  6  7  1  0  0  0
  7  8  1  0  0  0
  8  9  1  0  0  0
  9 10  1  0  0  0
 10 11  2  0  0  0
 11 12  1  0  0  0
 12 13  1  0  0  0
 13 14  1  0  0  0
 14 15  1  0  0  0
 15 16  1  0  0  0
 16 17  1  0  0  0
 17 18  1  0  0  0
 18 19  1  0  0  0
M  CHG 1  28  -1
M  END
> <minimizedAffinity>
-7.82777

> <CNNscore>
0.8132138252

> <CNNaffinity>
6.6174583435

> <CNN_VS>
5.3814086914

> <CNNaffinity_variance>
0.6905797124

$$$$
/media/chris/experiments/cd1a-new-docking/inputs/ligands/4x6c_ligand.pdb


 37 36  0  0  0  0  0  0  0  0999 V2000
  -40.7749   58.7073   65.2905 O   0  0  0  0  0  0  0  0  0  0  0  0
  -41.1971   59.6090   64.6335 C   0  0  0  0  0  0  0  0  0  0  0  0
  -42.6365   59.7982   64.2819 C   0  0  0  0  0  0  0  0  0  0  0  0
  -43.5792   59.2078   65.3134 C   0  0  0  0  0  0  0  0  0  0  0  0
  -44.0763   57.8290   64.9364 C   0  0  0  0  0  0  0  0  0  0  0  0
  -45.5521   57.7599   64.6213 C   0  0  0  0  0  0  0  0  0  0  0  0
  -46.3253   58.9812   65.0488 C   0  0  0  0  0  0  0  0  0  0  0  0
  -47.5276   58.6355   65.8856 C   0  0  0  0  0  0  0  0  0  0  0  0
  -48.6029   57.8635   65.1800 C   0  0  0  0  0  0  0  0  0  0  0  0
  -49.6653   58.7161   64.6272 C   0  0  0  0  0  0  0  0  0  0  0  0
  -50.1394   58.7247   63.4009 C   0  0  0  0  0  0  0  0  0  0  0  0
  -49.7413   57.8602   62.2614 C   0  0  0  0  0  0  0  0  0  0  0  0
  -50.1912   58.3334   60.8943 C   0  0  0  0  0  0  0  0  0  0  0  0
  -49.3585   57.7636   59.7789 C   0  0  0  0  0  0  0  0  0  0  0  0
  -48.8143   56.3828   60.0417 C   0  0  0  0  0  0  0  0  0  0  0  0
  -47.8109   55.9446   58.9977 C   0  0  0  0  0  0  0  0  0  0  0  0
  -47.3161   57.0405   58.0956 C   0  0  0  0  0  0  0  0  0  0  0  0
  -46.9132   56.5569   56.7603 C   0  0  0  0  0  0  0  0  0  0  0  0
  -47.5387   55.2891   56.3893 C   0  0  0  0  0  0  0  0  0  0  0  0
  -40.4331   60.5705   64.1152 O   0  0  0  0  0  0  0  0  0  0  0  0
  -39.0008   60.4235   64.2370 C   0  0  0  0  0  0  0  0  0  0  0  0
  -38.4489   61.7727   64.6362 C   0  0  0  0  0  0  0  0  0  0  0  0
  -39.0913   62.2149   65.8319 O   0  0  0  0  0  0  0  0  0  0  0  0
  -38.8821   61.6044   66.5561 H   0  0  0  0  0  0  0  0  0  0  0  0
  -36.9560   61.8128   64.8555 C   0  0  0  0  0  0  0  0  0  0  0  0
  -36.3193   62.1746   63.6135 O   0  0  0  0  0  0  0  0  0  0  0  0
  -35.1378   63.2392   63.6164 P   0  0  0  0  0  0  0  0  0  0  0  0
  -33.8865   62.4964   63.8690 O   0  0  0  0  0  0  0  0  0  0  0  0
  -35.2688   64.0266   62.3748 O   0  0  0  0  0  0  0  0  0  0  0  0
  -35.1318   63.4475   61.6087 H   0  0  0  0  0  0  0  0  0  0  0  0
  -35.3709   64.2345   64.8297 O   0  0  0  0  0  0  0  0  0  0  0  0
  -34.2605   64.5965   65.6840 C   0  0  0  0  0  0  0  0  0  0  0  0
  -33.3957   65.5286   64.8663 C   0  0  0  0  0  0  0  0  0  0  0  0
  -31.9049   65.2555   64.8941 N   0  0  0  0  0  0  0  0  0  0  0  0
  -31.5326   64.4169   66.0743 C   0  0  0  0  0  0  0  0  0  0  0  0
  -31.1607   66.5498   64.9739 C   0  0  0  0  0  0  0  0  0  0  0  0
  -31.5045   64.5316   63.6471 C   0  0  0  0  0  0  0  0  0  0  0  0
 34 33  1  0  0  0
 34 35  1  0  0  0
 34 36  1  0  0  0
 34 37  1  0  0  0
 22 23  1  0  0  0
 22 25  1  0  0  0
 22 21  1  0  0  0
 23 24  1  0  0  0
 27 26  1  0  0  0
 27 28  2  0  0  0
 27 31  1  0  0  0
 27 29  1  0  0  0
 25 26  1  0  0  0
 32 33  1  0  0  0
 32 31  1  0  0  0
 29 30  1  0  0  0
 20 21  1  0  0  0
 20  2  1  0  0  0
  1  2  2  0  0  0
  2  3  1  0  0  0
  3  4  1  0  0  0
  4  5  1  0  0  0
  5  6  1  0  0  0
  6  7  1  0  0  0
  7  8  1  0  0  0
  8  9  1  0  0  0
  9 10  1  0  0  0
 10 11  2  0  0  0
 11 12  1  0  0  0
 12 13  1  0  0  0
 13 14  1  0  0  0
 14 15  1  0  0  0
 15 16  1  0  0  0
 16 17  1  0  0  0
 17 18  1  0  0  0
 18 19  1  0  0  0
M  CHG 1  28  -1
M  END
> <minimizedAffinity>
-7.60001

> <CNNscore>
0.7370793819

> <CNNaffinity>
6.2467565536

> <CNN_VS>
4.6043553352

> <CNNaffinity_variance>
0.9099319577

$$$$
/media/chris/experiments/cd1a-new-docking/inputs/ligands/4x6c_ligand.pdb


 37 36  0  0  0  0  0  0  0  0999 V2000
  -41.6391   58.0634   65.8522 O   0  0  0  0  0  0  0  0  0  0  0  0
  -41.8572   59.2360   65.8746 C   0  0  0  0  0  0  0  0  0  0  0  0
  -43.2219   59.8432   65.8647 C   0  0  0  0  0  0  0  0  0  0  0  0
  -44.1582   59.1761   64.8749 C   0  0  0  0  0  0  0  0  0  0  0  0
  -45.2787   58.4121   65.5467 C   0  0  0  0  0  0  0  0  0  0  0  0
  -46.3438   59.2826   66.1708 C   0  0  0  0  0  0  0  0  0  0  0  0
  -47.5489   59.4979   65.2913 C   0  0  0  0  0  0  0  0  0  0  0  0
  -48.2618   58.2120   64.9697 C   0  0  0  0  0  0  0  0  0  0  0  0
  -49.7430   58.2203   65.2067 C   0  0  0  0  0  0  0  0  0  0  0  0
  -50.3302   59.5677   65.1794 C   0  0  0  0  0  0  0  0  0  0  0  0
  -50.9243   60.1707   64.1734 C   0  0  0  0  0  0  0  0  0  0  0  0
  -51.1771   59.6396   62.8102 C   0  0  0  0  0  0  0  0  0  0  0  0
  -49.9824   59.6368   61.8785 C   0  0  0  0  0  0  0  0  0  0  0  0
  -49.5416   58.2487   61.5026 C   0  0  0  0  0  0  0  0  0  0  0  0
  -50.5148   57.4926   60.6350 C   0  0  0  0  0  0  0  0  0  0  0  0
  -50.0703   57.4181   59.1908 C   0  0  0  0  0  0  0  0  0  0  0  0
  -48.6134   57.1061   58.9919 C   0  0  0  0  0  0  0  0  0  0  0  0
  -48.2607   56.8510   57.5813 C   0  0  0  0  0  0  0  0  0  0  0  0
  -46.8230   56.7096   57.3591 C   0  0  0  0  0  0  0  0  0  0  0  0
  -40.9041   60.1673   65.9037 O   0  0  0  0  0  0  0  0  0  0  0  0
  -39.7393   59.9565   65.0750 C   0  0  0  0  0  0  0  0  0  0  0  0
  -38.9903   61.2682   65.0208 C   0  0  0  0  0  0  0  0  0  0  0  0
  -39.5762   62.1891   65.9410 O   0  0  0  0  0  0  0  0  0  0  0  0
  -39.4773   61.8504   66.8446 H   0  0  0  0  0  0  0  0  0  0  0  0
  -37.5135   61.1733   65.3179 C   0  0  0  0  0  0  0  0  0  0  0  0
  -37.0379   62.4791   65.7021 O   0  0  0  0  0  0  0  0  0  0  0  0
  -35.6123   62.6252   66.3918 P   0  0  0  0  0  0  0  0  0  0  0  0
  -35.8149   62.4550   67.8448 O   0  0  0  0  0  0  0  0  0  0  0  0
  -34.6977   61.7102   65.6810 O   0  0  0  0  0  0  0  0  0  0  0  0
  -34.9886   60.7945   65.8140 H   0  0  0  0  0  0  0  0  0  0  0  0
  -35.0888   64.1014   66.1391 O   0  0  0  0  0  0  0  0  0  0  0  0
  -33.6882   64.3267   65.8538 C   0  0  0  0  0  0  0  0  0  0  0  0
  -33.6508   65.3781   64.7682 C   0  0  0  0  0  0  0  0  0  0  0  0
  -33.4686   64.8709   63.3513 N   0  0  0  0  0  0  0  0  0  0  0  0
  -32.8091   63.5294   63.3397 C   0  0  0  0  0  0  0  0  0  0  0  0
  -32.6161   65.8291   62.5828 C   0  0  0  0  0  0  0  0  0  0  0  0
  -34.8036   64.7537   62.6853 C   0  0  0  0  0  0  0  0  0  0  0  0
 34 33  1  0  0  0
 34 35  1  0  0  0
 34 36  1  0  0  0
 34 37  1  0  0  0
 22 23  1  0  0  0
 22 25  1  0  0  0
 22 21  1  0  0  0
 23 24  1  0  0  0
 27 26  1  0  0  0
 27 28  2  0  0  0
 27 31  1  0  0  0
 27 29  1  0  0  0
 25 26  1  0  0  0
 32 33  1  0  0  0
 32 31  1  0  0  0
 29 30  1  0  0  0
 20 21  1  0  0  0
 20  2  1  0  0  0
  1  2  2  0  0  0
  2  3  1  0  0  0
  3  4  1  0  0  0
  4  5  1  0  0  0
  5  6  1  0  0  0
  6  7  1  0  0  0
  7  8  1  0  0  0
  8  9  1  0  0  0
  9 10  1  0  0  0
 10 11  2  0  0  0
 11 12  1  0  0  0
 12 13  1  0  0  0
 13 14  1  0  0  0
 14 15  1  0  0  0
 15 16  1  0  0  0
 16 17  1  0  0  0
 17 18  1  0  0  0
 18 19  1  0  0  0
M  CHG 1  28  -1
M  END
> <minimizedAffinity>
-8.33836

> <CNNscore>
0.7330429554

> <CNNaffinity>
6.2557396889

> <CNN_VS>
4.5857257843

> <CNNaffinity_variance>
0.3463234603

$$$$
/media/chris/experiments/cd1a-new-docking/inputs/ligands/4x6c_ligand.pdb


 37 36  0  0  0  0  0  0  0  0999 V2000
  -42.4677   60.4617   66.7127 O   0  0  0  0  0  0  0  0  0  0  0  0
  -42.4529   60.1272   65.5678 C   0  0  0  0  0  0  0  0  0  0  0  0
  -43.6523   59.6690   64.8045 C   0  0  0  0  0  0  0  0  0  0  0  0
  -44.7482   59.1213   65.6991 C   0  0  0  0  0  0  0  0  0  0  0  0
  -44.9475   57.6295   65.5409 C   0  0  0  0  0  0  0  0  0  0  0  0
  -46.3825   57.1733   65.6606 C   0  0  0  0  0  0  0  0  0  0  0  0
  -47.3895   58.2890   65.5439 C   0  0  0  0  0  0  0  0  0  0  0  0
  -48.4882   57.9705   64.5658 C   0  0  0  0  0  0  0  0  0  0  0  0
  -49.8812   58.0346   65.1188 C   0  0  0  0  0  0  0  0  0  0  0  0
  -50.3877   59.4069   65.2647 C   0  0  0  0  0  0  0  0  0  0  0  0
  -50.9234   60.1738   64.3409 C   0  0  0  0  0  0  0  0  0  0  0  0
  -51.1771   59.8455   62.9153 C   0  0  0  0  0  0  0  0  0  0  0  0
  -50.1317   60.3384   61.9356 C   0  0  0  0  0  0  0  0  0  0  0  0
  -49.6209   59.2486   61.0336 C   0  0  0  0  0  0  0  0  0  0  0  0
  -50.4132   57.9674   61.0831 C   0  0  0  0  0  0  0  0  0  0  0  0
  -50.1545   57.0769   59.8878 C   0  0  0  0  0  0  0  0  0  0  0  0
  -49.2014   55.9417   60.1383 C   0  0  0  0  0  0  0  0  0  0  0  0
  -48.0460   55.9391   59.2194 C   0  0  0  0  0  0  0  0  0  0  0  0
  -48.2581   56.7446   58.0184 C   0  0  0  0  0  0  0  0  0  0  0  0
  -41.3536   60.1104   64.8142 O   0  0  0  0  0  0  0  0  0  0  0  0
  -40.1008   59.8079   65.4676 C   0  0  0  0  0  0  0  0  0  0  0  0
  -39.2309   61.0384   65.3502 C   0  0  0  0  0  0  0  0  0  0  0  0
  -39.9062   62.1555   65.9281 O   0  0  0  0  0  0  0  0  0  0  0  0
  -40.0381   61.9986   66.8763 H   0  0  0  0  0  0  0  0  0  0  0  0
  -37.8694   60.9218   65.9914 C   0  0  0  0  0  0  0  0  0  0  0  0
  -37.1985   62.1929   65.8782 O   0  0  0  0  0  0  0  0  0  0  0  0
  -35.7286   62.3610   66.4616 P   0  0  0  0  0  0  0  0  0  0  0  0
  -35.1593   63.5818   65.8559 O   0  0  0  0  0  0  0  0  0  0  0  0
  -35.8389   62.2712   67.9309 O   0  0  0  0  0  0  0  0  0  0  0  0
  -36.3660   63.0154   68.2615 H   0  0  0  0  0  0  0  0  0  0  0  0
  -34.8601   61.1236   65.9801 O   0  0  0  0  0  0  0  0  0  0  0  0
  -34.2814   61.1262   64.6538 C   0  0  0  0  0  0  0  0  0  0  0  0
  -34.9830   60.0237   63.8939 C   0  0  0  0  0  0  0  0  0  0  0  0
  -34.3404   58.6523   63.9586 N   0  0  0  0  0  0  0  0  0  0  0  0
  -32.9632   58.7292   64.5349 C   0  0  0  0  0  0  0  0  0  0  0  0
  -34.2508   58.0763   62.5818 C   0  0  0  0  0  0  0  0  0  0  0  0
  -35.1693   57.7504   64.8184 C   0  0  0  0  0  0  0  0  0  0  0  0
 34 33  1  0  0  0
 34 35  1  0  0  0
 34 36  1  0  0  0
 34 37  1  0  0  0
 22 23  1  0  0  0
 22 25  1  0  0  0
 22 21  1  0  0  0
 23 24  1  0  0  0
 27 26  1  0  0  0
 27 28  2  0  0  0
 27 31  1  0  0  0
 27 29  1  0  0  0
 25 26  1  0  0  0
 32 33  1  0  0  0
 32 31  1  0  0  0
 29 30  1  0  0  0
 20 21  1  0  0  0
 20  2  1  0  0  0
  1  2  2  0  0  0
  2  3  1  0  0  0
  3  4  1  0  0  0
  4  5  1  0  0  0
  5  6  1  0  0  0
  6  7  1  0  0  0
  7  8  1  0  0  0
  8  9  1  0  0  0
  9 10  1  0  0  0
 10 11  2  0  0  0
 11 12  1  0  0  0
 12 13  1  0  0  0
 13 14  1  0  0  0
 14 15  1  0  0  0
 15 16  1  0  0  0
 16 17  1  0  0  0
 17 18  1  0  0  0
 18 19  1  0  0  0
M  CHG 1  28  -1
M  END
> <minimizedAffinity>
-8.29089

> <CNNscore>
0.7135542035

> <CNNaffinity>
6.4974021912

> <CNN_VS>
4.6362485886

> <CNNaffinity_variance>
0.2150563747

$$$$
