/media/chris/experiments/cd1a-new-docking/inputs/ligands/4x6c_ligand.pdb


 37 36  0  0  0  0  0  0  0  0999 V2000
  -42.1779   57.7663   65.7642 O   0  0  0  0  0  0  0  0  0  0  0  0
  -42.9110   58.6710   65.5050 C   0  0  0  0  0  0  0  0  0  0  0  0
  -44.2859   58.5118   64.9432 C   0  0  0  0  0  0  0  0  0  0  0  0
  -45.1880   59.6934   65.2456 C   0  0  0  0  0  0  0  0  0  0  0  0
  -46.4261   59.3053   66.0247 C   0  0  0  0  0  0  0  0  0  0  0  0
  -47.0612   58.0071   65.5851 C   0  0  0  0  0  0  0  0  0  0  0  0
  -47.9301   58.1369   64.3601 C   0  0  0  0  0  0  0  0  0  0  0  0
  -49.3958   58.1889   64.6990 C   0  0  0  0  0  0  0  0  0  0  0  0
  -49.9578   59.5624   64.9176 C   0  0  0  0  0  0  0  0  0  0  0  0
  -51.0550   59.8963   63.9980 C   0  0  0  0  0  0  0  0  0  0  0  0
  -50.9742   60.2188   62.7259 C   0  0  0  0  0  0  0  0  0  0  0  0
  -49.7562   60.3077   61.8815 C   0  0  0  0  0  0  0  0  0  0  0  0
  -49.7104   59.3613   60.6994 C   0  0  0  0  0  0  0  0  0  0  0  0
  -50.1897   57.9778   61.0434 C   0  0  0  0  0  0  0  0  0  0  0  0
  -50.1176   56.9868   59.9101 C   0  0  0  0  0  0  0  0  0  0  0  0
  -49.0282   55.9558   60.1075 C   0  0  0  0  0  0  0  0  0  0  0  0
  -48.1171   55.7634   58.9274 C   0  0  0  0  0  0  0  0  0  0  0  0
  -47.7414   57.0306   58.2701 C   0  0  0  0  0  0  0  0  0  0  0  0
  -47.1486   56.8446   56.9471 C   0  0  0  0  0  0  0  0  0  0  0  0
  -42.5945   59.9545   65.6762 O   0  0  0  0  0  0  0  0  0  0  0  0
  -41.2382   60.2610   66.0693 C   0  0  0  0  0  0  0  0  0  0  0  0
  -40.7678   61.3968   65.1902 C   0  0  0  0  0  0  0  0  0  0  0  0
  -40.4371   62.5227   66.0033 O   0  0  0  0  0  0  0  0  0  0  0  0
  -39.6941   62.2952   66.5838 H   0  0  0  0  0  0  0  0  0  0  0  0
  -39.5803   61.0773   64.3147 C   0  0  0  0  0  0  0  0  0  0  0  0
  -39.9908   61.1633   62.9353 O   0  0  0  0  0  0  0  0  0  0  0  0
  -39.0346   60.6044   61.7939 P   0  0  0  0  0  0  0  0  0  0  0  0
  -39.7954   60.6543   60.5290 O   0  0  0  0  0  0  0  0  0  0  0  0
  -37.7639   61.3481   61.8988 O   0  0  0  0  0  0  0  0  0  0  0  0
  -37.9214   62.2861   61.7079 H   0  0  0  0  0  0  0  0  0  0  0  0
  -38.7160   59.0838   62.1151 O   0  0  0  0  0  0  0  0  0  0  0  0
  -37.4807   58.4950   61.6450 C   0  0  0  0  0  0  0  0  0  0  0  0
  -37.1049   57.4483   62.6692 C   0  0  0  0  0  0  0  0  0  0  0  0
  -35.8064   57.6793   63.4164 N   0  0  0  0  0  0  0  0  0  0  0  0
  -34.6407   57.1413   62.6506 C   0  0  0  0  0  0  0  0  0  0  0  0
  -35.8640   56.9927   64.7433 C   0  0  0  0  0  0  0  0  0  0  0  0
  -35.6038   59.1468   63.6281 C   0  0  0  0  0  0  0  0  0  0  0  0
 34 33  1  0  0  0
 34 35  1  0  0  0
 34 36  1  0  0  0
 34 37  1  0  0  0
 22 23  1  0  0  0
 22 25  1  0  0  0
 22 21  1  0  0  0
 23 24  1  0  0  0
 27 26  1  0  0  0
 27 28  2  0  0  0
 27 31  1  0  0  0
 27 29  1  0  0  0
 25 26  1  0  0  0
 32 33  1  0  0  0
 32 31  1  0  0  0
 29 30  1  0  0  0
 20 21  1  0  0  0
 20  2  1  0  0  0
  1  2  2  0  0  0
  2  3  1  0  0  0
  3  4  1  0  0  0
  4  5  1  0  0  0
  5  6  1  0  0  0
  6  7  1  0  0  0
  7  8  1  0  0  0
  8  9  1  0  0  0
  9 10  1  0  0  0
 10 11  2  0  0  0
 11 12  1  0  0  0
 12 13  1  0  0  0
 13 14  1  0  0  0
 14 15  1  0  0  0
 15 16  1  0  0  0
 16 17  1  0  0  0
 17 18  1  0  0  0
 18 19  1  0  0  0
M  CHG 1  28  -1
M  END
> <minimizedAffinity>
-8.46631

> <CNNscore>
0.8538377285

> <CNNaffinity>
6.9755911827

> <CNN_VS>
5.9560227394

> <CNNaffinity_variance>
0.3168561459

$$$$
/media/chris/experiments/cd1a-new-docking/inputs/ligands/4x6c_ligand.pdb


 37 36  0  0  0  0  0  0  0  0999 V2000
  -42.5189   60.6631   63.7929 O   0  0  0  0  0  0  0  0  0  0  0  0
  -42.2518   59.9341   64.6986 C   0  0  0  0  0  0  0  0  0  0  0  0
  -43.2447   59.4086   65.6831 C   0  0  0  0  0  0  0  0  0  0  0  0
  -44.4319   58.7339   65.0221 C   0  0  0  0  0  0  0  0  0  0  0  0
  -44.7042   57.3502   65.5713 C   0  0  0  0  0  0  0  0  0  0  0  0
  -46.1542   56.9302   65.5195 C   0  0  0  0  0  0  0  0  0  0  0  0
  -47.1211   58.0288   65.8808 C   0  0  0  0  0  0  0  0  0  0  0  0
  -48.2017   58.2051   64.8479 C   0  0  0  0  0  0  0  0  0  0  0  0
  -48.5831   59.6250   64.5509 C   0  0  0  0  0  0  0  0  0  0  0  0
  -49.9927   59.9232   64.8432 C   0  0  0  0  0  0  0  0  0  0  0  0
  -50.9920   60.0188   63.9940 C   0  0  0  0  0  0  0  0  0  0  0  0
  -50.9613   59.8285   62.5219 C   0  0  0  0  0  0  0  0  0  0  0  0
  -50.9577   58.3891   62.0493 C   0  0  0  0  0  0  0  0  0  0  0  0
  -49.8145   58.0851   61.1205 C   0  0  0  0  0  0  0  0  0  0  0  0
  -50.0943   57.0007   60.1118 C   0  0  0  0  0  0  0  0  0  0  0  0
  -49.3834   57.2323   58.7967 C   0  0  0  0  0  0  0  0  0  0  0  0
  -48.2077   56.3301   58.5448 C   0  0  0  0  0  0  0  0  0  0  0  0
  -47.3283   56.8099   57.4605 C   0  0  0  0  0  0  0  0  0  0  0  0
  -46.9372   55.7592   56.5227 C   0  0  0  0  0  0  0  0  0  0  0  0
  -41.0205   59.4949   64.9588 O   0  0  0  0  0  0  0  0  0  0  0  0
  -40.2698   60.1810   65.9853 C   0  0  0  0  0  0  0  0  0  0  0  0
  -39.1960   60.9837   65.2876 C   0  0  0  0  0  0  0  0  0  0  0  0
  -39.2465   62.3379   65.7366 O   0  0  0  0  0  0  0  0  0  0  0  0
  -39.0461   62.3719   66.6850 H   0  0  0  0  0  0  0  0  0  0  0  0
  -37.7892   60.4712   65.4796 C   0  0  0  0  0  0  0  0  0  0  0  0
  -37.3338   59.9033   64.2351 O   0  0  0  0  0  0  0  0  0  0  0  0
  -37.3863   58.3278   64.0238 P   0  0  0  0  0  0  0  0  0  0  0  0
  -36.9441   57.7066   65.2886 O   0  0  0  0  0  0  0  0  0  0  0  0
  -38.7288   58.0116   63.4979 O   0  0  0  0  0  0  0  0  0  0  0  0
  -39.3978   58.2345   64.1640 H   0  0  0  0  0  0  0  0  0  0  0  0
  -36.3384   57.9441   62.8961 O   0  0  0  0  0  0  0  0  0  0  0  0
  -35.1151   57.2605   63.2564 C   0  0  0  0  0  0  0  0  0  0  0  0
  -33.9887   58.1666   62.8136 C   0  0  0  0  0  0  0  0  0  0  0  0
  -33.2562   58.9097   63.9132 N   0  0  0  0  0  0  0  0  0  0  0  0
  -31.7988   59.0313   63.6033 C   0  0  0  0  0  0  0  0  0  0  0  0
  -33.4100   58.1712   65.2041 C   0  0  0  0  0  0  0  0  0  0  0  0
  -33.8308   60.2837   64.0588 C   0  0  0  0  0  0  0  0  0  0  0  0
 34 33  1  0  0  0
 34 35  1  0  0  0
 34 36  1  0  0  0
 34 37  1  0  0  0
 22 23  1  0  0  0
 22 25  1  0  0  0
 22 21  1  0  0  0
 23 24  1  0  0  0
 27 26  1  0  0  0
 27 28  2  0  0  0
 27 31  1  0  0  0
 27 29  1  0  0  0
 25 26  1  0  0  0
 32 33  1  0  0  0
 32 31  1  0  0  0
 29 30  1  0  0  0
 20 21  1  0  0  0
 20  2  1  0  0  0
  1  2  2  0  0  0
  2  3  1  0  0  0
  3  4  1  0  0  0
  4  5  1  0  0  0
  5  6  1  0  0  0
  6  7  1  0  0  0
  7  8  1  0  0  0
  8  9  1  0  0  0
  9 10  1  0  0  0
 10 11  2  0  0  0
 11 12  1  0  0  0
 12 13  1  0  0  0
 13 14  1  0  0  0
 14 15  1  0  0  0
 15 16  1  0  0  0
 16 17  1  0  0  0
 17 18  1  0  0  0
 18 19  1  0  0  0
M  CHG 1  28  -1
M  END
> <minimizedAffinity>
-7.79506

> <CNNscore>
0.8520665765

> <CNNaffinity>
6.7095794678

> <CNN_VS>
5.7170085907

> <CNNaffinity_variance>
0.9910535812

$$$$
/media/chris/experiments/cd1a-new-docking/inputs/ligands/4x6c_ligand.pdb


 37 36  0  0  0  0  0  0  0  0999 V2000
  -42.1269   57.8179   65.7712 O   0  0  0  0  0  0  0  0  0  0  0  0
  -42.8541   58.7130   65.4665 C   0  0  0  0  0  0  0  0  0  0  0  0
  -44.0802   58.5591   64.6273 C   0  0  0  0  0  0  0  0  0  0  0  0
  -44.8898   57.3269   64.9847 C   0  0  0  0  0  0  0  0  0  0  0  0
  -46.1975   57.6595   65.6702 C   0  0  0  0  0  0  0  0  0  0  0  0
  -47.2604   58.2183   64.7539 C   0  0  0  0  0  0  0  0  0  0  0  0
  -47.4533   59.7080   64.8799 C   0  0  0  0  0  0  0  0  0  0  0  0
  -48.7199   60.0629   65.6116 C   0  0  0  0  0  0  0  0  0  0  0  0
  -49.9258   59.2505   65.2431 C   0  0  0  0  0  0  0  0  0  0  0  0
  -50.9028   59.9921   64.4329 C   0  0  0  0  0  0  0  0  0  0  0  0
  -50.9780   60.0642   63.1222 C   0  0  0  0  0  0  0  0  0  0  0  0
  -50.1098   59.3975   62.1192 C   0  0  0  0  0  0  0  0  0  0  0  0
  -50.2178   57.8874   62.0626 C   0  0  0  0  0  0  0  0  0  0  0  0
  -49.3888   57.2862   60.9611 C   0  0  0  0  0  0  0  0  0  0  0  0
  -49.7358   57.7698   59.5764 C   0  0  0  0  0  0  0  0  0  0  0  0
  -48.9562   57.0515   58.4971 C   0  0  0  0  0  0  0  0  0  0  0  0
  -47.7762   56.2602   58.9884 C   0  0  0  0  0  0  0  0  0  0  0  0
  -47.1422   55.4457   57.9330 C   0  0  0  0  0  0  0  0  0  0  0  0
  -47.5134   55.8575   56.5806 C   0  0  0  0  0  0  0  0  0  0  0  0
  -42.6628   59.9809   65.8309 O   0  0  0  0  0  0  0  0  0  0  0  0
  -41.3133   60.3878   66.1490 C   0  0  0  0  0  0  0  0  0  0  0  0
  -40.9985   61.5901   65.2889 C   0  0  0  0  0  0  0  0  0  0  0  0
  -39.9333   62.3334   65.8814 O   0  0  0  0  0  0  0  0  0  0  0  0
  -39.1309   61.7888   65.9012 H   0  0  0  0  0  0  0  0  0  0  0  0
  -40.6213   61.2735   63.8620 C   0  0  0  0  0  0  0  0  0  0  0  0
  -39.2462   61.6543   63.6555 O   0  0  0  0  0  0  0  0  0  0  0  0
  -38.2260   60.6076   63.0285 P   0  0  0  0  0  0  0  0  0  0  0  0
  -38.7863   59.2619   63.2657 O   0  0  0  0  0  0  0  0  0  0  0  0
  -37.9639   61.0437   61.6428 O   0  0  0  0  0  0  0  0  0  0  0  0
  -38.7834   60.9907   61.1266 H   0  0  0  0  0  0  0  0  0  0  0  0
  -36.8560   60.7153   63.8212 O   0  0  0  0  0  0  0  0  0  0  0  0
  -36.6936   61.7320   64.8378 C   0  0  0  0  0  0  0  0  0  0  0  0
  -35.9234   62.8550   64.1810 C   0  0  0  0  0  0  0  0  0  0  0  0
  -34.6220   63.2535   64.8483 N   0  0  0  0  0  0  0  0  0  0  0  0
  -34.5777   64.7251   65.1078 C   0  0  0  0  0  0  0  0  0  0  0  0
  -33.4739   62.8899   63.9622 C   0  0  0  0  0  0  0  0  0  0  0  0
  -34.4863   62.5331   66.1529 C   0  0  0  0  0  0  0  0  0  0  0  0
 34 33  1  0  0  0
 34 35  1  0  0  0
 34 36  1  0  0  0
 34 37  1  0  0  0
 22 23  1  0  0  0
 22 25  1  0  0  0
 22 21  1  0  0  0
 23 24  1  0  0  0
 27 26  1  0  0  0
 27 28  2  0  0  0
 27 31  1  0  0  0
 27 29  1  0  0  0
 25 26  1  0  0  0
 32 33  1  0  0  0
 32 31  1  0  0  0
 29 30  1  0  0  0
 20 21  1  0  0  0
 20  2  1  0  0  0
  1  2  2  0  0  0
  2  3  1  0  0  0
  3  4  1  0  0  0
  4  5  1  0  0  0
  5  6  1  0  0  0
  6  7  1  0  0  0
  7  8  1  0  0  0
  8  9  1  0  0  0
  9 10  1  0  0  0
 10 11  2  0  0  0
 11 12  1  0  0  0
 12 13  1  0  0  0
 13 14  1  0  0  0
 14 15  1  0  0  0
 15 16  1  0  0  0
 16 17  1  0  0  0
 17 18  1  0  0  0
 18 19  1  0  0  0
M  CHG 1  28  -1
M  END
> <minimizedAffinity>
-8.10828

> <CNNscore>
0.8097795844

> <CNNaffinity>
6.6892395020

> <CNN_VS>
5.4168095589

> <CNNaffinity_variance>
0.4080897272

$$$$
/media/chris/experiments/cd1a-new-docking/inputs/ligands/4x6c_ligand.pdb


 37 36  0  0  0  0  0  0  0  0999 V2000
  -41.9787   60.0122   67.1322 O   0  0  0  0  0  0  0  0  0  0  0  0
  -41.9466   59.3342   66.1512 C   0  0  0  0  0  0  0  0  0  0  0  0
  -42.9877   58.3283   65.7832 C   0  0  0  0  0  0  0  0  0  0  0  0
  -44.1930   58.9478   65.1015 C   0  0  0  0  0  0  0  0  0  0  0  0
  -45.1984   57.9184   64.6326 C   0  0  0  0  0  0  0  0  0  0  0  0
  -46.6277   58.4064   64.6050 C   0  0  0  0  0  0  0  0  0  0  0  0
  -47.6061   57.4673   65.2631 C   0  0  0  0  0  0  0  0  0  0  0  0
  -49.0366   57.8208   64.9556 C   0  0  0  0  0  0  0  0  0  0  0  0
  -49.3934   59.2677   65.1264 C   0  0  0  0  0  0  0  0  0  0  0  0
  -50.6142   59.6560   64.4053 C   0  0  0  0  0  0  0  0  0  0  0  0
  -50.7130   60.1579   63.1940 C   0  0  0  0  0  0  0  0  0  0  0  0
  -49.6194   60.4421   62.2308 C   0  0  0  0  0  0  0  0  0  0  0  0
  -49.6478   59.6303   60.9521 C   0  0  0  0  0  0  0  0  0  0  0  0
  -50.2127   58.2508   61.1518 C   0  0  0  0  0  0  0  0  0  0  0  0
  -49.2076   57.1347   61.0263 C   0  0  0  0  0  0  0  0  0  0  0  0
  -48.7362   56.9338   59.6029 C   0  0  0  0  0  0  0  0  0  0  0  0
  -48.1443   55.5820   59.3165 C   0  0  0  0  0  0  0  0  0  0  0  0
  -47.0820   55.6175   58.2921 C   0  0  0  0  0  0  0  0  0  0  0  0
  -47.5688   55.3432   56.9416 C   0  0  0  0  0  0  0  0  0  0  0  0
  -40.9652   59.3794   65.2502 O   0  0  0  0  0  0  0  0  0  0  0  0
  -40.8627   60.5671   64.4336 C   0  0  0  0  0  0  0  0  0  0  0  0
  -39.7311   61.3959   64.9966 C   0  0  0  0  0  0  0  0  0  0  0  0
  -40.2558   62.3612   65.9081 O   0  0  0  0  0  0  0  0  0  0  0  0
  -40.6669   61.9063   66.6597 H   0  0  0  0  0  0  0  0  0  0  0  0
  -38.6542   60.6096   65.7042 C   0  0  0  0  0  0  0  0  0  0  0  0
  -37.6685   61.5329   66.2088 O   0  0  0  0  0  0  0  0  0  0  0  0
  -36.2216   61.5764   65.5500 P   0  0  0  0  0  0  0  0  0  0  0  0
  -36.3486   62.3108   64.2750 O   0  0  0  0  0  0  0  0  0  0  0  0
  -35.2967   62.0828   66.5828 O   0  0  0  0  0  0  0  0  0  0  0  0
  -35.5355   62.9947   66.8118 H   0  0  0  0  0  0  0  0  0  0  0  0
  -35.7839   60.0882   65.2174 O   0  0  0  0  0  0  0  0  0  0  0  0
  -35.4886   59.7158   63.8507 C   0  0  0  0  0  0  0  0  0  0  0  0
  -36.0785   58.3369   63.6606 C   0  0  0  0  0  0  0  0  0  0  0  0
  -37.2730   58.2423   62.7322 N   0  0  0  0  0  0  0  0  0  0  0  0
  -38.4638   57.6818   63.4410 C   0  0  0  0  0  0  0  0  0  0  0  0
  -36.9405   57.3510   61.5786 C   0  0  0  0  0  0  0  0  0  0  0  0
  -37.6188   59.6051   62.2196 C   0  0  0  0  0  0  0  0  0  0  0  0
 34 33  1  0  0  0
 34 35  1  0  0  0
 34 36  1  0  0  0
 34 37  1  0  0  0
 22 23  1  0  0  0
 22 25  1  0  0  0
 22 21  1  0  0  0
 23 24  1  0  0  0
 27 26  1  0  0  0
 27 28  2  0  0  0
 27 31  1  0  0  0
 27 29  1  0  0  0
 25 26  1  0  0  0
 32 33  1  0  0  0
 32 31  1  0  0  0
 29 30  1  0  0  0
 20 21  1  0  0  0
 20  2  1  0  0  0
  1  2  2  0  0  0
  2  3  1  0  0  0
  3  4  1  0  0  0
  4  5  1  0  0  0
  5  6  1  0  0  0
  6  7  1  0  0  0
  7  8  1  0  0  0
  8  9  1  0  0  0
  9 10  1  0  0  0
 10 11  2  0  0  0
 11 12  1  0  0  0
 12 13  1  0  0  0
 13 14  1  0  0  0
 14 15  1  0  0  0
 15 16  1  0  0  0
 16 17  1  0  0  0
 17 18  1  0  0  0
 18 19  1  0  0  0
M  CHG 1  28  -1
M  END
> <minimizedAffinity>
-7.99227

> <CNNscore>
0.8040797114

> <CNNaffinity>
7.0306119919

> <CNN_VS>
5.6531724930

> <CNNaffinity_variance>
0.3268868029

$$$$
/media/chris/experiments/cd1a-new-docking/inputs/ligands/4x6c_ligand.pdb


 37 36  0  0  0  0  0  0  0  0999 V2000
  -40.5220   61.2008   65.0424 O   0  0  0  0  0  0  0  0  0  0  0  0
  -40.5665   60.0148   64.9221 C   0  0  0  0  0  0  0  0  0  0  0  0
  -41.3865   59.1075   65.7796 C   0  0  0  0  0  0  0  0  0  0  0  0
  -42.6283   59.7805   66.3333 C   0  0  0  0  0  0  0  0  0  0  0  0
  -43.7766   59.8007   65.3476 C   0  0  0  0  0  0  0  0  0  0  0  0
  -44.0951   58.4596   64.7297 C   0  0  0  0  0  0  0  0  0  0  0  0
  -45.5120   58.0012   64.9629 C   0  0  0  0  0  0  0  0  0  0  0  0
  -46.3623   59.0667   65.6013 C   0  0  0  0  0  0  0  0  0  0  0  0
  -47.8396   58.9303   65.3797 C   0  0  0  0  0  0  0  0  0  0  0  0
  -48.1903   57.8673   64.4267 C   0  0  0  0  0  0  0  0  0  0  0  0
  -49.0542   57.9211   63.4370 C   0  0  0  0  0  0  0  0  0  0  0  0
  -49.8837   59.0762   63.0102 C   0  0  0  0  0  0  0  0  0  0  0  0
  -50.8592   58.7992   61.8847 C   0  0  0  0  0  0  0  0  0  0  0  0
  -50.6410   57.4564   61.2434 C   0  0  0  0  0  0  0  0  0  0  0  0
  -50.1647   57.5111   59.8145 C   0  0  0  0  0  0  0  0  0  0  0  0
  -49.2187   56.3810   59.4732 C   0  0  0  0  0  0  0  0  0  0  0  0
  -47.9987   56.7893   58.6954 C   0  0  0  0  0  0  0  0  0  0  0  0
  -47.2353   55.6418   58.1667 C   0  0  0  0  0  0  0  0  0  0  0  0
  -47.6023   55.2815   56.7986 C   0  0  0  0  0  0  0  0  0  0  0  0
  -39.8783   59.3361   64.0041 O   0  0  0  0  0  0  0  0  0  0  0  0
  -39.1907   58.1403   64.4343 C   0  0  0  0  0  0  0  0  0  0  0  0
  -37.7093   58.4077   64.2991 C   0  0  0  0  0  0  0  0  0  0  0  0
  -37.4116   58.7668   62.9498 O   0  0  0  0  0  0  0  0  0  0  0  0
  -37.8644   59.5955   62.7283 H   0  0  0  0  0  0  0  0  0  0  0  0
  -37.1691   59.4850   65.2082 C   0  0  0  0  0  0  0  0  0  0  0  0
  -36.7710   60.6105   64.3998 O   0  0  0  0  0  0  0  0  0  0  0  0
  -36.7500   62.0677   65.0366 P   0  0  0  0  0  0  0  0  0  0  0  0
  -36.2414   62.9865   63.9982 O   0  0  0  0  0  0  0  0  0  0  0  0
  -38.0892   62.3023   65.6113 O   0  0  0  0  0  0  0  0  0  0  0  0
  -38.7495   62.3088   64.9007 H   0  0  0  0  0  0  0  0  0  0  0  0
  -35.7165   62.0675   66.2403 O   0  0  0  0  0  0  0  0  0  0  0  0
  -34.3016   61.9299   65.9707 C   0  0  0  0  0  0  0  0  0  0  0  0
  -33.6574   63.1986   66.4818 C   0  0  0  0  0  0  0  0  0  0  0  0
  -33.0011   64.0825   65.4398 N   0  0  0  0  0  0  0  0  0  0  0  0
  -33.8827   65.2339   65.0769 C   0  0  0  0  0  0  0  0  0  0  0  0
  -32.7276   63.2830   64.2064 C   0  0  0  0  0  0  0  0  0  0  0  0
  -31.7112   64.6181   65.9773 C   0  0  0  0  0  0  0  0  0  0  0  0
 34 33  1  0  0  0
 34 35  1  0  0  0
 34 36  1  0  0  0
 34 37  1  0  0  0
 22 23  1  0  0  0
 22 25  1  0  0  0
 22 21  1  0  0  0
 23 24  1  0  0  0
 27 26  1  0  0  0
 27 28  2  0  0  0
 27 31  1  0  0  0
 27 29  1  0  0  0
 25 26  1  0  0  0
 32 33  1  0  0  0
 32 31  1  0  0  0
 29 30  1  0  0  0
 20 21  1  0  0  0
 20  2  1  0  0  0
  1  2  2  0  0  0
  2  3  1  0  0  0
  3  4  1  0  0  0
  4  5  1  0  0  0
  5  6  1  0  0  0
  6  7  1  0  0  0
  7  8  1  0  0  0
  8  9  1  0  0  0
  9 10  1  0  0  0
 10 11  2  0  0  0
 11 12  1  0  0  0
 12 13  1  0  0  0
 13 14  1  0  0  0
 14 15  1  0  0  0
 15 16  1  0  0  0
 16 17  1  0  0  0
 17 18  1  0  0  0
 18 19  1  0  0  0
M  CHG 1  28  -1
M  END
> <minimizedAffinity>
-7.71380

> <CNNscore>
0.7895525098

> <CNNaffinity>
6.4185242653

> <CNN_VS>
5.0677618980

> <CNNaffinity_variance>
0.4278938174

$$$$
/media/chris/experiments/cd1a-new-docking/inputs/ligands/4x6c_ligand.pdb


 37 36  0  0  0  0  0  0  0  0999 V2000
  -42.1391   60.6984   63.8775 O   0  0  0  0  0  0  0  0  0  0  0  0
  -41.2636   60.3285   64.5984 C   0  0  0  0  0  0  0  0  0  0  0  0
  -41.1668   58.9544   65.1762 C   0  0  0  0  0  0  0  0  0  0  0  0
  -42.4045   58.5530   65.9562 C   0  0  0  0  0  0  0  0  0  0  0  0
  -42.7139   57.0754   65.8507 C   0  0  0  0  0  0  0  0  0  0  0  0
  -44.0479   56.7587   65.2167 C   0  0  0  0  0  0  0  0  0  0  0  0
  -44.8626   57.9780   64.8677 C   0  0  0  0  0  0  0  0  0  0  0  0
  -46.2442   57.9350   65.4635 C   0  0  0  0  0  0  0  0  0  0  0  0
  -47.3181   58.5917   64.6477 C   0  0  0  0  0  0  0  0  0  0  0  0
  -48.6409   57.9743   64.8205 C   0  0  0  0  0  0  0  0  0  0  0  0
  -49.7099   58.1294   64.0709 C   0  0  0  0  0  0  0  0  0  0  0  0
  -49.8529   58.9506   62.8422 C   0  0  0  0  0  0  0  0  0  0  0  0
  -50.5247   58.2628   61.6714 C   0  0  0  0  0  0  0  0  0  0  0  0
  -49.5832   58.0133   60.5254 C   0  0  0  0  0  0  0  0  0  0  0  0
  -50.2498   57.5730   59.2474 C   0  0  0  0  0  0  0  0  0  0  0  0
  -49.3040   56.8425   58.3198 C   0  0  0  0  0  0  0  0  0  0  0  0
  -47.8464   56.9918   58.6556 C   0  0  0  0  0  0  0  0  0  0  0  0
  -47.0037   57.2719   57.4764 C   0  0  0  0  0  0  0  0  0  0  0  0
  -47.3234   56.4337   56.3225 C   0  0  0  0  0  0  0  0  0  0  0  0
  -40.2518   61.1012   64.9934 O   0  0  0  0  0  0  0  0  0  0  0  0
  -38.9131   60.6682   64.6642 C   0  0  0  0  0  0  0  0  0  0  0  0
  -38.4716   61.4686   63.4606 C   0  0  0  0  0  0  0  0  0  0  0  0
  -37.0832   61.7793   63.5787 O   0  0  0  0  0  0  0  0  0  0  0  0
  -36.5664   60.9586   63.5707 H   0  0  0  0  0  0  0  0  0  0  0  0
  -38.6967   60.7955   62.1284 C   0  0  0  0  0  0  0  0  0  0  0  0
  -38.8353   59.3774   62.3483 O   0  0  0  0  0  0  0  0  0  0  0  0
  -37.6469   58.3995   61.9470 P   0  0  0  0  0  0  0  0  0  0  0  0
  -37.8693   57.1296   62.6674 O   0  0  0  0  0  0  0  0  0  0  0  0
  -37.5822   58.3882   60.4724 O   0  0  0  0  0  0  0  0  0  0  0  0
  -38.4001   58.0078   60.1156 H   0  0  0  0  0  0  0  0  0  0  0  0
  -36.2885   59.0295   62.4713 O   0  0  0  0  0  0  0  0  0  0  0  0
  -35.5666   58.3843   63.5465 C   0  0  0  0  0  0  0  0  0  0  0  0
  -34.2219   58.0014   62.9711 C   0  0  0  0  0  0  0  0  0  0  0  0
  -33.0051   58.5206   63.7110 N   0  0  0  0  0  0  0  0  0  0  0  0
  -32.8280   59.9890   63.4936 C   0  0  0  0  0  0  0  0  0  0  0  0
  -31.7822   57.8141   63.2203 C   0  0  0  0  0  0  0  0  0  0  0  0
  -33.1653   58.2698   65.1776 C   0  0  0  0  0  0  0  0  0  0  0  0
 34 33  1  0  0  0
 34 35  1  0  0  0
 34 36  1  0  0  0
 34 37  1  0  0  0
 22 23  1  0  0  0
 22 25  1  0  0  0
 22 21  1  0  0  0
 23 24  1  0  0  0
 27 26  1  0  0  0
 27 28  2  0  0  0
 27 31  1  0  0  0
 27 29  1  0  0  0
 25 26  1  0  0  0
 32 33  1  0  0  0
 32 31  1  0  0  0
 29 30  1  0  0  0
 20 21  1  0  0  0
 20  2  1  0  0  0
  1  2  2  0  0  0
  2  3  1  0  0  0
  3  4  1  0  0  0
  4  5  1  0  0  0
  5  6  1  0  0  0
  6  7  1  0  0  0
  7  8  1  0  0  0
  8  9  1  0  0  0
  9 10  1  0  0  0
 10 11  2  0  0  0
 11 12  1  0  0  0
 12 13  1  0  0  0
 13 14  1  0  0  0
 14 15  1  0  0  0
 15 16  1  0  0  0
 16 17  1  0  0  0
 17 18  1  0  0  0
 18 19  1  0  0  0
M  CHG 1  28  -1
M  END
> <minimizedAffinity>
-7.76887

> <CNNscore>
0.7805417776

> <CNNaffinity>
6.6312484741

> <CNN_VS>
5.1759662628

> <CNNaffinity_variance>
0.5871936083

$$$$
/media/chris/experiments/cd1a-new-docking/inputs/ligands/4x6c_ligand.pdb


 37 36  0  0  0  0  0  0  0  0999 V2000
  -42.8195   57.1725   65.8744 O   0  0  0  0  0  0  0  0  0  0  0  0
  -43.0407   58.3285   65.6801 C   0  0  0  0  0  0  0  0  0  0  0  0
  -44.3614   58.8764   65.2481 C   0  0  0  0  0  0  0  0  0  0  0  0
  -45.4212   57.8033   65.0844 C   0  0  0  0  0  0  0  0  0  0  0  0
  -46.8136   58.3715   64.9142 C   0  0  0  0  0  0  0  0  0  0  0  0
  -47.9281   57.4087   65.2500 C   0  0  0  0  0  0  0  0  0  0  0  0
  -49.3080   57.9607   64.9979 C   0  0  0  0  0  0  0  0  0  0  0  0
  -49.3428   59.4646   65.0490 C   0  0  0  0  0  0  0  0  0  0  0  0
  -50.3015   60.1192   64.0990 C   0  0  0  0  0  0  0  0  0  0  0  0
  -49.7783   60.2340   62.7300 C   0  0  0  0  0  0  0  0  0  0  0  0
  -49.9747   59.4177   61.7181 C   0  0  0  0  0  0  0  0  0  0  0  0
  -50.7941   58.1799   61.6884 C   0  0  0  0  0  0  0  0  0  0  0  0
  -50.7620   57.4064   60.3863 C   0  0  0  0  0  0  0  0  0  0  0  0
  -49.3644   57.1805   59.8786 C   0  0  0  0  0  0  0  0  0  0  0  0
  -48.8952   55.7496   59.9423 C   0  0  0  0  0  0  0  0  0  0  0  0
  -47.7905   55.4551   58.9515 C   0  0  0  0  0  0  0  0  0  0  0  0
  -46.8955   56.6210   58.6360 C   0  0  0  0  0  0  0  0  0  0  0  0
  -46.9223   57.0056   57.2111 C   0  0  0  0  0  0  0  0  0  0  0  0
  -47.0343   55.8649   56.3041 C   0  0  0  0  0  0  0  0  0  0  0  0
  -42.1287   59.2912   65.8160 O   0  0  0  0  0  0  0  0  0  0  0  0
  -42.2348   60.4391   64.9449 C   0  0  0  0  0  0  0  0  0  0  0  0
  -40.8283   60.8307   64.5542 C   0  0  0  0  0  0  0  0  0  0  0  0
  -40.4339   61.9875   65.2920 O   0  0  0  0  0  0  0  0  0  0  0  0
  -40.4100   61.7750   66.2381 H   0  0  0  0  0  0  0  0  0  0  0  0
  -39.7864   59.7578   64.7591 C   0  0  0  0  0  0  0  0  0  0  0  0
  -39.3572   59.2823   63.4674 O   0  0  0  0  0  0  0  0  0  0  0  0
  -38.1103   59.9638   62.7531 P   0  0  0  0  0  0  0  0  0  0  0  0
  -37.3556   58.8874   62.0800 O   0  0  0  0  0  0  0  0  0  0  0  0
  -38.6377   61.0837   61.9490 O   0  0  0  0  0  0  0  0  0  0  0  0
  -39.2147   60.7368   61.2506 H   0  0  0  0  0  0  0  0  0  0  0  0
  -37.1782   60.5895   63.8741 O   0  0  0  0  0  0  0  0  0  0  0  0
  -35.7399   60.5113   63.7368 C   0  0  0  0  0  0  0  0  0  0  0  0
  -35.2575   59.6770   64.9018 C   0  0  0  0  0  0  0  0  0  0  0  0
  -34.5911   58.3613   64.5518 N   0  0  0  0  0  0  0  0  0  0  0  0
  -34.1637   58.3376   63.1195 C   0  0  0  0  0  0  0  0  0  0  0  0
  -35.5502   57.2378   64.7828 C   0  0  0  0  0  0  0  0  0  0  0  0
  -33.3841   58.1655   65.4147 C   0  0  0  0  0  0  0  0  0  0  0  0
 34 33  1  0  0  0
 34 35  1  0  0  0
 34 36  1  0  0  0
 34 37  1  0  0  0
 22 23  1  0  0  0
 22 25  1  0  0  0
 22 21  1  0  0  0
 23 24  1  0  0  0
 27 26  1  0  0  0
 27 28  2  0  0  0
 27 31  1  0  0  0
 27 29  1  0  0  0
 25 26  1  0  0  0
 32 33  1  0  0  0
 32 31  1  0  0  0
 29 30  1  0  0  0
 20 21  1  0  0  0
 20  2  1  0  0  0
  1  2  2  0  0  0
  2  3  1  0  0  0
  3  4  1  0  0  0
  4  5  1  0  0  0
  5  6  1  0  0  0
  6  7  1  0  0  0
  7  8  1  0  0  0
  8  9  1  0  0  0
  9 10  1  0  0  0
 10 11  2  0  0  0
 11 12  1  0  0  0
 12 13  1  0  0  0
 13 14  1  0  0  0
 14 15  1  0  0  0
 15 16  1  0  0  0
 16 17  1  0  0  0
 17 18  1  0  0  0
 18 19  1  0  0  0
M  CHG 1  28  -1
M  END
> <minimizedAffinity>
-7.75592

> <CNNscore>
0.7657000422

> <CNNaffinity>
6.7695207596

> <CNN_VS>
5.1834225655

> <CNNaffinity_variance>
0.4619826674

$$$$
/media/chris/experiments/cd1a-new-docking/inputs/ligands/4x6c_ligand.pdb


 37 36  0  0  0  0  0  0  0  0999 V2000
  -42.2801   57.9552   65.7982 O   0  0  0  0  0  0  0  0  0  0  0  0
  -42.5926   59.0049   65.3254 C   0  0  0  0  0  0  0  0  0  0  0  0
  -43.9932   59.5196   65.2586 C   0  0  0  0  0  0  0  0  0  0  0  0
  -45.0306   58.4127   65.2707 C   0  0  0  0  0  0  0  0  0  0  0  0
  -46.3410   58.8402   65.8956 C   0  0  0  0  0  0  0  0  0  0  0  0
  -47.4799   58.9977   64.9159 C   0  0  0  0  0  0  0  0  0  0  0  0
  -48.3891   57.7979   64.8389 C   0  0  0  0  0  0  0  0  0  0  0  0
  -49.8172   58.1374   65.1721 C   0  0  0  0  0  0  0  0  0  0  0  0
  -50.1256   59.6024   65.2664 C   0  0  0  0  0  0  0  0  0  0  0  0
  -51.1273   60.0511   64.2885 C   0  0  0  0  0  0  0  0  0  0  0  0
  -50.9395   60.3707   63.0270 C   0  0  0  0  0  0  0  0  0  0  0  0
  -49.6712   60.3399   62.2558 C   0  0  0  0  0  0  0  0  0  0  0  0
  -49.6505   59.3975   61.0698 C   0  0  0  0  0  0  0  0  0  0  0  0
  -49.9109   57.9681   61.4586 C   0  0  0  0  0  0  0  0  0  0  0  0
  -50.5111   57.1184   60.3680 C   0  0  0  0  0  0  0  0  0  0  0  0
  -49.8776   57.3722   59.0179 C   0  0  0  0  0  0  0  0  0  0  0  0
  -48.4601   56.8903   58.8828 C   0  0  0  0  0  0  0  0  0  0  0  0
  -47.9963   56.8333   57.4825 C   0  0  0  0  0  0  0  0  0  0  0  0
  -46.5687   57.1086   57.3324 C   0  0  0  0  0  0  0  0  0  0  0  0
  -41.7269   59.8610   64.7825 O   0  0  0  0  0  0  0  0  0  0  0  0
  -40.4507   60.0267   65.4395 C   0  0  0  0  0  0  0  0  0  0  0  0
  -39.8764   61.3425   64.9671 C   0  0  0  0  0  0  0  0  0  0  0  0
  -40.1820   62.3637   65.9167 O   0  0  0  0  0  0  0  0  0  0  0  0
  -39.7502   62.1598   66.7610 H   0  0  0  0  0  0  0  0  0  0  0  0
  -38.3851   61.3414   64.7332 C   0  0  0  0  0  0  0  0  0  0  0  0
  -37.7540   62.0897   65.7917 O   0  0  0  0  0  0  0  0  0  0  0  0
  -36.1669   62.1548   65.8706 P   0  0  0  0  0  0  0  0  0  0  0  0
  -35.7993   62.0380   67.2963 O   0  0  0  0  0  0  0  0  0  0  0  0
  -35.6500   61.1598   64.9106 O   0  0  0  0  0  0  0  0  0  0  0  0
  -35.9154   60.2704   65.1923 H   0  0  0  0  0  0  0  0  0  0  0  0
  -35.7037   63.5838   65.3602 O   0  0  0  0  0  0  0  0  0  0  0  0
  -35.4153   63.7852   63.9567 C   0  0  0  0  0  0  0  0  0  0  0  0
  -34.6944   65.1113   63.8683 C   0  0  0  0  0  0  0  0  0  0  0  0
  -33.1839   65.0457   63.7603 N   0  0  0  0  0  0  0  0  0  0  0  0
  -32.7202   63.6432   63.5309 C   0  0  0  0  0  0  0  0  0  0  0  0
  -32.5695   65.5510   65.0263 C   0  0  0  0  0  0  0  0  0  0  0  0
  -32.7258   65.8944   62.6160 C   0  0  0  0  0  0  0  0  0  0  0  0
 34 33  1  0  0  0
 34 35  1  0  0  0
 34 36  1  0  0  0
 34 37  1  0  0  0
 22 23  1  0  0  0
 22 25  1  0  0  0
 22 21  1  0  0  0
 23 24  1  0  0  0
 27 26  1  0  0  0
 27 28  2  0  0  0
 27 31  1  0  0  0
 27 29  1  0  0  0
 25 26  1  0  0  0
 32 33  1  0  0  0
 32 31  1  0  0  0
 29 30  1  0  0  0
 20 21  1  0  0  0
 20  2  1  0  0  0
  1  2  2  0  0  0
  2  3  1  0  0  0
  3  4  1  0  0  0
  4  5  1  0  0  0
  5  6  1  0  0  0
  6  7  1  0  0  0
  7  8  1  0  0  0
  8  9  1  0  0  0
  9 10  1  0  0  0
 10 11  2  0  0  0
 11 12  1  0  0  0
 12 13  1  0  0  0
 13 14  1  0  0  0
 14 15  1  0  0  0
 15 16  1  0  0  0
 16 17  1  0  0  0
 17 18  1  0  0  0
 18 19  1  0  0  0
M  CHG 1  28  -1
M  END
> <minimizedAffinity>
-8.39276

> <CNNscore>
0.7510388494

> <CNNaffinity>
6.2477312088

> <CNN_VS>
4.6922888756

> <CNNaffinity_variance>
0.2450364530

$$$$
/media/chris/experiments/cd1a-new-docking/inputs/ligands/4x6c_ligand.pdb


 37 36  0  0  0  0  0  0  0  0999 V2000
  -39.5232   58.0199   64.6374 O   0  0  0  0  0  0  0  0  0  0  0  0
  -40.1404   59.0363   64.5431 C   0  0  0  0  0  0  0  0  0  0  0  0
  -41.1982   59.4761   65.5016 C   0  0  0  0  0  0  0  0  0  0  0  0
  -42.2443   60.3672   64.8590 C   0  0  0  0  0  0  0  0  0  0  0  0
  -43.6457   59.8074   64.9730 C   0  0  0  0  0  0  0  0  0  0  0  0
  -43.7072   58.3422   65.3353 C   0  0  0  0  0  0  0  0  0  0  0  0
  -44.8573   57.6040   64.6992 C   0  0  0  0  0  0  0  0  0  0  0  0
  -45.7124   56.8912   65.7123 C   0  0  0  0  0  0  0  0  0  0  0  0
  -47.1775   57.2077   65.6550 C   0  0  0  0  0  0  0  0  0  0  0  0
  -47.4627   58.5589   65.1509 C   0  0  0  0  0  0  0  0  0  0  0  0
  -48.2584   58.9019   64.1621 C   0  0  0  0  0  0  0  0  0  0  0  0
  -49.0934   58.0162   63.3120 C   0  0  0  0  0  0  0  0  0  0  0  0
  -49.4501   58.5678   61.9468 C   0  0  0  0  0  0  0  0  0  0  0  0
  -50.6538   57.8965   61.3449 C   0  0  0  0  0  0  0  0  0  0  0  0
  -50.3475   56.9579   60.2061 C   0  0  0  0  0  0  0  0  0  0  0  0
  -48.8772   56.9350   59.8508 C   0  0  0  0  0  0  0  0  0  0  0  0
  -48.5825   56.8284   58.3805 C   0  0  0  0  0  0  0  0  0  0  0  0
  -47.5072   55.8655   58.0713 C   0  0  0  0  0  0  0  0  0  0  0  0
  -47.5867   55.3222   56.7168 C   0  0  0  0  0  0  0  0  0  0  0  0
  -39.9719   59.9176   63.5572 O   0  0  0  0  0  0  0  0  0  0  0  0
  -38.6246   60.3601   63.2804 C   0  0  0  0  0  0  0  0  0  0  0  0
  -38.1624   59.6262   62.0426 C   0  0  0  0  0  0  0  0  0  0  0  0
  -38.0138   60.5532   60.9672 O   0  0  0  0  0  0  0  0  0  0  0  0
  -37.3187   61.1934   61.1858 H   0  0  0  0  0  0  0  0  0  0  0  0
  -36.8677   58.8656   62.1972 C   0  0  0  0  0  0  0  0  0  0  0  0
  -36.6755   58.5658   63.5943 O   0  0  0  0  0  0  0  0  0  0  0  0
  -35.2530   58.8095   64.2624 P   0  0  0  0  0  0  0  0  0  0  0  0
  -34.9078   57.5809   65.0058 O   0  0  0  0  0  0  0  0  0  0  0  0
  -34.3524   59.2790   63.1912 O   0  0  0  0  0  0  0  0  0  0  0  0
  -34.2430   58.5775   62.5302 H   0  0  0  0  0  0  0  0  0  0  0  0
  -35.3936   59.9932   65.3093 O   0  0  0  0  0  0  0  0  0  0  0  0
  -35.3909   61.3641   64.8465 C   0  0  0  0  0  0  0  0  0  0  0  0
  -34.1280   61.9851   65.3991 C   0  0  0  0  0  0  0  0  0  0  0  0
  -33.8015   63.3830   64.9124 N   0  0  0  0  0  0  0  0  0  0  0  0
  -35.0417   64.1225   64.5252 C   0  0  0  0  0  0  0  0  0  0  0  0
  -32.9029   63.3004   63.7202 C   0  0  0  0  0  0  0  0  0  0  0  0
  -33.1104   64.1440   65.9999 C   0  0  0  0  0  0  0  0  0  0  0  0
 34 33  1  0  0  0
 34 35  1  0  0  0
 34 36  1  0  0  0
 34 37  1  0  0  0
 22 23  1  0  0  0
 22 25  1  0  0  0
 22 21  1  0  0  0
 23 24  1  0  0  0
 27 26  1  0  0  0
 27 28  2  0  0  0
 27 31  1  0  0  0
 27 29  1  0  0  0
 25 26  1  0  0  0
 32 33  1  0  0  0
 32 31  1  0  0  0
 29 30  1  0  0  0
 20 21  1  0  0  0
 20  2  1  0  0  0
  1  2  2  0  0  0
  2  3  1  0  0  0
  3  4  1  0  0  0
  4  5  1  0  0  0
  5  6  1  0  0  0
  6  7  1  0  0  0
  7  8  1  0  0  0
  8  9  1  0  0  0
  9 10  1  0  0  0
 10 11  2  0  0  0
 11 12  1  0  0  0
 12 13  1  0  0  0
 13 14  1  0  0  0
 14 15  1  0  0  0
 15 16  1  0  0  0
 16 17  1  0  0  0
 17 18  1  0  0  0
 18 19  1  0  0  0
M  CHG 1  28  -1
M  END
> <minimizedAffinity>
-7.41947

> <CNNscore>
0.6548370719

> <CNNaffinity>
6.5118651390

> <CNN_VS>
4.2642107010

> <CNNaffinity_variance>
0.3447741866

$$$$
