/media/chris/experiments/cd1a-new-docking/inputs/ligands/4x6c_ligand.pdb


 37 36  0  0  0  0  0  0  0  0999 V2000
  -42.2038   57.9635   65.6986 O   0  0  0  0  0  0  0  0  0  0  0  0
  -43.0311   58.7722   65.4079 C   0  0  0  0  0  0  0  0  0  0  0  0
  -44.4014   58.4412   64.9141 C   0  0  0  0  0  0  0  0  0  0  0  0
  -44.9434   57.1496   65.4968 C   0  0  0  0  0  0  0  0  0  0  0  0
  -46.2082   57.3520   66.3028 C   0  0  0  0  0  0  0  0  0  0  0  0
  -47.2156   58.2793   65.6647 C   0  0  0  0  0  0  0  0  0  0  0  0
  -48.2056   57.5809   64.7679 C   0  0  0  0  0  0  0  0  0  0  0  0
  -49.6309   57.9222   65.1106 C   0  0  0  0  0  0  0  0  0  0  0  0
  -49.9056   59.3778   65.3475 C   0  0  0  0  0  0  0  0  0  0  0  0
  -50.9461   59.9255   64.4652 C   0  0  0  0  0  0  0  0  0  0  0  0
  -50.8062   60.3986   63.2464 C   0  0  0  0  0  0  0  0  0  0  0  0
  -49.5652   60.4818   62.4356 C   0  0  0  0  0  0  0  0  0  0  0  0
  -49.5982   59.7432   61.1132 C   0  0  0  0  0  0  0  0  0  0  0  0
  -49.6365   58.2492   61.2826 C   0  0  0  0  0  0  0  0  0  0  0  0
  -50.3744   57.5111   60.1952 C   0  0  0  0  0  0  0  0  0  0  0  0
  -49.4669   57.0858   59.0619 C   0  0  0  0  0  0  0  0  0  0  0  0
  -48.4615   56.0268   59.4190 C   0  0  0  0  0  0  0  0  0  0  0  0
  -47.1419   56.2433   58.7935 C   0  0  0  0  0  0  0  0  0  0  0  0
  -47.1913   57.1159   57.6220 C   0  0  0  0  0  0  0  0  0  0  0  0
  -42.8378   60.0892   65.4782 O   0  0  0  0  0  0  0  0  0  0  0  0
  -41.7892   60.5644   66.3515 C   0  0  0  0  0  0  0  0  0  0  0  0
  -40.7397   61.2081   65.4748 C   0  0  0  0  0  0  0  0  0  0  0  0
  -40.4520   62.5192   65.9612 O   0  0  0  0  0  0  0  0  0  0  0  0
  -40.0705   62.4575   66.8508 H   0  0  0  0  0  0  0  0  0  0  0  0
  -39.4416   60.4452   65.3674 C   0  0  0  0  0  0  0  0  0  0  0  0
  -38.4237   61.1676   66.0891 O   0  0  0  0  0  0  0  0  0  0  0  0
  -37.1225   61.6682   65.3238 P   0  0  0  0  0  0  0  0  0  0  0  0
  -36.1431   60.5635   65.3670 O   0  0  0  0  0  0  0  0  0  0  0  0
  -37.5683   62.1833   64.0143 O   0  0  0  0  0  0  0  0  0  0  0  0
  -37.9467   61.4579   63.4933 H   0  0  0  0  0  0  0  0  0  0  0  0
  -36.5155   62.8937   66.1280 O   0  0  0  0  0  0  0  0  0  0  0  0
  -35.0800   63.0472   66.2256 C   0  0  0  0  0  0  0  0  0  0  0  0
  -34.7542   64.3469   65.5251 C   0  0  0  0  0  0  0  0  0  0  0  0
  -34.1104   64.2271   64.1580 N   0  0  0  0  0  0  0  0  0  0  0  0
  -35.1039   64.4814   63.0703 C   0  0  0  0  0  0  0  0  0  0  0  0
  -33.5550   62.8498   63.9855 C   0  0  0  0  0  0  0  0  0  0  0  0
  -33.0020   65.2253   64.0368 C   0  0  0  0  0  0  0  0  0  0  0  0
 34 33  1  0  0  0
 34 35  1  0  0  0
 34 36  1  0  0  0
 34 37  1  0  0  0
 22 23  1  0  0  0
 22 25  1  0  0  0
 22 21  1  0  0  0
 23 24  1  0  0  0
 27 26  1  0  0  0
 27 28  2  0  0  0
 27 31  1  0  0  0
 27 29  1  0  0  0
 25 26  1  0  0  0
 32 33  1  0  0  0
 32 31  1  0  0  0
 29 30  1  0  0  0
 20 21  1  0  0  0
 20  2  1  0  0  0
  1  2  2  0  0  0
  2  3  1  0  0  0
  3  4  1  0  0  0
  4  5  1  0  0  0
  5  6  1  0  0  0
  6  7  1  0  0  0
  7  8  1  0  0  0
  8  9  1  0  0  0
  9 10  1  0  0  0
 10 11  2  0  0  0
 11 12  1  0  0  0
 12 13  1  0  0  0
 13 14  1  0  0  0
 14 15  1  0  0  0
 15 16  1  0  0  0
 16 17  1  0  0  0
 17 18  1  0  0  0
 18 19  1  0  0  0
M  CHG 1  28  -1
M  END
> <minimizedAffinity>
-8.33625

> <CNNscore>
0.8684060574

> <CNNaffinity>
6.6150155067

> <CNN_VS>
5.7445197105

> <CNNaffinity_variance>
0.3286001086

$$$$
/media/chris/experiments/cd1a-new-docking/inputs/ligands/4x6c_ligand.pdb


 37 36  0  0  0  0  0  0  0  0999 V2000
  -42.1375   58.3304   66.4762 O   0  0  0  0  0  0  0  0  0  0  0  0
  -42.8282   59.0181   65.7887 C   0  0  0  0  0  0  0  0  0  0  0  0
  -44.0653   58.5499   65.0947 C   0  0  0  0  0  0  0  0  0  0  0  0
  -44.4886   57.1560   65.5183 C   0  0  0  0  0  0  0  0  0  0  0  0
  -45.9577   57.0681   65.8710 C   0  0  0  0  0  0  0  0  0  0  0  0
  -46.4839   58.2445   66.6591 C   0  0  0  0  0  0  0  0  0  0  0  0
  -47.5985   58.9905   65.9712 C   0  0  0  0  0  0  0  0  0  0  0  0
  -48.2717   58.1644   64.9083 C   0  0  0  0  0  0  0  0  0  0  0  0
  -49.7677   58.0956   64.9973 C   0  0  0  0  0  0  0  0  0  0  0  0
  -50.3978   59.4017   65.2381 C   0  0  0  0  0  0  0  0  0  0  0  0
  -50.9819   60.1913   64.3638 C   0  0  0  0  0  0  0  0  0  0  0  0
  -51.1770   59.9590   62.9105 C   0  0  0  0  0  0  0  0  0  0  0  0
  -49.9777   60.2579   62.0344 C   0  0  0  0  0  0  0  0  0  0  0  0
  -49.7558   59.2122   60.9762 C   0  0  0  0  0  0  0  0  0  0  0  0
  -50.2372   57.8321   61.3443 C   0  0  0  0  0  0  0  0  0  0  0  0
  -50.1832   56.8676   60.1800 C   0  0  0  0  0  0  0  0  0  0  0  0
  -49.0024   55.9372   60.1826 C   0  0  0  0  0  0  0  0  0  0  0  0
  -48.3397   55.8353   58.8674 C   0  0  0  0  0  0  0  0  0  0  0  0
  -47.9833   57.1321   58.2952 C   0  0  0  0  0  0  0  0  0  0  0  0
  -42.5811   60.3042   65.5401 O   0  0  0  0  0  0  0  0  0  0  0  0
  -41.4882   60.9241   66.2538 C   0  0  0  0  0  0  0  0  0  0  0  0
  -40.7049   61.7353   65.2475 C   0  0  0  0  0  0  0  0  0  0  0  0
  -39.3484   61.8472   65.6786 O   0  0  0  0  0  0  0  0  0  0  0  0
  -38.9426   60.9665   65.7010 H   0  0  0  0  0  0  0  0  0  0  0  0
  -40.7133   61.1883   63.8406 C   0  0  0  0  0  0  0  0  0  0  0  0
  -39.4376   61.4708   63.2308 O   0  0  0  0  0  0  0  0  0  0  0  0
  -38.9890   60.6635   61.9360 P   0  0  0  0  0  0  0  0  0  0  0  0
  -40.0046   60.9173   60.8942 O   0  0  0  0  0  0  0  0  0  0  0  0
  -37.5824   61.0254   61.6727 O   0  0  0  0  0  0  0  0  0  0  0  0
  -37.5264   61.9693   61.4564 H   0  0  0  0  0  0  0  0  0  0  0  0
  -39.0181   59.1156   62.2826 O   0  0  0  0  0  0  0  0  0  0  0  0
  -38.2770   58.6219   63.4232 C   0  0  0  0  0  0  0  0  0  0  0  0
  -37.2378   57.6768   62.8640 C   0  0  0  0  0  0  0  0  0  0  0  0
  -35.8556   57.7613   63.4806 N   0  0  0  0  0  0  0  0  0  0  0  0
  -35.7794   56.9653   64.7437 C   0  0  0  0  0  0  0  0  0  0  0  0
  -35.5342   59.1873   63.7944 C   0  0  0  0  0  0  0  0  0  0  0  0
  -34.8432   57.2274   62.5165 C   0  0  0  0  0  0  0  0  0  0  0  0
 34 33  1  0  0  0
 34 35  1  0  0  0
 34 36  1  0  0  0
 34 37  1  0  0  0
 22 23  1  0  0  0
 22 25  1  0  0  0
 22 21  1  0  0  0
 23 24  1  0  0  0
 27 26  1  0  0  0
 27 28  2  0  0  0
 27 31  1  0  0  0
 27 29  1  0  0  0
 25 26  1  0  0  0
 32 33  1  0  0  0
 32 31  1  0  0  0
 29 30  1  0  0  0
 20 21  1  0  0  0
 20  2  1  0  0  0
  1  2  2  0  0  0
  2  3  1  0  0  0
  3  4  1  0  0  0
  4  5  1  0  0  0
  5  6  1  0  0  0
  6  7  1  0  0  0
  7  8  1  0  0  0
  8  9  1  0  0  0
  9 10  1  0  0  0
 10 11  2  0  0  0
 11 12  1  0  0  0
 12 13  1  0  0  0
 13 14  1  0  0  0
 14 15  1  0  0  0
 15 16  1  0  0  0
 16 17  1  0  0  0
 17 18  1  0  0  0
 18 19  1  0  0  0
M  CHG 1  28  -1
M  END
> <minimizedAffinity>
-8.38413

> <CNNscore>
0.8037442565

> <CNNaffinity>
6.9243569374

> <CNN_VS>
5.5654120445

> <CNNaffinity_variance>
0.3733780384

$$$$
/media/chris/experiments/cd1a-new-docking/inputs/ligands/4x6c_ligand.pdb


 37 36  0  0  0  0  0  0  0  0999 V2000
  -42.8891   57.2049   65.8492 O   0  0  0  0  0  0  0  0  0  0  0  0
  -42.7210   58.3840   65.7835 C   0  0  0  0  0  0  0  0  0  0  0  0
  -43.8064   59.4021   65.9112 C   0  0  0  0  0  0  0  0  0  0  0  0
  -45.0388   59.0571   65.0965 C   0  0  0  0  0  0  0  0  0  0  0  0
  -46.2676   58.8359   65.9519 C   0  0  0  0  0  0  0  0  0  0  0  0
  -46.5819   57.3854   66.2331 C   0  0  0  0  0  0  0  0  0  0  0  0
  -47.6722   56.8170   65.3611 C   0  0  0  0  0  0  0  0  0  0  0  0
  -48.4932   57.8892   64.6965 C   0  0  0  0  0  0  0  0  0  0  0  0
  -49.8870   58.0543   65.2260 C   0  0  0  0  0  0  0  0  0  0  0  0
  -50.3075   59.4590   65.3319 C   0  0  0  0  0  0  0  0  0  0  0  0
  -50.8401   60.2163   64.3983 C   0  0  0  0  0  0  0  0  0  0  0  0
  -51.1765   59.8435   63.0012 C   0  0  0  0  0  0  0  0  0  0  0  0
  -50.1389   60.2095   61.9596 C   0  0  0  0  0  0  0  0  0  0  0  0
  -49.6543   59.0190   61.1785 C   0  0  0  0  0  0  0  0  0  0  0  0
  -50.4564   57.7602   61.3873 C   0  0  0  0  0  0  0  0  0  0  0  0
  -50.3949   56.8274   60.1978 C   0  0  0  0  0  0  0  0  0  0  0  0
  -49.5700   57.3257   59.0442 C   0  0  0  0  0  0  0  0  0  0  0  0
  -48.2075   56.7581   59.0157 C   0  0  0  0  0  0  0  0  0  0  0  0
  -47.4861   57.0430   57.7768 C   0  0  0  0  0  0  0  0  0  0  0  0
  -41.5335   58.9535   65.5777 O   0  0  0  0  0  0  0  0  0  0  0  0
  -41.1976   60.1063   66.3815 C   0  0  0  0  0  0  0  0  0  0  0  0
  -40.3009   60.9866   65.5416 C   0  0  0  0  0  0  0  0  0  0  0  0
  -40.5663   62.3576   65.8386 O   0  0  0  0  0  0  0  0  0  0  0  0
  -40.3421   62.5370   66.7651 H   0  0  0  0  0  0  0  0  0  0  0  0
  -38.8216   60.7404   65.7136 C   0  0  0  0  0  0  0  0  0  0  0  0
  -38.1501   62.0141   65.7895 O   0  0  0  0  0  0  0  0  0  0  0  0
  -36.5995   62.1072   65.4487 P   0  0  0  0  0  0  0  0  0  0  0  0
  -36.4847   62.7635   64.1307 O   0  0  0  0  0  0  0  0  0  0  0  0
  -35.9410   62.7217   66.6181 O   0  0  0  0  0  0  0  0  0  0  0  0
  -36.2649   63.6288   66.7320 H   0  0  0  0  0  0  0  0  0  0  0  0
  -36.0327   60.6316   65.3129 O   0  0  0  0  0  0  0  0  0  0  0  0
  -35.6745   60.1180   64.0085 C   0  0  0  0  0  0  0  0  0  0  0  0
  -36.1591   58.6862   63.9800 C   0  0  0  0  0  0  0  0  0  0  0  0
  -37.3354   58.3958   63.0691 N   0  0  0  0  0  0  0  0  0  0  0  0
  -38.5112   57.9008   63.8484 C   0  0  0  0  0  0  0  0  0  0  0  0
  -36.9496   57.3513   62.0713 C   0  0  0  0  0  0  0  0  0  0  0  0
  -37.7313   59.6457   62.3477 C   0  0  0  0  0  0  0  0  0  0  0  0
 34 33  1  0  0  0
 34 35  1  0  0  0
 34 36  1  0  0  0
 34 37  1  0  0  0
 22 23  1  0  0  0
 22 25  1  0  0  0
 22 21  1  0  0  0
 23 24  1  0  0  0
 27 26  1  0  0  0
 27 28  2  0  0  0
 27 31  1  0  0  0
 27 29  1  0  0  0
 25 26  1  0  0  0
 32 33  1  0  0  0
 32 31  1  0  0  0
 29 30  1  0  0  0
 20 21  1  0  0  0
 20  2  1  0  0  0
  1  2  2  0  0  0
  2  3  1  0  0  0
  3  4  1  0  0  0
  4  5  1  0  0  0
  5  6  1  0  0  0
  6  7  1  0  0  0
  7  8  1  0  0  0
  8  9  1  0  0  0
  9 10  1  0  0  0
 10 11  2  0  0  0
 11 12  1  0  0  0
 12 13  1  0  0  0
 13 14  1  0  0  0
 14 15  1  0  0  0
 15 16  1  0  0  0
 16 17  1  0  0  0
 17 18  1  0  0  0
 18 19  1  0  0  0
M  CHG 1  28  -1
M  END
> <minimizedAffinity>
-8.27829

> <CNNscore>
0.7875706553

> <CNNaffinity>
6.9237947464

> <CNN_VS>
5.4529776573

> <CNNaffinity_variance>
0.3127062321

$$$$
/media/chris/experiments/cd1a-new-docking/inputs/ligands/4x6c_ligand.pdb


 37 36  0  0  0  0  0  0  0  0999 V2000
  -42.4287   60.9337   63.6570 O   0  0  0  0  0  0  0  0  0  0  0  0
  -41.7617   60.1109   64.2056 C   0  0  0  0  0  0  0  0  0  0  0  0
  -42.2622   59.1844   65.2649 C   0  0  0  0  0  0  0  0  0  0  0  0
  -43.7438   59.3519   65.5444 C   0  0  0  0  0  0  0  0  0  0  0  0
  -44.6065   58.4073   64.7359 C   0  0  0  0  0  0  0  0  0  0  0  0
  -44.9386   57.1097   65.4343 C   0  0  0  0  0  0  0  0  0  0  0  0
  -46.3960   56.9640   65.7906 C   0  0  0  0  0  0  0  0  0  0  0  0
  -47.2377   58.0802   65.2328 C   0  0  0  0  0  0  0  0  0  0  0  0
  -48.5292   57.6573   64.5975 C   0  0  0  0  0  0  0  0  0  0  0  0
  -49.7174   58.1465   65.3116 C   0  0  0  0  0  0  0  0  0  0  0  0
  -50.4465   59.2058   65.0375 C   0  0  0  0  0  0  0  0  0  0  0  0
  -50.2732   60.1705   63.9223 C   0  0  0  0  0  0  0  0  0  0  0  0
  -51.1192   59.9072   62.6934 C   0  0  0  0  0  0  0  0  0  0  0  0
  -50.3564   59.2088   61.6013 C   0  0  0  0  0  0  0  0  0  0  0  0
  -50.4750   57.7063   61.6125 C   0  0  0  0  0  0  0  0  0  0  0  0
  -50.2960   57.0985   60.2387 C   0  0  0  0  0  0  0  0  0  0  0  0
  -49.3713   55.9144   60.1856 C   0  0  0  0  0  0  0  0  0  0  0  0
  -48.1391   56.1731   59.4149 C   0  0  0  0  0  0  0  0  0  0  0  0
  -48.2971   57.2126   58.3997 C   0  0  0  0  0  0  0  0  0  0  0  0
  -40.4686   59.9131   63.9492 O   0  0  0  0  0  0  0  0  0  0  0  0
  -39.5649   59.8621   65.0756 C   0  0  0  0  0  0  0  0  0  0  0  0
  -38.8779   61.2061   65.1543 C   0  0  0  0  0  0  0  0  0  0  0  0
  -39.6984   62.1180   65.8846 O   0  0  0  0  0  0  0  0  0  0  0  0
  -39.7984   61.8038   66.7968 H   0  0  0  0  0  0  0  0  0  0  0  0
  -37.5078   61.1870   65.7875 C   0  0  0  0  0  0  0  0  0  0  0  0
  -36.9596   62.5196   65.7355 O   0  0  0  0  0  0  0  0  0  0  0  0
  -35.3959   62.7348   65.9300 P   0  0  0  0  0  0  0  0  0  0  0  0
  -35.1704   64.1897   66.0462 O   0  0  0  0  0  0  0  0  0  0  0  0
  -34.9771   61.8513   67.0359 O   0  0  0  0  0  0  0  0  0  0  0  0
  -35.4101   62.1334   67.8567 H   0  0  0  0  0  0  0  0  0  0  0  0
  -34.6593   62.2274   64.6196 O   0  0  0  0  0  0  0  0  0  0  0  0
  -33.8138   61.0547   64.6806 C   0  0  0  0  0  0  0  0  0  0  0  0
  -34.5798   59.9553   63.9803 C   0  0  0  0  0  0  0  0  0  0  0  0
  -33.9103   58.5960   63.9372 N   0  0  0  0  0  0  0  0  0  0  0  0
  -32.8494   58.5510   62.8849 C   0  0  0  0  0  0  0  0  0  0  0  0
  -34.9299   57.5456   63.6330 C   0  0  0  0  0  0  0  0  0  0  0  0
  -33.2816   58.3046   65.2635 C   0  0  0  0  0  0  0  0  0  0  0  0
 34 33  1  0  0  0
 34 35  1  0  0  0
 34 36  1  0  0  0
 34 37  1  0  0  0
 22 23  1  0  0  0
 22 25  1  0  0  0
 22 21  1  0  0  0
 23 24  1  0  0  0
 27 26  1  0  0  0
 27 28  2  0  0  0
 27 31  1  0  0  0
 27 29  1  0  0  0
 25 26  1  0  0  0
 32 33  1  0  0  0
 32 31  1  0  0  0
 29 30  1  0  0  0
 20 21  1  0  0  0
 20  2  1  0  0  0
  1  2  2  0  0  0
  2  3  1  0  0  0
  3  4  1  0  0  0
  4  5  1  0  0  0
  5  6  1  0  0  0
  6  7  1  0  0  0
  7  8  1  0  0  0
  8  9  1  0  0  0
  9 10  1  0  0  0
 10 11  2  0  0  0
 11 12  1  0  0  0
 12 13  1  0  0  0
 13 14  1  0  0  0
 14 15  1  0  0  0
 15 16  1  0  0  0
 16 17  1  0  0  0
 17 18  1  0  0  0
 18 19  1  0  0  0
M  CHG 1  28  -1
M  END
> <minimizedAffinity>
-7.99769

> <CNNscore>
0.7367629409

> <CNNaffinity>
6.5777077675

> <CNN_VS>
4.8462114334

> <CNNaffinity_variance>
0.2640232444

$$$$
/media/chris/experiments/cd1a-new-docking/inputs/ligands/4x6c_ligand.pdb


 37 36  0  0  0  0  0  0  0  0999 V2000
  -42.5863   57.3938   66.1008 O   0  0  0  0  0  0  0  0  0  0  0  0
  -42.4832   58.4641   65.5845 C   0  0  0  0  0  0  0  0  0  0  0  0
  -43.6284   59.3794   65.2982 C   0  0  0  0  0  0  0  0  0  0  0  0
  -44.8946   58.6385   64.9120 C   0  0  0  0  0  0  0  0  0  0  0  0
  -46.0558   58.9348   65.8363 C   0  0  0  0  0  0  0  0  0  0  0  0
  -46.8274   60.1866   65.4909 C   0  0  0  0  0  0  0  0  0  0  0  0
  -48.2583   59.9310   65.0919 C   0  0  0  0  0  0  0  0  0  0  0  0
  -48.7394   60.8887   64.0352 C   0  0  0  0  0  0  0  0  0  0  0  0
  -50.0804   60.5725   63.4417 C   0  0  0  0  0  0  0  0  0  0  0  0
  -50.3932   59.1361   63.4409 C   0  0  0  0  0  0  0  0  0  0  0  0
  -50.4246   58.3159   62.4138 C   0  0  0  0  0  0  0  0  0  0  0  0
  -50.1303   58.6218   60.9911 C   0  0  0  0  0  0  0  0  0  0  0  0
  -50.2533   57.4546   60.0330 C   0  0  0  0  0  0  0  0  0  0  0  0
  -49.2985   56.3371   60.3525 C   0  0  0  0  0  0  0  0  0  0  0  0
  -48.5603   55.7803   59.1623 C   0  0  0  0  0  0  0  0  0  0  0  0
  -48.6655   56.6709   57.9439 C   0  0  0  0  0  0  0  0  0  0  0  0
  -48.2268   56.0346   56.6545 C   0  0  0  0  0  0  0  0  0  0  0  0
  -46.7868   56.2090   56.3804 C   0  0  0  0  0  0  0  0  0  0  0  0
  -46.1632   57.2506   57.1943 C   0  0  0  0  0  0  0  0  0  0  0  0
  -41.3238   58.9860   65.1843 O   0  0  0  0  0  0  0  0  0  0  0  0
  -41.2670   60.4169   64.9911 C   0  0  0  0  0  0  0  0  0  0  0  0
  -40.6403   60.6570   63.6368 C   0  0  0  0  0  0  0  0  0  0  0  0
  -41.4469   61.5716   62.8944 O   0  0  0  0  0  0  0  0  0  0  0  0
  -41.4645   62.4288   63.3478 H   0  0  0  0  0  0  0  0  0  0  0  0
  -39.2279   61.1886   63.6718 C   0  0  0  0  0  0  0  0  0  0  0  0
  -38.8918   61.5089   65.0369 O   0  0  0  0  0  0  0  0  0  0  0  0
  -37.3741   61.4475   65.5083 P   0  0  0  0  0  0  0  0  0  0  0  0
  -36.8947   62.8410   65.6063 O   0  0  0  0  0  0  0  0  0  0  0  0
  -37.3332   60.5867   66.7067 O   0  0  0  0  0  0  0  0  0  0  0  0
  -37.8393   61.0034   67.4215 H   0  0  0  0  0  0  0  0  0  0  0  0
  -36.5334   60.7179   64.3777 O   0  0  0  0  0  0  0  0  0  0  0  0
  -35.1723   60.3081   64.6478 C   0  0  0  0  0  0  0  0  0  0  0  0
  -34.7887   59.3773   63.5199 C   0  0  0  0  0  0  0  0  0  0  0  0
  -33.4150   58.7432   63.6133 N   0  0  0  0  0  0  0  0  0  0  0  0
  -33.1071   58.3286   65.0162 C   0  0  0  0  0  0  0  0  0  0  0  0
  -32.3795   59.7250   63.1671 C   0  0  0  0  0  0  0  0  0  0  0  0
  -33.3603   57.5337   62.7338 C   0  0  0  0  0  0  0  0  0  0  0  0
 34 33  1  0  0  0
 34 35  1  0  0  0
 34 36  1  0  0  0
 34 37  1  0  0  0
 22 23  1  0  0  0
 22 25  1  0  0  0
 22 21  1  0  0  0
 23 24  1  0  0  0
 27 26  1  0  0  0
 27 28  2  0  0  0
 27 31  1  0  0  0
 27 29  1  0  0  0
 25 26  1  0  0  0
 32 33  1  0  0  0
 32 31  1  0  0  0
 29 30  1  0  0  0
 20 21  1  0  0  0
 20  2  1  0  0  0
  1  2  2  0  0  0
  2  3  1  0  0  0
  3  4  1  0  0  0
  4  5  1  0  0  0
  5  6  1  0  0  0
  6  7  1  0  0  0
  7  8  1  0  0  0
  8  9  1  0  0  0
  9 10  1  0  0  0
 10 11  2  0  0  0
 11 12  1  0  0  0
 12 13  1  0  0  0
 13 14  1  0  0  0
 14 15  1  0  0  0
 15 16  1  0  0  0
 16 17  1  0  0  0
 17 18  1  0  0  0
 18 19  1  0  0  0
M  CHG 1  28  -1
M  END
> <minimizedAffinity>
-7.62864

> <CNNscore>
0.7212553620

> <CNNaffinity>
6.5487403870

> <CNN_VS>
4.7233142853

> <CNNaffinity_variance>
0.6172714829

$$$$
/media/chris/experiments/cd1a-new-docking/inputs/ligands/4x6c_ligand.pdb


 37 36  0  0  0  0  0  0  0  0999 V2000
  -41.4522   62.0454   64.5467 O   0  0  0  0  0  0  0  0  0  0  0  0
  -41.0202   61.1099   65.1476 C   0  0  0  0  0  0  0  0  0  0  0  0
  -41.4554   59.6963   64.9397 C   0  0  0  0  0  0  0  0  0  0  0  0
  -42.4892   59.2414   65.9524 C   0  0  0  0  0  0  0  0  0  0  0  0
  -43.9109   59.4481   65.4766 C   0  0  0  0  0  0  0  0  0  0  0  0
  -44.4712   58.3053   64.6631 C   0  0  0  0  0  0  0  0  0  0  0  0
  -44.7920   57.0771   65.4760 C   0  0  0  0  0  0  0  0  0  0  0  0
  -46.2579   56.9700   65.8001 C   0  0  0  0  0  0  0  0  0  0  0  0
  -47.1182   58.0767   65.2659 C   0  0  0  0  0  0  0  0  0  0  0  0
  -48.5048   57.6632   65.0061 C   0  0  0  0  0  0  0  0  0  0  0  0
  -49.3316   58.1318   64.0974 C   0  0  0  0  0  0  0  0  0  0  0  0
  -49.0728   59.1842   63.0827 C   0  0  0  0  0  0  0  0  0  0  0  0
  -49.9087   59.0958   61.8221 C   0  0  0  0  0  0  0  0  0  0  0  0
  -50.7872   57.8753   61.7915 C   0  0  0  0  0  0  0  0  0  0  0  0
  -50.7825   57.1291   60.4820 C   0  0  0  0  0  0  0  0  0  0  0  0
  -49.4060   56.6294   60.1023 C   0  0  0  0  0  0  0  0  0  0  0  0
  -48.7732   57.3399   58.9384 C   0  0  0  0  0  0  0  0  0  0  0  0
  -48.0932   56.4261   57.9993 C   0  0  0  0  0  0  0  0  0  0  0  0
  -47.1699   55.5021   58.6548 C   0  0  0  0  0  0  0  0  0  0  0  0
  -40.0898   61.2041   66.0975 O   0  0  0  0  0  0  0  0  0  0  0  0
  -38.7818   60.6631   65.8069 C   0  0  0  0  0  0  0  0  0  0  0  0
  -37.9414   61.7988   65.2701 C   0  0  0  0  0  0  0  0  0  0  0  0
  -36.7905   61.9715   66.0971 O   0  0  0  0  0  0  0  0  0  0  0  0
  -36.2393   61.1745   66.0547 H   0  0  0  0  0  0  0  0  0  0  0  0
  -37.4806   61.6330   63.8423 C   0  0  0  0  0  0  0  0  0  0  0  0
  -38.6234   61.7646   62.9730 O   0  0  0  0  0  0  0  0  0  0  0  0
  -38.9567   60.6094   61.9319 P   0  0  0  0  0  0  0  0  0  0  0  0
  -40.3466   60.8219   61.4800 O   0  0  0  0  0  0  0  0  0  0  0  0
  -37.8686   60.6059   60.9345 O   0  0  0  0  0  0  0  0  0  0  0  0
  -37.8752   61.4437   60.4458 H   0  0  0  0  0  0  0  0  0  0  0  0
  -38.8964   59.2207   62.6968 O   0  0  0  0  0  0  0  0  0  0  0  0
  -38.0081   58.1803   62.2256 C   0  0  0  0  0  0  0  0  0  0  0  0
  -37.5020   57.4759   63.4639 C   0  0  0  0  0  0  0  0  0  0  0  0
  -36.0080   57.5459   63.7102 N   0  0  0  0  0  0  0  0  0  0  0  0
  -35.5617   58.9573   63.9190 C   0  0  0  0  0  0  0  0  0  0  0  0
  -35.2798   56.9839   62.5316 C   0  0  0  0  0  0  0  0  0  0  0  0
  -35.6631   56.7496   64.9294 C   0  0  0  0  0  0  0  0  0  0  0  0
 34 33  1  0  0  0
 34 35  1  0  0  0
 34 36  1  0  0  0
 34 37  1  0  0  0
 22 23  1  0  0  0
 22 25  1  0  0  0
 22 21  1  0  0  0
 23 24  1  0  0  0
 27 26  1  0  0  0
 27 28  2  0  0  0
 27 31  1  0  0  0
 27 29  1  0  0  0
 25 26  1  0  0  0
 32 33  1  0  0  0
 32 31  1  0  0  0
 29 30  1  0  0  0
 20 21  1  0  0  0
 20  2  1  0  0  0
  1  2  2  0  0  0
  2  3  1  0  0  0
  3  4  1  0  0  0
  4  5  1  0  0  0
  5  6  1  0  0  0
  6  7  1  0  0  0
  7  8  1  0  0  0
  8  9  1  0  0  0
  9 10  1  0  0  0
 10 11  2  0  0  0
 11 12  1  0  0  0
 12 13  1  0  0  0
 13 14  1  0  0  0
 14 15  1  0  0  0
 15 16  1  0  0  0
 16 17  1  0  0  0
 17 18  1  0  0  0
 18 19  1  0  0  0
M  CHG 1  28  -1
M  END
> <minimizedAffinity>
-7.75134

> <CNNscore>
0.7114753127

> <CNNaffinity>
6.9203882217

> <CNN_VS>
4.9236855507

> <CNNaffinity_variance>
0.3343651891

$$$$
/media/chris/experiments/cd1a-new-docking/inputs/ligands/4x6c_ligand.pdb


 37 36  0  0  0  0  0  0  0  0999 V2000
  -41.6815   58.3404   65.9230 O   0  0  0  0  0  0  0  0  0  0  0  0
  -41.8360   59.4555   65.5286 C   0  0  0  0  0  0  0  0  0  0  0  0
  -43.0895   59.9628   64.8943 C   0  0  0  0  0  0  0  0  0  0  0  0
  -44.2322   58.9675   64.9653 C   0  0  0  0  0  0  0  0  0  0  0  0
  -45.1589   59.2168   66.1356 C   0  0  0  0  0  0  0  0  0  0  0  0
  -46.4951   58.5194   66.0358 C   0  0  0  0  0  0  0  0  0  0  0  0
  -47.3943   59.0740   64.9606 C   0  0  0  0  0  0  0  0  0  0  0  0
  -48.3071   58.0278   64.3795 C   0  0  0  0  0  0  0  0  0  0  0  0
  -49.7187   58.0511   64.8867 C   0  0  0  0  0  0  0  0  0  0  0  0
  -50.2499   59.4096   65.0693 C   0  0  0  0  0  0  0  0  0  0  0  0
  -50.8302   60.1781   64.1741 C   0  0  0  0  0  0  0  0  0  0  0  0
  -51.1205   59.8654   62.7520 C   0  0  0  0  0  0  0  0  0  0  0  0
  -49.9669   60.0657   61.7905 C   0  0  0  0  0  0  0  0  0  0  0  0
  -49.9613   59.0602   60.6719 C   0  0  0  0  0  0  0  0  0  0  0  0
  -49.8574   57.6239   61.1171 C   0  0  0  0  0  0  0  0  0  0  0  0
  -48.9263   56.8107   60.2451 C   0  0  0  0  0  0  0  0  0  0  0  0
  -48.9655   57.1559   58.7825 C   0  0  0  0  0  0  0  0  0  0  0  0
  -47.7307   56.7841   58.0639 C   0  0  0  0  0  0  0  0  0  0  0  0
  -47.0361   55.6426   58.6562 C   0  0  0  0  0  0  0  0  0  0  0  0
  -40.8998   60.4021   65.5952 O   0  0  0  0  0  0  0  0  0  0  0  0
  -39.5574   60.0424   65.1996 C   0  0  0  0  0  0  0  0  0  0  0  0
  -38.7632   61.3252   65.1086 C   0  0  0  0  0  0  0  0  0  0  0  0
  -39.4200   62.3460   65.8601 O   0  0  0  0  0  0  0  0  0  0  0  0
  -39.4379   62.0968   66.7973 H   0  0  0  0  0  0  0  0  0  0  0  0
  -37.3347   61.2272   65.5864 C   0  0  0  0  0  0  0  0  0  0  0  0
  -36.9332   62.5136   66.0994 O   0  0  0  0  0  0  0  0  0  0  0  0
  -35.3888   62.8282   66.3120 P   0  0  0  0  0  0  0  0  0  0  0  0
  -35.2014   64.2703   66.0544 O   0  0  0  0  0  0  0  0  0  0  0  0
  -35.0184   62.2790   67.6311 O   0  0  0  0  0  0  0  0  0  0  0  0
  -35.5056   62.7494   68.3256 H   0  0  0  0  0  0  0  0  0  0  0  0
  -34.5646   62.0238   65.2208 O   0  0  0  0  0  0  0  0  0  0  0  0
  -34.2459   62.6509   63.9564 C   0  0  0  0  0  0  0  0  0  0  0  0
  -32.7731   62.9863   64.0202 C   0  0  0  0  0  0  0  0  0  0  0  0
  -32.3844   64.3813   63.5722 N   0  0  0  0  0  0  0  0  0  0  0  0
  -33.4974   65.0346   62.8175 C   0  0  0  0  0  0  0  0  0  0  0  0
  -31.1846   64.3052   62.6833 C   0  0  0  0  0  0  0  0  0  0  0  0
  -32.0604   65.2199   64.7685 C   0  0  0  0  0  0  0  0  0  0  0  0
 34 33  1  0  0  0
 34 35  1  0  0  0
 34 36  1  0  0  0
 34 37  1  0  0  0
 22 23  1  0  0  0
 22 25  1  0  0  0
 22 21  1  0  0  0
 23 24  1  0  0  0
 27 26  1  0  0  0
 27 28  2  0  0  0
 27 31  1  0  0  0
 27 29  1  0  0  0
 25 26  1  0  0  0
 32 33  1  0  0  0
 32 31  1  0  0  0
 29 30  1  0  0  0
 20 21  1  0  0  0
 20  2  1  0  0  0
  1  2  2  0  0  0
  2  3  1  0  0  0
  3  4  1  0  0  0
  4  5  1  0  0  0
  5  6  1  0  0  0
  6  7  1  0  0  0
  7  8  1  0  0  0
  8  9  1  0  0  0
  9 10  1  0  0  0
 10 11  2  0  0  0
 11 12  1  0  0  0
 12 13  1  0  0  0
 13 14  1  0  0  0
 14 15  1  0  0  0
 15 16  1  0  0  0
 16 17  1  0  0  0
 17 18  1  0  0  0
 18 19  1  0  0  0
M  CHG 1  28  -1
M  END
> <minimizedAffinity>
-8.21133

> <CNNscore>
0.6965569854

> <CNNaffinity>
6.1651515961

> <CNN_VS>
4.2943792343

> <CNNaffinity_variance>
0.2467094213

$$$$
/media/chris/experiments/cd1a-new-docking/inputs/ligands/4x6c_ligand.pdb


 37 36  0  0  0  0  0  0  0  0999 V2000
  -42.3691   61.1562   63.6553 O   0  0  0  0  0  0  0  0  0  0  0  0
  -41.7308   60.3397   64.2459 C   0  0  0  0  0  0  0  0  0  0  0  0
  -42.3097   59.3197   65.1709 C   0  0  0  0  0  0  0  0  0  0  0  0
  -43.7960   59.5117   65.4063 C   0  0  0  0  0  0  0  0  0  0  0  0
  -44.6439   58.4845   64.6877 C   0  0  0  0  0  0  0  0  0  0  0  0
  -44.7912   57.1715   65.4197 C   0  0  0  0  0  0  0  0  0  0  0  0
  -46.1732   56.9325   65.9722 C   0  0  0  0  0  0  0  0  0  0  0  0
  -47.1811   57.9171   65.4431 C   0  0  0  0  0  0  0  0  0  0  0  0
  -48.4503   57.3178   64.9135 C   0  0  0  0  0  0  0  0  0  0  0  0
  -49.5724   58.2669   64.8780 C   0  0  0  0  0  0  0  0  0  0  0  0
  -50.1514   58.7954   63.8224 C   0  0  0  0  0  0  0  0  0  0  0  0
  -49.8378   58.5539   62.3915 C   0  0  0  0  0  0  0  0  0  0  0  0
  -50.9338   57.8864   61.5862 C   0  0  0  0  0  0  0  0  0  0  0  0
  -50.4011   57.0952   60.4232 C   0  0  0  0  0  0  0  0  0  0  0  0
  -48.9787   56.6227   60.5822 C   0  0  0  0  0  0  0  0  0  0  0  0
  -48.5110   55.7824   59.4143 C   0  0  0  0  0  0  0  0  0  0  0  0
  -47.1778   56.1778   58.8433 C   0  0  0  0  0  0  0  0  0  0  0  0
  -47.2890   57.0330   57.6452 C   0  0  0  0  0  0  0  0  0  0  0  0
  -46.9926   56.3281   56.3996 C   0  0  0  0  0  0  0  0  0  0  0  0
  -40.4045   60.2337   64.1639 O   0  0  0  0  0  0  0  0  0  0  0  0
  -39.7144   61.1514   63.2867 C   0  0  0  0  0  0  0  0  0  0  0  0
  -39.6681   60.5083   61.9197 C   0  0  0  0  0  0  0  0  0  0  0  0
  -40.4494   61.2774   61.0051 O   0  0  0  0  0  0  0  0  0  0  0  0
  -40.0592   62.1603   60.9096 H   0  0  0  0  0  0  0  0  0  0  0  0
  -38.2849   60.3402   61.3393 C   0  0  0  0  0  0  0  0  0  0  0  0
  -38.0379   58.9335   61.1417 O   0  0  0  0  0  0  0  0  0  0  0  0
  -37.0444   58.1648   62.1172 P   0  0  0  0  0  0  0  0  0  0  0  0
  -37.7101   56.9059   62.5087 O   0  0  0  0  0  0  0  0  0  0  0  0
  -35.7367   58.1052   61.4353 O   0  0  0  0  0  0  0  0  0  0  0  0
  -35.8166   57.5725   60.6287 H   0  0  0  0  0  0  0  0  0  0  0  0
  -36.8528   59.0450   63.4232 O   0  0  0  0  0  0  0  0  0  0  0  0
  -35.5370   59.5374   63.7696 C   0  0  0  0  0  0  0  0  0  0  0  0
  -35.6978   60.2537   65.0913 C   0  0  0  0  0  0  0  0  0  0  0  0
  -35.3946   61.7388   65.0890 N   0  0  0  0  0  0  0  0  0  0  0  0
  -35.5960   62.3322   66.4463 C   0  0  0  0  0  0  0  0  0  0  0  0
  -36.3020   62.4331   64.1246 C   0  0  0  0  0  0  0  0  0  0  0  0
  -33.9732   61.9596   64.6762 C   0  0  0  0  0  0  0  0  0  0  0  0
 34 33  1  0  0  0
 34 35  1  0  0  0
 34 36  1  0  0  0
 34 37  1  0  0  0
 22 23  1  0  0  0
 22 25  1  0  0  0
 22 21  1  0  0  0
 23 24  1  0  0  0
 27 26  1  0  0  0
 27 28  2  0  0  0
 27 31  1  0  0  0
 27 29  1  0  0  0
 25 26  1  0  0  0
 32 33  1  0  0  0
 32 31  1  0  0  0
 29 30  1  0  0  0
 20 21  1  0  0  0
 20  2  1  0  0  0
  1  2  2  0  0  0
  2  3  1  0  0  0
  3  4  1  0  0  0
  4  5  1  0  0  0
  5  6  1  0  0  0
  6  7  1  0  0  0
  7  8  1  0  0  0
  8  9  1  0  0  0
  9 10  1  0  0  0
 10 11  2  0  0  0
 11 12  1  0  0  0
 12 13  1  0  0  0
 13 14  1  0  0  0
 14 15  1  0  0  0
 15 16  1  0  0  0
 16 17  1  0  0  0
 17 18  1  0  0  0
 18 19  1  0  0  0
M  CHG 1  28  -1
M  END
> <minimizedAffinity>
-7.74872

> <CNNscore>
0.6882316470

> <CNNaffinity>
6.7142486572

> <CNN_VS>
4.6209583282

> <CNNaffinity_variance>
0.6135711074

$$$$
/media/chris/experiments/cd1a-new-docking/inputs/ligands/4x6c_ligand.pdb


 37 36  0  0  0  0  0  0  0  0999 V2000
  -42.9122   57.6505   65.4053 O   0  0  0  0  0  0  0  0  0  0  0  0
  -42.9619   58.8405   65.4700 C   0  0  0  0  0  0  0  0  0  0  0  0
  -44.1766   59.6168   65.8610 C   0  0  0  0  0  0  0  0  0  0  0  0
  -45.3999   58.7410   66.0564 C   0  0  0  0  0  0  0  0  0  0  0  0
  -46.6322   59.2882   65.3691 C   0  0  0  0  0  0  0  0  0  0  0  0
  -47.3581   58.2905   64.4977 C   0  0  0  0  0  0  0  0  0  0  0  0
  -48.7178   57.9008   65.0187 C   0  0  0  0  0  0  0  0  0  0  0  0
  -49.5214   59.0900   65.4720 C   0  0  0  0  0  0  0  0  0  0  0  0
  -49.7120   60.1676   64.4460 C   0  0  0  0  0  0  0  0  0  0  0  0
  -50.9857   60.0618   63.7196 C   0  0  0  0  0  0  0  0  0  0  0  0
  -51.1761   59.7031   62.4690 C   0  0  0  0  0  0  0  0  0  0  0  0
  -50.1567   59.2898   61.4719 C   0  0  0  0  0  0  0  0  0  0  0  0
  -50.2116   57.8370   61.0453 C   0  0  0  0  0  0  0  0  0  0  0  0
  -49.4633   57.5780   59.7666 C   0  0  0  0  0  0  0  0  0  0  0  0
  -48.2586   56.6840   59.9122 C   0  0  0  0  0  0  0  0  0  0  0  0
  -47.3825   56.6831   58.6789 C   0  0  0  0  0  0  0  0  0  0  0  0
  -47.1552   55.3301   58.0644 C   0  0  0  0  0  0  0  0  0  0  0  0
  -47.2733   55.3325   56.5929 C   0  0  0  0  0  0  0  0  0  0  0  0
  -47.8119   56.5807   56.0561 C   0  0  0  0  0  0  0  0  0  0  0  0
  -41.9338   59.6420   65.1918 O   0  0  0  0  0  0  0  0  0  0  0  0
  -42.0504   60.5007   64.0356 C   0  0  0  0  0  0  0  0  0  0  0  0
  -40.8968   61.4758   64.0891 C   0  0  0  0  0  0  0  0  0  0  0  0
  -40.9269   62.1810   65.3300 O   0  0  0  0  0  0  0  0  0  0  0  0
  -40.7960   61.5562   66.0603 H   0  0  0  0  0  0  0  0  0  0  0  0
  -39.5296   60.8571   63.9265 C   0  0  0  0  0  0  0  0  0  0  0  0
  -39.5320   60.0450   62.7351 O   0  0  0  0  0  0  0  0  0  0  0  0
  -38.1640   59.4443   62.1901 P   0  0  0  0  0  0  0  0  0  0  0  0
  -38.0770   58.0533   62.6787 O   0  0  0  0  0  0  0  0  0  0  0  0
  -38.1343   59.6992   60.7365 O   0  0  0  0  0  0  0  0  0  0  0  0
  -38.8539   59.2101   60.3076 H   0  0  0  0  0  0  0  0  0  0  0  0
  -36.9702   60.2664   62.8350 O   0  0  0  0  0  0  0  0  0  0  0  0
  -36.0892   59.6247   63.7867 C   0  0  0  0  0  0  0  0  0  0  0  0
  -36.1554   60.4635   65.0428 C   0  0  0  0  0  0  0  0  0  0  0  0
  -35.2095   61.6462   65.1083 N   0  0  0  0  0  0  0  0  0  0  0  0
  -33.9721   61.3915   64.3090 C   0  0  0  0  0  0  0  0  0  0  0  0
  -34.8175   61.8953   66.5294 C   0  0  0  0  0  0  0  0  0  0  0  0
  -35.8895   62.8627   64.5631 C   0  0  0  0  0  0  0  0  0  0  0  0
 34 33  1  0  0  0
 34 35  1  0  0  0
 34 36  1  0  0  0
 34 37  1  0  0  0
 22 23  1  0  0  0
 22 25  1  0  0  0
 22 21  1  0  0  0
 23 24  1  0  0  0
 27 26  1  0  0  0
 27 28  2  0  0  0
 27 31  1  0  0  0
 27 29  1  0  0  0
 25 26  1  0  0  0
 32 33  1  0  0  0
 32 31  1  0  0  0
 29 30  1  0  0  0
 20 21  1  0  0  0
 20  2  1  0  0  0
  1  2  2  0  0  0
  2  3  1  0  0  0
  3  4  1  0  0  0
  4  5  1  0  0  0
  5  6  1  0  0  0
  6  7  1  0  0  0
  7  8  1  0  0  0
  8  9  1  0  0  0
  9 10  1  0  0  0
 10 11  2  0  0  0
 11 12  1  0  0  0
 12 13  1  0  0  0
 13 14  1  0  0  0
 14 15  1  0  0  0
 15 16  1  0  0  0
 16 17  1  0  0  0
 17 18  1  0  0  0
 18 19  1  0  0  0
M  CHG 1  28  -1
M  END
> <minimizedAffinity>
-7.80863

> <CNNscore>
0.6514554620

> <CNNaffinity>
6.5522675514

> <CNN_VS>
4.2685103416

> <CNNaffinity_variance>
0.3466787040

$$$$
