/media/chris/experiments/cd1a-new-docking/inputs/ligands/4x6c_ligand.pdb


 37 36  0  0  0  0  0  0  0  0999 V2000
  -42.0501   58.0128   66.0070 O   0  0  0  0  0  0  0  0  0  0  0  0
  -42.8214   58.7998   65.5502 C   0  0  0  0  0  0  0  0  0  0  0  0
  -44.1470   58.4420   64.9619 C   0  0  0  0  0  0  0  0  0  0  0  0
  -44.6255   57.0639   65.3784 C   0  0  0  0  0  0  0  0  0  0  0  0
  -46.0512   57.0638   65.8863 C   0  0  0  0  0  0  0  0  0  0  0  0
  -46.5886   58.4296   66.2437 C   0  0  0  0  0  0  0  0  0  0  0  0
  -47.5452   58.9948   65.2250 C   0  0  0  0  0  0  0  0  0  0  0  0
  -48.4085   57.9335   64.5975 C   0  0  0  0  0  0  0  0  0  0  0  0
  -49.8648   57.9951   64.9523 C   0  0  0  0  0  0  0  0  0  0  0  0
  -50.3649   59.3665   65.1258 C   0  0  0  0  0  0  0  0  0  0  0  0
  -50.8913   60.1566   64.2163 C   0  0  0  0  0  0  0  0  0  0  0  0
  -51.1384   59.8614   62.7823 C   0  0  0  0  0  0  0  0  0  0  0  0
  -49.9293   59.9688   61.8757 C   0  0  0  0  0  0  0  0  0  0  0  0
  -49.9480   58.9605   60.7598 C   0  0  0  0  0  0  0  0  0  0  0  0
  -50.0189   57.5240   61.2105 C   0  0  0  0  0  0  0  0  0  0  0  0
  -49.1109   56.6176   60.4089 C   0  0  0  0  0  0  0  0  0  0  0  0
  -48.7224   57.1458   59.0561 C   0  0  0  0  0  0  0  0  0  0  0  0
  -47.4685   56.5610   58.5416 C   0  0  0  0  0  0  0  0  0  0  0  0
  -47.0333   57.1446   57.2744 C   0  0  0  0  0  0  0  0  0  0  0  0
  -42.5971   60.1127   65.4964 O   0  0  0  0  0  0  0  0  0  0  0  0
  -41.3898   60.6096   66.1156 C   0  0  0  0  0  0  0  0  0  0  0  0
  -40.8686   61.7249   65.2389 C   0  0  0  0  0  0  0  0  0  0  0  0
  -39.5975   62.1574   65.7242 O   0  0  0  0  0  0  0  0  0  0  0  0
  -38.9603   61.4294   65.6551 H   0  0  0  0  0  0  0  0  0  0  0  0
  -40.7258   61.3752   63.7776 C   0  0  0  0  0  0  0  0  0  0  0  0
  -39.3228   61.2425   63.4723 O   0  0  0  0  0  0  0  0  0  0  0  0
  -38.8760   60.7219   62.0376 P   0  0  0  0  0  0  0  0  0  0  0  0
  -39.9870   61.0085   61.1077 O   0  0  0  0  0  0  0  0  0  0  0  0
  -37.5451   61.3009   61.7683 O   0  0  0  0  0  0  0  0  0  0  0  0
  -37.6176   62.2667   61.7137 H   0  0  0  0  0  0  0  0  0  0  0  0
  -38.6954   59.1476   62.1159 O   0  0  0  0  0  0  0  0  0  0  0  0
  -37.4879   58.5378   61.6021 C   0  0  0  0  0  0  0  0  0  0  0  0
  -37.1240   57.4483   62.5850 C   0  0  0  0  0  0  0  0  0  0  0  0
  -35.8175   57.6298   63.3318 N   0  0  0  0  0  0  0  0  0  0  0  0
  -35.8682   56.9735   64.6741 C   0  0  0  0  0  0  0  0  0  0  0  0
  -35.5489   59.0881   63.5229 C   0  0  0  0  0  0  0  0  0  0  0  0
  -34.7006   57.0211   62.5435 C   0  0  0  0  0  0  0  0  0  0  0  0
 34 33  1  0  0  0
 34 35  1  0  0  0
 34 36  1  0  0  0
 34 37  1  0  0  0
 22 23  1  0  0  0
 22 25  1  0  0  0
 22 21  1  0  0  0
 23 24  1  0  0  0
 27 26  1  0  0  0
 27 28  2  0  0  0
 27 31  1  0  0  0
 27 29  1  0  0  0
 25 26  1  0  0  0
 32 33  1  0  0  0
 32 31  1  0  0  0
 29 30  1  0  0  0
 20 21  1  0  0  0
 20  2  1  0  0  0
  1  2  2  0  0  0
  2  3  1  0  0  0
  3  4  1  0  0  0
  4  5  1  0  0  0
  5  6  1  0  0  0
  6  7  1  0  0  0
  7  8  1  0  0  0
  8  9  1  0  0  0
  9 10  1  0  0  0
 10 11  2  0  0  0
 11 12  1  0  0  0
 12 13  1  0  0  0
 13 14  1  0  0  0
 14 15  1  0  0  0
 15 16  1  0  0  0
 16 17  1  0  0  0
 17 18  1  0  0  0
 18 19  1  0  0  0
M  CHG 1  28  -1
M  END
> <minimizedAffinity>
-8.45545

> <CNNscore>
0.8785126805

> <CNNaffinity>
7.0546021461

> <CNN_VS>
6.1975574493

> <CNNaffinity_variance>
0.4040879607

$$$$
/media/chris/experiments/cd1a-new-docking/inputs/ligands/4x6c_ligand.pdb


 37 36  0  0  0  0  0  0  0  0999 V2000
  -44.6521   59.3211   64.9855 O   0  0  0  0  0  0  0  0  0  0  0  0
  -44.0737   58.3486   65.3629 C   0  0  0  0  0  0  0  0  0  0  0  0
  -44.7191   57.0261   65.6192 C   0  0  0  0  0  0  0  0  0  0  0  0
  -46.0384   57.1460   66.3584 C   0  0  0  0  0  0  0  0  0  0  0  0
  -47.1955   56.5295   65.6023 C   0  0  0  0  0  0  0  0  0  0  0  0
  -48.1692   57.5291   65.0241 C   0  0  0  0  0  0  0  0  0  0  0  0
  -48.0617   58.9059   65.6284 C   0  0  0  0  0  0  0  0  0  0  0  0
  -49.2685   59.7566   65.3367 C   0  0  0  0  0  0  0  0  0  0  0  0
  -49.2924   60.3971   63.9804 C   0  0  0  0  0  0  0  0  0  0  0  0
  -50.6270   60.4074   63.3642 C   0  0  0  0  0  0  0  0  0  0  0  0
  -51.2121   59.4451   62.6857 C   0  0  0  0  0  0  0  0  0  0  0  0
  -50.6864   58.0895   62.3847 C   0  0  0  0  0  0  0  0  0  0  0  0
  -50.7772   57.6611   60.9344 C   0  0  0  0  0  0  0  0  0  0  0  0
  -49.5133   57.9357   60.1668 C   0  0  0  0  0  0  0  0  0  0  0  0
  -49.3280   57.0874   58.9349 C   0  0  0  0  0  0  0  0  0  0  0  0
  -48.2633   56.0276   59.1133 C   0  0  0  0  0  0  0  0  0  0  0  0
  -46.8742   56.4541   58.7278 C   0  0  0  0  0  0  0  0  0  0  0  0
  -46.7225   56.7014   57.2805 C   0  0  0  0  0  0  0  0  0  0  0  0
  -47.0851   55.5516   56.4543 C   0  0  0  0  0  0  0  0  0  0  0  0
  -42.7653   58.3152   65.6157 O   0  0  0  0  0  0  0  0  0  0  0  0
  -42.1994   59.4212   66.3535 C   0  0  0  0  0  0  0  0  0  0  0  0
  -40.9286   59.8250   65.6420 C   0  0  0  0  0  0  0  0  0  0  0  0
  -41.0698   59.5841   64.2419 O   0  0  0  0  0  0  0  0  0  0  0  0
  -41.7768   60.1454   63.8870 H   0  0  0  0  0  0  0  0  0  0  0  0
  -40.5163   61.2637   65.8378 C   0  0  0  0  0  0  0  0  0  0  0  0
  -39.1100   61.2992   66.1540 O   0  0  0  0  0  0  0  0  0  0  0  0
  -38.0474   61.5125   64.9901 P   0  0  0  0  0  0  0  0  0  0  0  0
  -38.8057   61.6345   63.7287 O   0  0  0  0  0  0  0  0  0  0  0  0
  -37.1689   62.6215   65.4113 O   0  0  0  0  0  0  0  0  0  0  0  0
  -37.6886   63.4379   65.4790 H   0  0  0  0  0  0  0  0  0  0  0  0
  -37.1465   60.2100   64.8969 O   0  0  0  0  0  0  0  0  0  0  0  0
  -35.7547   60.2711   65.2882 C   0  0  0  0  0  0  0  0  0  0  0  0
  -34.9589   60.0309   64.0254 C   0  0  0  0  0  0  0  0  0  0  0  0
  -34.6834   58.5826   63.6733 N   0  0  0  0  0  0  0  0  0  0  0  0
  -35.5521   58.1276   62.5448 C   0  0  0  0  0  0  0  0  0  0  0  0
  -34.9540   57.7183   64.8629 C   0  0  0  0  0  0  0  0  0  0  0  0
  -33.2515   58.4290   63.2667 C   0  0  0  0  0  0  0  0  0  0  0  0
 34 33  1  0  0  0
 34 35  1  0  0  0
 34 36  1  0  0  0
 34 37  1  0  0  0
 22 23  1  0  0  0
 22 25  1  0  0  0
 22 21  1  0  0  0
 23 24  1  0  0  0
 27 26  1  0  0  0
 27 28  2  0  0  0
 27 31  1  0  0  0
 27 29  1  0  0  0
 25 26  1  0  0  0
 32 33  1  0  0  0
 32 31  1  0  0  0
 29 30  1  0  0  0
 20 21  1  0  0  0
 20  2  1  0  0  0
  1  2  2  0  0  0
  2  3  1  0  0  0
  3  4  1  0  0  0
  4  5  1  0  0  0
  5  6  1  0  0  0
  6  7  1  0  0  0
  7  8  1  0  0  0
  8  9  1  0  0  0
  9 10  1  0  0  0
 10 11  2  0  0  0
 11 12  1  0  0  0
 12 13  1  0  0  0
 13 14  1  0  0  0
 14 15  1  0  0  0
 15 16  1  0  0  0
 16 17  1  0  0  0
 17 18  1  0  0  0
 18 19  1  0  0  0
M  CHG 1  28  -1
M  END
> <minimizedAffinity>
-7.96179

> <CNNscore>
0.8596306443

> <CNNaffinity>
6.8266744614

> <CNN_VS>
5.8684186935

> <CNNaffinity_variance>
0.4302347600

$$$$
/media/chris/experiments/cd1a-new-docking/inputs/ligands/4x6c_ligand.pdb


 37 36  0  0  0  0  0  0  0  0999 V2000
  -42.7974   57.5083   65.9091 O   0  0  0  0  0  0  0  0  0  0  0  0
  -43.3542   58.4887   65.5194 C   0  0  0  0  0  0  0  0  0  0  0  0
  -44.6894   58.4939   64.8498 C   0  0  0  0  0  0  0  0  0  0  0  0
  -45.7653   59.1652   65.6824 C   0  0  0  0  0  0  0  0  0  0  0  0
  -46.7833   58.1877   66.2287 C   0  0  0  0  0  0  0  0  0  0  0  0
  -47.4195   57.2983   65.1866 C   0  0  0  0  0  0  0  0  0  0  0  0
  -48.5473   57.9537   64.4310 C   0  0  0  0  0  0  0  0  0  0  0  0
  -49.4890   58.6990   65.3382 C   0  0  0  0  0  0  0  0  0  0  0  0
  -49.9690   60.0227   64.8209 C   0  0  0  0  0  0  0  0  0  0  0  0
  -51.0882   59.9075   63.8746 C   0  0  0  0  0  0  0  0  0  0  0  0
  -51.0455   59.9570   62.5615 C   0  0  0  0  0  0  0  0  0  0  0  0
  -49.8532   60.1195   61.6917 C   0  0  0  0  0  0  0  0  0  0  0  0
  -49.6709   59.0560   60.6282 C   0  0  0  0  0  0  0  0  0  0  0  0
  -50.3558   57.7629   60.9757 C   0  0  0  0  0  0  0  0  0  0  0  0
  -49.8357   56.5566   60.2367 C   0  0  0  0  0  0  0  0  0  0  0  0
  -48.6194   56.8707   59.3938 C   0  0  0  0  0  0  0  0  0  0  0  0
  -48.0225   55.6909   58.6786 C   0  0  0  0  0  0  0  0  0  0  0  0
  -47.0055   56.0708   57.6784 C   0  0  0  0  0  0  0  0  0  0  0  0
  -47.5689   56.3731   56.3642 C   0  0  0  0  0  0  0  0  0  0  0  0
  -42.8509   59.7186   65.6238 O   0  0  0  0  0  0  0  0  0  0  0  0
  -41.4381   59.8854   65.3709 C   0  0  0  0  0  0  0  0  0  0  0  0
  -41.2634   61.2276   64.6984 C   0  0  0  0  0  0  0  0  0  0  0  0
  -40.3463   62.0215   65.4514 O   0  0  0  0  0  0  0  0  0  0  0  0
  -39.4748   61.5958   65.4518 H   0  0  0  0  0  0  0  0  0  0  0  0
  -40.7794   61.1682   63.2700 C   0  0  0  0  0  0  0  0  0  0  0  0
  -39.3838   61.5297   63.2428 O   0  0  0  0  0  0  0  0  0  0  0  0
  -38.3228   60.5237   62.6171 P   0  0  0  0  0  0  0  0  0  0  0  0
  -38.8088   59.1563   62.8913 O   0  0  0  0  0  0  0  0  0  0  0  0
  -38.1087   60.9439   61.2183 O   0  0  0  0  0  0  0  0  0  0  0  0
  -38.9338   60.8384   60.7190 H   0  0  0  0  0  0  0  0  0  0  0  0
  -36.9460   60.7175   63.3810 O   0  0  0  0  0  0  0  0  0  0  0  0
  -36.7893   61.8164   64.3092 C   0  0  0  0  0  0  0  0  0  0  0  0
  -36.0296   62.8868   63.5590 C   0  0  0  0  0  0  0  0  0  0  0  0
  -34.6713   63.2603   64.1187 N   0  0  0  0  0  0  0  0  0  0  0  0
  -33.9361   64.1697   63.1874 C   0  0  0  0  0  0  0  0  0  0  0  0
  -33.8563   62.0233   64.3211 C   0  0  0  0  0  0  0  0  0  0  0  0
  -34.8445   63.9578   65.4313 C   0  0  0  0  0  0  0  0  0  0  0  0
 34 33  1  0  0  0
 34 35  1  0  0  0
 34 36  1  0  0  0
 34 37  1  0  0  0
 22 23  1  0  0  0
 22 25  1  0  0  0
 22 21  1  0  0  0
 23 24  1  0  0  0
 27 26  1  0  0  0
 27 28  2  0  0  0
 27 31  1  0  0  0
 27 29  1  0  0  0
 25 26  1  0  0  0
 32 33  1  0  0  0
 32 31  1  0  0  0
 29 30  1  0  0  0
 20 21  1  0  0  0
 20  2  1  0  0  0
  1  2  2  0  0  0
  2  3  1  0  0  0
  3  4  1  0  0  0
  4  5  1  0  0  0
  5  6  1  0  0  0
  6  7  1  0  0  0
  7  8  1  0  0  0
  8  9  1  0  0  0
  9 10  1  0  0  0
 10 11  2  0  0  0
 11 12  1  0  0  0
 12 13  1  0  0  0
 13 14  1  0  0  0
 14 15  1  0  0  0
 15 16  1  0  0  0
 16 17  1  0  0  0
 17 18  1  0  0  0
 18 19  1  0  0  0
M  CHG 1  28  -1
M  END
> <minimizedAffinity>
-7.96797

> <CNNscore>
0.8114496469

> <CNNaffinity>
6.7537641525

> <CNN_VS>
5.4803395271

> <CNNaffinity_variance>
0.4545481205

$$$$
/media/chris/experiments/cd1a-new-docking/inputs/ligands/4x6c_ligand.pdb


 37 36  0  0  0  0  0  0  0  0999 V2000
  -39.9235   58.3272   64.7047 O   0  0  0  0  0  0  0  0  0  0  0  0
  -40.3622   59.2880   65.2591 C   0  0  0  0  0  0  0  0  0  0  0  0
  -41.4455   59.2510   66.2868 C   0  0  0  0  0  0  0  0  0  0  0  0
  -42.7230   58.6118   65.7759 C   0  0  0  0  0  0  0  0  0  0  0  0
  -43.5224   59.5298   64.8766 C   0  0  0  0  0  0  0  0  0  0  0  0
  -45.0109   59.5171   65.1330 C   0  0  0  0  0  0  0  0  0  0  0  0
  -45.6461   58.1593   64.9744 C   0  0  0  0  0  0  0  0  0  0  0  0
  -46.9444   58.0415   65.7265 C   0  0  0  0  0  0  0  0  0  0  0  0
  -48.0317   58.9757   65.2845 C   0  0  0  0  0  0  0  0  0  0  0  0
  -49.3568   58.3417   65.2262 C   0  0  0  0  0  0  0  0  0  0  0  0
  -50.0494   58.0119   64.1584 C   0  0  0  0  0  0  0  0  0  0  0  0
  -49.6639   58.1732   62.7337 C   0  0  0  0  0  0  0  0  0  0  0  0
  -50.7864   58.0043   61.7303 C   0  0  0  0  0  0  0  0  0  0  0  0
  -50.3825   57.1792   60.5395 C   0  0  0  0  0  0  0  0  0  0  0  0
  -49.4758   57.8841   59.5634 C   0  0  0  0  0  0  0  0  0  0  0  0
  -48.9904   56.9725   58.4580 C   0  0  0  0  0  0  0  0  0  0  0  0
  -47.5666   56.5106   58.5973 C   0  0  0  0  0  0  0  0  0  0  0  0
  -46.8155   56.5507   57.3271 C   0  0  0  0  0  0  0  0  0  0  0  0
  -47.6704   56.4672   56.1446 C   0  0  0  0  0  0  0  0  0  0  0  0
  -39.9459   60.5328   65.0271 O   0  0  0  0  0  0  0  0  0  0  0  0
  -38.5315   60.7343   64.8103 C   0  0  0  0  0  0  0  0  0  0  0  0
  -38.3812   61.4187   63.4712 C   0  0  0  0  0  0  0  0  0  0  0  0
  -37.1010   62.0464   63.3985 O   0  0  0  0  0  0  0  0  0  0  0  0
  -36.4066   61.3708   63.4443 H   0  0  0  0  0  0  0  0  0  0  0  0
  -38.5372   60.5163   62.2715 C   0  0  0  0  0  0  0  0  0  0  0  0
  -37.2518   59.9432   61.9580 O   0  0  0  0  0  0  0  0  0  0  0  0
  -37.1745   58.4955   61.3040 P   0  0  0  0  0  0  0  0  0  0  0  0
  -37.9543   57.5876   62.1692 O   0  0  0  0  0  0  0  0  0  0  0  0
  -37.5594   58.6457   59.8869 O   0  0  0  0  0  0  0  0  0  0  0  0
  -38.4831   58.9368   59.8317 H   0  0  0  0  0  0  0  0  0  0  0  0
  -35.6613   58.0198   61.3312 O   0  0  0  0  0  0  0  0  0  0  0  0
  -35.1568   57.2982   62.4795 C   0  0  0  0  0  0  0  0  0  0  0  0
  -34.0106   58.1246   63.0168 C   0  0  0  0  0  0  0  0  0  0  0  0
  -34.2122   58.7363   64.3891 N   0  0  0  0  0  0  0  0  0  0  0  0
  -33.2763   58.1370   65.3890 C   0  0  0  0  0  0  0  0  0  0  0  0
  -35.6158   58.4941   64.8434 C   0  0  0  0  0  0  0  0  0  0  0  0
  -33.9619   60.2101   64.3227 C   0  0  0  0  0  0  0  0  0  0  0  0
 34 33  1  0  0  0
 34 35  1  0  0  0
 34 36  1  0  0  0
 34 37  1  0  0  0
 22 23  1  0  0  0
 22 25  1  0  0  0
 22 21  1  0  0  0
 23 24  1  0  0  0
 27 26  1  0  0  0
 27 28  2  0  0  0
 27 31  1  0  0  0
 27 29  1  0  0  0
 25 26  1  0  0  0
 32 33  1  0  0  0
 32 31  1  0  0  0
 29 30  1  0  0  0
 20 21  1  0  0  0
 20  2  1  0  0  0
  1  2  2  0  0  0
  2  3  1  0  0  0
  3  4  1  0  0  0
  4  5  1  0  0  0
  5  6  1  0  0  0
  6  7  1  0  0  0
  7  8  1  0  0  0
  8  9  1  0  0  0
  9 10  1  0  0  0
 10 11  2  0  0  0
 11 12  1  0  0  0
 12 13  1  0  0  0
 13 14  1  0  0  0
 14 15  1  0  0  0
 15 16  1  0  0  0
 16 17  1  0  0  0
 17 18  1  0  0  0
 18 19  1  0  0  0
M  CHG 1  28  -1
M  END
> <minimizedAffinity>
-7.87283

> <CNNscore>
0.8068307638

> <CNNaffinity>
6.8132262230

> <CNN_VS>
5.4971203804

> <CNNaffinity_variance>
0.6115140319

$$$$
/media/chris/experiments/cd1a-new-docking/inputs/ligands/4x6c_ligand.pdb


 37 36  0  0  0  0  0  0  0  0999 V2000
  -42.4640   60.2096   67.1419 O   0  0  0  0  0  0  0  0  0  0  0  0
  -42.7993   59.8634   66.0507 C   0  0  0  0  0  0  0  0  0  0  0  0
  -44.1924   59.4753   65.6767 C   0  0  0  0  0  0  0  0  0  0  0  0
  -44.2905   58.0526   65.1592 C   0  0  0  0  0  0  0  0  0  0  0  0
  -45.6372   57.4181   65.4318 C   0  0  0  0  0  0  0  0  0  0  0  0
  -46.4441   58.1007   66.5111 C   0  0  0  0  0  0  0  0  0  0  0  0
  -47.6676   58.8162   65.9980 C   0  0  0  0  0  0  0  0  0  0  0  0
  -48.4702   57.9705   65.0463 C   0  0  0  0  0  0  0  0  0  0  0  0
  -49.9595   58.1084   65.1612 C   0  0  0  0  0  0  0  0  0  0  0  0
  -50.4073   59.5023   65.2936 C   0  0  0  0  0  0  0  0  0  0  0  0
  -50.9894   60.2546   64.3860 C   0  0  0  0  0  0  0  0  0  0  0  0
  -51.3668   59.8850   62.9984 C   0  0  0  0  0  0  0  0  0  0  0  0
  -50.3010   60.1191   61.9475 C   0  0  0  0  0  0  0  0  0  0  0  0
  -49.6259   58.8481   61.5107 C   0  0  0  0  0  0  0  0  0  0  0  0
  -50.5662   57.7182   61.1777 C   0  0  0  0  0  0  0  0  0  0  0  0
  -50.1900   57.0069   59.8966 C   0  0  0  0  0  0  0  0  0  0  0  0
  -48.8701   57.4195   59.3072 C   0  0  0  0  0  0  0  0  0  0  0  0
  -48.1620   56.3124   58.6349 C   0  0  0  0  0  0  0  0  0  0  0  0
  -47.2618   56.7590   57.5736 C   0  0  0  0  0  0  0  0  0  0  0  0
  -41.9667   59.7687   65.0141 O   0  0  0  0  0  0  0  0  0  0  0  0
  -41.8341   60.9241   64.1566 C   0  0  0  0  0  0  0  0  0  0  0  0
  -40.5354   61.6035   64.5255 C   0  0  0  0  0  0  0  0  0  0  0  0
  -40.7413   62.4366   65.6665 O   0  0  0  0  0  0  0  0  0  0  0  0
  -40.9931   61.8883   66.4259 H   0  0  0  0  0  0  0  0  0  0  0  0
  -39.3869   60.6693   64.8198 C   0  0  0  0  0  0  0  0  0  0  0  0
  -38.5380   61.2835   65.8103 O   0  0  0  0  0  0  0  0  0  0  0  0
  -37.0682   61.7417   65.4114 P   0  0  0  0  0  0  0  0  0  0  0  0
  -36.2211   60.5320   65.4176 O   0  0  0  0  0  0  0  0  0  0  0  0
  -37.1886   62.5292   64.1687 O   0  0  0  0  0  0  0  0  0  0  0  0
  -37.5155   61.9592   63.4550 H   0  0  0  0  0  0  0  0  0  0  0  0
  -36.5321   62.7219   66.5377 O   0  0  0  0  0  0  0  0  0  0  0  0
  -35.1648   62.6068   66.9973 C   0  0  0  0  0  0  0  0  0  0  0  0
  -34.5623   63.9859   66.8536 C   0  0  0  0  0  0  0  0  0  0  0  0
  -33.7980   64.2521   65.5719 N   0  0  0  0  0  0  0  0  0  0  0  0
  -34.6273   65.0306   64.6017 C   0  0  0  0  0  0  0  0  0  0  0  0
  -33.4154   62.9529   64.9386 C   0  0  0  0  0  0  0  0  0  0  0  0
  -32.5604   65.0350   65.8796 C   0  0  0  0  0  0  0  0  0  0  0  0
 34 33  1  0  0  0
 34 35  1  0  0  0
 34 36  1  0  0  0
 34 37  1  0  0  0
 22 23  1  0  0  0
 22 25  1  0  0  0
 22 21  1  0  0  0
 23 24  1  0  0  0
 27 26  1  0  0  0
 27 28  2  0  0  0
 27 31  1  0  0  0
 27 29  1  0  0  0
 25 26  1  0  0  0
 32 33  1  0  0  0
 32 31  1  0  0  0
 29 30  1  0  0  0
 20 21  1  0  0  0
 20  2  1  0  0  0
  1  2  2  0  0  0
  2  3  1  0  0  0
  3  4  1  0  0  0
  4  5  1  0  0  0
  5  6  1  0  0  0
  6  7  1  0  0  0
  7  8  1  0  0  0
  8  9  1  0  0  0
  9 10  1  0  0  0
 10 11  2  0  0  0
 11 12  1  0  0  0
 12 13  1  0  0  0
 13 14  1  0  0  0
 14 15  1  0  0  0
 15 16  1  0  0  0
 16 17  1  0  0  0
 17 18  1  0  0  0
 18 19  1  0  0  0
M  CHG 1  28  -1
M  END
> <minimizedAffinity>
-8.23236

> <CNNscore>
0.7805287838

> <CNNaffinity>
6.4972853661

> <CNN_VS>
5.0713181496

> <CNNaffinity_variance>
0.3615866303

$$$$
/media/chris/experiments/cd1a-new-docking/inputs/ligands/4x6c_ligand.pdb


 37 36  0  0  0  0  0  0  0  0999 V2000
  -39.9309   58.5284   64.5893 O   0  0  0  0  0  0  0  0  0  0  0  0
  -40.3755   59.5341   65.0515 C   0  0  0  0  0  0  0  0  0  0  0  0
  -41.4130   59.5860   66.1248 C   0  0  0  0  0  0  0  0  0  0  0  0
  -42.5263   58.5760   65.9197 C   0  0  0  0  0  0  0  0  0  0  0  0
  -43.5871   59.0568   64.9533 C   0  0  0  0  0  0  0  0  0  0  0  0
  -44.5736   57.9950   64.5275 C   0  0  0  0  0  0  0  0  0  0  0  0
  -45.1679   57.2186   65.6748 C   0  0  0  0  0  0  0  0  0  0  0  0
  -46.4601   57.8158   66.1637 C   0  0  0  0  0  0  0  0  0  0  0  0
  -47.6769   57.4640   65.3600 C   0  0  0  0  0  0  0  0  0  0  0  0
  -48.5512   58.6150   65.0920 C   0  0  0  0  0  0  0  0  0  0  0  0
  -49.3236   58.8182   64.0477 C   0  0  0  0  0  0  0  0  0  0  0  0
  -49.5312   57.9277   62.8779 C   0  0  0  0  0  0  0  0  0  0  0  0
  -50.6723   58.3125   61.9586 C   0  0  0  0  0  0  0  0  0  0  0  0
  -50.9366   57.2808   60.8967 C   0  0  0  0  0  0  0  0  0  0  0  0
  -50.4358   57.6482   59.5234 C   0  0  0  0  0  0  0  0  0  0  0  0
  -48.9624   57.3558   59.3442 C   0  0  0  0  0  0  0  0  0  0  0  0
  -48.5924   56.7571   58.0159 C   0  0  0  0  0  0  0  0  0  0  0  0
  -47.1986   56.2734   57.9641 C   0  0  0  0  0  0  0  0  0  0  0  0
  -46.3574   57.0263   57.0358 C   0  0  0  0  0  0  0  0  0  0  0  0
  -40.0080   60.7550   64.6625 O   0  0  0  0  0  0  0  0  0  0  0  0
  -38.7698   60.8771   63.9277 C   0  0  0  0  0  0  0  0  0  0  0  0
  -37.7424   61.4430   64.8809 C   0  0  0  0  0  0  0  0  0  0  0  0
  -38.3689   62.3850   65.7517 O   0  0  0  0  0  0  0  0  0  0  0  0
  -39.0318   61.9315   66.2955 H   0  0  0  0  0  0  0  0  0  0  0  0
  -37.0229   60.4198   65.7257 C   0  0  0  0  0  0  0  0  0  0  0  0
  -35.6201   60.7523   65.7535 O   0  0  0  0  0  0  0  0  0  0  0  0
  -34.6114   59.9878   64.7906 P   0  0  0  0  0  0  0  0  0  0  0  0
  -33.6406   59.2832   65.6520 O   0  0  0  0  0  0  0  0  0  0  0  0
  -35.4326   59.2072   63.8444 O   0  0  0  0  0  0  0  0  0  0  0  0
  -35.9328   58.5328   64.3303 H   0  0  0  0  0  0  0  0  0  0  0  0
  -33.8199   61.0699   63.9425 O   0  0  0  0  0  0  0  0  0  0  0  0
  -34.2129   62.4610   64.0090 C   0  0  0  0  0  0  0  0  0  0  0  0
  -33.1170   63.1644   64.7770 C   0  0  0  0  0  0  0  0  0  0  0  0
  -33.2773   64.6616   64.9518 N   0  0  0  0  0  0  0  0  0  0  0  0
  -34.6515   65.0042   65.4307 C   0  0  0  0  0  0  0  0  0  0  0  0
  -33.0429   65.3459   63.6434 C   0  0  0  0  0  0  0  0  0  0  0  0
  -32.2835   65.1585   65.9541 C   0  0  0  0  0  0  0  0  0  0  0  0
 34 33  1  0  0  0
 34 35  1  0  0  0
 34 36  1  0  0  0
 34 37  1  0  0  0
 22 23  1  0  0  0
 22 25  1  0  0  0
 22 21  1  0  0  0
 23 24  1  0  0  0
 27 26  1  0  0  0
 27 28  2  0  0  0
 27 31  1  0  0  0
 27 29  1  0  0  0
 25 26  1  0  0  0
 32 33  1  0  0  0
 32 31  1  0  0  0
 29 30  1  0  0  0
 20 21  1  0  0  0
 20  2  1  0  0  0
  1  2  2  0  0  0
  2  3  1  0  0  0
  3  4  1  0  0  0
  4  5  1  0  0  0
  5  6  1  0  0  0
  6  7  1  0  0  0
  7  8  1  0  0  0
  8  9  1  0  0  0
  9 10  1  0  0  0
 10 11  2  0  0  0
 11 12  1  0  0  0
 12 13  1  0  0  0
 13 14  1  0  0  0
 14 15  1  0  0  0
 15 16  1  0  0  0
 16 17  1  0  0  0
 17 18  1  0  0  0
 18 19  1  0  0  0
M  CHG 1  28  -1
M  END
> <minimizedAffinity>
-7.64273

> <CNNscore>
0.7568030953

> <CNNaffinity>
6.3388471603

> <CNN_VS>
4.7972593307

> <CNNaffinity_variance>
0.5532155037

$$$$
/media/chris/experiments/cd1a-new-docking/inputs/ligands/4x6c_ligand.pdb


 37 36  0  0  0  0  0  0  0  0999 V2000
  -42.5633   60.3490   66.9466 O   0  0  0  0  0  0  0  0  0  0  0  0
  -42.2844   59.8484   65.9004 C   0  0  0  0  0  0  0  0  0  0  0  0
  -43.2763   59.4884   64.8432 C   0  0  0  0  0  0  0  0  0  0  0  0
  -44.7132   59.6223   65.3111 C   0  0  0  0  0  0  0  0  0  0  0  0
  -45.5625   58.4207   64.9572 C   0  0  0  0  0  0  0  0  0  0  0  0
  -47.0317   58.7231   64.7784 C   0  0  0  0  0  0  0  0  0  0  0  0
  -47.4427   60.0791   65.2926 C   0  0  0  0  0  0  0  0  0  0  0  0
  -48.6638   60.6123   64.5927 C   0  0  0  0  0  0  0  0  0  0  0  0
  -49.9021   59.7772   64.7321 C   0  0  0  0  0  0  0  0  0  0  0  0
  -50.9183   60.0665   63.7099 C   0  0  0  0  0  0  0  0  0  0  0  0
  -50.9066   59.7286   62.4394 C   0  0  0  0  0  0  0  0  0  0  0  0
  -49.8750   58.9475   61.7113 C   0  0  0  0  0  0  0  0  0  0  0  0
  -50.3953   57.7890   60.8852 C   0  0  0  0  0  0  0  0  0  0  0  0
  -49.5568   57.5218   59.6656 C   0  0  0  0  0  0  0  0  0  0  0  0
  -48.9104   56.1606   59.6318 C   0  0  0  0  0  0  0  0  0  0  0  0
  -47.4179   56.2312   59.3953 C   0  0  0  0  0  0  0  0  0  0  0  0
  -46.9374   55.5170   58.1629 C   0  0  0  0  0  0  0  0  0  0  0  0
  -47.9282   55.5146   57.0687 C   0  0  0  0  0  0  0  0  0  0  0  0
  -47.6048   56.4476   55.9912 C   0  0  0  0  0  0  0  0  0  0  0  0
  -41.0412   59.5340   65.5366 O   0  0  0  0  0  0  0  0  0  0  0  0
  -40.5466   60.0917   64.2988 C   0  0  0  0  0  0  0  0  0  0  0  0
  -39.6791   61.2752   64.6609 C   0  0  0  0  0  0  0  0  0  0  0  0
  -40.4670   62.2528   65.3404 O   0  0  0  0  0  0  0  0  0  0  0  0
  -40.7931   61.8819   66.1752 H   0  0  0  0  0  0  0  0  0  0  0  0
  -38.4808   60.9500   65.5192 C   0  0  0  0  0  0  0  0  0  0  0  0
  -37.7951   62.1786   65.8346 O   0  0  0  0  0  0  0  0  0  0  0  0
  -36.2052   62.2082   65.8578 P   0  0  0  0  0  0  0  0  0  0  0  0
  -35.7924   62.1751   67.2754 O   0  0  0  0  0  0  0  0  0  0  0  0
  -35.7445   61.1399   64.9493 O   0  0  0  0  0  0  0  0  0  0  0  0
  -36.0209   60.2777   65.2976 H   0  0  0  0  0  0  0  0  0  0  0  0
  -35.7264   63.5886   65.2394 O   0  0  0  0  0  0  0  0  0  0  0  0
  -34.5684   63.6228   64.3725 C   0  0  0  0  0  0  0  0  0  0  0  0
  -33.9250   64.9727   64.5943 C   0  0  0  0  0  0  0  0  0  0  0  0
  -32.6382   65.2333   63.8367 N   0  0  0  0  0  0  0  0  0  0  0  0
  -32.0489   63.9598   63.3211 C   0  0  0  0  0  0  0  0  0  0  0  0
  -31.6460   65.8853   64.7455 C   0  0  0  0  0  0  0  0  0  0  0  0
  -32.9137   66.1374   62.6765 C   0  0  0  0  0  0  0  0  0  0  0  0
 34 33  1  0  0  0
 34 35  1  0  0  0
 34 36  1  0  0  0
 34 37  1  0  0  0
 22 23  1  0  0  0
 22 25  1  0  0  0
 22 21  1  0  0  0
 23 24  1  0  0  0
 27 26  1  0  0  0
 27 28  2  0  0  0
 27 31  1  0  0  0
 27 29  1  0  0  0
 25 26  1  0  0  0
 32 33  1  0  0  0
 32 31  1  0  0  0
 29 30  1  0  0  0
 20 21  1  0  0  0
 20  2  1  0  0  0
  1  2  2  0  0  0
  2  3  1  0  0  0
  3  4  1  0  0  0
  4  5  1  0  0  0
  5  6  1  0  0  0
  6  7  1  0  0  0
  7  8  1  0  0  0
  8  9  1  0  0  0
  9 10  1  0  0  0
 10 11  2  0  0  0
 11 12  1  0  0  0
 12 13  1  0  0  0
 13 14  1  0  0  0
 14 15  1  0  0  0
 15 16  1  0  0  0
 16 17  1  0  0  0
 17 18  1  0  0  0
 18 19  1  0  0  0
M  CHG 1  28  -1
M  END
> <minimizedAffinity>
-8.05669

> <CNNscore>
0.7395015955

> <CNNaffinity>
6.2337045670

> <CNN_VS>
4.6098346710

> <CNNaffinity_variance>
0.5144830346

$$$$
/media/chris/experiments/cd1a-new-docking/inputs/ligands/4x6c_ligand.pdb


 37 36  0  0  0  0  0  0  0  0999 V2000
  -42.2980   60.9538   63.8962 O   0  0  0  0  0  0  0  0  0  0  0  0
  -41.9441   60.2887   64.8211 C   0  0  0  0  0  0  0  0  0  0  0  0
  -42.7369   59.1681   65.4100 C   0  0  0  0  0  0  0  0  0  0  0  0
  -44.0418   58.9187   64.6775 C   0  0  0  0  0  0  0  0  0  0  0  0
  -45.2403   58.8927   65.6012 C   0  0  0  0  0  0  0  0  0  0  0  0
  -46.3885   58.0409   65.1133 C   0  0  0  0  0  0  0  0  0  0  0  0
  -47.7129   58.3799   65.7484 C   0  0  0  0  0  0  0  0  0  0  0  0
  -48.8810   57.8814   64.9407 C   0  0  0  0  0  0  0  0  0  0  0  0
  -50.2245   58.3947   65.3669 C   0  0  0  0  0  0  0  0  0  0  0  0
  -50.4087   59.8302   65.1088 C   0  0  0  0  0  0  0  0  0  0  0  0
  -50.9292   60.4004   64.0446 C   0  0  0  0  0  0  0  0  0  0  0  0
  -51.4872   59.7422   62.8362 C   0  0  0  0  0  0  0  0  0  0  0  0
  -50.4683   59.2851   61.8123 C   0  0  0  0  0  0  0  0  0  0  0  0
  -50.3392   57.7880   61.7489 C   0  0  0  0  0  0  0  0  0  0  0  0
  -50.9165   57.1584   60.5071 C   0  0  0  0  0  0  0  0  0  0  0  0
  -50.1384   57.5137   59.2594 C   0  0  0  0  0  0  0  0  0  0  0  0
  -48.7762   56.8854   59.1620 C   0  0  0  0  0  0  0  0  0  0  0  0
  -48.2816   56.7814   57.7751 C   0  0  0  0  0  0  0  0  0  0  0  0
  -46.8476   57.0344   57.6500 C   0  0  0  0  0  0  0  0  0  0  0  0
  -40.7885   60.4642   65.4618 O   0  0  0  0  0  0  0  0  0  0  0  0
  -40.0938   61.7143   65.2554 C   0  0  0  0  0  0  0  0  0  0  0  0
  -38.6275   61.3854   65.0941 C   0  0  0  0  0  0  0  0  0  0  0  0
  -37.8447   62.3301   65.8243 O   0  0  0  0  0  0  0  0  0  0  0  0
  -38.0440   62.2526   66.7703 H   0  0  0  0  0  0  0  0  0  0  0  0
  -38.2318   59.9974   65.5359 C   0  0  0  0  0  0  0  0  0  0  0  0
  -37.6222   59.3171   64.4203 O   0  0  0  0  0  0  0  0  0  0  0  0
  -36.0497   59.0801   64.4076 P   0  0  0  0  0  0  0  0  0  0  0  0
  -35.7972   57.8129   65.1229 O   0  0  0  0  0  0  0  0  0  0  0  0
  -35.6084   59.2149   63.0054 O   0  0  0  0  0  0  0  0  0  0  0  0
  -36.0093   58.5113   62.4712 H   0  0  0  0  0  0  0  0  0  0  0  0
  -35.3654   60.2521   65.2293 O   0  0  0  0  0  0  0  0  0  0  0  0
  -34.3233   61.0456   64.6144 C   0  0  0  0  0  0  0  0  0  0  0  0
  -34.3877   62.4012   65.2806 C   0  0  0  0  0  0  0  0  0  0  0  0
  -34.4414   63.6001   64.3546 N   0  0  0  0  0  0  0  0  0  0  0  0
  -33.2160   63.6777   63.5018 C   0  0  0  0  0  0  0  0  0  0  0  0
  -34.5403   64.8533   65.1639 C   0  0  0  0  0  0  0  0  0  0  0  0
  -35.6386   63.4919   63.4633 C   0  0  0  0  0  0  0  0  0  0  0  0
 34 33  1  0  0  0
 34 35  1  0  0  0
 34 36  1  0  0  0
 34 37  1  0  0  0
 22 23  1  0  0  0
 22 25  1  0  0  0
 22 21  1  0  0  0
 23 24  1  0  0  0
 27 26  1  0  0  0
 27 28  2  0  0  0
 27 31  1  0  0  0
 27 29  1  0  0  0
 25 26  1  0  0  0
 32 33  1  0  0  0
 32 31  1  0  0  0
 29 30  1  0  0  0
 20 21  1  0  0  0
 20  2  1  0  0  0
  1  2  2  0  0  0
  2  3  1  0  0  0
  3  4  1  0  0  0
  4  5  1  0  0  0
  5  6  1  0  0  0
  6  7  1  0  0  0
  7  8  1  0  0  0
  8  9  1  0  0  0
  9 10  1  0  0  0
 10 11  2  0  0  0
 11 12  1  0  0  0
 12 13  1  0  0  0
 13 14  1  0  0  0
 14 15  1  0  0  0
 15 16  1  0  0  0
 16 17  1  0  0  0
 17 18  1  0  0  0
 18 19  1  0  0  0
M  CHG 1  28  -1
M  END
> <minimizedAffinity>
-7.99044

> <CNNscore>
0.7089024782

> <CNNaffinity>
6.4080872536

> <CNN_VS>
4.5427088737

> <CNNaffinity_variance>
0.4305262566

$$$$
/media/chris/experiments/cd1a-new-docking/inputs/ligands/4x6c_ligand.pdb


 37 36  0  0  0  0  0  0  0  0999 V2000
  -42.9321   60.1161   66.6340 O   0  0  0  0  0  0  0  0  0  0  0  0
  -42.6524   59.3285   65.7830 C   0  0  0  0  0  0  0  0  0  0  0  0
  -43.2043   57.9431   65.6975 C   0  0  0  0  0  0  0  0  0  0  0  0
  -44.4543   57.8569   64.8422 C   0  0  0  0  0  0  0  0  0  0  0  0
  -45.7092   57.6216   65.6549 C   0  0  0  0  0  0  0  0  0  0  0  0
  -46.3702   58.8806   66.1646 C   0  0  0  0  0  0  0  0  0  0  0  0
  -47.3264   59.5084   65.1829 C   0  0  0  0  0  0  0  0  0  0  0  0
  -48.1635   58.4856   64.4629 C   0  0  0  0  0  0  0  0  0  0  0  0
  -49.5342   58.2609   65.0293 C   0  0  0  0  0  0  0  0  0  0  0  0
  -50.3033   59.5015   65.2037 C   0  0  0  0  0  0  0  0  0  0  0  0
  -50.9985   60.1560   64.2999 C   0  0  0  0  0  0  0  0  0  0  0  0
  -51.2064   59.8004   62.8734 C   0  0  0  0  0  0  0  0  0  0  0  0
  -50.1033   60.2270   61.9266 C   0  0  0  0  0  0  0  0  0  0  0  0
  -49.7503   59.1601   60.9270 C   0  0  0  0  0  0  0  0  0  0  0  0
  -50.1113   57.7586   61.3480 C   0  0  0  0  0  0  0  0  0  0  0  0
  -49.6588   56.7165   60.3491 C   0  0  0  0  0  0  0  0  0  0  0  0
  -49.4900   57.2188   58.9423 C   0  0  0  0  0  0  0  0  0  0  0  0
  -48.2624   56.7213   58.2907 C   0  0  0  0  0  0  0  0  0  0  0  0
  -47.6107   55.6412   59.0288 C   0  0  0  0  0  0  0  0  0  0  0  0
  -41.7970   59.5797   64.7919 O   0  0  0  0  0  0  0  0  0  0  0  0
  -41.8812   60.8709   64.1487 C   0  0  0  0  0  0  0  0  0  0  0  0
  -40.6401   61.6413   64.5367 C   0  0  0  0  0  0  0  0  0  0  0  0
  -40.8885   62.3695   65.7393 O   0  0  0  0  0  0  0  0  0  0  0  0
  -41.0667   61.7481   66.4625 H   0  0  0  0  0  0  0  0  0  0  0  0
  -39.4027   60.8004   64.7368 C   0  0  0  0  0  0  0  0  0  0  0  0
  -38.2462   61.6061   64.4327 O   0  0  0  0  0  0  0  0  0  0  0  0
  -36.9648   61.5285   65.3715 P   0  0  0  0  0  0  0  0  0  0  0  0
  -36.2724   62.8288   65.2670 O   0  0  0  0  0  0  0  0  0  0  0  0
  -37.4309   61.0660   66.6935 O   0  0  0  0  0  0  0  0  0  0  0  0
  -38.0276   61.7284   67.0760 H   0  0  0  0  0  0  0  0  0  0  0  0
  -35.9973   60.4099   64.7976 O   0  0  0  0  0  0  0  0  0  0  0  0
  -36.0184   60.0995   63.3844 C   0  0  0  0  0  0  0  0  0  0  0  0
  -36.1785   58.5990   63.2925 C   0  0  0  0  0  0  0  0  0  0  0  0
  -37.3810   58.1006   62.5158 N   0  0  0  0  0  0  0  0  0  0  0  0
  -37.0054   56.9780   61.6028 C   0  0  0  0  0  0  0  0  0  0  0  0
  -37.9436   59.2163   61.6947 C   0  0  0  0  0  0  0  0  0  0  0  0
  -38.4265   57.6129   63.4689 C   0  0  0  0  0  0  0  0  0  0  0  0
 34 33  1  0  0  0
 34 35  1  0  0  0
 34 36  1  0  0  0
 34 37  1  0  0  0
 22 23  1  0  0  0
 22 25  1  0  0  0
 22 21  1  0  0  0
 23 24  1  0  0  0
 27 26  1  0  0  0
 27 28  2  0  0  0
 27 31  1  0  0  0
 27 29  1  0  0  0
 25 26  1  0  0  0
 32 33  1  0  0  0
 32 31  1  0  0  0
 29 30  1  0  0  0
 20 21  1  0  0  0
 20  2  1  0  0  0
  1  2  2  0  0  0
  2  3  1  0  0  0
  3  4  1  0  0  0
  4  5  1  0  0  0
  5  6  1  0  0  0
  6  7  1  0  0  0
  7  8  1  0  0  0
  8  9  1  0  0  0
  9 10  1  0  0  0
 10 11  2  0  0  0
 11 12  1  0  0  0
 12 13  1  0  0  0
 13 14  1  0  0  0
 14 15  1  0  0  0
 15 16  1  0  0  0
 16 17  1  0  0  0
 17 18  1  0  0  0
 18 19  1  0  0  0
M  CHG 1  28  -1
M  END
> <minimizedAffinity>
-8.06137

> <CNNscore>
0.6964184642

> <CNNaffinity>
6.8113007545

> <CNN_VS>
4.7435154915

> <CNNaffinity_variance>
0.4375128150

$$$$
