/media/chris/experiments/cd1a-new-docking/inputs/ligands/4x6c_ligand.pdb


 37 36  0  0  0  0  0  0  0  0999 V2000
  -40.4503   61.8019   65.8139 O   0  0  0  0  0  0  0  0  0  0  0  0
  -41.1255   60.9125   65.3945 C   0  0  0  0  0  0  0  0  0  0  0  0
  -42.0909   60.1228   66.2165 C   0  0  0  0  0  0  0  0  0  0  0  0
  -42.9938   59.2372   65.3787 C   0  0  0  0  0  0  0  0  0  0  0  0
  -42.8723   57.7704   65.7314 C   0  0  0  0  0  0  0  0  0  0  0  0
  -44.1004   56.9478   65.4205 C   0  0  0  0  0  0  0  0  0  0  0  0
  -45.3976   57.6317   65.7695 C   0  0  0  0  0  0  0  0  0  0  0  0
  -46.2645   57.8686   64.5622 C   0  0  0  0  0  0  0  0  0  0  0  0
  -47.4721   58.7275   64.7950 C   0  0  0  0  0  0  0  0  0  0  0  0
  -48.6964   57.9549   65.0503 C   0  0  0  0  0  0  0  0  0  0  0  0
  -49.9262   58.2447   64.6867 C   0  0  0  0  0  0  0  0  0  0  0  0
  -50.3956   59.4161   63.9045 C   0  0  0  0  0  0  0  0  0  0  0  0
  -50.8603   59.1158   62.4940 C   0  0  0  0  0  0  0  0  0  0  0  0
  -50.3320   57.8071   61.9742 C   0  0  0  0  0  0  0  0  0  0  0  0
  -50.9229   57.3676   60.6591 C   0  0  0  0  0  0  0  0  0  0  0  0
  -49.8783   57.2079   59.5766 C   0  0  0  0  0  0  0  0  0  0  0  0
  -48.5831   56.5953   60.0318 C   0  0  0  0  0  0  0  0  0  0  0  0
  -47.9225   55.7887   58.9867 C   0  0  0  0  0  0  0  0  0  0  0  0
  -46.8131   56.4810   58.3341 C   0  0  0  0  0  0  0  0  0  0  0  0
  -41.1017   60.4967   64.1283 O   0  0  0  0  0  0  0  0  0  0  0  0
  -40.6928   61.4483   63.1206 C   0  0  0  0  0  0  0  0  0  0  0  0
  -39.6811   60.7531   62.2388 C   0  0  0  0  0  0  0  0  0  0  0  0
  -40.0148   60.9714   60.8680 O   0  0  0  0  0  0  0  0  0  0  0  0
  -39.9535   61.9183   60.6672 H   0  0  0  0  0  0  0  0  0  0  0  0
  -38.2485   61.1774   62.4531 C   0  0  0  0  0  0  0  0  0  0  0  0
  -37.9412   61.0634   63.8571 O   0  0  0  0  0  0  0  0  0  0  0  0
  -36.8598   62.0318   64.5068 P   0  0  0  0  0  0  0  0  0  0  0  0
  -36.5175   63.0442   63.4876 O   0  0  0  0  0  0  0  0  0  0  0  0
  -37.4069   62.4738   65.8046 O   0  0  0  0  0  0  0  0  0  0  0  0
  -38.2092   62.9981   65.6555 H   0  0  0  0  0  0  0  0  0  0  0  0
  -35.5549   61.1828   64.8126 O   0  0  0  0  0  0  0  0  0  0  0  0
  -35.6564   59.7504   64.9905 C   0  0  0  0  0  0  0  0  0  0  0  0
  -35.2989   59.1408   63.6540 C   0  0  0  0  0  0  0  0  0  0  0  0
  -35.7142   57.6983   63.4438 N   0  0  0  0  0  0  0  0  0  0  0  0
  -35.7868   56.9635   64.7438 C   0  0  0  0  0  0  0  0  0  0  0  0
  -34.7183   57.0141   62.5634 C   0  0  0  0  0  0  0  0  0  0  0  0
  -37.0612   57.6541   62.7932 C   0  0  0  0  0  0  0  0  0  0  0  0
 34 33  1  0  0  0
 34 35  1  0  0  0
 34 36  1  0  0  0
 34 37  1  0  0  0
 22 23  1  0  0  0
 22 25  1  0  0  0
 22 21  1  0  0  0
 23 24  1  0  0  0
 27 26  1  0  0  0
 27 28  2  0  0  0
 27 31  1  0  0  0
 27 29  1  0  0  0
 25 26  1  0  0  0
 32 33  1  0  0  0
 32 31  1  0  0  0
 29 30  1  0  0  0
 20 21  1  0  0  0
 20  2  1  0  0  0
  1  2  2  0  0  0
  2  3  1  0  0  0
  3  4  1  0  0  0
  4  5  1  0  0  0
  5  6  1  0  0  0
  6  7  1  0  0  0
  7  8  1  0  0  0
  8  9  1  0  0  0
  9 10  1  0  0  0
 10 11  2  0  0  0
 11 12  1  0  0  0
 12 13  1  0  0  0
 13 14  1  0  0  0
 14 15  1  0  0  0
 15 16  1  0  0  0
 16 17  1  0  0  0
 17 18  1  0  0  0
 18 19  1  0  0  0
M  CHG 1  28  -1
M  END
> <minimizedAffinity>
-8.06605

> <CNNscore>
0.8984428644

> <CNNaffinity>
7.0265440941

> <CNN_VS>
6.3129482269

> <CNNaffinity_variance>
0.3833129406

$$$$
/media/chris/experiments/cd1a-new-docking/inputs/ligands/4x6c_ligand.pdb


 37 36  0  0  0  0  0  0  0  0999 V2000
  -41.6278   58.3013   65.5896 O   0  0  0  0  0  0  0  0  0  0  0  0
  -42.2455   59.2946   65.3559 C   0  0  0  0  0  0  0  0  0  0  0  0
  -43.7258   59.4259   65.5070 C   0  0  0  0  0  0  0  0  0  0  0  0
  -44.4913   58.3164   64.8109 C   0  0  0  0  0  0  0  0  0  0  0  0
  -44.9127   57.2100   65.7537 C   0  0  0  0  0  0  0  0  0  0  0  0
  -46.4073   57.0382   65.8892 C   0  0  0  0  0  0  0  0  0  0  0  0
  -47.1903   58.3067   65.6656 C   0  0  0  0  0  0  0  0  0  0  0  0
  -48.1921   58.1738   64.5503 C   0  0  0  0  0  0  0  0  0  0  0  0
  -49.6233   58.0476   64.9817 C   0  0  0  0  0  0  0  0  0  0  0  0
  -50.2705   59.3420   65.2399 C   0  0  0  0  0  0  0  0  0  0  0  0
  -50.9155   60.1080   64.3879 C   0  0  0  0  0  0  0  0  0  0  0  0
  -51.1775   59.8545   62.9486 C   0  0  0  0  0  0  0  0  0  0  0  0
  -50.0741   60.2761   61.9998 C   0  0  0  0  0  0  0  0  0  0  0  0
  -49.6623   59.1753   61.0613 C   0  0  0  0  0  0  0  0  0  0  0  0
  -50.3473   57.8543   61.3015 C   0  0  0  0  0  0  0  0  0  0  0  0
  -49.9326   56.7945   60.3048 C   0  0  0  0  0  0  0  0  0  0  0  0
  -49.7363   57.2895   58.8990 C   0  0  0  0  0  0  0  0  0  0  0  0
  -48.5338   56.7321   58.2490 C   0  0  0  0  0  0  0  0  0  0  0  0
  -47.5354   56.2431   59.1976 C   0  0  0  0  0  0  0  0  0  0  0  0
  -41.6931   60.4259   64.9179 O   0  0  0  0  0  0  0  0  0  0  0  0
  -40.4250   60.3278   64.2320 C   0  0  0  0  0  0  0  0  0  0  0  0
  -39.4846   61.3069   64.8965 C   0  0  0  0  0  0  0  0  0  0  0  0
  -40.1891   62.0366   65.9011 O   0  0  0  0  0  0  0  0  0  0  0  0
  -40.4890   61.4267   66.5932 H   0  0  0  0  0  0  0  0  0  0  0  0
  -38.2606   60.6890   65.5276 C   0  0  0  0  0  0  0  0  0  0  0  0
  -37.4949   61.7330   66.1621 O   0  0  0  0  0  0  0  0  0  0  0  0
  -36.1818   62.2857   65.4552 P   0  0  0  0  0  0  0  0  0  0  0  0
  -35.1731   61.2086   65.5128 O   0  0  0  0  0  0  0  0  0  0  0  0
  -36.5947   62.8150   64.1406 O   0  0  0  0  0  0  0  0  0  0  0  0
  -36.9328   62.0901   63.5918 H   0  0  0  0  0  0  0  0  0  0  0  0
  -35.6402   63.5110   66.3050 O   0  0  0  0  0  0  0  0  0  0  0  0
  -34.2612   63.9267   66.1659 C   0  0  0  0  0  0  0  0  0  0  0  0
  -34.2650   65.0376   65.1405 C   0  0  0  0  0  0  0  0  0  0  0  0
  -33.1859   64.9711   64.0779 N   0  0  0  0  0  0  0  0  0  0  0  0
  -31.9191   65.6050   64.5559 C   0  0  0  0  0  0  0  0  0  0  0  0
  -33.6469   65.6908   62.8512 C   0  0  0  0  0  0  0  0  0  0  0  0
  -32.9063   63.5413   63.7360 C   0  0  0  0  0  0  0  0  0  0  0  0
 34 33  1  0  0  0
 34 35  1  0  0  0
 34 36  1  0  0  0
 34 37  1  0  0  0
 22 23  1  0  0  0
 22 25  1  0  0  0
 22 21  1  0  0  0
 23 24  1  0  0  0
 27 26  1  0  0  0
 27 28  2  0  0  0
 27 31  1  0  0  0
 27 29  1  0  0  0
 25 26  1  0  0  0
 32 33  1  0  0  0
 32 31  1  0  0  0
 29 30  1  0  0  0
 20 21  1  0  0  0
 20  2  1  0  0  0
  1  2  2  0  0  0
  2  3  1  0  0  0
  3  4  1  0  0  0
  4  5  1  0  0  0
  5  6  1  0  0  0
  6  7  1  0  0  0
  7  8  1  0  0  0
  8  9  1  0  0  0
  9 10  1  0  0  0
 10 11  2  0  0  0
 11 12  1  0  0  0
 12 13  1  0  0  0
 13 14  1  0  0  0
 14 15  1  0  0  0
 15 16  1  0  0  0
 16 17  1  0  0  0
 17 18  1  0  0  0
 18 19  1  0  0  0
M  CHG 1  28  -1
M  END
> <minimizedAffinity>
-8.25537

> <CNNscore>
0.7393031120

> <CNNaffinity>
6.3378767967

> <CNN_VS>
4.6856122017

> <CNNaffinity_variance>
0.2916616797

$$$$
/media/chris/experiments/cd1a-new-docking/inputs/ligands/4x6c_ligand.pdb


 37 36  0  0  0  0  0  0  0  0999 V2000
  -40.3712   62.0539   65.9539 O   0  0  0  0  0  0  0  0  0  0  0  0
  -40.4968   60.8997   65.6802 C   0  0  0  0  0  0  0  0  0  0  0  0
  -41.4226   59.9597   66.3805 C   0  0  0  0  0  0  0  0  0  0  0  0
  -42.1905   59.0655   65.4253 C   0  0  0  0  0  0  0  0  0  0  0  0
  -43.4138   59.7393   64.8423 C   0  0  0  0  0  0  0  0  0  0  0  0
  -44.7289   59.2070   65.3611 C   0  0  0  0  0  0  0  0  0  0  0  0
  -44.8362   57.7039   65.3241 C   0  0  0  0  0  0  0  0  0  0  0  0
  -46.2459   57.2236   65.5415 C   0  0  0  0  0  0  0  0  0  0  0  0
  -47.3206   58.1030   64.9740 C   0  0  0  0  0  0  0  0  0  0  0  0
  -48.6647   57.5152   65.0681 C   0  0  0  0  0  0  0  0  0  0  0  0
  -49.8161   58.1418   65.1695 C   0  0  0  0  0  0  0  0  0  0  0  0
  -50.0604   59.6062   65.1928 C   0  0  0  0  0  0  0  0  0  0  0  0
  -50.7186   60.1783   63.9538 C   0  0  0  0  0  0  0  0  0  0  0  0
  -49.7851   60.2416   62.7763 C   0  0  0  0  0  0  0  0  0  0  0  0
  -50.2542   59.4853   61.5598 C   0  0  0  0  0  0  0  0  0  0  0  0
  -49.6614   58.0961   61.4744 C   0  0  0  0  0  0  0  0  0  0  0  0
  -50.1654   57.2619   60.3298 C   0  0  0  0  0  0  0  0  0  0  0  0
  -49.1115   56.4430   59.6990 C   0  0  0  0  0  0  0  0  0  0  0  0
  -48.4921   57.0857   58.5417 C   0  0  0  0  0  0  0  0  0  0  0  0
  -39.8161   60.2891   64.7103 O   0  0  0  0  0  0  0  0  0  0  0  0
  -39.4860   61.0643   63.5364 C   0  0  0  0  0  0  0  0  0  0  0  0
  -38.1984   60.5006   62.9805 C   0  0  0  0  0  0  0  0  0  0  0  0
  -37.7771   61.2862   61.8655 O   0  0  0  0  0  0  0  0  0  0  0  0
  -37.5798   62.1885   62.1618 H   0  0  0  0  0  0  0  0  0  0  0  0
  -37.0574   60.4226   63.9657 C   0  0  0  0  0  0  0  0  0  0  0  0
  -36.1662   61.5299   63.7244 O   0  0  0  0  0  0  0  0  0  0  0  0
  -35.8972   62.5892   64.8798 P   0  0  0  0  0  0  0  0  0  0  0  0
  -37.0308   62.4993   65.8221 O   0  0  0  0  0  0  0  0  0  0  0  0
  -34.5286   62.3430   65.3751 O   0  0  0  0  0  0  0  0  0  0  0  0
  -34.4842   61.4616   65.7776 H   0  0  0  0  0  0  0  0  0  0  0  0
  -35.9089   64.0389   64.2352 O   0  0  0  0  0  0  0  0  0  0  0  0
  -35.2900   64.2552   62.9453 C   0  0  0  0  0  0  0  0  0  0  0  0
  -34.5143   65.5470   63.0696 C   0  0  0  0  0  0  0  0  0  0  0  0
  -33.0304   65.4123   63.3479 N   0  0  0  0  0  0  0  0  0  0  0  0
  -32.7304   65.6413   64.7945 C   0  0  0  0  0  0  0  0  0  0  0  0
  -32.2763   66.4181   62.5387 C   0  0  0  0  0  0  0  0  0  0  0  0
  -32.5734   64.0366   62.9764 C   0  0  0  0  0  0  0  0  0  0  0  0
 34 33  1  0  0  0
 34 35  1  0  0  0
 34 36  1  0  0  0
 34 37  1  0  0  0
 22 23  1  0  0  0
 22 25  1  0  0  0
 22 21  1  0  0  0
 23 24  1  0  0  0
 27 26  1  0  0  0
 27 28  2  0  0  0
 27 31  1  0  0  0
 27 29  1  0  0  0
 25 26  1  0  0  0
 32 33  1  0  0  0
 32 31  1  0  0  0
 29 30  1  0  0  0
 20 21  1  0  0  0
 20  2  1  0  0  0
  1  2  2  0  0  0
  2  3  1  0  0  0
  3  4  1  0  0  0
  4  5  1  0  0  0
  5  6  1  0  0  0
  6  7  1  0  0  0
  7  8  1  0  0  0
  8  9  1  0  0  0
  9 10  1  0  0  0
 10 11  2  0  0  0
 11 12  1  0  0  0
 12 13  1  0  0  0
 13 14  1  0  0  0
 14 15  1  0  0  0
 15 16  1  0  0  0
 16 17  1  0  0  0
 17 18  1  0  0  0
 18 19  1  0  0  0
M  CHG 1  28  -1
M  END
> <minimizedAffinity>
-7.92974

> <CNNscore>
0.7177811861

> <CNNaffinity>
6.3456635475

> <CNN_VS>
4.5547981262

> <CNNaffinity_variance>
0.4624412060

$$$$
/media/chris/experiments/cd1a-new-docking/inputs/ligands/4x6c_ligand.pdb


 37 36  0  0  0  0  0  0  0  0999 V2000
  -41.8033   59.3092   67.1345 O   0  0  0  0  0  0  0  0  0  0  0  0
  -41.9548   58.9573   66.0048 C   0  0  0  0  0  0  0  0  0  0  0  0
  -43.2783   58.8583   65.3194 C   0  0  0  0  0  0  0  0  0  0  0  0
  -43.8499   57.4532   65.3388 C   0  0  0  0  0  0  0  0  0  0  0  0
  -44.9933   57.2957   66.3177 C   0  0  0  0  0  0  0  0  0  0  0  0
  -46.2967   56.8568   65.6928 C   0  0  0  0  0  0  0  0  0  0  0  0
  -47.2357   57.9931   65.3776 C   0  0  0  0  0  0  0  0  0  0  0  0
  -46.9702   59.2088   66.2244 C   0  0  0  0  0  0  0  0  0  0  0  0
  -47.9219   60.3514   66.0271 C   0  0  0  0  0  0  0  0  0  0  0  0
  -47.8911   60.9073   64.6666 C   0  0  0  0  0  0  0  0  0  0  0  0
  -48.8289   60.8474   63.7471 C   0  0  0  0  0  0  0  0  0  0  0  0
  -50.1717   60.2223   63.8509 C   0  0  0  0  0  0  0  0  0  0  0  0
  -50.2556   58.7771   63.4040 C   0  0  0  0  0  0  0  0  0  0  0  0
  -50.7299   58.6345   61.9838 C   0  0  0  0  0  0  0  0  0  0  0  0
  -49.6292   58.5695   60.9561 C   0  0  0  0  0  0  0  0  0  0  0  0
  -49.4334   57.1759   60.4011 C   0  0  0  0  0  0  0  0  0  0  0  0
  -49.2576   57.1071   58.9097 C   0  0  0  0  0  0  0  0  0  0  0  0
  -48.3418   56.0316   58.4812 C   0  0  0  0  0  0  0  0  0  0  0  0
  -46.9732   56.2088   58.9626 C   0  0  0  0  0  0  0  0  0  0  0  0
  -40.9554   58.5952   65.2004 O   0  0  0  0  0  0  0  0  0  0  0  0
  -39.9153   59.5662   64.9491 C   0  0  0  0  0  0  0  0  0  0  0  0
  -39.3937   59.3064   63.5545 C   0  0  0  0  0  0  0  0  0  0  0  0
  -38.6477   60.4383   63.1067 O   0  0  0  0  0  0  0  0  0  0  0  0
  -37.8712   60.5591   63.6753 H   0  0  0  0  0  0  0  0  0  0  0  0
  -38.5258   58.0793   63.4154 C   0  0  0  0  0  0  0  0  0  0  0  0
  -37.5166   58.1120   64.4444 O   0  0  0  0  0  0  0  0  0  0  0  0
  -35.9883   58.2904   64.0419 P   0  0  0  0  0  0  0  0  0  0  0  0
  -35.3200   56.9983   64.2962 O   0  0  0  0  0  0  0  0  0  0  0  0
  -35.9687   58.8543   62.6779 O   0  0  0  0  0  0  0  0  0  0  0  0
  -36.3561   58.2162   62.0586 H   0  0  0  0  0  0  0  0  0  0  0  0
  -35.3452   59.3735   65.0065 O   0  0  0  0  0  0  0  0  0  0  0  0
  -33.9081   59.4291   65.1656 C   0  0  0  0  0  0  0  0  0  0  0  0
  -33.3600   59.8690   63.8271 C   0  0  0  0  0  0  0  0  0  0  0  0
  -32.2369   59.0273   63.2545 N   0  0  0  0  0  0  0  0  0  0  0  0
  -32.6507   58.3756   61.9742 C   0  0  0  0  0  0  0  0  0  0  0  0
  -31.8614   57.9615   64.2334 C   0  0  0  0  0  0  0  0  0  0  0  0
  -31.0467   59.8942   62.9874 C   0  0  0  0  0  0  0  0  0  0  0  0
 34 33  1  0  0  0
 34 35  1  0  0  0
 34 36  1  0  0  0
 34 37  1  0  0  0
 22 23  1  0  0  0
 22 25  1  0  0  0
 22 21  1  0  0  0
 23 24  1  0  0  0
 27 26  1  0  0  0
 27 28  2  0  0  0
 27 31  1  0  0  0
 27 29  1  0  0  0
 25 26  1  0  0  0
 32 33  1  0  0  0
 32 31  1  0  0  0
 29 30  1  0  0  0
 20 21  1  0  0  0
 20  2  1  0  0  0
  1  2  2  0  0  0
  2  3  1  0  0  0
  3  4  1  0  0  0
  4  5  1  0  0  0
  5  6  1  0  0  0
  6  7  1  0  0  0
  7  8  1  0  0  0
  8  9  1  0  0  0
  9 10  1  0  0  0
 10 11  2  0  0  0
 11 12  1  0  0  0
 12 13  1  0  0  0
 13 14  1  0  0  0
 14 15  1  0  0  0
 15 16  1  0  0  0
 16 17  1  0  0  0
 17 18  1  0  0  0
 18 19  1  0  0  0
M  CHG 1  28  -1
M  END
> <minimizedAffinity>
-7.33829

> <CNNscore>
0.6861600876

> <CNNaffinity>
6.3679561615

> <CNN_VS>
4.3694372177

> <CNNaffinity_variance>
0.6256473660

$$$$
/media/chris/experiments/cd1a-new-docking/inputs/ligands/4x6c_ligand.pdb


 37 36  0  0  0  0  0  0  0  0999 V2000
  -40.2556   60.2346   65.6802 O   0  0  0  0  0  0  0  0  0  0  0  0
  -40.4072   59.1473   65.2137 C   0  0  0  0  0  0  0  0  0  0  0  0
  -41.7002   58.3995   65.2130 C   0  0  0  0  0  0  0  0  0  0  0  0
  -42.5993   58.7728   66.3765 C   0  0  0  0  0  0  0  0  0  0  0  0
  -44.0704   58.7171   66.0258 C   0  0  0  0  0  0  0  0  0  0  0  0
  -44.5404   59.8296   65.1185 C   0  0  0  0  0  0  0  0  0  0  0  0
  -46.0119   60.1342   65.2381 C   0  0  0  0  0  0  0  0  0  0  0  0
  -46.8169   58.9279   65.6406 C   0  0  0  0  0  0  0  0  0  0  0  0
  -47.5743   58.2598   64.5314 C   0  0  0  0  0  0  0  0  0  0  0  0
  -48.8929   57.7588   64.9453 C   0  0  0  0  0  0  0  0  0  0  0  0
  -50.0635   58.3360   64.7869 C   0  0  0  0  0  0  0  0  0  0  0  0
  -50.3609   59.6334   64.1290 C   0  0  0  0  0  0  0  0  0  0  0  0
  -51.1336   59.5443   62.8288 C   0  0  0  0  0  0  0  0  0  0  0  0
  -50.3158   58.9697   61.7048 C   0  0  0  0  0  0  0  0  0  0  0  0
  -50.7869   57.6277   61.2059 C   0  0  0  0  0  0  0  0  0  0  0  0
  -50.0743   57.1936   59.9441 C   0  0  0  0  0  0  0  0  0  0  0  0
  -49.2605   55.9365   60.0769 C   0  0  0  0  0  0  0  0  0  0  0  0
  -48.0649   55.9237   59.2112 C   0  0  0  0  0  0  0  0  0  0  0  0
  -48.0141   57.0451   58.2753 C   0  0  0  0  0  0  0  0  0  0  0  0
  -39.4328   58.4466   64.6336 O   0  0  0  0  0  0  0  0  0  0  0  0
  -38.6017   59.1305   63.6695 C   0  0  0  0  0  0  0  0  0  0  0  0
  -37.1727   58.7252   63.9494 C   0  0  0  0  0  0  0  0  0  0  0  0
  -36.3587   59.0394   62.8195 O   0  0  0  0  0  0  0  0  0  0  0  0
  -36.3529   59.9996   62.6823 H   0  0  0  0  0  0  0  0  0  0  0  0
  -36.5561   59.3612   65.1716 C   0  0  0  0  0  0  0  0  0  0  0  0
  -37.2102   60.6235   65.4115 O   0  0  0  0  0  0  0  0  0  0  0  0
  -36.4391   61.9799   65.1035 P   0  0  0  0  0  0  0  0  0  0  0  0
  -36.9418   62.4792   63.8078 O   0  0  0  0  0  0  0  0  0  0  0  0
  -36.5736   62.8297   66.3031 O   0  0  0  0  0  0  0  0  0  0  0  0
  -37.5076   63.0544   66.4370 H   0  0  0  0  0  0  0  0  0  0  0  0
  -34.8972   61.6461   64.9359 O   0  0  0  0  0  0  0  0  0  0  0  0
  -33.9080   62.6628   65.2214 C   0  0  0  0  0  0  0  0  0  0  0  0
  -33.4430   63.1771   63.8779 C   0  0  0  0  0  0  0  0  0  0  0  0
  -33.2863   64.6797   63.7543 N   0  0  0  0  0  0  0  0  0  0  0  0
  -34.4918   65.2971   63.1213 C   0  0  0  0  0  0  0  0  0  0  0  0
  -32.0919   64.9904   62.9106 C   0  0  0  0  0  0  0  0  0  0  0  0
  -33.1001   65.2779   65.1133 C   0  0  0  0  0  0  0  0  0  0  0  0
 34 33  1  0  0  0
 34 35  1  0  0  0
 34 36  1  0  0  0
 34 37  1  0  0  0
 22 23  1  0  0  0
 22 25  1  0  0  0
 22 21  1  0  0  0
 23 24  1  0  0  0
 27 26  1  0  0  0
 27 28  2  0  0  0
 27 31  1  0  0  0
 27 29  1  0  0  0
 25 26  1  0  0  0
 32 33  1  0  0  0
 32 31  1  0  0  0
 29 30  1  0  0  0
 20 21  1  0  0  0
 20  2  1  0  0  0
  1  2  2  0  0  0
  2  3  1  0  0  0
  3  4  1  0  0  0
  4  5  1  0  0  0
  5  6  1  0  0  0
  6  7  1  0  0  0
  7  8  1  0  0  0
  8  9  1  0  0  0
  9 10  1  0  0  0
 10 11  2  0  0  0
 11 12  1  0  0  0
 12 13  1  0  0  0
 13 14  1  0  0  0
 14 15  1  0  0  0
 15 16  1  0  0  0
 16 17  1  0  0  0
 17 18  1  0  0  0
 18 19  1  0  0  0
M  CHG 1  28  -1
M  END
> <minimizedAffinity>
-7.47318

> <CNNscore>
0.6437991261

> <CNNaffinity>
6.2224397659

> <CNN_VS>
4.0060014725

> <CNNaffinity_variance>
0.2410780638

$$$$
/media/chris/experiments/cd1a-new-docking/inputs/ligands/4x6c_ligand.pdb


 37 36  0  0  0  0  0  0  0  0999 V2000
  -42.1702   60.7264   67.0367 O   0  0  0  0  0  0  0  0  0  0  0  0
  -42.1569   60.6610   65.8457 C   0  0  0  0  0  0  0  0  0  0  0  0
  -42.9313   59.6666   65.0440 C   0  0  0  0  0  0  0  0  0  0  0  0
  -44.4321   59.8198   65.2031 C   0  0  0  0  0  0  0  0  0  0  0  0
  -45.1340   58.5048   65.4655 C   0  0  0  0  0  0  0  0  0  0  0  0
  -46.2649   58.5869   66.4635 C   0  0  0  0  0  0  0  0  0  0  0  0
  -47.5651   59.0712   65.8742 C   0  0  0  0  0  0  0  0  0  0  0  0
  -48.2696   58.0026   65.0824 C   0  0  0  0  0  0  0  0  0  0  0  0
  -49.7683   58.0481   65.1303 C   0  0  0  0  0  0  0  0  0  0  0  0
  -50.3063   59.4103   65.2564 C   0  0  0  0  0  0  0  0  0  0  0  0
  -50.8672   60.1478   64.3236 C   0  0  0  0  0  0  0  0  0  0  0  0
  -51.1236   59.7886   62.9060 C   0  0  0  0  0  0  0  0  0  0  0  0
  -50.0824   60.2638   61.9133 C   0  0  0  0  0  0  0  0  0  0  0  0
  -49.6618   59.1866   60.9516 C   0  0  0  0  0  0  0  0  0  0  0  0
  -49.6172   57.7998   61.5402 C   0  0  0  0  0  0  0  0  0  0  0  0
  -49.5292   56.7217   60.4825 C   0  0  0  0  0  0  0  0  0  0  0  0
  -49.5615   57.2212   59.0649 C   0  0  0  0  0  0  0  0  0  0  0  0
  -48.3585   56.8549   58.2918 C   0  0  0  0  0  0  0  0  0  0  0  0
  -47.3473   56.1607   59.0864 C   0  0  0  0  0  0  0  0  0  0  0  0
  -41.4369   61.4681   65.0666 O   0  0  0  0  0  0  0  0  0  0  0  0
  -40.5852   60.8532   64.0743 C   0  0  0  0  0  0  0  0  0  0  0  0
  -39.1566   61.1046   64.4992 C   0  0  0  0  0  0  0  0  0  0  0  0
  -39.1377   62.0458   65.5724 O   0  0  0  0  0  0  0  0  0  0  0  0
  -39.5935   61.6687   66.3412 H   0  0  0  0  0  0  0  0  0  0  0  0
  -38.3928   59.8761   64.9304 C   0  0  0  0  0  0  0  0  0  0  0  0
  -37.2552   59.7139   64.0597 O   0  0  0  0  0  0  0  0  0  0  0  0
  -37.4645   59.1434   62.5900 P   0  0  0  0  0  0  0  0  0  0  0  0
  -38.5066   58.1004   62.6749 O   0  0  0  0  0  0  0  0  0  0  0  0
  -37.6808   60.3063   61.7070 O   0  0  0  0  0  0  0  0  0  0  0  0
  -38.5020   60.7561   61.9600 H   0  0  0  0  0  0  0  0  0  0  0  0
  -36.1132   58.4506   62.1306 O   0  0  0  0  0  0  0  0  0  0  0  0
  -35.2816   57.7819   63.1078 C   0  0  0  0  0  0  0  0  0  0  0  0
  -33.8595   58.1776   62.7816 C   0  0  0  0  0  0  0  0  0  0  0  0
  -33.1066   58.9227   63.8661 N   0  0  0  0  0  0  0  0  0  0  0  0
  -33.6254   60.3161   64.0221 C   0  0  0  0  0  0  0  0  0  0  0  0
  -31.6557   58.9900   63.5119 C   0  0  0  0  0  0  0  0  0  0  0  0
  -33.2641   58.2046   65.1695 C   0  0  0  0  0  0  0  0  0  0  0  0
 34 33  1  0  0  0
 34 35  1  0  0  0
 34 36  1  0  0  0
 34 37  1  0  0  0
 22 23  1  0  0  0
 22 25  1  0  0  0
 22 21  1  0  0  0
 23 24  1  0  0  0
 27 26  1  0  0  0
 27 28  2  0  0  0
 27 31  1  0  0  0
 27 29  1  0  0  0
 25 26  1  0  0  0
 32 33  1  0  0  0
 32 31  1  0  0  0
 29 30  1  0  0  0
 20 21  1  0  0  0
 20  2  1  0  0  0
  1  2  2  0  0  0
  2  3  1  0  0  0
  3  4  1  0  0  0
  4  5  1  0  0  0
  5  6  1  0  0  0
  6  7  1  0  0  0
  7  8  1  0  0  0
  8  9  1  0  0  0
  9 10  1  0  0  0
 10 11  2  0  0  0
 11 12  1  0  0  0
 12 13  1  0  0  0
 13 14  1  0  0  0
 14 15  1  0  0  0
 15 16  1  0  0  0
 16 17  1  0  0  0
 17 18  1  0  0  0
 18 19  1  0  0  0
M  CHG 1  28  -1
M  END
> <minimizedAffinity>
-7.91069

> <CNNscore>
0.6292356849

> <CNNaffinity>
6.4257707596

> <CNN_VS>
4.0433244705

> <CNNaffinity_variance>
0.3194693923

$$$$
/media/chris/experiments/cd1a-new-docking/inputs/ligands/4x6c_ligand.pdb


 37 36  0  0  0  0  0  0  0  0999 V2000
  -37.5284   59.4397   65.2486 O   0  0  0  0  0  0  0  0  0  0  0  0
  -38.0400   59.6283   64.1877 C   0  0  0  0  0  0  0  0  0  0  0  0
  -39.5146   59.6459   63.9504 C   0  0  0  0  0  0  0  0  0  0  0  0
  -40.2709   58.6968   64.8609 C   0  0  0  0  0  0  0  0  0  0  0  0
  -41.1797   59.4142   65.8355 C   0  0  0  0  0  0  0  0  0  0  0  0
  -42.3070   60.1847   65.1896 C   0  0  0  0  0  0  0  0  0  0  0  0
  -43.4769   59.3266   64.7804 C   0  0  0  0  0  0  0  0  0  0  0  0
  -44.5633   59.3031   65.8219 C   0  0  0  0  0  0  0  0  0  0  0  0
  -45.9615   59.4450   65.2972 C   0  0  0  0  0  0  0  0  0  0  0  0
  -46.6521   58.1589   65.1235 C   0  0  0  0  0  0  0  0  0  0  0  0
  -47.8615   57.9475   64.6530 C   0  0  0  0  0  0  0  0  0  0  0  0
  -48.8358   58.9505   64.1537 C   0  0  0  0  0  0  0  0  0  0  0  0
  -49.9875   58.3942   63.3415 C   0  0  0  0  0  0  0  0  0  0  0  0
  -49.6349   58.1961   61.8929 C   0  0  0  0  0  0  0  0  0  0  0  0
  -50.6977   57.5085   61.0747 C   0  0  0  0  0  0  0  0  0  0  0  0
  -50.3556   57.4575   59.6020 C   0  0  0  0  0  0  0  0  0  0  0  0
  -48.8937   57.2848   59.2970 C   0  0  0  0  0  0  0  0  0  0  0  0
  -48.4267   55.8937   59.4573 C   0  0  0  0  0  0  0  0  0  0  0  0
  -47.1906   55.6092   58.7314 C   0  0  0  0  0  0  0  0  0  0  0  0
  -37.3577   59.8421   63.0627 O   0  0  0  0  0  0  0  0  0  0  0  0
  -37.5328   58.8950   61.9855 C   0  0  0  0  0  0  0  0  0  0  0  0
  -36.7198   57.6699   62.3357 C   0  0  0  0  0  0  0  0  0  0  0  0
  -37.0404   56.6117   61.4327 O   0  0  0  0  0  0  0  0  0  0  0  0
  -36.7845   56.8664   60.5324 H   0  0  0  0  0  0  0  0  0  0  0  0
  -35.2238   57.8705   62.3215 C   0  0  0  0  0  0  0  0  0  0  0  0
  -34.7451   57.8503   63.6813 O   0  0  0  0  0  0  0  0  0  0  0  0
  -33.6680   58.9215   64.1520 P   0  0  0  0  0  0  0  0  0  0  0  0
  -33.3347   58.6118   65.5570 O   0  0  0  0  0  0  0  0  0  0  0  0
  -32.5930   58.9195   63.1404 O   0  0  0  0  0  0  0  0  0  0  0  0
  -32.1546   58.0542   63.1361 H   0  0  0  0  0  0  0  0  0  0  0  0
  -34.3457   60.3554   64.1132 O   0  0  0  0  0  0  0  0  0  0  0  0
  -34.4957   61.1113   65.3380 C   0  0  0  0  0  0  0  0  0  0  0  0
  -34.9365   62.4954   64.9190 C   0  0  0  0  0  0  0  0  0  0  0  0
  -33.9671   63.6235   65.2112 N   0  0  0  0  0  0  0  0  0  0  0  0
  -32.7751   63.5564   64.3114 C   0  0  0  0  0  0  0  0  0  0  0  0
  -33.5016   63.5286   66.6287 C   0  0  0  0  0  0  0  0  0  0  0  0
  -34.6506   64.9384   65.0027 C   0  0  0  0  0  0  0  0  0  0  0  0
 34 33  1  0  0  0
 34 35  1  0  0  0
 34 36  1  0  0  0
 34 37  1  0  0  0
 22 23  1  0  0  0
 22 25  1  0  0  0
 22 21  1  0  0  0
 23 24  1  0  0  0
 27 26  1  0  0  0
 27 28  2  0  0  0
 27 31  1  0  0  0
 27 29  1  0  0  0
 25 26  1  0  0  0
 32 33  1  0  0  0
 32 31  1  0  0  0
 29 30  1  0  0  0
 20 21  1  0  0  0
 20  2  1  0  0  0
  1  2  2  0  0  0
  2  3  1  0  0  0
  3  4  1  0  0  0
  4  5  1  0  0  0
  5  6  1  0  0  0
  6  7  1  0  0  0
  7  8  1  0  0  0
  8  9  1  0  0  0
  9 10  1  0  0  0
 10 11  2  0  0  0
 11 12  1  0  0  0
 12 13  1  0  0  0
 13 14  1  0  0  0
 14 15  1  0  0  0
 15 16  1  0  0  0
 16 17  1  0  0  0
 17 18  1  0  0  0
 18 19  1  0  0  0
M  CHG 1  28  -1
M  END
> <minimizedAffinity>
-7.28309

> <CNNscore>
0.6242575645

> <CNNaffinity>
6.5874848366

> <CNN_VS>
4.1122870445

> <CNNaffinity_variance>
0.6159209609

$$$$
/media/chris/experiments/cd1a-new-docking/inputs/ligands/4x6c_ligand.pdb


 37 36  0  0  0  0  0  0  0  0999 V2000
  -38.0467   60.8107   66.5465 O   0  0  0  0  0  0  0  0  0  0  0  0
  -38.7833   60.8534   65.6092 C   0  0  0  0  0  0  0  0  0  0  0  0
  -40.2739   60.8269   65.7024 C   0  0  0  0  0  0  0  0  0  0  0  0
  -40.8397   59.4195   65.7227 C   0  0  0  0  0  0  0  0  0  0  0  0
  -41.8272   59.1976   66.8479 C   0  0  0  0  0  0  0  0  0  0  0  0
  -43.1853   59.8186   66.6206 C   0  0  0  0  0  0  0  0  0  0  0  0
  -43.7870   59.4957   65.2768 C   0  0  0  0  0  0  0  0  0  0  0  0
  -44.5667   58.2084   65.2914 C   0  0  0  0  0  0  0  0  0  0  0  0
  -45.8514   58.2424   66.0650 C   0  0  0  0  0  0  0  0  0  0  0  0
  -46.7781   57.1599   65.7037 C   0  0  0  0  0  0  0  0  0  0  0  0
  -47.9330   57.2576   65.0828 C   0  0  0  0  0  0  0  0  0  0  0  0
  -48.5912   58.4837   64.5652 C   0  0  0  0  0  0  0  0  0  0  0  0
  -49.8385   58.2550   63.7361 C   0  0  0  0  0  0  0  0  0  0  0  0
  -49.5384   58.0667   62.2743 C   0  0  0  0  0  0  0  0  0  0  0  0
  -50.7547   57.9338   61.3941 C   0  0  0  0  0  0  0  0  0  0  0  0
  -50.5452   56.9593   60.2561 C   0  0  0  0  0  0  0  0  0  0  0  0
  -49.2220   56.2459   60.2687 C   0  0  0  0  0  0  0  0  0  0  0  0
  -48.5647   56.2166   58.9472 C   0  0  0  0  0  0  0  0  0  0  0  0
  -47.1055   56.1908   59.0253 C   0  0  0  0  0  0  0  0  0  0  0  0
  -38.3703   60.9230   64.3438 O   0  0  0  0  0  0  0  0  0  0  0  0
  -39.2348   61.5863   63.3948 C   0  0  0  0  0  0  0  0  0  0  0  0
  -39.6359   60.5556   62.3646 C   0  0  0  0  0  0  0  0  0  0  0  0
  -40.6931   61.0750   61.5581 O   0  0  0  0  0  0  0  0  0  0  0  0
  -40.3750   61.8487   61.0671 H   0  0  0  0  0  0  0  0  0  0  0  0
  -38.5235   60.0970   61.4531 C   0  0  0  0  0  0  0  0  0  0  0  0
  -38.1332   58.7642   61.8401 O   0  0  0  0  0  0  0  0  0  0  0  0
  -36.9933   58.0109   61.0261 P   0  0  0  0  0  0  0  0  0  0  0  0
  -37.0337   56.5927   61.4361 O   0  0  0  0  0  0  0  0  0  0  0  0
  -37.1860   58.3543   59.6035 O   0  0  0  0  0  0  0  0  0  0  0  0
  -38.0369   58.0026   59.2984 H   0  0  0  0  0  0  0  0  0  0  0  0
  -35.5917   58.6093   61.4673 O   0  0  0  0  0  0  0  0  0  0  0  0
  -34.7172   57.8339   62.3203 C   0  0  0  0  0  0  0  0  0  0  0  0
  -34.0339   58.8309   63.2285 C   0  0  0  0  0  0  0  0  0  0  0  0
  -34.4101   58.7673   64.6955 N   0  0  0  0  0  0  0  0  0  0  0  0
  -35.6991   58.0353   64.8900 C   0  0  0  0  0  0  0  0  0  0  0  0
  -34.5622   60.1538   65.2335 C   0  0  0  0  0  0  0  0  0  0  0  0
  -33.3364   58.0565   65.4580 C   0  0  0  0  0  0  0  0  0  0  0  0
 34 33  1  0  0  0
 34 35  1  0  0  0
 34 36  1  0  0  0
 34 37  1  0  0  0
 22 23  1  0  0  0
 22 25  1  0  0  0
 22 21  1  0  0  0
 23 24  1  0  0  0
 27 26  1  0  0  0
 27 28  2  0  0  0
 27 31  1  0  0  0
 27 29  1  0  0  0
 25 26  1  0  0  0
 32 33  1  0  0  0
 32 31  1  0  0  0
 29 30  1  0  0  0
 20 21  1  0  0  0
 20  2  1  0  0  0
  1  2  2  0  0  0
  2  3  1  0  0  0
  3  4  1  0  0  0
  4  5  1  0  0  0
  5  6  1  0  0  0
  6  7  1  0  0  0
  7  8  1  0  0  0
  8  9  1  0  0  0
  9 10  1  0  0  0
 10 11  2  0  0  0
 11 12  1  0  0  0
 12 13  1  0  0  0
 13 14  1  0  0  0
 14 15  1  0  0  0
 15 16  1  0  0  0
 16 17  1  0  0  0
 17 18  1  0  0  0
 18 19  1  0  0  0
M  CHG 1  28  -1
M  END
> <minimizedAffinity>
-7.42709

> <CNNscore>
0.6058060527

> <CNNaffinity>
6.7176513672

> <CNN_VS>
4.0695939064

> <CNNaffinity_variance>
0.8321648836

$$$$
/media/chris/experiments/cd1a-new-docking/inputs/ligands/4x6c_ligand.pdb


 37 36  0  0  0  0  0  0  0  0999 V2000
  -41.4936   58.2920   65.6104 O   0  0  0  0  0  0  0  0  0  0  0  0
  -42.2247   59.1571   65.2359 C   0  0  0  0  0  0  0  0  0  0  0  0
  -43.6489   58.9479   64.8372 C   0  0  0  0  0  0  0  0  0  0  0  0
  -44.1724   57.5749   65.2143 C   0  0  0  0  0  0  0  0  0  0  0  0
  -45.6840   57.5101   65.2502 C   0  0  0  0  0  0  0  0  0  0  0  0
  -46.3349   58.5535   66.1274 C   0  0  0  0  0  0  0  0  0  0  0  0
  -47.6741   59.0265   65.6222 C   0  0  0  0  0  0  0  0  0  0  0  0
  -48.3711   57.9879   64.7851 C   0  0  0  0  0  0  0  0  0  0  0  0
  -49.8690   57.9944   64.8666 C   0  0  0  0  0  0  0  0  0  0  0  0
  -50.4281   59.3083   65.2158 C   0  0  0  0  0  0  0  0  0  0  0  0
  -50.9357   60.2121   64.4070 C   0  0  0  0  0  0  0  0  0  0  0  0
  -51.0969   60.1317   62.9332 C   0  0  0  0  0  0  0  0  0  0  0  0
  -49.8424   60.3902   62.1239 C   0  0  0  0  0  0  0  0  0  0  0  0
  -49.7299   59.4917   60.9230 C   0  0  0  0  0  0  0  0  0  0  0  0
  -50.2965   58.1084   61.1166 C   0  0  0  0  0  0  0  0  0  0  0  0
  -49.2239   57.0431   61.1721 C   0  0  0  0  0  0  0  0  0  0  0  0
  -49.2295   56.0782   60.0193 C   0  0  0  0  0  0  0  0  0  0  0  0
  -48.3182   56.4721   58.9269 C   0  0  0  0  0  0  0  0  0  0  0  0
  -47.1247   55.6334   58.8359 C   0  0  0  0  0  0  0  0  0  0  0  0
  -41.8620   60.4340   65.1150 O   0  0  0  0  0  0  0  0  0  0  0  0
  -40.7656   60.7352   64.2234 C   0  0  0  0  0  0  0  0  0  0  0  0
  -39.8511   61.6926   64.9526 C   0  0  0  0  0  0  0  0  0  0  0  0
  -40.6092   62.4492   65.8965 O   0  0  0  0  0  0  0  0  0  0  0  0
  -40.9783   61.8532   66.5668 H   0  0  0  0  0  0  0  0  0  0  0  0
  -38.6970   61.0454   65.6789 C   0  0  0  0  0  0  0  0  0  0  0  0
  -37.6856   62.0451   65.9162 O   0  0  0  0  0  0  0  0  0  0  0  0
  -36.2905   61.9477   65.1588 P   0  0  0  0  0  0  0  0  0  0  0  0
  -36.5095   62.4380   63.7831 O   0  0  0  0  0  0  0  0  0  0  0  0
  -35.2928   62.6220   66.0126 O   0  0  0  0  0  0  0  0  0  0  0  0
  -35.5141   63.5635   66.0867 H   0  0  0  0  0  0  0  0  0  0  0  0
  -35.8783   60.4179   65.0747 O   0  0  0  0  0  0  0  0  0  0  0  0
  -35.5899   59.8225   63.7878 C   0  0  0  0  0  0  0  0  0  0  0  0
  -36.1910   58.4359   63.8291 C   0  0  0  0  0  0  0  0  0  0  0  0
  -37.4055   58.2066   62.9515 N   0  0  0  0  0  0  0  0  0  0  0  0
  -37.8036   59.4618   62.2436 C   0  0  0  0  0  0  0  0  0  0  0  0
  -38.5525   57.7492   63.7943 C   0  0  0  0  0  0  0  0  0  0  0  0
  -37.0948   57.1586   61.9294 C   0  0  0  0  0  0  0  0  0  0  0  0
 34 33  1  0  0  0
 34 35  1  0  0  0
 34 36  1  0  0  0
 34 37  1  0  0  0
 22 23  1  0  0  0
 22 25  1  0  0  0
 22 21  1  0  0  0
 23 24  1  0  0  0
 27 26  1  0  0  0
 27 28  2  0  0  0
 27 31  1  0  0  0
 27 29  1  0  0  0
 25 26  1  0  0  0
 32 33  1  0  0  0
 32 31  1  0  0  0
 29 30  1  0  0  0
 20 21  1  0  0  0
 20  2  1  0  0  0
  1  2  2  0  0  0
  2  3  1  0  0  0
  3  4  1  0  0  0
  4  5  1  0  0  0
  5  6  1  0  0  0
  6  7  1  0  0  0
  7  8  1  0  0  0
  8  9  1  0  0  0
  9 10  1  0  0  0
 10 11  2  0  0  0
 11 12  1  0  0  0
 12 13  1  0  0  0
 13 14  1  0  0  0
 14 15  1  0  0  0
 15 16  1  0  0  0
 16 17  1  0  0  0
 17 18  1  0  0  0
 18 19  1  0  0  0
M  CHG 1  28  -1
M  END
> <minimizedAffinity>
-7.91972

> <CNNscore>
0.6004825234

> <CNNaffinity>
6.7964844704

> <CNN_VS>
4.0811700821

> <CNNaffinity_variance>
0.3331444860

$$$$
