/media/chris/experiments/cd1a-new-docking/inputs/ligands/4x6e_ligand.pdb
 OpenBabel07012320273D

 88 87  0  0  1  0  0  0  0  0999 V2000
  -37.1047   61.4036   63.4668 N   0  0  0  0  0  4  0  0  0  0  0  0
  -40.8660   63.3942   65.4355 C   0  0  1  0  0  0  0  0  0  0  0  0
  -39.5762   63.6755   65.9956 O   0  0  0  0  0  0  0  0  0  0  0  0
  -39.0144   65.5547   63.6669 P   0  0  1  0  0  0  0  0  0  0  0  0
  -41.4096   64.6394   64.7749 C   0  0  0  0  0  0  0  0  0  0  0  0
  -40.5524   65.0970   63.7011 O   0  0  0  0  0  0  0  0  0  0  0  0
  -38.0238   63.4412   62.1921 C   0  0  0  0  0  0  0  0  0  0  0  0
  -38.6652   66.1568   65.0269 O   0  5  0  0  0  0  0  0  0  0  0  0
  -36.9683   62.3690   62.3041 C   0  0  0  0  0  0  0  0  0  0  0  0
  -38.0139   64.2817   63.3781 O   0  0  0  0  0  0  0  0  0  0  0  0
  -37.0735   62.1414   64.7667 C   0  0  0  0  0  0  0  0  0  0  0  0
  -38.8544   66.6014   62.6339 O   0  0  0  0  0  0  0  0  0  0  0  0
  -35.9618   60.4431   63.4263 C   0  0  0  0  0  0  0  0  0  0  0  0
  -40.3646   61.0134   65.1616 O   0  0  0  0  0  0  0  0  0  0  0  0
  -38.3969   60.6436   63.3715 C   0  0  0  0  0  0  0  0  0  0  0  0
  -41.5829   59.4037   64.1731 O   0  0  0  0  0  0  0  0  0  0  0  0
  -40.8026   62.2143   64.4888 C   0  0  0  0  0  0  0  0  0  0  0  0
  -41.1924   59.9644   65.1670 C   0  0  0  0  0  0  0  0  0  0  0  0
  -41.5470   59.5850   66.5720 C   0  0  0  0  0  0  0  0  0  0  0  0
  -42.4780   58.3810   66.6510 C   0  0  0  0  0  0  0  0  0  0  0  0
  -43.8050   58.5690   65.9360 C   0  0  0  0  0  0  0  0  0  0  0  0
  -44.6170   59.7376   66.4663 C   0  0  0  0  0  0  0  0  0  0  0  0
  -43.9014   61.0697   66.3219 C   0  0  0  0  0  0  0  0  0  0  0  0
  -44.7168   62.2195   66.8702 C   0  0  0  0  0  0  0  0  0  0  0  0
  -45.0441   62.1185   68.3462 C   0  0  0  0  0  0  0  0  0  0  0  0
  -45.8565   63.2436   68.8623 C   0  0  0  0  0  0  0  0  0  0  0  0
  -45.3921   64.3656   69.3726 C   0  0  0  0  0  0  0  0  0  0  0  0
  -43.9606   64.7716   69.5080 C   0  0  0  0  0  0  0  0  0  0  0  0
  -43.4078   64.3108   70.8577 C   0  0  0  0  0  0  0  0  0  0  0  0
  -41.9563   64.6789   71.1278 C   0  0  0  0  0  0  0  0  0  0  0  0
  -41.6621   66.1741   71.1387 C   0  0  0  0  0  0  0  0  0  0  0  0
  -42.4350   66.9392   72.2079 C   0  0  0  0  0  0  0  0  0  0  0  0
  -42.1332   66.4826   73.6264 C   0  0  0  0  0  0  0  0  0  0  0  0
  -40.6838   66.6309   74.0640 C   0  0  0  0  0  0  0  0  0  0  0  0
  -40.2113   68.0520   74.0325 C   0  0  0  0  0  0  0  0  0  0  0  0
  -41.5418   63.1140   66.2163 H   0  0  0  0  0  0  0  0  0  0  0  0
  -38.9644   63.9294   65.2870 H   0  0  0  0  0  0  0  0  0  0  0  0
  -41.4889   65.4141   65.5087 H   0  0  0  0  0  0  0  0  0  0  0  0
  -42.3668   64.4041   64.3587 H   0  0  0  0  0  0  0  0  0  0  0  0
  -38.9850   62.9819   62.0926 H   0  0  0  0  0  0  0  0  0  0  0  0
  -37.8171   64.0461   61.3340 H   0  0  0  0  0  0  0  0  0  0  0  0
  -36.9905   61.7955   61.4010 H   0  0  0  0  0  0  0  0  0  0  0  0
  -36.0507   62.8918   62.4761 H   0  0  0  0  0  0  0  0  0  0  0  0
  -36.1564   62.6869   64.8454 H   0  0  0  0  0  0  0  0  0  0  0  0
  -37.1439   61.4436   65.5748 H   0  0  0  0  0  0  0  0  0  0  0  0
  -37.8981   62.8219   64.8104 H   0  0  0  0  0  0  0  0  0  0  0  0
  -39.4536   67.3396   62.8260 H   0  0  0  0  0  0  0  0  0  0  0  0
  -35.0401   60.9824   63.4941 H   0  0  0  0  0  0  0  0  0  0  0  0
  -35.9881   59.8960   62.5072 H   0  0  0  0  0  0  0  0  0  0  0  0
  -36.0383   59.7628   64.2487 H   0  0  0  0  0  0  0  0  0  0  0  0
  -39.2173   61.3299   63.4004 H   0  0  0  0  0  0  0  0  0  0  0  0
  -38.4720   59.9632   64.1939 H   0  0  0  0  0  0  0  0  0  0  0  0
  -38.4218   60.0963   62.4524 H   0  0  0  0  0  0  0  0  0  0  0  0
  -40.1164   62.4395   63.6993 H   0  0  0  0  0  0  0  0  0  0  0  0
  -41.7860   62.0417   64.1041 H   0  0  0  0  0  0  0  0  0  0  0  0
  -42.0288   60.4189   67.0383 H   0  0  0  0  0  0  0  0  0  0  0  0
  -40.6378   59.3175   67.0687 H   0  0  0  0  0  0  0  0  0  0  0  0
  -42.6787   58.1797   67.6825 H   0  0  0  0  0  0  0  0  0  0  0  0
  -41.9769   57.5734   66.1596 H   0  0  0  0  0  0  0  0  0  0  0  0
  -44.3819   57.6753   66.0516 H   0  0  0  0  0  0  0  0  0  0  0  0
  -43.5836   58.7785   64.9103 H   0  0  0  0  0  0  0  0  0  0  0  0
  -44.8195   59.5696   67.5034 H   0  0  0  0  0  0  0  0  0  0  0  0
  -45.5158   59.7920   65.8883 H   0  0  0  0  0  0  0  0  0  0  0  0
  -43.7100   61.2472   65.2842 H   0  0  0  0  0  0  0  0  0  0  0  0
  -42.9915   61.0159   66.8824 H   0  0  0  0  0  0  0  0  0  0  0  0
  -45.6377   62.2634   66.3272 H   0  0  0  0  0  0  0  0  0  0  0  0
  -44.1162   63.0973   66.7540 H   0  0  0  0  0  0  0  0  0  0  0  0
  -44.1250   62.0887   68.8932 H   0  0  0  0  0  0  0  0  0  0  0  0
  -45.6288   61.2314   68.4732 H   0  0  0  0  0  0  0  0  0  0  0  0
  -46.8822   63.1391   68.8180 H   0  0  0  0  0  0  0  0  0  0  0  0
  -46.0947   65.0385   69.7170 H   0  0  0  0  0  0  0  0  0  0  0  0
  -43.8872   65.8370   69.4408 H   0  0  0  0  0  0  0  0  0  0  0  0
  -43.3923   64.3169   68.7236 H   0  0  0  0  0  0  0  0  0  0  0  0
  -43.4922   63.2451   70.9026 H   0  0  0  0  0  0  0  0  0  0  0  0
  -43.9846   64.8192   71.6019 H   0  0  0  0  0  0  0  0  0  0  0  0
  -41.3526   64.2274   70.3685 H   0  0  0  0  0  0  0  0  0  0  0  0
  -41.7361   64.3237   72.1128 H   0  0  0  0  0  0  0  0  0  0  0  0
  -41.9197   66.5767   70.1814 H   0  0  0  0  0  0  0  0  0  0  0  0
  -40.6216   66.2882   71.3608 H   0  0  0  0  0  0  0  0  0  0  0  0
  -43.4814   66.8085   72.0266 H   0  0  0  0  0  0  0  0  0  0  0  0
  -42.1329   67.9634   72.1387 H   0  0  0  0  0  0  0  0  0  0  0  0
  -42.3975   65.4486   73.7038 H   0  0  0  0  0  0  0  0  0  0  0  0
  -42.7027   67.1206   74.2695 H   0  0  0  0  0  0  0  0  0  0  0  0
  -40.0677   66.0510   73.4090 H   0  0  0  0  0  0  0  0  0  0  0  0
  -40.6162   66.2910   75.0763 H   0  0  0  0  0  0  0  0  0  0  0  0
  -40.2662   68.4239   73.0307 H   0  0  0  0  0  0  0  0  0  0  0  0
  -39.1988   68.0989   74.3753 H   0  0  0  0  0  0  0  0  0  0  0  0
  -40.8313   68.6482   74.6688 H   0  0  0  0  0  0  0  0  0  0  0  0
  1  9  1  0  0  0  0
  1 11  1  0  0  0  0
  1 13  1  0  0  0  0
  1 15  1  0  0  0  0
  2  3  1  0  0  0  0
  2  5  1  0  0  0  0
  2 17  1  0  0  0  0
  2 36  1  1  0  0  0
  3 37  1  0  0  0  0
  4  6  1  0  0  0  0
  4  8  2  1  0  0  0
  4 10  1  0  0  0  0
  4 12  1  0  0  0  0
  5  6  1  0  0  0  0
  5 38  1  0  0  0  0
  5 39  1  0  0  0  0
  7  9  1  0  0  0  0
  7 10  1  0  0  0  0
  7 40  1  0  0  0  0
  7 41  1  0  0  0  0
  9 42  1  0  0  0  0
  9 43  1  0  0  0  0
 11 44  1  0  0  0  0
 11 45  1  0  0  0  0
 11 46  1  0  0  0  0
 12 47  1  0  0  0  0
 13 48  1  0  0  0  0
 13 49  1  0  0  0  0
 13 50  1  0  0  0  0
 14 17  1  0  0  0  0
 14 18  1  0  0  0  0
 15 51  1  0  0  0  0
 15 52  1  0  0  0  0
 15 53  1  0  0  0  0
 16 18  2  0  0  0  0
 17 54  1  0  0  0  0
 17 55  1  0  0  0  0
 18 19  1  0  0  0  0
 19 20  1  0  0  0  0
 19 56  1  0  0  0  0
 19 57  1  0  0  0  0
 20 21  1  0  0  0  0
 20 58  1  0  0  0  0
 20 59  1  0  0  0  0
 21 22  1  0  0  0  0
 21 60  1  0  0  0  0
 21 61  1  0  0  0  0
 22 23  1  0  0  0  0
 22 62  1  0  0  0  0
 22 63  1  0  0  0  0
 23 24  1  0  0  0  0
 23 64  1  0  0  0  0
 23 65  1  0  0  0  0
 24 25  1  0  0  0  0
 24 66  1  0  0  0  0
 24 67  1  0  0  0  0
 25 26  1  0  0  0  0
 25 68  1  0  0  0  0
 25 69  1  0  0  0  0
 26 27  2  0  0  0  0
 26 70  1  0  0  0  0
 27 28  1  0  0  0  0
 27 71  1  0  0  0  0
 28 29  1  0  0  0  0
 28 72  1  0  0  0  0
 28 73  1  0  0  0  0
 29 30  1  0  0  0  0
 29 74  1  0  0  0  0
 29 75  1  0  0  0  0
 30 31  1  0  0  0  0
 30 76  1  0  0  0  0
 30 77  1  0  0  0  0
 31 32  1  0  0  0  0
 31 78  1  0  0  0  0
 31 79  1  0  0  0  0
 32 33  1  0  0  0  0
 32 80  1  0  0  0  0
 32 81  1  0  0  0  0
 33 34  1  0  0  0  0
 33 82  1  0  0  0  0
 33 83  1  0  0  0  0
 34 35  1  0  0  0  0
 34 84  1  0  0  0  0
 34 85  1  0  0  0  0
 35 86  1  0  0  0  0
 35 87  1  0  0  0  0
 35 88  1  0  0  0  0
M  CHG  1   8  -1
M  END
$$$$