/media/chris/experiments/cd1a-new-docking/inputs/ligands/4x6e_ligand.pdb
 OpenBabel07012320273D

 88 87  0  0  1  0  0  0  0  0999 V2000
  -45.2436   65.6324   74.2016 N   0  0  0  0  0  4  0  0  0  0  0  0
  -42.7720   62.5830   69.6788 C   0  0  1  0  0  0  0  0  0  0  0  0
  -43.8525   62.6209   68.7368 O   0  0  0  0  0  0  0  0  0  0  0  0
  -45.3476   64.5694   70.5245 P   0  0  1  0  0  0  0  0  0  0  0  0
  -43.3203   62.7296   71.0788 C   0  0  0  0  0  0  0  0  0  0  0  0
  -44.0440   63.9728   71.2461 O   0  0  0  0  0  0  0  0  0  0  0  0
  -46.7917   64.1009   72.8306 C   0  0  0  0  0  0  0  0  0  0  0  0
  -45.8275   63.5532   69.4895 O   0  5  0  0  0  0  0  0  0  0  0  0
  -45.6014   64.2290   73.7488 C   0  0  0  0  0  0  0  0  0  0  0  0
  -46.5603   64.8418   71.6017 O   0  0  0  0  0  0  0  0  0  0  0  0
  -44.9433   66.5024   73.0234 C   0  0  0  0  0  0  0  0  0  0  0  0
  -44.9716   65.8154   69.8214 O   0  0  0  0  0  0  0  0  0  0  0  0
  -44.0323   65.5588   75.0721 C   0  0  0  0  0  0  0  0  0  0  0  0
  -41.3570   61.2510   68.1894 O   0  0  0  0  0  0  0  0  0  0  0  0
  -46.3774   66.2406   74.9770 C   0  0  0  0  0  0  0  0  0  0  0  0
  -43.1430   61.3669   66.8296 O   0  0  0  0  0  0  0  0  0  0  0  0
  -41.9441   61.3270   69.5071 C   0  0  0  0  0  0  0  0  0  0  0  0
  -42.1287   60.8209   67.1868 C   0  0  0  0  0  0  0  0  0  0  0  0
  -41.5470   59.5850   66.5720 C   0  0  0  0  0  0  0  0  0  0  0  0
  -42.4780   58.3810   66.6510 C   0  0  0  0  0  0  0  0  0  0  0  0
  -43.8050   58.5690   65.9360 C   0  0  0  0  0  0  0  0  0  0  0  0
  -43.6578   58.8291   64.4471 C   0  0  0  0  0  0  0  0  0  0  0  0
  -42.8367   60.0699   64.1412 C   0  0  0  0  0  0  0  0  0  0  0  0
  -42.7147   60.3231   62.6551 C   0  0  0  0  0  0  0  0  0  0  0  0
  -41.8915   61.5399   62.2839 C   0  0  0  0  0  0  0  0  0  0  0  0
  -42.4097   62.8110   62.8387 C   0  0  0  0  0  0  0  0  0  0  0  0
  -42.5527   63.0987   64.1160 C   0  0  0  0  0  0  0  0  0  0  0  0
  -42.1914   62.2366   65.2818 C   0  0  0  0  0  0  0  0  0  0  0  0
  -40.7513   62.5143   65.7159 C   0  0  0  0  0  0  0  0  0  0  0  0
  -39.6913   62.2724   64.6513 C   0  0  0  0  0  0  0  0  0  0  0  0
  -39.6368   60.8496   64.1081 C   0  0  0  0  0  0  0  0  0  0  0  0
  -39.3606   59.7990   65.1787 C   0  0  0  0  0  0  0  0  0  0  0  0
  -39.2884   58.3793   64.6392 C   0  0  0  0  0  0  0  0  0  0  0  0
  -39.0309   57.2994   65.6794 C   0  0  0  0  0  0  0  0  0  0  0  0
  -38.9542   55.9273   65.0837 C   0  0  0  0  0  0  0  0  0  0  0  0
  -42.1099   63.4037   69.4969 H   0  0  0  0  0  0  0  0  0  0  0  0
  -44.4521   61.8766   68.9024 H   0  0  0  0  0  0  0  0  0  0  0  0
  -42.5068   62.7064   71.7735 H   0  0  0  0  0  0  0  0  0  0  0  0
  -44.0004   61.9227   71.2556 H   0  0  0  0  0  0  0  0  0  0  0  0
  -47.6593   64.4909   73.3204 H   0  0  0  0  0  0  0  0  0  0  0  0
  -46.9394   63.0681   72.5929 H   0  0  0  0  0  0  0  0  0  0  0  0
  -45.8014   63.6462   74.6236 H   0  0  0  0  0  0  0  0  0  0  0  0
  -44.7631   63.8945   73.1740 H   0  0  0  0  0  0  0  0  0  0  0  0
  -44.1363   66.0782   72.4633 H   0  0  0  0  0  0  0  0  0  0  0  0
  -44.6675   67.4791   73.3623 H   0  0  0  0  0  0  0  0  0  0  0  0
  -45.8111   66.5725   72.4014 H   0  0  0  0  0  0  0  0  0  0  0  0
  -44.2563   65.6290   69.1932 H   0  0  0  0  0  0  0  0  0  0  0  0
  -43.2233   65.1258   74.5217 H   0  0  0  0  0  0  0  0  0  0  0  0
  -44.2449   64.9540   75.9288 H   0  0  0  0  0  0  0  0  0  0  0  0
  -43.7608   66.5440   75.3895 H   0  0  0  0  0  0  0  0  0  0  0  0
  -47.2464   66.2943   74.3551 H   0  0  0  0  0  0  0  0  0  0  0  0
  -46.1046   67.2253   75.2944 H   0  0  0  0  0  0  0  0  0  0  0  0
  -46.5887   65.6354   75.8337 H   0  0  0  0  0  0  0  0  0  0  0  0
  -42.5727   60.4741   69.6566 H   0  0  0  0  0  0  0  0  0  0  0  0
  -41.1512   61.3491   70.2252 H   0  0  0  0  0  0  0  0  0  0  0  0
  -40.6379   59.3462   67.0832 H   0  0  0  0  0  0  0  0  0  0  0  0
  -41.3821   59.7924   65.5353 H   0  0  0  0  0  0  0  0  0  0  0  0
  -42.6787   58.1797   67.6825 H   0  0  0  0  0  0  0  0  0  0  0  0
  -41.9769   57.5734   66.1596 H   0  0  0  0  0  0  0  0  0  0  0  0
  -44.3126   59.4014   66.3769 H   0  0  0  0  0  0  0  0  0  0  0  0
  -44.3534   57.6566   66.0440 H   0  0  0  0  0  0  0  0  0  0  0  0
  -44.6329   58.9523   64.0242 H   0  0  0  0  0  0  0  0  0  0  0  0
  -43.1429   57.9916   64.0247 H   0  0  0  0  0  0  0  0  0  0  0  0
  -41.8563   59.9438   64.5508 H   0  0  0  0  0  0  0  0  0  0  0  0
  -43.3362   60.9097   64.5773 H   0  0  0  0  0  0  0  0  0  0  0  0
  -43.6996   60.4535   62.2576 H   0  0  0  0  0  0  0  0  0  0  0  0
  -42.2033   59.4769   62.2461 H   0  0  0  0  0  0  0  0  0  0  0  0
  -41.8737   61.6211   61.2171 H   0  0  0  0  0  0  0  0  0  0  0  0
  -40.9178   61.3939   62.7028 H   0  0  0  0  0  0  0  0  0  0  0  0
  -42.6846   63.5396   62.1614 H   0  0  0  0  0  0  0  0  0  0  0  0
  -42.9591   64.0214   64.3360 H   0  0  0  0  0  0  0  0  0  0  0  0
  -42.2848   61.2077   65.0032 H   0  0  0  0  0  0  0  0  0  0  0  0
  -42.8505   62.4551   66.0959 H   0  0  0  0  0  0  0  0  0  0  0  0
  -40.5306   61.8831   66.5511 H   0  0  0  0  0  0  0  0  0  0  0  0
  -40.7079   63.5589   65.9435 H   0  0  0  0  0  0  0  0  0  0  0  0
  -38.7363   62.5025   65.0755 H   0  0  0  0  0  0  0  0  0  0  0  0
  -39.9506   62.8987   63.8234 H   0  0  0  0  0  0  0  0  0  0  0  0
  -38.8602   60.7970   63.3739 H   0  0  0  0  0  0  0  0  0  0  0  0
  -40.6004   60.6331   63.6964 H   0  0  0  0  0  0  0  0  0  0  0  0
  -40.1440   59.8442   65.9061 H   0  0  0  0  0  0  0  0  0  0  0  0
  -38.4014   60.0234   65.5963 H   0  0  0  0  0  0  0  0  0  0  0  0
  -38.4980   58.3394   63.9191 H   0  0  0  0  0  0  0  0  0  0  0  0
  -40.2542   58.1698   64.2289 H   0  0  0  0  0  0  0  0  0  0  0  0
  -39.8260   57.3176   66.3953 H   0  0  0  0  0  0  0  0  0  0  0  0
  -38.0843   57.5075   66.1328 H   0  0  0  0  0  0  0  0  0  0  0  0
  -39.8882   55.6868   64.6204 H   0  0  0  0  0  0  0  0  0  0  0  0
  -38.7446   55.2151   65.8543 H   0  0  0  0  0  0  0  0  0  0  0  0
  -38.1750   55.8996   64.3510 H   0  0  0  0  0  0  0  0  0  0  0  0
  1  9  1  0  0  0  0
  1 11  1  0  0  0  0
  1 13  1  0  0  0  0
  1 15  1  0  0  0  0
  2  3  1  0  0  0  0
  2  5  1  0  0  0  0
  2 17  1  0  0  0  0
  2 36  1  6  0  0  0
  3 37  1  0  0  0  0
  4  6  1  0  0  0  0
  4  8  2  6  0  0  0
  4 10  1  0  0  0  0
  4 12  1  0  0  0  0
  5  6  1  0  0  0  0
  5 38  1  0  0  0  0
  5 39  1  0  0  0  0
  7  9  1  0  0  0  0
  7 10  1  0  0  0  0
  7 40  1  0  0  0  0
  7 41  1  0  0  0  0
  9 42  1  0  0  0  0
  9 43  1  0  0  0  0
 11 44  1  0  0  0  0
 11 45  1  0  0  0  0
 11 46  1  0  0  0  0
 12 47  1  0  0  0  0
 13 48  1  0  0  0  0
 13 49  1  0  0  0  0
 13 50  1  0  0  0  0
 14 17  1  0  0  0  0
 14 18  1  0  0  0  0
 15 51  1  0  0  0  0
 15 52  1  0  0  0  0
 15 53  1  0  0  0  0
 16 18  2  0  0  0  0
 17 54  1  0  0  0  0
 17 55  1  0  0  0  0
 18 19  1  0  0  0  0
 19 20  1  0  0  0  0
 19 56  1  0  0  0  0
 19 57  1  0  0  0  0
 20 21  1  0  0  0  0
 20 58  1  0  0  0  0
 20 59  1  0  0  0  0
 21 22  1  0  0  0  0
 21 60  1  0  0  0  0
 21 61  1  0  0  0  0
 22 23  1  0  0  0  0
 22 62  1  0  0  0  0
 22 63  1  0  0  0  0
 23 24  1  0  0  0  0
 23 64  1  0  0  0  0
 23 65  1  0  0  0  0
 24 25  1  0  0  0  0
 24 66  1  0  0  0  0
 24 67  1  0  0  0  0
 25 26  1  0  0  0  0
 25 68  1  0  0  0  0
 25 69  1  0  0  0  0
 26 27  2  0  0  0  0
 26 70  1  0  0  0  0
 27 28  1  0  0  0  0
 27 71  1  0  0  0  0
 28 29  1  0  0  0  0
 28 72  1  0  0  0  0
 28 73  1  0  0  0  0
 29 30  1  0  0  0  0
 29 74  1  0  0  0  0
 29 75  1  0  0  0  0
 30 31  1  0  0  0  0
 30 76  1  0  0  0  0
 30 77  1  0  0  0  0
 31 32  1  0  0  0  0
 31 78  1  0  0  0  0
 31 79  1  0  0  0  0
 32 33  1  0  0  0  0
 32 80  1  0  0  0  0
 32 81  1  0  0  0  0
 33 34  1  0  0  0  0
 33 82  1  0  0  0  0
 33 83  1  0  0  0  0
 34 35  1  0  0  0  0
 34 84  1  0  0  0  0
 34 85  1  0  0  0  0
 35 86  1  0  0  0  0
 35 87  1  0  0  0  0
 35 88  1  0  0  0  0
M  CHG  1   8  -1
M  END
$$$$