/media/chris/experiments/cd1a-new-docking/inputs/ligands/4x6e_ligand.pdb
 OpenBabel07012320273D

 88 87  0  0  1  0  0  0  0  0999 V2000
  -35.8238   59.6830   63.3400 N   0  0  0  0  0  4  0  0  0  0  0  0
  -38.2780   58.4696   69.5233 C   0  0  1  0  0  0  0  0  0  0  0  0
  -38.7527   57.1666   69.8883 O   0  0  0  0  0  0  0  0  0  0  0  0
  -35.3261   57.0408   67.1784 P   0  0  1  0  0  0  0  0  0  0  0  0
  -37.5488   58.3872   68.2028 C   0  0  0  0  0  0  0  0  0  0  0  0
  -36.4225   57.4790   68.2656 O   0  0  0  0  0  0  0  0  0  0  0  0
  -34.3741   58.7973   65.2727 C   0  0  0  0  0  0  0  0  0  0  0  0
  -36.0553   56.4159   65.9901 O   0  5  0  0  0  0  0  0  0  0  0  0
  -35.7424   59.1890   64.7725 C   0  0  0  0  0  0  0  0  0  0  0  0
  -34.4559   58.3315   66.6472 O   0  0  0  0  0  0  0  0  0  0  0  0
  -34.9619   60.8901   63.1524 C   0  0  0  0  0  0  0  0  0  0  0  0
  -34.4444   56.0171   67.7807 O   0  0  0  0  0  0  0  0  0  0  0  0
  -37.2409   60.0470   63.0404 C   0  0  0  0  0  0  0  0  0  0  0  0
  -40.4418   59.0951   68.5635 O   0  0  0  0  0  0  0  0  0  0  0  0
  -35.3730   58.6125   62.3874 C   0  0  0  0  0  0  0  0  0  0  0  0
  -39.1537   59.4138   66.7492 O   0  0  0  0  0  0  0  0  0  0  0  0
  -39.4100   59.4746   69.5007 C   0  0  0  0  0  0  0  0  0  0  0  0
  -40.2402   59.3661   67.2706 C   0  0  0  0  0  0  0  0  0  0  0  0
  -41.5470   59.5850   66.5720 C   0  0  0  0  0  0  0  0  0  0  0  0
  -42.4780   58.3810   66.6510 C   0  0  0  0  0  0  0  0  0  0  0  0
  -43.8050   58.5690   65.9360 C   0  0  0  0  0  0  0  0  0  0  0  0
  -44.7241   57.3648   66.0412 C   0  0  0  0  0  0  0  0  0  0  0  0
  -44.1117   56.1003   65.4637 C   0  0  0  0  0  0  0  0  0  0  0  0
  -45.0468   54.9156   65.5614 C   0  0  0  0  0  0  0  0  0  0  0  0
  -44.4861   53.6177   65.0163 C   0  0  0  0  0  0  0  0  0  0  0  0
  -44.1065   53.6779   63.5864 C   0  0  0  0  0  0  0  0  0  0  0  0
  -43.1448   52.9873   63.0095 C   0  0  0  0  0  0  0  0  0  0  0  0
  -42.2563   51.9694   63.6475 C   0  0  0  0  0  0  0  0  0  0  0  0
  -40.7936   52.4024   63.5349 C   0  0  0  0  0  0  0  0  0  0  0  0
  -40.4507   53.7224   64.2098 C   0  0  0  0  0  0  0  0  0  0  0  0
  -38.9951   54.1541   64.0782 C   0  0  0  0  0  0  0  0  0  0  0  0
  -38.0067   53.1499   64.6617 C   0  0  0  0  0  0  0  0  0  0  0  0
  -36.5539   53.5838   64.5481 C   0  0  0  0  0  0  0  0  0  0  0  0
  -35.5349   52.6005   65.1041 C   0  0  0  0  0  0  0  0  0  0  0  0
  -35.5720   51.2732   64.4110 C   0  0  0  0  0  0  0  0  0  0  0  0
  -37.5851   58.8175   70.2608 H   0  0  0  0  0  0  0  0  0  0  0  0
  -39.3807   56.8521   69.2192 H   0  0  0  0  0  0  0  0  0  0  0  0
  -37.1933   59.3622   67.9421 H   0  0  0  0  0  0  0  0  0  0  0  0
  -38.2330   58.0178   67.4677 H   0  0  0  0  0  0  0  0  0  0  0  0
  -33.7242   59.6460   65.2253 H   0  0  0  0  0  0  0  0  0  0  0  0
  -33.9908   58.0088   64.6593 H   0  0  0  0  0  0  0  0  0  0  0  0
  -36.3772   58.3318   64.8573 H   0  0  0  0  0  0  0  0  0  0  0  0
  -36.0371   60.0217   65.3764 H   0  0  0  0  0  0  0  0  0  0  0  0
  -35.2744   61.6598   63.8267 H   0  0  0  0  0  0  0  0  0  0  0  0
  -35.0523   61.2399   62.1453 H   0  0  0  0  0  0  0  0  0  0  0  0
  -33.9420   60.6344   63.3510 H   0  0  0  0  0  0  0  0  0  0  0  0
  -34.9799   55.2680   68.0855 H   0  0  0  0  0  0  0  0  0  0  0  0
  -37.5641   60.8096   63.7179 H   0  0  0  0  0  0  0  0  0  0  0  0
  -37.8624   59.1833   63.1527 H   0  0  0  0  0  0  0  0  0  0  0  0
  -37.3114   60.4091   62.0360 H   0  0  0  0  0  0  0  0  0  0  0  0
  -34.3578   58.3501   62.6003 H   0  0  0  0  0  0  0  0  0  0  0  0
  -35.4446   58.9754   61.3834 H   0  0  0  0  0  0  0  0  0  0  0  0
  -35.9956   57.7496   62.5001 H   0  0  0  0  0  0  0  0  0  0  0  0
  -39.0199   60.4303   69.2189 H   0  0  0  0  0  0  0  0  0  0  0  0
  -39.8438   59.5110   70.4781 H   0  0  0  0  0  0  0  0  0  0  0  0
  -41.3508   59.7963   65.5416 H   0  0  0  0  0  0  0  0  0  0  0  0
  -42.0377   60.3996   67.0625 H   0  0  0  0  0  0  0  0  0  0  0  0
  -42.6787   58.1797   67.6825 H   0  0  0  0  0  0  0  0  0  0  0  0
  -41.9769   57.5734   66.1596 H   0  0  0  0  0  0  0  0  0  0  0  0
  -43.6088   58.7562   64.9009 H   0  0  0  0  0  0  0  0  0  0  0  0
  -44.3043   59.3890   66.4084 H   0  0  0  0  0  0  0  0  0  0  0  0
  -45.6287   57.5786   65.5112 H   0  0  0  0  0  0  0  0  0  0  0  0
  -44.9036   57.1882   67.0812 H   0  0  0  0  0  0  0  0  0  0  0  0
  -43.2140   55.8759   66.0011 H   0  0  0  0  0  0  0  0  0  0  0  0
  -43.9119   56.2761   64.4273 H   0  0  0  0  0  0  0  0  0  0  0  0
  -45.9374   55.1485   65.0161 H   0  0  0  0  0  0  0  0  0  0  0  0
  -45.2208   54.7541   66.6047 H   0  0  0  0  0  0  0  0  0  0  0  0
  -45.2270   52.8549   65.1357 H   0  0  0  0  0  0  0  0  0  0  0  0
  -43.5909   53.4129   65.5654 H   0  0  0  0  0  0  0  0  0  0  0  0
  -44.6459   54.3209   62.9859 H   0  0  0  0  0  0  0  0  0  0  0  0
  -42.9874   53.1694   62.0059 H   0  0  0  0  0  0  0  0  0  0  0  0
  -42.3855   51.0285   63.1546 H   0  0  0  0  0  0  0  0  0  0  0  0
  -42.5154   51.8779   64.6816 H   0  0  0  0  0  0  0  0  0  0  0  0
  -40.5545   52.4910   62.4957 H   0  0  0  0  0  0  0  0  0  0  0  0
  -40.2241   51.6536   64.0445 H   0  0  0  0  0  0  0  0  0  0  0  0
  -40.6768   53.6310   65.2517 H   0  0  0  0  0  0  0  0  0  0  0  0
  -41.0309   54.4718   63.7132 H   0  0  0  0  0  0  0  0  0  0  0  0
  -38.8712   55.0866   64.5882 H   0  0  0  0  0  0  0  0  0  0  0  0
  -38.7837   54.2320   63.0322 H   0  0  0  0  0  0  0  0  0  0  0  0
  -38.1231   52.2212   64.1431 H   0  0  0  0  0  0  0  0  0  0  0  0
  -38.2266   53.0657   65.7055 H   0  0  0  0  0  0  0  0  0  0  0  0
  -36.4430   54.5081   65.0757 H   0  0  0  0  0  0  0  0  0  0  0  0
  -36.3495   53.6601   63.5006 H   0  0  0  0  0  0  0  0  0  0  0  0
  -35.7377   52.4491   66.1438 H   0  0  0  0  0  0  0  0  0  0  0  0
  -34.5631   53.0196   64.9466 H   0  0  0  0  0  0  0  0  0  0  0  0
  -36.5339   50.8254   64.5493 H   0  0  0  0  0  0  0  0  0  0  0  0
  -34.8187   50.6346   64.8227 H   0  0  0  0  0  0  0  0  0  0  0  0
  -35.3899   51.4116   63.3657 H   0  0  0  0  0  0  0  0  0  0  0  0
  1  9  1  0  0  0  0
  1 11  1  0  0  0  0
  1 13  1  0  0  0  0
  1 15  1  0  0  0  0
  2  3  1  0  0  0  0
  2  5  1  0  0  0  0
  2 17  1  0  0  0  0
  2 36  1  1  0  0  0
  3 37  1  0  0  0  0
  4  6  1  0  0  0  0
  4  8  2  6  0  0  0
  4 10  1  0  0  0  0
  4 12  1  0  0  0  0
  5  6  1  0  0  0  0
  5 38  1  0  0  0  0
  5 39  1  0  0  0  0
  7  9  1  0  0  0  0
  7 10  1  0  0  0  0
  7 40  1  0  0  0  0
  7 41  1  0  0  0  0
  9 42  1  0  0  0  0
  9 43  1  0  0  0  0
 11 44  1  0  0  0  0
 11 45  1  0  0  0  0
 11 46  1  0  0  0  0
 12 47  1  0  0  0  0
 13 48  1  0  0  0  0
 13 49  1  0  0  0  0
 13 50  1  0  0  0  0
 14 17  1  0  0  0  0
 14 18  1  0  0  0  0
 15 51  1  0  0  0  0
 15 52  1  0  0  0  0
 15 53  1  0  0  0  0
 16 18  2  0  0  0  0
 17 54  1  0  0  0  0
 17 55  1  0  0  0  0
 18 19  1  0  0  0  0
 19 20  1  0  0  0  0
 19 56  1  0  0  0  0
 19 57  1  0  0  0  0
 20 21  1  0  0  0  0
 20 58  1  0  0  0  0
 20 59  1  0  0  0  0
 21 22  1  0  0  0  0
 21 60  1  0  0  0  0
 21 61  1  0  0  0  0
 22 23  1  0  0  0  0
 22 62  1  0  0  0  0
 22 63  1  0  0  0  0
 23 24  1  0  0  0  0
 23 64  1  0  0  0  0
 23 65  1  0  0  0  0
 24 25  1  0  0  0  0
 24 66  1  0  0  0  0
 24 67  1  0  0  0  0
 25 26  1  0  0  0  0
 25 68  1  0  0  0  0
 25 69  1  0  0  0  0
 26 27  2  0  0  0  0
 26 70  1  0  0  0  0
 27 28  1  0  0  0  0
 27 71  1  0  0  0  0
 28 29  1  0  0  0  0
 28 72  1  0  0  0  0
 28 73  1  0  0  0  0
 29 30  1  0  0  0  0
 29 74  1  0  0  0  0
 29 75  1  0  0  0  0
 30 31  1  0  0  0  0
 30 76  1  0  0  0  0
 30 77  1  0  0  0  0
 31 32  1  0  0  0  0
 31 78  1  0  0  0  0
 31 79  1  0  0  0  0
 32 33  1  0  0  0  0
 32 80  1  0  0  0  0
 32 81  1  0  0  0  0
 33 34  1  0  0  0  0
 33 82  1  0  0  0  0
 33 83  1  0  0  0  0
 34 35  1  0  0  0  0
 34 84  1  0  0  0  0
 34 85  1  0  0  0  0
 35 86  1  0  0  0  0
 35 87  1  0  0  0  0
 35 88  1  0  0  0  0
M  CHG  1   8  -1
M  END
$$$$