/media/chris/experiments/cd1a-new-docking/inputs/ligands/4x6e_ligand.pdb
 OpenBabel07012320273D

 88 87  0  0  1  0  0  0  0  0999 V2000
  -46.3534   64.3499   71.1620 N   0  0  0  0  0  4  0  0  0  0  0  0
  -42.5787   64.1828   66.5255 C   0  0  1  0  0  0  0  0  0  0  0  0
  -41.2863   64.7769   66.3431 O   0  0  0  0  0  0  0  0  0  0  0  0
  -45.8177   64.1640   67.4219 P   0  0  1  0  0  0  0  0  0  0  0  0
  -43.6363   65.0918   65.9445 C   0  0  0  0  0  0  0  0  0  0  0  0
  -44.9673   64.5474   66.1159 O   0  0  0  0  0  0  0  0  0  0  0  0
  -45.1915   65.9041   69.4720 C   0  0  0  0  0  0  0  0  0  0  0  0
  -45.0387   63.1095   68.2063 O   0  5  0  0  0  0  0  0  0  0  0  0
  -45.0657   64.8125   70.5057 C   0  0  0  0  0  0  0  0  0  0  0  0
  -46.0591   65.4726   68.3885 O   0  0  0  0  0  0  0  0  0  0  0  0
  -46.0731   63.2829   72.1709 C   0  0  0  0  0  0  0  0  0  0  0  0
  -47.1053   63.5754   66.9929 O   0  0  0  0  0  0  0  0  0  0  0  0
  -47.2545   63.7964   70.1075 C   0  0  0  0  0  0  0  0  0  0  0  0
  -41.6650   61.9117   66.5697 O   0  0  0  0  0  0  0  0  0  0  0  0
  -47.0368   65.4984   71.8479 C   0  0  0  0  0  0  0  0  0  0  0  0
  -42.9138   60.8418   68.1021 O   0  0  0  0  0  0  0  0  0  0  0  0
  -42.6243   62.7881   65.9383 C   0  0  0  0  0  0  0  0  0  0  0  0
  -42.1287   60.8209   67.1868 C   0  0  0  0  0  0  0  0  0  0  0  0
  -41.5470   59.5850   66.5720 C   0  0  0  0  0  0  0  0  0  0  0  0
  -42.4780   58.3810   66.6510 C   0  0  0  0  0  0  0  0  0  0  0  0
  -43.8050   58.5690   65.9360 C   0  0  0  0  0  0  0  0  0  0  0  0
  -44.7241   57.3648   66.0412 C   0  0  0  0  0  0  0  0  0  0  0  0
  -45.0954   57.0268   67.4749 C   0  0  0  0  0  0  0  0  0  0  0  0
  -45.9968   55.8154   67.5620 C   0  0  0  0  0  0  0  0  0  0  0  0
  -47.3103   55.9467   66.8181 C   0  0  0  0  0  0  0  0  0  0  0  0
  -47.1595   56.1641   65.3614 C   0  0  0  0  0  0  0  0  0  0  0  0
  -47.5966   57.2051   64.6831 C   0  0  0  0  0  0  0  0  0  0  0  0
  -48.2984   58.4071   65.2266 C   0  0  0  0  0  0  0  0  0  0  0  0
  -47.2814   59.4876   65.5978 C   0  0  0  0  0  0  0  0  0  0  0  0
  -47.8698   60.7636   66.1820 C   0  0  0  0  0  0  0  0  0  0  0  0
  -48.8560   61.4916   65.2766 C   0  0  0  0  0  0  0  0  0  0  0  0
  -50.0820   60.6587   64.9169 C   0  0  0  0  0  0  0  0  0  0  0  0
  -50.9107   60.2376   66.1201 C   0  0  0  0  0  0  0  0  0  0  0  0
  -52.1341   59.3904   65.8042 C   0  0  0  0  0  0  0  0  0  0  0  0
  -52.9164   59.0229   67.0276 C   0  0  0  0  0  0  0  0  0  0  0  0
  -42.7775   64.0727   67.5711 H   0  0  0  0  0  0  0  0  0  0  0  0
  -41.1070   64.8762   65.3950 H   0  0  0  0  0  0  0  0  0  0  0  0
  -43.4465   65.2200   64.8993 H   0  0  0  0  0  0  0  0  0  0  0  0
  -43.5908   66.0276   66.4614 H   0  0  0  0  0  0  0  0  0  0  0  0
  -44.2227   66.1323   69.0793 H   0  0  0  0  0  0  0  0  0  0  0  0
  -45.6135   66.7732   69.9319 H   0  0  0  0  0  0  0  0  0  0  0  0
  -44.6203   63.9639   70.0298 H   0  0  0  0  0  0  0  0  0  0  0  0
  -44.4817   65.2364   71.2956 H   0  0  0  0  0  0  0  0  0  0  0  0
  -45.5858   62.4590   71.6928 H   0  0  0  0  0  0  0  0  0  0  0  0
  -46.9936   62.9505   72.6036 H   0  0  0  0  0  0  0  0  0  0  0  0
  -45.4394   63.6754   72.9386 H   0  0  0  0  0  0  0  0  0  0  0  0
  -46.9365   62.8071   66.4253 H   0  0  0  0  0  0  0  0  0  0  0  0
  -46.7696   62.9781   69.6175 H   0  0  0  0  0  0  0  0  0  0  0  0
  -47.4767   64.5598   69.3915 H   0  0  0  0  0  0  0  0  0  0  0  0
  -48.1629   63.4547   70.5580 H   0  0  0  0  0  0  0  0  0  0  0  0
  -46.3928   65.8966   72.6040 H   0  0  0  0  0  0  0  0  0  0  0  0
  -47.9453   65.1557   72.2975 H   0  0  0  0  0  0  0  0  0  0  0  0
  -47.2591   66.2608   71.1309 H   0  0  0  0  0  0  0  0  0  0  0  0
  -42.4064   62.8448   64.8923 H   0  0  0  0  0  0  0  0  0  0  0  0
  -43.6025   62.3876   66.1047 H   0  0  0  0  0  0  0  0  0  0  0  0
  -40.6379   59.3462   67.0832 H   0  0  0  0  0  0  0  0  0  0  0  0
  -41.3821   59.7924   65.5353 H   0  0  0  0  0  0  0  0  0  0  0  0
  -42.6787   58.1797   67.6825 H   0  0  0  0  0  0  0  0  0  0  0  0
  -41.9769   57.5734   66.1596 H   0  0  0  0  0  0  0  0  0  0  0  0
  -43.6088   58.7562   64.9009 H   0  0  0  0  0  0  0  0  0  0  0  0
  -44.3043   59.3890   66.4084 H   0  0  0  0  0  0  0  0  0  0  0  0
  -44.2305   56.5199   65.6083 H   0  0  0  0  0  0  0  0  0  0  0  0
  -45.6292   57.6059   65.5239 H   0  0  0  0  0  0  0  0  0  0  0  0
  -45.6019   57.8648   67.9062 H   0  0  0  0  0  0  0  0  0  0  0  0
  -44.1925   56.8028   68.0036 H   0  0  0  0  0  0  0  0  0  0  0  0
  -46.2151   55.6364   68.5941 H   0  0  0  0  0  0  0  0  0  0  0  0
  -45.4662   55.0108   67.0972 H   0  0  0  0  0  0  0  0  0  0  0  0
  -47.8475   56.7763   67.2281 H   0  0  0  0  0  0  0  0  0  0  0  0
  -47.8287   55.0186   66.9401 H   0  0  0  0  0  0  0  0  0  0  0  0
  -46.6658   55.4317   64.8276 H   0  0  0  0  0  0  0  0  0  0  0  0
  -47.4367   57.1888   63.6637 H   0  0  0  0  0  0  0  0  0  0  0  0
  -48.8530   58.1288   66.0983 H   0  0  0  0  0  0  0  0  0  0  0  0
  -48.9613   58.7923   64.4803 H   0  0  0  0  0  0  0  0  0  0  0  0
  -46.7393   59.7488   64.7131 H   0  0  0  0  0  0  0  0  0  0  0  0
  -46.6698   59.0653   66.3676 H   0  0  0  0  0  0  0  0  0  0  0  0
  -47.0630   61.4320   66.3992 H   0  0  0  0  0  0  0  0  0  0  0  0
  -48.4222   60.4683   67.0495 H   0  0  0  0  0  0  0  0  0  0  0  0
  -48.3511   61.7590   64.3719 H   0  0  0  0  0  0  0  0  0  0  0  0
  -49.2046   62.3477   65.8156 H   0  0  0  0  0  0  0  0  0  0  0  0
  -49.7534   59.7767   64.4080 H   0  0  0  0  0  0  0  0  0  0  0  0
  -50.7090   61.2738   64.3058 H   0  0  0  0  0  0  0  0  0  0  0  0
  -51.2426   61.1240   66.6191 H   0  0  0  0  0  0  0  0  0  0  0  0
  -50.2716   59.6220   66.7181 H   0  0  0  0  0  0  0  0  0  0  0  0
  -51.8122   58.4915   65.3213 H   0  0  0  0  0  0  0  0  0  0  0  0
  -52.7748   59.9714   65.1742 H   0  0  0  0  0  0  0  0  0  0  0  0
  -52.3026   58.4391   67.6813 H   0  0  0  0  0  0  0  0  0  0  0  0
  -53.7766   58.4537   66.7432 H   0  0  0  0  0  0  0  0  0  0  0  0
  -53.2286   59.9133   67.5320 H   0  0  0  0  0  0  0  0  0  0  0  0
  1  9  1  0  0  0  0
  1 11  1  0  0  0  0
  1 13  1  0  0  0  0
  1 15  1  0  0  0  0
  2  3  1  0  0  0  0
  2  5  1  0  0  0  0
  2 17  1  0  0  0  0
  2 36  1  1  0  0  0
  3 37  1  0  0  0  0
  4  6  1  0  0  0  0
  4  8  2  1  0  0  0
  4 10  1  0  0  0  0
  4 12  1  0  0  0  0
  5  6  1  0  0  0  0
  5 38  1  0  0  0  0
  5 39  1  0  0  0  0
  7  9  1  0  0  0  0
  7 10  1  0  0  0  0
  7 40  1  0  0  0  0
  7 41  1  0  0  0  0
  9 42  1  0  0  0  0
  9 43  1  0  0  0  0
 11 44  1  0  0  0  0
 11 45  1  0  0  0  0
 11 46  1  0  0  0  0
 12 47  1  0  0  0  0
 13 48  1  0  0  0  0
 13 49  1  0  0  0  0
 13 50  1  0  0  0  0
 14 17  1  0  0  0  0
 14 18  1  0  0  0  0
 15 51  1  0  0  0  0
 15 52  1  0  0  0  0
 15 53  1  0  0  0  0
 16 18  2  0  0  0  0
 17 54  1  0  0  0  0
 17 55  1  0  0  0  0
 18 19  1  0  0  0  0
 19 20  1  0  0  0  0
 19 56  1  0  0  0  0
 19 57  1  0  0  0  0
 20 21  1  0  0  0  0
 20 58  1  0  0  0  0
 20 59  1  0  0  0  0
 21 22  1  0  0  0  0
 21 60  1  0  0  0  0
 21 61  1  0  0  0  0
 22 23  1  0  0  0  0
 22 62  1  0  0  0  0
 22 63  1  0  0  0  0
 23 24  1  0  0  0  0
 23 64  1  0  0  0  0
 23 65  1  0  0  0  0
 24 25  1  0  0  0  0
 24 66  1  0  0  0  0
 24 67  1  0  0  0  0
 25 26  1  0  0  0  0
 25 68  1  0  0  0  0
 25 69  1  0  0  0  0
 26 27  2  0  0  0  0
 26 70  1  0  0  0  0
 27 28  1  0  0  0  0
 27 71  1  0  0  0  0
 28 29  1  0  0  0  0
 28 72  1  0  0  0  0
 28 73  1  0  0  0  0
 29 30  1  0  0  0  0
 29 74  1  0  0  0  0
 29 75  1  0  0  0  0
 30 31  1  0  0  0  0
 30 76  1  0  0  0  0
 30 77  1  0  0  0  0
 31 32  1  0  0  0  0
 31 78  1  0  0  0  0
 31 79  1  0  0  0  0
 32 33  1  0  0  0  0
 32 80  1  0  0  0  0
 32 81  1  0  0  0  0
 33 34  1  0  0  0  0
 33 82  1  0  0  0  0
 33 83  1  0  0  0  0
 34 35  1  0  0  0  0
 34 84  1  0  0  0  0
 34 85  1  0  0  0  0
 35 86  1  0  0  0  0
 35 87  1  0  0  0  0
 35 88  1  0  0  0  0
M  CHG  1   8  -1
M  END
$$$$