/media/chris/experiments/cd1a-new-docking/inputs/ligands/4x6e_ligand.pdb
 OpenBabel07012320273D

 88 87  0  0  1  0  0  0  0  0999 V2000
  -43.5290   66.1492   63.5435 N   0  0  0  0  0  4  0  0  0  0  0  0
  -42.2404   63.4171   68.9119 C   0  0  1  0  0  0  0  0  0  0  0  0
  -42.8573   64.1193   69.9994 O   0  0  0  0  0  0  0  0  0  0  0  0
  -40.7899   63.1600   65.8911 P   0  0  1  0  0  0  0  0  0  0  0  0
  -40.9769   64.1365   68.5014 C   0  0  0  0  0  0  0  0  0  0  0  0
  -40.3188   63.4781   67.3920 O   0  0  0  0  0  0  0  0  0  0  0  0
  -41.2420   65.5286   64.5464 C   0  0  0  0  0  0  0  0  0  0  0  0
  -42.3074   62.9825   65.8945 O   0  5  0  0  0  0  0  0  0  0  0  0
  -42.5467   65.0653   63.9471 C   0  0  0  0  0  0  0  0  0  0  0  0
  -40.4020   64.3861   64.8658 O   0  0  0  0  0  0  0  0  0  0  0  0
  -43.8996   66.9867   64.7252 C   0  0  0  0  0  0  0  0  0  0  0  0
  -40.1685   61.8891   65.4588 O   0  0  0  0  0  0  0  0  0  0  0  0
  -44.7607   65.5000   63.0032 C   0  0  0  0  0  0  0  0  0  0  0  0
  -41.3570   61.2510   68.1894 O   0  0  0  0  0  0  0  0  0  0  0  0
  -42.9307   67.0361   62.4891 C   0  0  0  0  0  0  0  0  0  0  0  0
  -43.1430   61.3669   66.8296 O   0  0  0  0  0  0  0  0  0  0  0  0
  -41.9935   61.9671   69.2705 C   0  0  0  0  0  0  0  0  0  0  0  0
  -42.1287   60.8209   67.1868 C   0  0  0  0  0  0  0  0  0  0  0  0
  -41.5470   59.5850   66.5720 C   0  0  0  0  0  0  0  0  0  0  0  0
  -42.4780   58.3810   66.6510 C   0  0  0  0  0  0  0  0  0  0  0  0
  -43.8050   58.5690   65.9360 C   0  0  0  0  0  0  0  0  0  0  0  0
  -44.7241   57.3648   66.0412 C   0  0  0  0  0  0  0  0  0  0  0  0
  -45.0954   57.0268   67.4749 C   0  0  0  0  0  0  0  0  0  0  0  0
  -45.8277   58.1599   68.1584 C   0  0  0  0  0  0  0  0  0  0  0  0
  -47.1374   58.5542   67.5064 C   0  0  0  0  0  0  0  0  0  0  0  0
  -47.0026   58.9914   66.0982 C   0  0  0  0  0  0  0  0  0  0  0  0
  -47.3358   60.1713   65.6170 C   0  0  0  0  0  0  0  0  0  0  0  0
  -47.8798   61.3362   66.3784 C   0  0  0  0  0  0  0  0  0  0  0  0
  -46.9440   62.5383   66.2412 C   0  0  0  0  0  0  0  0  0  0  0  0
  -47.3782   63.7911   66.9879 C   0  0  0  0  0  0  0  0  0  0  0  0
  -48.7388   64.3443   66.5814 C   0  0  0  0  0  0  0  0  0  0  0  0
  -49.8873   63.3679   66.8131 C   0  0  0  0  0  0  0  0  0  0  0  0
  -50.0617   62.9617   68.2679 C   0  0  0  0  0  0  0  0  0  0  0  0
  -51.1875   61.9748   68.5382 C   0  0  0  0  0  0  0  0  0  0  0  0
  -51.3183   61.6280   69.9895 C   0  0  0  0  0  0  0  0  0  0  0  0
  -42.9019   63.4078   68.0709 H   0  0  0  0  0  0  0  0  0  0  0  0
  -42.2569   64.1272   70.7612 H   0  0  0  0  0  0  0  0  0  0  0  0
  -40.3070   64.1628   69.3353 H   0  0  0  0  0  0  0  0  0  0  0  0
  -41.2434   65.1251   68.1905 H   0  0  0  0  0  0  0  0  0  0  0  0
  -41.4406   66.0821   65.4403 H   0  0  0  0  0  0  0  0  0  0  0  0
  -40.7332   66.1486   63.8381 H   0  0  0  0  0  0  0  0  0  0  0  0
  -42.3175   64.4924   63.0729 H   0  0  0  0  0  0  0  0  0  0  0  0
  -43.0354   64.5150   64.7237 H   0  0  0  0  0  0  0  0  0  0  0  0
  -44.3273   66.3644   65.4833 H   0  0  0  0  0  0  0  0  0  0  0  0
  -44.6121   67.7275   64.4279 H   0  0  0  0  0  0  0  0  0  0  0  0
  -43.0246   67.4675   65.1101 H   0  0  0  0  0  0  0  0  0  0  0  0
  -40.4116   61.1831   66.0780 H   0  0  0  0  0  0  0  0  0  0  0  0
  -45.1887   64.8676   63.7527 H   0  0  0  0  0  0  0  0  0  0  0  0
  -44.5076   64.9142   62.1443 H   0  0  0  0  0  0  0  0  0  0  0  0
  -45.4683   66.2530   62.7254 H   0  0  0  0  0  0  0  0  0  0  0  0
  -42.0479   67.5024   62.8741 H   0  0  0  0  0  0  0  0  0  0  0  0
  -43.6393   67.7883   62.2116 H   0  0  0  0  0  0  0  0  0  0  0  0
  -42.6786   66.4494   61.6305 H   0  0  0  0  0  0  0  0  0  0  0  0
  -42.9304   61.5001   69.4918 H   0  0  0  0  0  0  0  0  0  0  0  0
  -41.3418   61.9393   70.1187 H   0  0  0  0  0  0  0  0  0  0  0  0
  -40.6379   59.3462   67.0832 H   0  0  0  0  0  0  0  0  0  0  0  0
  -41.3821   59.7924   65.5353 H   0  0  0  0  0  0  0  0  0  0  0  0
  -42.6787   58.1797   67.6825 H   0  0  0  0  0  0  0  0  0  0  0  0
  -41.9769   57.5734   66.1596 H   0  0  0  0  0  0  0  0  0  0  0  0
  -43.6088   58.7562   64.9009 H   0  0  0  0  0  0  0  0  0  0  0  0
  -44.3043   59.3890   66.4084 H   0  0  0  0  0  0  0  0  0  0  0  0
  -44.2305   56.5199   65.6083 H   0  0  0  0  0  0  0  0  0  0  0  0
  -45.6292   57.6059   65.5239 H   0  0  0  0  0  0  0  0  0  0  0  0
  -44.2003   56.8156   68.0218 H   0  0  0  0  0  0  0  0  0  0  0  0
  -45.7484   56.1795   67.4537 H   0  0  0  0  0  0  0  0  0  0  0  0
  -45.1865   59.0165   68.1622 H   0  0  0  0  0  0  0  0  0  0  0  0
  -46.0726   57.8118   69.1402 H   0  0  0  0  0  0  0  0  0  0  0  0
  -47.5644   59.3582   68.0687 H   0  0  0  0  0  0  0  0  0  0  0  0
  -47.7554   57.6807   67.5010 H   0  0  0  0  0  0  0  0  0  0  0  0
  -46.6111   58.3078   65.4315 H   0  0  0  0  0  0  0  0  0  0  0  0
  -47.2069   60.3061   64.6020 H   0  0  0  0  0  0  0  0  0  0  0  0
  -47.9685   61.0731   67.4117 H   0  0  0  0  0  0  0  0  0  0  0  0
  -48.8405   61.5940   65.9841 H   0  0  0  0  0  0  0  0  0  0  0  0
  -46.8699   62.7822   65.2020 H   0  0  0  0  0  0  0  0  0  0  0  0
  -46.0147   62.2405   66.6800 H   0  0  0  0  0  0  0  0  0  0  0  0
  -46.6456   64.5514   66.8146 H   0  0  0  0  0  0  0  0  0  0  0  0
  -47.4647   63.5110   68.0169 H   0  0  0  0  0  0  0  0  0  0  0  0
  -48.7074   64.5891   65.5403 H   0  0  0  0  0  0  0  0  0  0  0  0
  -48.9258   65.2009   67.1947 H   0  0  0  0  0  0  0  0  0  0  0  0
  -49.7021   62.4859   66.2363 H   0  0  0  0  0  0  0  0  0  0  0  0
  -50.7863   63.8678   66.5186 H   0  0  0  0  0  0  0  0  0  0  0  0
  -50.2547   63.8470   68.8371 H   0  0  0  0  0  0  0  0  0  0  0  0
  -49.1575   62.4615   68.5453 H   0  0  0  0  0  0  0  0  0  0  0  0
  -50.9950   61.0774   67.9882 H   0  0  0  0  0  0  0  0  0  0  0  0
  -52.1026   62.4381   68.2336 H   0  0  0  0  0  0  0  0  0  0  0  0
  -50.4167   61.1612   70.3273 H   0  0  0  0  0  0  0  0  0  0  0  0
  -52.1398   60.9555   70.1228 H   0  0  0  0  0  0  0  0  0  0  0  0
  -51.4918   62.5196   70.5550 H   0  0  0  0  0  0  0  0  0  0  0  0
  1  9  1  0  0  0  0
  1 11  1  0  0  0  0
  1 13  1  0  0  0  0
  1 15  1  0  0  0  0
  2  3  1  0  0  0  0
  2  5  1  0  0  0  0
  2 17  1  0  0  0  0
  2 36  1  6  0  0  0
  3 37  1  0  0  0  0
  4  6  1  0  0  0  0
  4  8  2  6  0  0  0
  4 10  1  0  0  0  0
  4 12  1  0  0  0  0
  5  6  1  0  0  0  0
  5 38  1  0  0  0  0
  5 39  1  0  0  0  0
  7  9  1  0  0  0  0
  7 10  1  0  0  0  0
  7 40  1  0  0  0  0
  7 41  1  0  0  0  0
  9 42  1  0  0  0  0
  9 43  1  0  0  0  0
 11 44  1  0  0  0  0
 11 45  1  0  0  0  0
 11 46  1  0  0  0  0
 12 47  1  0  0  0  0
 13 48  1  0  0  0  0
 13 49  1  0  0  0  0
 13 50  1  0  0  0  0
 14 17  1  0  0  0  0
 14 18  1  0  0  0  0
 15 51  1  0  0  0  0
 15 52  1  0  0  0  0
 15 53  1  0  0  0  0
 16 18  2  0  0  0  0
 17 54  1  0  0  0  0
 17 55  1  0  0  0  0
 18 19  1  0  0  0  0
 19 20  1  0  0  0  0
 19 56  1  0  0  0  0
 19 57  1  0  0  0  0
 20 21  1  0  0  0  0
 20 58  1  0  0  0  0
 20 59  1  0  0  0  0
 21 22  1  0  0  0  0
 21 60  1  0  0  0  0
 21 61  1  0  0  0  0
 22 23  1  0  0  0  0
 22 62  1  0  0  0  0
 22 63  1  0  0  0  0
 23 24  1  0  0  0  0
 23 64  1  0  0  0  0
 23 65  1  0  0  0  0
 24 25  1  0  0  0  0
 24 66  1  0  0  0  0
 24 67  1  0  0  0  0
 25 26  1  0  0  0  0
 25 68  1  0  0  0  0
 25 69  1  0  0  0  0
 26 27  2  0  0  0  0
 26 70  1  0  0  0  0
 27 28  1  0  0  0  0
 27 71  1  0  0  0  0
 28 29  1  0  0  0  0
 28 72  1  0  0  0  0
 28 73  1  0  0  0  0
 29 30  1  0  0  0  0
 29 74  1  0  0  0  0
 29 75  1  0  0  0  0
 30 31  1  0  0  0  0
 30 76  1  0  0  0  0
 30 77  1  0  0  0  0
 31 32  1  0  0  0  0
 31 78  1  0  0  0  0
 31 79  1  0  0  0  0
 32 33  1  0  0  0  0
 32 80  1  0  0  0  0
 32 81  1  0  0  0  0
 33 34  1  0  0  0  0
 33 82  1  0  0  0  0
 33 83  1  0  0  0  0
 34 35  1  0  0  0  0
 34 84  1  0  0  0  0
 34 85  1  0  0  0  0
 35 86  1  0  0  0  0
 35 87  1  0  0  0  0
 35 88  1  0  0  0  0
M  CHG  1   8  -1
M  END
$$$$