/media/chris/experiments/cd1a-new-docking/inputs/ligands/4x6e_ligand.pdb
 OpenBabel07012320273D

 88 87  0  0  1  0  0  0  0  0999 V2000
  -39.3542   63.7286   66.8256 N   0  0  0  0  0  4  0  0  0  0  0  0
  -37.6039   58.4478   68.1581 C   0  0  1  0  0  0  0  0  0  0  0  0
  -36.7193   57.6756   68.9814 O   0  0  0  0  0  0  0  0  0  0  0  0
  -35.9457   61.3109   68.6844 P   0  0  1  0  0  0  0  0  0  0  0  0
  -36.8028   59.1739   67.1030 C   0  0  0  0  0  0  0  0  0  0  0  0
  -35.8171   60.0583   67.6892 O   0  0  0  0  0  0  0  0  0  0  0  0
  -37.7007   63.4404   68.7760 C   0  0  0  0  0  0  0  0  0  0  0  0
  -34.5442   61.8620   68.9418 O   0  5  0  0  0  0  0  0  0  0  0  0
  -38.4128   64.3720   67.8268 C   0  0  0  0  0  0  0  0  0  0  0  0
  -36.8731   62.5035   68.0343 O   0  0  0  0  0  0  0  0  0  0  0  0
  -38.6164   62.7558   65.9629 C   0  0  0  0  0  0  0  0  0  0  0  0
  -36.5093   60.8399   69.9685 O   0  0  0  0  0  0  0  0  0  0  0  0
  -39.9366   64.7989   65.9620 C   0  0  0  0  0  0  0  0  0  0  0  0
  -39.5828   58.3411   66.7204 O   0  0  0  0  0  0  0  0  0  0  0  0
  -40.4624   63.0040   67.5352 C   0  0  0  0  0  0  0  0  0  0  0  0
  -39.8236   60.0222   68.1929 O   0  0  0  0  0  0  0  0  0  0  0  0
  -38.6932   57.5790   67.5658 C   0  0  0  0  0  0  0  0  0  0  0  0
  -40.2402   59.3661   67.2706 C   0  0  0  0  0  0  0  0  0  0  0  0
  -41.5470   59.5850   66.5720 C   0  0  0  0  0  0  0  0  0  0  0  0
  -42.4780   58.3810   66.6510 C   0  0  0  0  0  0  0  0  0  0  0  0
  -43.8050   58.5690   65.9360 C   0  0  0  0  0  0  0  0  0  0  0  0
  -44.6170   59.7376   66.4663 C   0  0  0  0  0  0  0  0  0  0  0  0
  -44.9506   59.6053   67.9423 C   0  0  0  0  0  0  0  0  0  0  0  0
  -45.7447   58.3528   68.2393 C   0  0  0  0  0  0  0  0  0  0  0  0
  -46.1237   58.1717   69.6952 C   0  0  0  0  0  0  0  0  0  0  0  0
  -46.8862   56.9328   69.9704 C   0  0  0  0  0  0  0  0  0  0  0  0
  -46.5200   55.9602   70.7795 C   0  0  0  0  0  0  0  0  0  0  0  0
  -45.2889   55.9037   71.6244 C   0  0  0  0  0  0  0  0  0  0  0  0
  -44.1468   55.2468   70.8475 C   0  0  0  0  0  0  0  0  0  0  0  0
  -44.4137   53.8260   70.3727 C   0  0  0  0  0  0  0  0  0  0  0  0
  -45.5949   53.6758   69.4217 C   0  0  0  0  0  0  0  0  0  0  0  0
  -45.4394   54.4673   68.1273 C   0  0  0  0  0  0  0  0  0  0  0  0
  -46.6230   54.3343   67.1822 C   0  0  0  0  0  0  0  0  0  0  0  0
  -47.9552   54.8184   67.7346 C   0  0  0  0  0  0  0  0  0  0  0  0
  -48.3662   54.0909   68.9777 C   0  0  0  0  0  0  0  0  0  0  0  0
  -38.1008   59.1818   68.7574 H   0  0  0  0  0  0  0  0  0  0  0  0
  -36.2694   57.0105   68.4372 H   0  0  0  0  0  0  0  0  0  0  0  0
  -37.4702   59.7516   66.4981 H   0  0  0  0  0  0  0  0  0  0  0  0
  -36.2865   58.4432   66.5161 H   0  0  0  0  0  0  0  0  0  0  0  0
  -38.4242   62.8971   69.3473 H   0  0  0  0  0  0  0  0  0  0  0  0
  -37.0775   64.0160   69.4281 H   0  0  0  0  0  0  0  0  0  0  0  0
  -38.9838   65.0604   68.4141 H   0  0  0  0  0  0  0  0  0  0  0  0
  -37.6402   64.8229   67.2397 H   0  0  0  0  0  0  0  0  0  0  0  0
  -37.8239   63.2617   65.4521 H   0  0  0  0  0  0  0  0  0  0  0  0
  -39.2892   62.3324   65.2467 H   0  0  0  0  0  0  0  0  0  0  0  0
  -38.2079   61.9770   66.5724 H   0  0  0  0  0  0  0  0  0  0  0  0
  -35.9458   60.1384   70.3310 H   0  0  0  0  0  0  0  0  0  0  0  0
  -39.1489   65.3164   65.4554 H   0  0  0  0  0  0  0  0  0  0  0  0
  -40.4839   65.4890   66.5695 H   0  0  0  0  0  0  0  0  0  0  0  0
  -40.5942   64.3579   65.2422 H   0  0  0  0  0  0  0  0  0  0  0  0
  -40.0473   62.2366   68.1547 H   0  0  0  0  0  0  0  0  0  0  0  0
  -41.1197   62.5641   66.8146 H   0  0  0  0  0  0  0  0  0  0  0  0
  -41.0094   63.6951   68.1418 H   0  0  0  0  0  0  0  0  0  0  0  0
  -39.2599   57.1425   68.3615 H   0  0  0  0  0  0  0  0  0  0  0  0
  -38.2290   56.8235   66.9668 H   0  0  0  0  0  0  0  0  0  0  0  0
  -41.3508   59.7963   65.5416 H   0  0  0  0  0  0  0  0  0  0  0  0
  -42.0377   60.3996   67.0625 H   0  0  0  0  0  0  0  0  0  0  0  0
  -42.6787   58.1797   67.6825 H   0  0  0  0  0  0  0  0  0  0  0  0
  -41.9769   57.5734   66.1596 H   0  0  0  0  0  0  0  0  0  0  0  0
  -44.3819   57.6753   66.0516 H   0  0  0  0  0  0  0  0  0  0  0  0
  -43.5836   58.7785   64.9103 H   0  0  0  0  0  0  0  0  0  0  0  0
  -45.5314   59.7964   65.9137 H   0  0  0  0  0  0  0  0  0  0  0  0
  -44.0231   60.6199   66.3495 H   0  0  0  0  0  0  0  0  0  0  0  0
  -45.5246   60.4566   68.2433 H   0  0  0  0  0  0  0  0  0  0  0  0
  -44.0291   59.5456   68.4829 H   0  0  0  0  0  0  0  0  0  0  0  0
  -45.1593   57.5086   67.9402 H   0  0  0  0  0  0  0  0  0  0  0  0
  -46.6631   58.4427   67.6977 H   0  0  0  0  0  0  0  0  0  0  0  0
  -46.7213   59.0076   69.9936 H   0  0  0  0  0  0  0  0  0  0  0  0
  -45.2092   58.1007   70.2461 H   0  0  0  0  0  0  0  0  0  0  0  0
  -47.7888   56.8208   69.4827 H   0  0  0  0  0  0  0  0  0  0  0  0
  -47.1534   55.1473   70.8363 H   0  0  0  0  0  0  0  0  0  0  0  0
  -45.4911   55.3326   72.5064 H   0  0  0  0  0  0  0  0  0  0  0  0
  -45.0026   56.8992   71.8923 H   0  0  0  0  0  0  0  0  0  0  0  0
  -43.2849   55.2268   71.4813 H   0  0  0  0  0  0  0  0  0  0  0  0
  -44.0158   55.8340   69.9626 H   0  0  0  0  0  0  0  0  0  0  0  0
  -44.6009   53.2182   71.2332 H   0  0  0  0  0  0  0  0  0  0  0  0
  -43.5464   53.5270   69.8218 H   0  0  0  0  0  0  0  0  0  0  0  0
  -46.4777   54.0152   69.9221 H   0  0  0  0  0  0  0  0  0  0  0  0
  -45.6525   52.6417   69.1529 H   0  0  0  0  0  0  0  0  0  0  0  0
  -44.5630   54.1190   67.6218 H   0  0  0  0  0  0  0  0  0  0  0  0
  -45.3714   55.5000   68.3991 H   0  0  0  0  0  0  0  0  0  0  0  0
  -46.7273   53.3004   66.9270 H   0  0  0  0  0  0  0  0  0  0  0  0
  -46.4043   54.9634   66.3448 H   0  0  0  0  0  0  0  0  0  0  0  0
  -48.7081   54.6728   66.9883 H   0  0  0  0  0  0  0  0  0  0  0  0
  -47.8428   55.8519   67.9881 H   0  0  0  0  0  0  0  0  0  0  0  0
  -48.4877   53.0506   68.7584 H   0  0  0  0  0  0  0  0  0  0  0  0
  -49.2921   54.4905   69.3352 H   0  0  0  0  0  0  0  0  0  0  0  0
  -47.6124   54.2117   69.7274 H   0  0  0  0  0  0  0  0  0  0  0  0
  1  9  1  0  0  0  0
  1 11  1  0  0  0  0
  1 13  1  0  0  0  0
  1 15  1  0  0  0  0
  2  3  1  0  0  0  0
  2  5  1  0  0  0  0
  2 17  1  0  0  0  0
  2 36  1  1  0  0  0
  3 37  1  0  0  0  0
  4  6  1  0  0  0  0
  4  8  2  1  0  0  0
  4 10  1  0  0  0  0
  4 12  1  0  0  0  0
  5  6  1  0  0  0  0
  5 38  1  0  0  0  0
  5 39  1  0  0  0  0
  7  9  1  0  0  0  0
  7 10  1  0  0  0  0
  7 40  1  0  0  0  0
  7 41  1  0  0  0  0
  9 42  1  0  0  0  0
  9 43  1  0  0  0  0
 11 44  1  0  0  0  0
 11 45  1  0  0  0  0
 11 46  1  0  0  0  0
 12 47  1  0  0  0  0
 13 48  1  0  0  0  0
 13 49  1  0  0  0  0
 13 50  1  0  0  0  0
 14 17  1  0  0  0  0
 14 18  1  0  0  0  0
 15 51  1  0  0  0  0
 15 52  1  0  0  0  0
 15 53  1  0  0  0  0
 16 18  2  0  0  0  0
 17 54  1  0  0  0  0
 17 55  1  0  0  0  0
 18 19  1  0  0  0  0
 19 20  1  0  0  0  0
 19 56  1  0  0  0  0
 19 57  1  0  0  0  0
 20 21  1  0  0  0  0
 20 58  1  0  0  0  0
 20 59  1  0  0  0  0
 21 22  1  0  0  0  0
 21 60  1  0  0  0  0
 21 61  1  0  0  0  0
 22 23  1  0  0  0  0
 22 62  1  0  0  0  0
 22 63  1  0  0  0  0
 23 24  1  0  0  0  0
 23 64  1  0  0  0  0
 23 65  1  0  0  0  0
 24 25  1  0  0  0  0
 24 66  1  0  0  0  0
 24 67  1  0  0  0  0
 25 26  1  0  0  0  0
 25 68  1  0  0  0  0
 25 69  1  0  0  0  0
 26 27  2  0  0  0  0
 26 70  1  0  0  0  0
 27 28  1  0  0  0  0
 27 71  1  0  0  0  0
 28 29  1  0  0  0  0
 28 72  1  0  0  0  0
 28 73  1  0  0  0  0
 29 30  1  0  0  0  0
 29 74  1  0  0  0  0
 29 75  1  0  0  0  0
 30 31  1  0  0  0  0
 30 76  1  0  0  0  0
 30 77  1  0  0  0  0
 31 32  1  0  0  0  0
 31 78  1  0  0  0  0
 31 79  1  0  0  0  0
 32 33  1  0  0  0  0
 32 80  1  0  0  0  0
 32 81  1  0  0  0  0
 33 34  1  0  0  0  0
 33 82  1  0  0  0  0
 33 83  1  0  0  0  0
 34 35  1  0  0  0  0
 34 84  1  0  0  0  0
 34 85  1  0  0  0  0
 35 86  1  0  0  0  0
 35 87  1  0  0  0  0
 35 88  1  0  0  0  0
M  CHG  1   8  -1
M  END
$$$$