/media/chris/experiments/cd1a-new-docking/inputs/ligands/4x6e_ligand.pdb
 OpenBabel07012320273D

 88 87  0  0  1  0  0  0  0  0999 V2000
  -47.0623   67.0305   60.2192 N   0  0  0  0  0  4  0  0  0  0  0  0
  -43.4244   62.0674   64.8741 C   0  0  1  0  0  0  0  0  0  0  0  0
  -44.1633   60.9745   65.4364 O   0  0  0  0  0  0  0  0  0  0  0  0
  -46.1517   62.7916   61.9947 P   0  0  1  0  0  0  0  0  0  0  0  0
  -44.3697   62.9867   64.1369 C   0  0  0  0  0  0  0  0  0  0  0  0
  -45.0699   62.2979   63.0726 O   0  0  0  0  0  0  0  0  0  0  0  0
  -47.6663   65.0919   61.7999 C   0  0  0  0  0  0  0  0  0  0  0  0
  -47.0648   61.6132   61.6605 O   0  5  0  0  0  0  0  0  0  0  0  0
  -46.5950   65.8653   61.0716 C   0  0  0  0  0  0  0  0  0  0  0  0
  -47.0694   64.0230   62.5835 O   0  0  0  0  0  0  0  0  0  0  0  0
  -45.8993   67.6881   59.5482 C   0  0  0  0  0  0  0  0  0  0  0  0
  -45.4411   63.2003   60.7633 O   0  0  0  0  0  0  0  0  0  0  0  0
  -47.7401   68.0262   61.1021 C   0  0  0  0  0  0  0  0  0  0  0  0
  -41.6650   61.9117   66.5697 O   0  0  0  0  0  0  0  0  0  0  0  0
  -48.0264   66.5602   59.1676 C   0  0  0  0  0  0  0  0  0  0  0  0
  -42.9138   60.8418   68.1021 O   0  0  0  0  0  0  0  0  0  0  0  0
  -42.6243   62.7881   65.9383 C   0  0  0  0  0  0  0  0  0  0  0  0
  -42.1287   60.8209   67.1868 C   0  0  0  0  0  0  0  0  0  0  0  0
  -41.5470   59.5850   66.5720 C   0  0  0  0  0  0  0  0  0  0  0  0
  -42.4780   58.3810   66.6510 C   0  0  0  0  0  0  0  0  0  0  0  0
  -43.8050   58.5690   65.9360 C   0  0  0  0  0  0  0  0  0  0  0  0
  -43.6578   58.8291   64.4471 C   0  0  0  0  0  0  0  0  0  0  0  0
  -42.9740   57.6892   63.7118 C   0  0  0  0  0  0  0  0  0  0  0  0
  -43.7434   56.3921   63.8252 C   0  0  0  0  0  0  0  0  0  0  0  0
  -43.1029   55.2107   63.1254 C   0  0  0  0  0  0  0  0  0  0  0  0
  -41.7577   54.8632   63.6372 C   0  0  0  0  0  0  0  0  0  0  0  0
  -41.4671   54.4961   64.8683 C   0  0  0  0  0  0  0  0  0  0  0  0
  -42.4203   54.3092   66.0036 C   0  0  0  0  0  0  0  0  0  0  0  0
  -41.6617   53.8943   67.2653 C   0  0  0  0  0  0  0  0  0  0  0  0
  -40.8630   52.6041   67.1513 C   0  0  0  0  0  0  0  0  0  0  0  0
  -40.1241   52.1897   68.4181 C   0  0  0  0  0  0  0  0  0  0  0  0
  -39.1187   53.2285   68.9042 C   0  0  0  0  0  0  0  0  0  0  0  0
  -38.3665   52.8125   70.1584 C   0  0  0  0  0  0  0  0  0  0  0  0
  -37.3655   53.8298   70.6851 C   0  0  0  0  0  0  0  0  0  0  0  0
  -36.3010   54.1662   69.6865 C   0  0  0  0  0  0  0  0  0  0  0  0
  -42.7126   61.6925   64.1686 H   0  0  0  0  0  0  0  0  0  0  0  0
  -44.8083   61.3153   66.0758 H   0  0  0  0  0  0  0  0  0  0  0  0
  -43.8089   63.7949   63.7160 H   0  0  0  0  0  0  0  0  0  0  0  0
  -45.0967   63.3454   64.8352 H   0  0  0  0  0  0  0  0  0  0  0  0
  -48.3447   64.6713   61.0874 H   0  0  0  0  0  0  0  0  0  0  0  0
  -48.1902   65.7550   62.4562 H   0  0  0  0  0  0  0  0  0  0  0  0
  -45.9167   66.2499   61.8043 H   0  0  0  0  0  0  0  0  0  0  0  0
  -46.1600   65.1689   60.3855 H   0  0  0  0  0  0  0  0  0  0  0  0
  -45.2054   68.0273   60.2887 H   0  0  0  0  0  0  0  0  0  0  0  0
  -46.2441   68.5224   58.9737 H   0  0  0  0  0  0  0  0  0  0  0  0
  -45.4162   66.9854   58.9020 H   0  0  0  0  0  0  0  0  0  0  0  0
  -44.9081   62.4588   60.4363 H   0  0  0  0  0  0  0  0  0  0  0  0
  -47.0550   68.3626   61.8520 H   0  0  0  0  0  0  0  0  0  0  0  0
  -48.5863   67.5692   61.5711 H   0  0  0  0  0  0  0  0  0  0  0  0
  -48.0646   68.8602   60.5156 H   0  0  0  0  0  0  0  0  0  0  0  0
  -47.5428   65.8466   58.5338 H   0  0  0  0  0  0  0  0  0  0  0  0
  -48.3508   67.3951   58.5822 H   0  0  0  0  0  0  0  0  0  0  0  0
  -48.8725   66.1041   59.6378 H   0  0  0  0  0  0  0  0  0  0  0  0
  -43.2953   63.1620   66.6832 H   0  0  0  0  0  0  0  0  0  0  0  0
  -42.0887   63.5870   65.4695 H   0  0  0  0  0  0  0  0  0  0  0  0
  -40.6379   59.3462   67.0832 H   0  0  0  0  0  0  0  0  0  0  0  0
  -41.3821   59.7924   65.5353 H   0  0  0  0  0  0  0  0  0  0  0  0
  -42.6787   58.1797   67.6825 H   0  0  0  0  0  0  0  0  0  0  0  0
  -41.9769   57.5734   66.1596 H   0  0  0  0  0  0  0  0  0  0  0  0
  -44.3126   59.4014   66.3769 H   0  0  0  0  0  0  0  0  0  0  0  0
  -44.3534   57.6566   66.0440 H   0  0  0  0  0  0  0  0  0  0  0  0
  -43.0787   59.7186   64.3117 H   0  0  0  0  0  0  0  0  0  0  0  0
  -44.6423   58.9284   64.0400 H   0  0  0  0  0  0  0  0  0  0  0  0
  -41.9978   57.5481   64.1268 H   0  0  0  0  0  0  0  0  0  0  0  0
  -42.9229   57.9510   62.6756 H   0  0  0  0  0  0  0  0  0  0  0  0
  -44.7147   56.5430   63.4024 H   0  0  0  0  0  0  0  0  0  0  0  0
  -43.7700   56.1474   64.8666 H   0  0  0  0  0  0  0  0  0  0  0  0
  -43.0170   55.4426   62.0844 H   0  0  0  0  0  0  0  0  0  0  0  0
  -43.7315   54.3645   63.3091 H   0  0  0  0  0  0  0  0  0  0  0  0
  -40.9747   54.9132   62.9668 H   0  0  0  0  0  0  0  0  0  0  0  0
  -40.4710   54.3180   65.0712 H   0  0  0  0  0  0  0  0  0  0  0  0
  -43.1278   53.5476   65.7498 H   0  0  0  0  0  0  0  0  0  0  0  0
  -42.9290   55.2321   66.1889 H   0  0  0  0  0  0  0  0  0  0  0  0
  -42.3742   53.7730   68.0543 H   0  0  0  0  0  0  0  0  0  0  0  0
  -40.9464   54.6689   67.4477 H   0  0  0  0  0  0  0  0  0  0  0  0
  -40.1410   52.7285   66.3716 H   0  0  0  0  0  0  0  0  0  0  0  0
  -41.5737   51.8292   66.9527 H   0  0  0  0  0  0  0  0  0  0  0  0
  -39.6003   51.2777   68.2214 H   0  0  0  0  0  0  0  0  0  0  0  0
  -40.8585   52.0785   69.1882 H   0  0  0  0  0  0  0  0  0  0  0  0
  -39.6452   54.1365   69.1119 H   0  0  0  0  0  0  0  0  0  0  0  0
  -38.3913   53.3459   68.1284 H   0  0  0  0  0  0  0  0  0  0  0  0
  -37.8361   51.9091   69.9410 H   0  0  0  0  0  0  0  0  0  0  0  0
  -39.1063   52.7027   70.9236 H   0  0  0  0  0  0  0  0  0  0  0  0
  -36.8988   53.4288   71.5605 H   0  0  0  0  0  0  0  0  0  0  0  0
  -37.9028   54.7300   70.8993 H   0  0  0  0  0  0  0  0  0  0  0  0
  -35.7428   53.2847   69.4496 H   0  0  0  0  0  0  0  0  0  0  0  0
  -35.6448   54.9036   70.0995 H   0  0  0  0  0  0  0  0  0  0  0  0
  -36.7549   54.5507   68.7971 H   0  0  0  0  0  0  0  0  0  0  0  0
  1  9  1  0  0  0  0
  1 11  1  0  0  0  0
  1 13  1  0  0  0  0
  1 15  1  0  0  0  0
  2  3  1  0  0  0  0
  2  5  1  0  0  0  0
  2 17  1  0  0  0  0
  2 36  1  6  0  0  0
  3 37  1  0  0  0  0
  4  6  1  0  0  0  0
  4  8  2  6  0  0  0
  4 10  1  0  0  0  0
  4 12  1  0  0  0  0
  5  6  1  0  0  0  0
  5 38  1  0  0  0  0
  5 39  1  0  0  0  0
  7  9  1  0  0  0  0
  7 10  1  0  0  0  0
  7 40  1  0  0  0  0
  7 41  1  0  0  0  0
  9 42  1  0  0  0  0
  9 43  1  0  0  0  0
 11 44  1  0  0  0  0
 11 45  1  0  0  0  0
 11 46  1  0  0  0  0
 12 47  1  0  0  0  0
 13 48  1  0  0  0  0
 13 49  1  0  0  0  0
 13 50  1  0  0  0  0
 14 17  1  0  0  0  0
 14 18  1  0  0  0  0
 15 51  1  0  0  0  0
 15 52  1  0  0  0  0
 15 53  1  0  0  0  0
 16 18  2  0  0  0  0
 17 54  1  0  0  0  0
 17 55  1  0  0  0  0
 18 19  1  0  0  0  0
 19 20  1  0  0  0  0
 19 56  1  0  0  0  0
 19 57  1  0  0  0  0
 20 21  1  0  0  0  0
 20 58  1  0  0  0  0
 20 59  1  0  0  0  0
 21 22  1  0  0  0  0
 21 60  1  0  0  0  0
 21 61  1  0  0  0  0
 22 23  1  0  0  0  0
 22 62  1  0  0  0  0
 22 63  1  0  0  0  0
 23 24  1  0  0  0  0
 23 64  1  0  0  0  0
 23 65  1  0  0  0  0
 24 25  1  0  0  0  0
 24 66  1  0  0  0  0
 24 67  1  0  0  0  0
 25 26  1  0  0  0  0
 25 68  1  0  0  0  0
 25 69  1  0  0  0  0
 26 27  2  0  0  0  0
 26 70  1  0  0  0  0
 27 28  1  0  0  0  0
 27 71  1  0  0  0  0
 28 29  1  0  0  0  0
 28 72  1  0  0  0  0
 28 73  1  0  0  0  0
 29 30  1  0  0  0  0
 29 74  1  0  0  0  0
 29 75  1  0  0  0  0
 30 31  1  0  0  0  0
 30 76  1  0  0  0  0
 30 77  1  0  0  0  0
 31 32  1  0  0  0  0
 31 78  1  0  0  0  0
 31 79  1  0  0  0  0
 32 33  1  0  0  0  0
 32 80  1  0  0  0  0
 32 81  1  0  0  0  0
 33 34  1  0  0  0  0
 33 82  1  0  0  0  0
 33 83  1  0  0  0  0
 34 35  1  0  0  0  0
 34 84  1  0  0  0  0
 34 85  1  0  0  0  0
 35 86  1  0  0  0  0
 35 87  1  0  0  0  0
 35 88  1  0  0  0  0
M  CHG  1   8  -1
M  END
$$$$