/media/chris/experiments/cd1a-new-docking/inputs/ligands/4x6e_ligand.pdb
 OpenBabel07012320273D

 88 87  0  0  1  0  0  0  0  0999 V2000
  -37.9114   69.4778   63.2675 N   0  0  0  0  0  4  0  0  0  0  0  0
  -41.7409   63.0292   65.3535 C   0  0  1  0  0  0  0  0  0  0  0  0
  -41.0970   63.4409   66.5668 O   0  0  0  0  0  0  0  0  0  0  0  0
  -40.1602   65.9772   65.1668 P   0  0  1  0  0  0  0  0  0  0  0  0
  -42.2844   64.2426   64.6361 C   0  0  0  0  0  0  0  0  0  0  0  0
  -41.2337   65.1749   64.2836 O   0  0  0  0  0  0  0  0  0  0  0  0
  -39.7494   67.6911   63.0415 C   0  0  0  0  0  0  0  0  0  0  0  0
  -38.9037   65.1167   65.2888 O   0  5  0  0  0  0  0  0  0  0  0  0
  -39.3050   69.1110   62.7920 C   0  0  0  0  0  0  0  0  0  0  0  0
  -39.7557   67.4098   64.4676 O   0  0  0  0  0  0  0  0  0  0  0  0
  -37.7889   69.2671   64.7426 C   0  0  0  0  0  0  0  0  0  0  0  0
  -40.7209   66.1857   66.5198 O   0  0  0  0  0  0  0  0  0  0  0  0
  -37.6663   70.9188   62.9609 C   0  0  0  0  0  0  0  0  0  0  0  0
  -40.3646   61.0134   65.1616 O   0  0  0  0  0  0  0  0  0  0  0  0
  -36.8792   68.6381   62.5704 C   0  0  0  0  0  0  0  0  0  0  0  0
  -41.5829   59.4037   64.1731 O   0  0  0  0  0  0  0  0  0  0  0  0
  -40.8026   62.2143   64.4888 C   0  0  0  0  0  0  0  0  0  0  0  0
  -41.1924   59.9644   65.1670 C   0  0  0  0  0  0  0  0  0  0  0  0
  -41.5470   59.5850   66.5720 C   0  0  0  0  0  0  0  0  0  0  0  0
  -42.4780   58.3810   66.6510 C   0  0  0  0  0  0  0  0  0  0  0  0
  -43.8050   58.5690   65.9360 C   0  0  0  0  0  0  0  0  0  0  0  0
  -44.6170   59.7376   66.4663 C   0  0  0  0  0  0  0  0  0  0  0  0
  -43.9014   61.0697   66.3219 C   0  0  0  0  0  0  0  0  0  0  0  0
  -44.7168   62.2195   66.8702 C   0  0  0  0  0  0  0  0  0  0  0  0
  -45.0441   62.1185   68.3462 C   0  0  0  0  0  0  0  0  0  0  0  0
  -45.8565   63.2436   68.8623 C   0  0  0  0  0  0  0  0  0  0  0  0
  -45.3921   64.3656   69.3726 C   0  0  0  0  0  0  0  0  0  0  0  0
  -43.9606   64.7716   69.5080 C   0  0  0  0  0  0  0  0  0  0  0  0
  -43.6162   65.0048   70.9799 C   0  0  0  0  0  0  0  0  0  0  0  0
  -43.7841   63.7956   71.8883 C   0  0  0  0  0  0  0  0  0  0  0  0
  -42.9181   62.5943   71.5284 C   0  0  0  0  0  0  0  0  0  0  0  0
  -41.4217   62.8839   71.5831 C   0  0  0  0  0  0  0  0  0  0  0  0
  -40.5535   61.6933   71.2083 C   0  0  0  0  0  0  0  0  0  0  0  0
  -40.7581   61.1554   69.8000 C   0  0  0  0  0  0  0  0  0  0  0  0
  -40.4560   62.1716   68.7419 C   0  0  0  0  0  0  0  0  0  0  0  0
  -42.5651   62.3876   65.5858 H   0  0  0  0  0  0  0  0  0  0  0  0
  -40.3500   64.0225   66.3552 H   0  0  0  0  0  0  0  0  0  0  0  0
  -42.9861   64.7371   65.2748 H   0  0  0  0  0  0  0  0  0  0  0  0
  -42.7527   63.9125   63.7325 H   0  0  0  0  0  0  0  0  0  0  0  0
  -39.0761   67.0189   62.5518 H   0  0  0  0  0  0  0  0  0  0  0  0
  -40.7392   67.5623   62.6561 H   0  0  0  0  0  0  0  0  0  0  0  0
  -39.3442   69.2833   61.7367 H   0  0  0  0  0  0  0  0  0  0  0  0
  -39.9701   69.7211   63.3669 H   0  0  0  0  0  0  0  0  0  0  0  0
  -38.5203   69.8611   65.2497 H   0  0  0  0  0  0  0  0  0  0  0  0
  -36.8099   69.5556   65.0639 H   0  0  0  0  0  0  0  0  0  0  0  0
  -37.9488   68.2338   64.9697 H   0  0  0  0  0  0  0  0  0  0  0  0
  -40.9511   65.3281   66.9102 H   0  0  0  0  0  0  0  0  0  0  0  0
  -38.4005   71.5188   63.4566 H   0  0  0  0  0  0  0  0  0  0  0  0
  -37.7321   71.0748   61.9044 H   0  0  0  0  0  0  0  0  0  0  0  0
  -36.6904   71.1950   63.3021 H   0  0  0  0  0  0  0  0  0  0  0  0
  -37.0530   67.6052   62.7887 H   0  0  0  0  0  0  0  0  0  0  0  0
  -35.9038   68.9157   62.9118 H   0  0  0  0  0  0  0  0  0  0  0  0
  -36.9455   68.7955   61.5141 H   0  0  0  0  0  0  0  0  0  0  0  0
  -39.9464   62.8098   64.2494 H   0  0  0  0  0  0  0  0  0  0  0  0
  -41.3295   61.9274   63.6028 H   0  0  0  0  0  0  0  0  0  0  0  0
  -42.0288   60.4189   67.0383 H   0  0  0  0  0  0  0  0  0  0  0  0
  -40.6378   59.3175   67.0687 H   0  0  0  0  0  0  0  0  0  0  0  0
  -42.6787   58.1797   67.6825 H   0  0  0  0  0  0  0  0  0  0  0  0
  -41.9769   57.5734   66.1596 H   0  0  0  0  0  0  0  0  0  0  0  0
  -44.3819   57.6753   66.0516 H   0  0  0  0  0  0  0  0  0  0  0  0
  -43.5836   58.7785   64.9103 H   0  0  0  0  0  0  0  0  0  0  0  0
  -44.8195   59.5696   67.5034 H   0  0  0  0  0  0  0  0  0  0  0  0
  -45.5158   59.7920   65.8883 H   0  0  0  0  0  0  0  0  0  0  0  0
  -43.7100   61.2472   65.2842 H   0  0  0  0  0  0  0  0  0  0  0  0
  -42.9915   61.0159   66.8824 H   0  0  0  0  0  0  0  0  0  0  0  0
  -45.6377   62.2634   66.3272 H   0  0  0  0  0  0  0  0  0  0  0  0
  -44.1162   63.0973   66.7540 H   0  0  0  0  0  0  0  0  0  0  0  0
  -44.1250   62.0887   68.8932 H   0  0  0  0  0  0  0  0  0  0  0  0
  -45.6288   61.2314   68.4732 H   0  0  0  0  0  0  0  0  0  0  0  0
  -46.8822   63.1391   68.8180 H   0  0  0  0  0  0  0  0  0  0  0  0
  -46.0947   65.0385   69.7170 H   0  0  0  0  0  0  0  0  0  0  0  0
  -43.7956   65.6750   68.9587 H   0  0  0  0  0  0  0  0  0  0  0  0
  -43.3378   63.9916   69.1224 H   0  0  0  0  0  0  0  0  0  0  0  0
  -44.2498   65.7846   71.3478 H   0  0  0  0  0  0  0  0  0  0  0  0
  -42.5749   65.2498   71.0042 H   0  0  0  0  0  0  0  0  0  0  0  0
  -44.8087   63.4900   71.8481 H   0  0  0  0  0  0  0  0  0  0  0  0
  -43.4717   64.1080   72.8628 H   0  0  0  0  0  0  0  0  0  0  0  0
  -43.1667   62.2833   70.5352 H   0  0  0  0  0  0  0  0  0  0  0  0
  -43.1180   61.8340   72.2542 H   0  0  0  0  0  0  0  0  0  0  0  0
  -41.1720   63.1834   72.5795 H   0  0  0  0  0  0  0  0  0  0  0  0
  -41.2258   63.6517   70.8641 H   0  0  0  0  0  0  0  0  0  0  0  0
  -40.7625   60.9020   71.8977 H   0  0  0  0  0  0  0  0  0  0  0  0
  -39.5424   62.0411   71.2476 H   0  0  0  0  0  0  0  0  0  0  0  0
  -41.7773   60.8466   69.6966 H   0  0  0  0  0  0  0  0  0  0  0  0
  -40.0805   60.3384   69.6652 H   0  0  0  0  0  0  0  0  0  0  0  0
  -41.1184   63.0052   68.8484 H   0  0  0  0  0  0  0  0  0  0  0  0
  -40.5895   61.7312   67.7759 H   0  0  0  0  0  0  0  0  0  0  0  0
  -39.4444   62.5044   68.8454 H   0  0  0  0  0  0  0  0  0  0  0  0
  1  9  1  0  0  0  0
  1 11  1  0  0  0  0
  1 13  1  0  0  0  0
  1 15  1  0  0  0  0
  2  3  1  0  0  0  0
  2  5  1  0  0  0  0
  2 17  1  0  0  0  0
  2 36  1  1  0  0  0
  3 37  1  0  0  0  0
  4  6  1  0  0  0  0
  4  8  2  1  0  0  0
  4 10  1  0  0  0  0
  4 12  1  0  0  0  0
  5  6  1  0  0  0  0
  5 38  1  0  0  0  0
  5 39  1  0  0  0  0
  7  9  1  0  0  0  0
  7 10  1  0  0  0  0
  7 40  1  0  0  0  0
  7 41  1  0  0  0  0
  9 42  1  0  0  0  0
  9 43  1  0  0  0  0
 11 44  1  0  0  0  0
 11 45  1  0  0  0  0
 11 46  1  0  0  0  0
 12 47  1  0  0  0  0
 13 48  1  0  0  0  0
 13 49  1  0  0  0  0
 13 50  1  0  0  0  0
 14 17  1  0  0  0  0
 14 18  1  0  0  0  0
 15 51  1  0  0  0  0
 15 52  1  0  0  0  0
 15 53  1  0  0  0  0
 16 18  2  0  0  0  0
 17 54  1  0  0  0  0
 17 55  1  0  0  0  0
 18 19  1  0  0  0  0
 19 20  1  0  0  0  0
 19 56  1  0  0  0  0
 19 57  1  0  0  0  0
 20 21  1  0  0  0  0
 20 58  1  0  0  0  0
 20 59  1  0  0  0  0
 21 22  1  0  0  0  0
 21 60  1  0  0  0  0
 21 61  1  0  0  0  0
 22 23  1  0  0  0  0
 22 62  1  0  0  0  0
 22 63  1  0  0  0  0
 23 24  1  0  0  0  0
 23 64  1  0  0  0  0
 23 65  1  0  0  0  0
 24 25  1  0  0  0  0
 24 66  1  0  0  0  0
 24 67  1  0  0  0  0
 25 26  1  0  0  0  0
 25 68  1  0  0  0  0
 25 69  1  0  0  0  0
 26 27  2  0  0  0  0
 26 70  1  0  0  0  0
 27 28  1  0  0  0  0
 27 71  1  0  0  0  0
 28 29  1  0  0  0  0
 28 72  1  0  0  0  0
 28 73  1  0  0  0  0
 29 30  1  0  0  0  0
 29 74  1  0  0  0  0
 29 75  1  0  0  0  0
 30 31  1  0  0  0  0
 30 76  1  0  0  0  0
 30 77  1  0  0  0  0
 31 32  1  0  0  0  0
 31 78  1  0  0  0  0
 31 79  1  0  0  0  0
 32 33  1  0  0  0  0
 32 80  1  0  0  0  0
 32 81  1  0  0  0  0
 33 34  1  0  0  0  0
 33 82  1  0  0  0  0
 33 83  1  0  0  0  0
 34 35  1  0  0  0  0
 34 84  1  0  0  0  0
 34 85  1  0  0  0  0
 35 86  1  0  0  0  0
 35 87  1  0  0  0  0
 35 88  1  0  0  0  0
M  CHG  1   8  -1
M  END
$$$$