/media/chris/experiments/cd1a-new-docking/inputs/ligands/4x6e_ligand.pdb
 OpenBabel07012320273D

 88 87  0  0  1  0  0  0  0  0999 V2000
  -40.5985   68.2840   70.2976 N   0  0  0  0  0  4  0  0  0  0  0  0
  -42.7041   62.2580   70.2764 C   0  0  1  0  0  0  0  0  0  0  0  0
  -42.0275   63.1112   71.2095 O   0  0  0  0  0  0  0  0  0  0  0  0
  -44.5059   64.8555   71.4172 P   0  0  1  0  0  0  0  0  0  0  0  0
  -43.6499   63.0829   69.4354 C   0  0  0  0  0  0  0  0  0  0  0  0
  -44.6366   63.7648   70.2471 O   0  0  0  0  0  0  0  0  0  0  0  0
  -42.3411   66.4931   70.9119 C   0  0  0  0  0  0  0  0  0  0  0  0
  -43.6660   64.2514   72.5413 O   0  5  0  0  0  0  0  0  0  0  0  0
  -42.0557   67.8639   70.3502 C   0  0  0  0  0  0  0  0  0  0  0  0
  -43.7697   66.2259   70.8832 O   0  0  0  0  0  0  0  0  0  0  0  0
  -40.4711   69.6641   69.7371 C   0  0  0  0  0  0  0  0  0  0  0  0
  -45.8565   65.1489   71.9445 O   0  0  0  0  0  0  0  0  0  0  0  0
  -39.8587   67.3319   69.4164 C   0  0  0  0  0  0  0  0  0  0  0  0
  -42.3828   60.6219   68.4835 O   0  0  0  0  0  0  0  0  0  0  0  0
  -39.9940   68.2615   71.6726 C   0  0  0  0  0  0  0  0  0  0  0  0
  -42.3332   61.8587   66.6072 O   0  0  0  0  0  0  0  0  0  0  0  0
  -41.7151   61.4742   69.4398 C   0  0  0  0  0  0  0  0  0  0  0  0
  -42.1287   60.8209   67.1868 C   0  0  0  0  0  0  0  0  0  0  0  0
  -41.5470   59.5850   66.5720 C   0  0  0  0  0  0  0  0  0  0  0  0
  -42.4780   58.3810   66.6510 C   0  0  0  0  0  0  0  0  0  0  0  0
  -43.8050   58.5690   65.9360 C   0  0  0  0  0  0  0  0  0  0  0  0
  -43.6578   58.8291   64.4471 C   0  0  0  0  0  0  0  0  0  0  0  0
  -44.9905   59.0322   63.7470 C   0  0  0  0  0  0  0  0  0  0  0  0
  -44.8261   59.2729   62.2629 C   0  0  0  0  0  0  0  0  0  0  0  0
  -43.9862   60.4821   61.9050 C   0  0  0  0  0  0  0  0  0  0  0  0
  -43.8495   60.7121   60.4488 C   0  0  0  0  0  0  0  0  0  0  0  0
  -43.6989   61.8799   59.8586 C   0  0  0  0  0  0  0  0  0  0  0  0
  -43.5917   63.2171   60.5167 C   0  0  0  0  0  0  0  0  0  0  0  0
  -42.1265   63.5435   60.8105 C   0  0  0  0  0  0  0  0  0  0  0  0
  -41.8812   64.8781   61.4990 C   0  0  0  0  0  0  0  0  0  0  0  0
  -42.3766   66.0988   60.7331 C   0  0  0  0  0  0  0  0  0  0  0  0
  -43.8810   66.0914   60.4823 C   0  0  0  0  0  0  0  0  0  0  0  0
  -44.7138   66.0777   61.7543 C   0  0  0  0  0  0  0  0  0  0  0  0
  -44.5151   67.2716   62.6760 C   0  0  0  0  0  0  0  0  0  0  0  0
  -45.3494   67.1908   63.9173 C   0  0  0  0  0  0  0  0  0  0  0  0
  -43.2838   61.5336   70.8093 H   0  0  0  0  0  0  0  0  0  0  0  0
  -41.5022   63.7675   70.7255 H   0  0  0  0  0  0  0  0  0  0  0  0
  -44.1541   62.4372   68.7471 H   0  0  0  0  0  0  0  0  0  0  0  0
  -43.0756   63.8232   68.9186 H   0  0  0  0  0  0  0  0  0  0  0  0
  -41.9930   66.4457   71.9225 H   0  0  0  0  0  0  0  0  0  0  0  0
  -41.8371   65.7603   70.3169 H   0  0  0  0  0  0  0  0  0  0  0  0
  -42.4384   67.8922   69.3514 H   0  0  0  0  0  0  0  0  0  0  0  0
  -42.5239   68.5496   71.0252 H   0  0  0  0  0  0  0  0  0  0  0  0
  -40.8989   69.6918   68.7567 H   0  0  0  0  0  0  0  0  0  0  0  0
  -39.4368   69.9329   69.6826 H   0  0  0  0  0  0  0  0  0  0  0  0
  -40.9864   70.3554   70.3707 H   0  0  0  0  0  0  0  0  0  0  0  0
  -46.2690   64.3267   72.2525 H   0  0  0  0  0  0  0  0  0  0  0  0
  -40.2877   67.3463   68.4362 H   0  0  0  0  0  0  0  0  0  0  0  0
  -39.9278   66.3439   69.8214 H   0  0  0  0  0  0  0  0  0  0  0  0
  -38.8307   67.6233   69.3601 H   0  0  0  0  0  0  0  0  0  0  0  0
  -40.5226   68.9430   72.3059 H   0  0  0  0  0  0  0  0  0  0  0  0
  -38.9659   68.5523   71.6151 H   0  0  0  0  0  0  0  0  0  0  0  0
  -40.0630   67.2730   72.0764 H   0  0  0  0  0  0  0  0  0  0  0  0
  -41.1173   60.8673   70.0873 H   0  0  0  0  0  0  0  0  0  0  0  0
  -41.1086   62.1709   68.8998 H   0  0  0  0  0  0  0  0  0  0  0  0
  -40.6379   59.3462   67.0832 H   0  0  0  0  0  0  0  0  0  0  0  0
  -41.3821   59.7924   65.5353 H   0  0  0  0  0  0  0  0  0  0  0  0
  -42.6787   58.1797   67.6825 H   0  0  0  0  0  0  0  0  0  0  0  0
  -41.9769   57.5734   66.1596 H   0  0  0  0  0  0  0  0  0  0  0  0
  -44.3126   59.4014   66.3769 H   0  0  0  0  0  0  0  0  0  0  0  0
  -44.3534   57.6566   66.0440 H   0  0  0  0  0  0  0  0  0  0  0  0
  -43.1625   57.9917   64.0018 H   0  0  0  0  0  0  0  0  0  0  0  0
  -43.0949   59.7319   64.3334 H   0  0  0  0  0  0  0  0  0  0  0  0
  -45.4820   59.8778   64.1807 H   0  0  0  0  0  0  0  0  0  0  0  0
  -45.5667   58.1394   63.8729 H   0  0  0  0  0  0  0  0  0  0  0  0
  -45.7989   59.4053   61.8373 H   0  0  0  0  0  0  0  0  0  0  0  0
  -44.3083   58.4207   61.8748 H   0  0  0  0  0  0  0  0  0  0  0  0
  -43.0082   60.3462   62.3172 H   0  0  0  0  0  0  0  0  0  0  0  0
  -44.4882   61.3372   62.3072 H   0  0  0  0  0  0  0  0  0  0  0  0
  -43.8746   59.8797   59.8393 H   0  0  0  0  0  0  0  0  0  0  0  0
  -43.6495   61.8704   58.8279 H   0  0  0  0  0  0  0  0  0  0  0  0
  -44.1422   63.2050   61.4342 H   0  0  0  0  0  0  0  0  0  0  0  0
  -43.9915   63.9625   59.8615 H   0  0  0  0  0  0  0  0  0  0  0  0
  -41.5966   63.5492   59.8809 H   0  0  0  0  0  0  0  0  0  0  0  0
  -41.7880   62.7925   61.4934 H   0  0  0  0  0  0  0  0  0  0  0  0
  -40.8272   64.9855   61.6488 H   0  0  0  0  0  0  0  0  0  0  0  0
  -42.4395   64.8509   62.4114 H   0  0  0  0  0  0  0  0  0  0  0  0
  -41.8760   66.1316   59.7879 H   0  0  0  0  0  0  0  0  0  0  0  0
  -42.1626   66.9565   61.3360 H   0  0  0  0  0  0  0  0  0  0  0  0
  -44.1236   65.2202   59.9104 H   0  0  0  0  0  0  0  0  0  0  0  0
  -44.1158   66.9983   59.9652 H   0  0  0  0  0  0  0  0  0  0  0  0
  -44.4656   65.1926   62.3020 H   0  0  0  0  0  0  0  0  0  0  0  0
  -45.7355   66.1150   61.4387 H   0  0  0  0  0  0  0  0  0  0  0  0
  -44.7786   68.1618   62.1441 H   0  0  0  0  0  0  0  0  0  0  0  0
  -43.4884   67.2790   62.9774 H   0  0  0  0  0  0  0  0  0  0  0  0
  -46.3856   67.1815   63.6506 H   0  0  0  0  0  0  0  0  0  0  0  0
  -45.1485   68.0389   64.5379 H   0  0  0  0  0  0  0  0  0  0  0  0
  -45.1102   66.2943   64.4501 H   0  0  0  0  0  0  0  0  0  0  0  0
  1  9  1  0  0  0  0
  1 11  1  0  0  0  0
  1 13  1  0  0  0  0
  1 15  1  0  0  0  0
  2  3  1  0  0  0  0
  2  5  1  0  0  0  0
  2 17  1  0  0  0  0
  2 36  1  1  0  0  0
  3 37  1  0  0  0  0
  4  6  1  0  0  0  0
  4  8  2  1  0  0  0
  4 10  1  0  0  0  0
  4 12  1  0  0  0  0
  5  6  1  0  0  0  0
  5 38  1  0  0  0  0
  5 39  1  0  0  0  0
  7  9  1  0  0  0  0
  7 10  1  0  0  0  0
  7 40  1  0  0  0  0
  7 41  1  0  0  0  0
  9 42  1  0  0  0  0
  9 43  1  0  0  0  0
 11 44  1  0  0  0  0
 11 45  1  0  0  0  0
 11 46  1  0  0  0  0
 12 47  1  0  0  0  0
 13 48  1  0  0  0  0
 13 49  1  0  0  0  0
 13 50  1  0  0  0  0
 14 17  1  0  0  0  0
 14 18  1  0  0  0  0
 15 51  1  0  0  0  0
 15 52  1  0  0  0  0
 15 53  1  0  0  0  0
 16 18  2  0  0  0  0
 17 54  1  0  0  0  0
 17 55  1  0  0  0  0
 18 19  1  0  0  0  0
 19 20  1  0  0  0  0
 19 56  1  0  0  0  0
 19 57  1  0  0  0  0
 20 21  1  0  0  0  0
 20 58  1  0  0  0  0
 20 59  1  0  0  0  0
 21 22  1  0  0  0  0
 21 60  1  0  0  0  0
 21 61  1  0  0  0  0
 22 23  1  0  0  0  0
 22 62  1  0  0  0  0
 22 63  1  0  0  0  0
 23 24  1  0  0  0  0
 23 64  1  0  0  0  0
 23 65  1  0  0  0  0
 24 25  1  0  0  0  0
 24 66  1  0  0  0  0
 24 67  1  0  0  0  0
 25 26  1  0  0  0  0
 25 68  1  0  0  0  0
 25 69  1  0  0  0  0
 26 27  2  0  0  0  0
 26 70  1  0  0  0  0
 27 28  1  0  0  0  0
 27 71  1  0  0  0  0
 28 29  1  0  0  0  0
 28 72  1  0  0  0  0
 28 73  1  0  0  0  0
 29 30  1  0  0  0  0
 29 74  1  0  0  0  0
 29 75  1  0  0  0  0
 30 31  1  0  0  0  0
 30 76  1  0  0  0  0
 30 77  1  0  0  0  0
 31 32  1  0  0  0  0
 31 78  1  0  0  0  0
 31 79  1  0  0  0  0
 32 33  1  0  0  0  0
 32 80  1  0  0  0  0
 32 81  1  0  0  0  0
 33 34  1  0  0  0  0
 33 82  1  0  0  0  0
 33 83  1  0  0  0  0
 34 35  1  0  0  0  0
 34 84  1  0  0  0  0
 34 85  1  0  0  0  0
 35 86  1  0  0  0  0
 35 87  1  0  0  0  0
 35 88  1  0  0  0  0
M  CHG  1   8  -1
M  END
$$$$