/media/chris/experiments/cd1a-new-docking/inputs/ligands/4x6e_ligand.pdb
 OpenBabel07012320273D

 88 87  0  0  1  0  0  0  0  0999 V2000
  -37.1365   61.0629   56.6175 N   0  0  0  0  0  4  0  0  0  0  0  0
  -40.0603   61.6902   62.8284 C   0  0  1  0  0  0  0  0  0  0  0  0
  -40.5713   63.0084   63.0685 O   0  0  0  0  0  0  0  0  0  0  0  0
  -37.5410   59.8964   60.2421 P   0  0  1  0  0  0  0  0  0  0  0  0
  -39.1130   61.7248   61.6521 C   0  0  0  0  0  0  0  0  0  0  0  0
  -38.5776   60.4128   61.3533 O   0  0  0  0  0  0  0  0  0  0  0  0
  -39.1422   60.2777   58.0253 C   0  0  0  0  0  0  0  0  0  0  0  0
  -36.7866   58.6971   60.8135 O   0  5  0  0  0  0  0  0  0  0  0  0
  -38.3288   61.4267   57.4827 C   0  0  0  0  0  0  0  0  0  0  0  0
  -38.3147   59.4300   58.8677 O   0  0  0  0  0  0  0  0  0  0  0  0
  -37.5793   60.3063   55.4065 C   0  0  0  0  0  0  0  0  0  0  0  0
  -36.5680   60.9755   59.9640 O   0  0  0  0  0  0  0  0  0  0  0  0
  -36.2119   60.2035   57.4157 C   0  0  0  0  0  0  0  0  0  0  0  0
  -40.3646   61.0134   65.1616 O   0  0  0  0  0  0  0  0  0  0  0  0
  -36.4087   62.3008   56.1765 C   0  0  0  0  0  0  0  0  0  0  0  0
  -41.5829   59.4037   64.1731 O   0  0  0  0  0  0  0  0  0  0  0  0
  -39.4183   61.1199   64.0753 C   0  0  0  0  0  0  0  0  0  0  0  0
  -41.1924   59.9644   65.1670 C   0  0  0  0  0  0  0  0  0  0  0  0
  -41.5470   59.5850   66.5720 C   0  0  0  0  0  0  0  0  0  0  0  0
  -42.4780   58.3810   66.6510 C   0  0  0  0  0  0  0  0  0  0  0  0
  -43.8050   58.5690   65.9360 C   0  0  0  0  0  0  0  0  0  0  0  0
  -43.6578   58.8291   64.4471 C   0  0  0  0  0  0  0  0  0  0  0  0
  -42.9740   57.6892   63.7118 C   0  0  0  0  0  0  0  0  0  0  0  0
  -42.8204   57.9723   62.2340 C   0  0  0  0  0  0  0  0  0  0  0  0
  -41.9877   59.1947   61.9049 C   0  0  0  0  0  0  0  0  0  0  0  0
  -41.8617   59.4662   60.4549 C   0  0  0  0  0  0  0  0  0  0  0  0
  -42.6664   60.2194   59.7339 C   0  0  0  0  0  0  0  0  0  0  0  0
  -43.8498   60.9945   60.2149 C   0  0  0  0  0  0  0  0  0  0  0  0
  -44.8705   60.0532   60.8565 C   0  0  0  0  0  0  0  0  0  0  0  0
  -46.1364   60.7197   61.3748 C   0  0  0  0  0  0  0  0  0  0  0  0
  -46.9643   61.4403   60.3176 C   0  0  0  0  0  0  0  0  0  0  0  0
  -47.4661   60.5230   59.2073 C   0  0  0  0  0  0  0  0  0  0  0  0
  -48.3699   59.4037   59.6993 C   0  0  0  0  0  0  0  0  0  0  0  0
  -47.7449   58.4616   60.7173 C   0  0  0  0  0  0  0  0  0  0  0  0
  -48.6785   57.3729   61.1492 C   0  0  0  0  0  0  0  0  0  0  0  0
  -40.8678   61.0329   62.5815 H   0  0  0  0  0  0  0  0  0  0  0  0
  -39.8386   63.6034   63.2922 H   0  0  0  0  0  0  0  0  0  0  0  0
  -38.3029   62.3859   61.8792 H   0  0  0  0  0  0  0  0  0  0  0  0
  -39.6582   62.0642   60.7961 H   0  0  0  0  0  0  0  0  0  0  0  0
  -39.5252   59.6999   57.2102 H   0  0  0  0  0  0  0  0  0  0  0  0
  -39.9502   60.6671   58.6088 H   0  0  0  0  0  0  0  0  0  0  0  0
  -38.9816   62.0386   56.8959 H   0  0  0  0  0  0  0  0  0  0  0  0
  -37.9171   61.9130   58.3423 H   0  0  0  0  0  0  0  0  0  0  0  0
  -38.0994   59.4216   55.7092 H   0  0  0  0  0  0  0  0  0  0  0  0
  -36.7245   60.0354   54.8228 H   0  0  0  0  0  0  0  0  0  0  0  0
  -38.2311   60.9204   54.8208 H   0  0  0  0  0  0  0  0  0  0  0  0
  -36.1259   61.2325   60.7882 H   0  0  0  0  0  0  0  0  0  0  0  0
  -36.7283   59.3210   57.7309 H   0  0  0  0  0  0  0  0  0  0  0  0
  -35.8739   60.7449   58.2745 H   0  0  0  0  0  0  0  0  0  0  0  0
  -35.3712   59.9289   56.8135 H   0  0  0  0  0  0  0  0  0  0  0  0
  -37.0693   62.9182   55.6043 H   0  0  0  0  0  0  0  0  0  0  0  0
  -35.5678   62.0250   55.5750 H   0  0  0  0  0  0  0  0  0  0  0  0
  -36.0706   62.8411   57.0360 H   0  0  0  0  0  0  0  0  0  0  0  0
  -38.6156   61.7602   64.3760 H   0  0  0  0  0  0  0  0  0  0  0  0
  -39.0601   60.1378   63.8471 H   0  0  0  0  0  0  0  0  0  0  0  0
  -42.0288   60.4189   67.0383 H   0  0  0  0  0  0  0  0  0  0  0  0
  -40.6378   59.3175   67.0687 H   0  0  0  0  0  0  0  0  0  0  0  0
  -42.6787   58.1797   67.6825 H   0  0  0  0  0  0  0  0  0  0  0  0
  -41.9769   57.5734   66.1596 H   0  0  0  0  0  0  0  0  0  0  0  0
  -44.3126   59.4014   66.3769 H   0  0  0  0  0  0  0  0  0  0  0  0
  -44.3534   57.6566   66.0440 H   0  0  0  0  0  0  0  0  0  0  0  0
  -43.0787   59.7186   64.3117 H   0  0  0  0  0  0  0  0  0  0  0  0
  -44.6423   58.9284   64.0400 H   0  0  0  0  0  0  0  0  0  0  0  0
  -43.5582   56.8011   63.8335 H   0  0  0  0  0  0  0  0  0  0  0  0
  -41.9948   57.5716   64.1269 H   0  0  0  0  0  0  0  0  0  0  0  0
  -43.7965   58.1127   61.8187 H   0  0  0  0  0  0  0  0  0  0  0  0
  -42.3019   57.1336   61.8187 H   0  0  0  0  0  0  0  0  0  0  0  0
  -41.0065   59.0512   62.3067 H   0  0  0  0  0  0  0  0  0  0  0  0
  -42.4905   60.0360   62.3344 H   0  0  0  0  0  0  0  0  0  0  0  0
  -41.0694   59.0239   59.9633 H   0  0  0  0  0  0  0  0  0  0  0  0
  -42.4563   60.2811   58.7254 H   0  0  0  0  0  0  0  0  0  0  0  0
  -44.3039   61.4971   59.3866 H   0  0  0  0  0  0  0  0  0  0  0  0
  -43.5274   61.7094   60.9428 H   0  0  0  0  0  0  0  0  0  0  0  0
  -44.3950   59.5621   61.6797 H   0  0  0  0  0  0  0  0  0  0  0  0
  -45.1845   59.3858   60.0813 H   0  0  0  0  0  0  0  0  0  0  0  0
  -45.8542   61.4344   62.1194 H   0  0  0  0  0  0  0  0  0  0  0  0
  -46.7548   59.9329   61.7537 H   0  0  0  0  0  0  0  0  0  0  0  0
  -46.3593   62.2052   59.8773 H   0  0  0  0  0  0  0  0  0  0  0  0
  -47.8266   61.8379   60.8107 H   0  0  0  0  0  0  0  0  0  0  0  0
  -46.6188   60.0845   58.7229 H   0  0  0  0  0  0  0  0  0  0  0  0
  -48.0495   61.1264   58.5436 H   0  0  0  0  0  0  0  0  0  0  0  0
  -48.6681   58.8231   58.8514 H   0  0  0  0  0  0  0  0  0  0  0  0
  -49.1854   59.8815   60.2009 H   0  0  0  0  0  0  0  0  0  0  0  0
  -47.4596   59.0291   61.5784 H   0  0  0  0  0  0  0  0  0  0  0  0
  -46.9012   57.9969   60.2512 H   0  0  0  0  0  0  0  0  0  0  0  0
  -49.5362   57.8048   61.6209 H   0  0  0  0  0  0  0  0  0  0  0  0
  -48.1782   56.7276   61.8407 H   0  0  0  0  0  0  0  0  0  0  0  0
  -48.9879   56.8084   60.2945 H   0  0  0  0  0  0  0  0  0  0  0  0
  1  9  1  0  0  0  0
  1 11  1  0  0  0  0
  1 13  1  0  0  0  0
  1 15  1  0  0  0  0
  2  3  1  0  0  0  0
  2  5  1  0  0  0  0
  2 17  1  0  0  0  0
  2 36  1  6  0  0  0
  3 37  1  0  0  0  0
  4  6  1  0  0  0  0
  4  8  2  1  0  0  0
  4 10  1  0  0  0  0
  4 12  1  0  0  0  0
  5  6  1  0  0  0  0
  5 38  1  0  0  0  0
  5 39  1  0  0  0  0
  7  9  1  0  0  0  0
  7 10  1  0  0  0  0
  7 40  1  0  0  0  0
  7 41  1  0  0  0  0
  9 42  1  0  0  0  0
  9 43  1  0  0  0  0
 11 44  1  0  0  0  0
 11 45  1  0  0  0  0
 11 46  1  0  0  0  0
 12 47  1  0  0  0  0
 13 48  1  0  0  0  0
 13 49  1  0  0  0  0
 13 50  1  0  0  0  0
 14 17  1  0  0  0  0
 14 18  1  0  0  0  0
 15 51  1  0  0  0  0
 15 52  1  0  0  0  0
 15 53  1  0  0  0  0
 16 18  2  0  0  0  0
 17 54  1  0  0  0  0
 17 55  1  0  0  0  0
 18 19  1  0  0  0  0
 19 20  1  0  0  0  0
 19 56  1  0  0  0  0
 19 57  1  0  0  0  0
 20 21  1  0  0  0  0
 20 58  1  0  0  0  0
 20 59  1  0  0  0  0
 21 22  1  0  0  0  0
 21 60  1  0  0  0  0
 21 61  1  0  0  0  0
 22 23  1  0  0  0  0
 22 62  1  0  0  0  0
 22 63  1  0  0  0  0
 23 24  1  0  0  0  0
 23 64  1  0  0  0  0
 23 65  1  0  0  0  0
 24 25  1  0  0  0  0
 24 66  1  0  0  0  0
 24 67  1  0  0  0  0
 25 26  1  0  0  0  0
 25 68  1  0  0  0  0
 25 69  1  0  0  0  0
 26 27  2  0  0  0  0
 26 70  1  0  0  0  0
 27 28  1  0  0  0  0
 27 71  1  0  0  0  0
 28 29  1  0  0  0  0
 28 72  1  0  0  0  0
 28 73  1  0  0  0  0
 29 30  1  0  0  0  0
 29 74  1  0  0  0  0
 29 75  1  0  0  0  0
 30 31  1  0  0  0  0
 30 76  1  0  0  0  0
 30 77  1  0  0  0  0
 31 32  1  0  0  0  0
 31 78  1  0  0  0  0
 31 79  1  0  0  0  0
 32 33  1  0  0  0  0
 32 80  1  0  0  0  0
 32 81  1  0  0  0  0
 33 34  1  0  0  0  0
 33 82  1  0  0  0  0
 33 83  1  0  0  0  0
 34 35  1  0  0  0  0
 34 84  1  0  0  0  0
 34 85  1  0  0  0  0
 35 86  1  0  0  0  0
 35 87  1  0  0  0  0
 35 88  1  0  0  0  0
M  CHG  1   8  -1
M  END
$$$$