/media/chris/experiments/cd1a-new-docking/inputs/ligands/4x6e_ligand.pdb
 OpenBabel07012320273D

 88 87  0  0  1  0  0  0  0  0999 V2000
  -40.9088   60.7691   60.0593 N   0  0  0  0  0  4  0  0  0  0  0  0
  -39.1270   57.1462   65.6942 C   0  0  1  0  0  0  0  0  0  0  0  0
  -40.1770   56.7678   66.5946 O   0  0  0  0  0  0  0  0  0  0  0  0
  -38.7493   58.1314   61.8032 P   0  0  1  0  0  0  0  0  0  0  0  0
  -39.7060   57.3877   64.3199 C   0  0  0  0  0  0  0  0  0  0  0  0
  -38.6842   57.7582   63.3628 O   0  0  0  0  0  0  0  0  0  0  0  0
  -41.4132   58.8496   61.6973 C   0  0  0  0  0  0  0  0  0  0  0  0
  -37.8883   57.1292   61.0361 O   0  5  0  0  0  0  0  0  0  0  0  0
  -41.1361   60.3181   61.4903 C   0  0  0  0  0  0  0  0  0  0  0  0
  -40.2890   58.0555   61.2299 O   0  0  0  0  0  0  0  0  0  0  0  0
  -40.6306   62.2372   60.0107 C   0  0  0  0  0  0  0  0  0  0  0  0
  -38.1784   59.4831   61.6153 O   0  0  0  0  0  0  0  0  0  0  0  0
  -42.1417   60.4820   59.2668 C   0  0  0  0  0  0  0  0  0  0  0  0
  -39.2251   59.4857   66.4098 O   0  0  0  0  0  0  0  0  0  0  0  0
  -39.7462   60.0350   59.4542 C   0  0  0  0  0  0  0  0  0  0  0  0
  -40.1085   59.1264   68.4453 O   0  0  0  0  0  0  0  0  0  0  0  0
  -38.3627   58.3421   66.2215 C   0  0  0  0  0  0  0  0  0  0  0  0
  -40.2402   59.3661   67.2706 C   0  0  0  0  0  0  0  0  0  0  0  0
  -41.5470   59.5850   66.5720 C   0  0  0  0  0  0  0  0  0  0  0  0
  -42.4780   58.3810   66.6510 C   0  0  0  0  0  0  0  0  0  0  0  0
  -43.8050   58.5690   65.9360 C   0  0  0  0  0  0  0  0  0  0  0  0
  -44.6170   59.7376   66.4663 C   0  0  0  0  0  0  0  0  0  0  0  0
  -45.9487   59.9044   65.7548 C   0  0  0  0  0  0  0  0  0  0  0  0
  -45.7790   60.1306   64.2690 C   0  0  0  0  0  0  0  0  0  0  0  0
  -44.9620   61.3528   63.9021 C   0  0  0  0  0  0  0  0  0  0  0  0
  -45.5183   62.6261   64.4133 C   0  0  0  0  0  0  0  0  0  0  0  0
  -46.3721   63.4074   63.7846 C   0  0  0  0  0  0  0  0  0  0  0  0
  -46.9976   63.1709   62.4484 C   0  0  0  0  0  0  0  0  0  0  0  0
  -48.3148   62.4105   62.6106 C   0  0  0  0  0  0  0  0  0  0  0  0
  -49.3780   63.1174   63.4385 C   0  0  0  0  0  0  0  0  0  0  0  0
  -48.9695   63.4418   64.8704 C   0  0  0  0  0  0  0  0  0  0  0  0
  -50.0651   64.1340   65.6745 C   0  0  0  0  0  0  0  0  0  0  0  0
  -49.6566   64.4751   67.0988 C   0  0  0  0  0  0  0  0  0  0  0  0
  -50.7286   65.1522   67.9395 C   0  0  0  0  0  0  0  0  0  0  0  0
  -50.2599   65.4770   69.3245 C   0  0  0  0  0  0  0  0  0  0  0  0
  -38.4172   56.3492   65.6171 H   0  0  0  0  0  0  0  0  0  0  0  0
  -40.8198   57.4909   66.6638 H   0  0  0  0  0  0  0  0  0  0  0  0
  -40.4257   58.1771   64.3811 H   0  0  0  0  0  0  0  0  0  0  0  0
  -40.1600   56.4781   63.9860 H   0  0  0  0  0  0  0  0  0  0  0  0
  -42.2912   58.5752   61.1507 H   0  0  0  0  0  0  0  0  0  0  0  0
  -41.5601   58.6660   62.7411 H   0  0  0  0  0  0  0  0  0  0  0  0
  -41.9724   60.8640   61.8742 H   0  0  0  0  0  0  0  0  0  0  0  0
  -40.2123   60.5061   61.9965 H   0  0  0  0  0  0  0  0  0  0  0  0
  -41.4532   62.7705   60.4396 H   0  0  0  0  0  0  0  0  0  0  0  0
  -40.4996   62.5419   58.9933 H   0  0  0  0  0  0  0  0  0  0  0  0
  -39.7400   62.4500   60.5642 H   0  0  0  0  0  0  0  0  0  0  0  0
  -37.2721   59.5022   61.9605 H   0  0  0  0  0  0  0  0  0  0  0  0
  -42.9712   61.0040   59.6961 H   0  0  0  0  0  0  0  0  0  0  0  0
  -42.3370   59.4301   59.2795 H   0  0  0  0  0  0  0  0  0  0  0  0
  -42.0001   60.8063   58.2570 H   0  0  0  0  0  0  0  0  0  0  0  0
  -38.8617   60.2393   60.0206 H   0  0  0  0  0  0  0  0  0  0  0  0
  -39.6061   60.3596   58.4443 H   0  0  0  0  0  0  0  0  0  0  0  0
  -39.9429   58.9833   59.4668 H   0  0  0  0  0  0  0  0  0  0  0  0
  -37.5944   58.5985   65.5223 H   0  0  0  0  0  0  0  0  0  0  0  0
  -37.9447   58.0792   67.1707 H   0  0  0  0  0  0  0  0  0  0  0  0
  -41.3508   59.7963   65.5416 H   0  0  0  0  0  0  0  0  0  0  0  0
  -42.0377   60.3996   67.0625 H   0  0  0  0  0  0  0  0  0  0  0  0
  -42.6787   58.1797   67.6825 H   0  0  0  0  0  0  0  0  0  0  0  0
  -41.9769   57.5734   66.1596 H   0  0  0  0  0  0  0  0  0  0  0  0
  -44.3819   57.6753   66.0516 H   0  0  0  0  0  0  0  0  0  0  0  0
  -43.5836   58.7785   64.9103 H   0  0  0  0  0  0  0  0  0  0  0  0
  -44.0475   60.6344   66.3391 H   0  0  0  0  0  0  0  0  0  0  0  0
  -44.8265   59.5410   67.4970 H   0  0  0  0  0  0  0  0  0  0  0  0
  -46.4608   60.7448   66.1749 H   0  0  0  0  0  0  0  0  0  0  0  0
  -46.5071   59.0014   65.8876 H   0  0  0  0  0  0  0  0  0  0  0  0
  -46.7514   60.2377   63.8353 H   0  0  0  0  0  0  0  0  0  0  0  0
  -45.2410   59.2848   63.8948 H   0  0  0  0  0  0  0  0  0  0  0  0
  -44.9084   61.4135   62.8351 H   0  0  0  0  0  0  0  0  0  0  0  0
  -44.0013   61.2304   64.3571 H   0  0  0  0  0  0  0  0  0  0  0  0
  -45.2081   62.9297   65.3496 H   0  0  0  0  0  0  0  0  0  0  0  0
  -46.6385   64.2792   64.2683 H   0  0  0  0  0  0  0  0  0  0  0  0
  -46.3296   62.5958   61.8419 H   0  0  0  0  0  0  0  0  0  0  0  0
  -47.1932   64.1138   61.9819 H   0  0  0  0  0  0  0  0  0  0  0  0
  -48.0995   61.4735   63.0803 H   0  0  0  0  0  0  0  0  0  0  0  0
  -48.7230   62.3140   61.6263 H   0  0  0  0  0  0  0  0  0  0  0  0
  -50.2430   62.4886   63.4745 H   0  0  0  0  0  0  0  0  0  0  0  0
  -49.5553   64.0569   62.9581 H   0  0  0  0  0  0  0  0  0  0  0  0
  -48.1140   64.0838   64.8411 H   0  0  0  0  0  0  0  0  0  0  0  0
  -48.7627   62.5114   65.3567 H   0  0  0  0  0  0  0  0  0  0  0  0
  -50.9159   63.4863   65.7132 H   0  0  0  0  0  0  0  0  0  0  0  0
  -50.2776   65.0591   65.1806 H   0  0  0  0  0  0  0  0  0  0  0  0
  -48.8111   65.1293   67.0522 H   0  0  0  0  0  0  0  0  0  0  0  0
  -49.4510   63.5412   67.5787 H   0  0  0  0  0  0  0  0  0  0  0  0
  -51.5727   64.4983   68.0086 H   0  0  0  0  0  0  0  0  0  0  0  0
  -50.9800   66.0749   67.4594 H   0  0  0  0  0  0  0  0  0  0  0  0
  -49.9995   64.5729   69.8341 H   0  0  0  0  0  0  0  0  0  0  0  0
  -51.0424   65.9747   69.8583 H   0  0  0  0  0  0  0  0  0  0  0  0
  -49.4030   66.1155   69.2705 H   0  0  0  0  0  0  0  0  0  0  0  0
  1  9  1  0  0  0  0
  1 11  1  0  0  0  0
  1 13  1  0  0  0  0
  1 15  1  0  0  0  0
  2  3  1  0  0  0  0
  2  5  1  0  0  0  0
  2 17  1  0  0  0  0
  2 36  1  6  0  0  0
  3 37  1  0  0  0  0
  4  6  1  0  0  0  0
  4  8  2  6  0  0  0
  4 10  1  0  0  0  0
  4 12  1  0  0  0  0
  5  6  1  0  0  0  0
  5 38  1  0  0  0  0
  5 39  1  0  0  0  0
  7  9  1  0  0  0  0
  7 10  1  0  0  0  0
  7 40  1  0  0  0  0
  7 41  1  0  0  0  0
  9 42  1  0  0  0  0
  9 43  1  0  0  0  0
 11 44  1  0  0  0  0
 11 45  1  0  0  0  0
 11 46  1  0  0  0  0
 12 47  1  0  0  0  0
 13 48  1  0  0  0  0
 13 49  1  0  0  0  0
 13 50  1  0  0  0  0
 14 17  1  0  0  0  0
 14 18  1  0  0  0  0
 15 51  1  0  0  0  0
 15 52  1  0  0  0  0
 15 53  1  0  0  0  0
 16 18  2  0  0  0  0
 17 54  1  0  0  0  0
 17 55  1  0  0  0  0
 18 19  1  0  0  0  0
 19 20  1  0  0  0  0
 19 56  1  0  0  0  0
 19 57  1  0  0  0  0
 20 21  1  0  0  0  0
 20 58  1  0  0  0  0
 20 59  1  0  0  0  0
 21 22  1  0  0  0  0
 21 60  1  0  0  0  0
 21 61  1  0  0  0  0
 22 23  1  0  0  0  0
 22 62  1  0  0  0  0
 22 63  1  0  0  0  0
 23 24  1  0  0  0  0
 23 64  1  0  0  0  0
 23 65  1  0  0  0  0
 24 25  1  0  0  0  0
 24 66  1  0  0  0  0
 24 67  1  0  0  0  0
 25 26  1  0  0  0  0
 25 68  1  0  0  0  0
 25 69  1  0  0  0  0
 26 27  2  0  0  0  0
 26 70  1  0  0  0  0
 27 28  1  0  0  0  0
 27 71  1  0  0  0  0
 28 29  1  0  0  0  0
 28 72  1  0  0  0  0
 28 73  1  0  0  0  0
 29 30  1  0  0  0  0
 29 74  1  0  0  0  0
 29 75  1  0  0  0  0
 30 31  1  0  0  0  0
 30 76  1  0  0  0  0
 30 77  1  0  0  0  0
 31 32  1  0  0  0  0
 31 78  1  0  0  0  0
 31 79  1  0  0  0  0
 32 33  1  0  0  0  0
 32 80  1  0  0  0  0
 32 81  1  0  0  0  0
 33 34  1  0  0  0  0
 33 82  1  0  0  0  0
 33 83  1  0  0  0  0
 34 35  1  0  0  0  0
 34 84  1  0  0  0  0
 34 85  1  0  0  0  0
 35 86  1  0  0  0  0
 35 87  1  0  0  0  0
 35 88  1  0  0  0  0
M  CHG  1   8  -1
M  END
$$$$