/media/chris/experiments/cd1a-new-docking/inputs/ligands/4x6e_ligand.pdb
 OpenBabel07012320273D

 88 87  0  0  1  0  0  0  0  0999 V2000
  -44.1628   56.8982   59.5441 N   0  0  0  0  0  4  0  0  0  0  0  0
  -38.3791   59.2082   64.7725 C   0  0  1  0  0  0  0  0  0  0  0  0
  -37.0781   59.4461   64.2184 O   0  0  0  0  0  0  0  0  0  0  0  0
  -40.0874   58.5301   61.1843 P   0  0  1  0  0  0  0  0  0  0  0  0
  -39.1821   58.3527   63.8208 C   0  0  0  0  0  0  0  0  0  0  0  0
  -39.3327   58.9839   62.5261 O   0  0  0  0  0  0  0  0  0  0  0  0
  -42.2211   56.7783   61.2284 C   0  0  0  0  0  0  0  0  0  0  0  0
  -39.0547   58.4429   60.0618 O   0  5  0  0  0  0  0  0  0  0  0  0
  -42.6907   57.1221   59.8365 C   0  0  0  0  0  0  0  0  0  0  0  0
  -40.8013   57.0593   61.3633 O   0  0  0  0  0  0  0  0  0  0  0  0
  -45.0096   57.7356   60.4480 C   0  0  0  0  0  0  0  0  0  0  0  0
  -41.0834   59.5643   60.8280 O   0  0  0  0  0  0  0  0  0  0  0  0
  -44.4820   55.4579   59.7765 C   0  0  0  0  0  0  0  0  0  0  0  0
  -39.5828   58.3411   66.7204 O   0  0  0  0  0  0  0  0  0  0  0  0
  -44.4765   57.2538   58.1188 C   0  0  0  0  0  0  0  0  0  0  0  0
  -39.8236   60.0222   68.1929 O   0  0  0  0  0  0  0  0  0  0  0  0
  -38.2787   58.6015   66.1561 C   0  0  0  0  0  0  0  0  0  0  0  0
  -40.2402   59.3661   67.2706 C   0  0  0  0  0  0  0  0  0  0  0  0
  -41.5470   59.5850   66.5720 C   0  0  0  0  0  0  0  0  0  0  0  0
  -42.4780   58.3810   66.6510 C   0  0  0  0  0  0  0  0  0  0  0  0
  -43.8050   58.5690   65.9360 C   0  0  0  0  0  0  0  0  0  0  0  0
  -44.6170   59.7376   66.4663 C   0  0  0  0  0  0  0  0  0  0  0  0
  -45.9487   59.9044   65.7548 C   0  0  0  0  0  0  0  0  0  0  0  0
  -46.7362   61.0824   66.2837 C   0  0  0  0  0  0  0  0  0  0  0  0
  -48.0843   61.2923   65.6245 C   0  0  0  0  0  0  0  0  0  0  0  0
  -48.8341   62.4591   66.1428 C   0  0  0  0  0  0  0  0  0  0  0  0
  -49.2302   63.5007   65.4407 C   0  0  0  0  0  0  0  0  0  0  0  0
  -49.0524   63.7214   63.9737 C   0  0  0  0  0  0  0  0  0  0  0  0
  -49.6459   65.0716   63.5685 C   0  0  0  0  0  0  0  0  0  0  0  0
  -51.1298   65.2446   63.8574 C   0  0  0  0  0  0  0  0  0  0  0  0
  -51.5168   65.1367   65.3273 C   0  0  0  0  0  0  0  0  0  0  0  0
  -50.8507   66.1860   66.2113 C   0  0  0  0  0  0  0  0  0  0  0  0
  -51.1980   67.6166   65.8313 C   0  0  0  0  0  0  0  0  0  0  0  0
  -52.6750   67.9721   65.9128 C   0  0  0  0  0  0  0  0  0  0  0  0
  -53.5269   67.1163   65.0265 C   0  0  0  0  0  0  0  0  0  0  0  0
  -38.8929   60.1391   64.8918 H   0  0  0  0  0  0  0  0  0  0  0  0
  -36.6131   58.6016   64.1107 H   0  0  0  0  0  0  0  0  0  0  0  0
  -40.1524   58.1859   64.2397 H   0  0  0  0  0  0  0  0  0  0  0  0
  -38.6591   57.4296   63.6817 H   0  0  0  0  0  0  0  0  0  0  0  0
  -42.3947   55.7388   61.4133 H   0  0  0  0  0  0  0  0  0  0  0  0
  -42.7628   57.3709   61.9358 H   0  0  0  0  0  0  0  0  0  0  0  0
  -42.4797   58.1575   59.6687 H   0  0  0  0  0  0  0  0  0  0  0  0
  -42.1679   56.4511   59.1875 H   0  0  0  0  0  0  0  0  0  0  0  0
  -44.7942   57.4904   61.4670 H   0  0  0  0  0  0  0  0  0  0  0  0
  -46.0430   57.5452   60.2461 H   0  0  0  0  0  0  0  0  0  0  0  0
  -44.7978   58.7705   60.2776 H   0  0  0  0  0  0  0  0  0  0  0  0
  -40.6388   60.4206   60.7283 H   0  0  0  0  0  0  0  0  0  0  0  0
  -44.2593   55.2024   60.7913 H   0  0  0  0  0  0  0  0  0  0  0  0
  -43.8945   54.8518   59.1189 H   0  0  0  0  0  0  0  0  0  0  0  0
  -45.5210   55.2875   59.5856 H   0  0  0  0  0  0  0  0  0  0  0  0
  -44.2486   58.2855   57.9500 H   0  0  0  0  0  0  0  0  0  0  0  0
  -45.5155   57.0824   57.9288 H   0  0  0  0  0  0  0  0  0  0  0  0
  -43.8890   56.6467   57.4621 H   0  0  0  0  0  0  0  0  0  0  0  0
  -37.7534   59.2801   66.7951 H   0  0  0  0  0  0  0  0  0  0  0  0
  -37.7579   57.6703   66.0753 H   0  0  0  0  0  0  0  0  0  0  0  0
  -41.3508   59.7963   65.5416 H   0  0  0  0  0  0  0  0  0  0  0  0
  -42.0377   60.3996   67.0625 H   0  0  0  0  0  0  0  0  0  0  0  0
  -42.6787   58.1797   67.6825 H   0  0  0  0  0  0  0  0  0  0  0  0
  -41.9769   57.5734   66.1596 H   0  0  0  0  0  0  0  0  0  0  0  0
  -44.3819   57.6753   66.0516 H   0  0  0  0  0  0  0  0  0  0  0  0
  -43.5836   58.7785   64.9103 H   0  0  0  0  0  0  0  0  0  0  0  0
  -44.0475   60.6344   66.3391 H   0  0  0  0  0  0  0  0  0  0  0  0
  -44.8265   59.5410   67.4970 H   0  0  0  0  0  0  0  0  0  0  0  0
  -46.5264   59.0143   65.8920 H   0  0  0  0  0  0  0  0  0  0  0  0
  -45.7474   60.0826   64.7191 H   0  0  0  0  0  0  0  0  0  0  0  0
  -46.1521   61.9667   66.1360 H   0  0  0  0  0  0  0  0  0  0  0  0
  -46.9337   60.8746   67.3145 H   0  0  0  0  0  0  0  0  0  0  0  0
  -48.6761   60.4150   65.7826 H   0  0  0  0  0  0  0  0  0  0  0  0
  -47.8957   61.4815   64.5884 H   0  0  0  0  0  0  0  0  0  0  0  0
  -49.0682   62.4559   67.1479 H   0  0  0  0  0  0  0  0  0  0  0  0
  -49.7171   64.2469   65.9614 H   0  0  0  0  0  0  0  0  0  0  0  0
  -49.5490   62.9410   63.4358 H   0  0  0  0  0  0  0  0  0  0  0  0
  -48.0075   63.7152   63.7431 H   0  0  0  0  0  0  0  0  0  0  0  0
  -49.4977   65.1950   62.5160 H   0  0  0  0  0  0  0  0  0  0  0  0
  -49.1421   65.8055   64.1622 H   0  0  0  0  0  0  0  0  0  0  0  0
  -51.6632   64.4903   63.3175 H   0  0  0  0  0  0  0  0  0  0  0  0
  -51.3792   66.2402   63.5549 H   0  0  0  0  0  0  0  0  0  0  0  0
  -51.2346   64.1672   65.6814 H   0  0  0  0  0  0  0  0  0  0  0  0
  -52.5727   65.2996   65.3872 H   0  0  0  0  0  0  0  0  0  0  0  0
  -49.7901   66.0652   66.1379 H   0  0  0  0  0  0  0  0  0  0  0  0
  -51.2120   66.0308   67.2064 H   0  0  0  0  0  0  0  0  0  0  0  0
  -50.8743   67.7788   64.8244 H   0  0  0  0  0  0  0  0  0  0  0  0
  -50.7043   68.2404   66.5469 H   0  0  0  0  0  0  0  0  0  0  0  0
  -52.7973   68.9943   65.6214 H   0  0  0  0  0  0  0  0  0  0  0  0
  -52.9913   67.8067   66.9215 H   0  0  0  0  0  0  0  0  0  0  0  0
  -53.2356   67.2583   64.0067 H   0  0  0  0  0  0  0  0  0  0  0  0
  -54.5541   67.3913   65.1455 H   0  0  0  0  0  0  0  0  0  0  0  0
  -53.3995   66.0882   65.2940 H   0  0  0  0  0  0  0  0  0  0  0  0
  1  9  1  0  0  0  0
  1 11  1  0  0  0  0
  1 13  1  0  0  0  0
  1 15  1  0  0  0  0
  2  3  1  0  0  0  0
  2  5  1  0  0  0  0
  2 17  1  0  0  0  0
  2 36  1  1  0  0  0
  3 37  1  0  0  0  0
  4  6  1  0  0  0  0
  4  8  2  6  0  0  0
  4 10  1  0  0  0  0
  4 12  1  0  0  0  0
  5  6  1  0  0  0  0
  5 38  1  0  0  0  0
  5 39  1  0  0  0  0
  7  9  1  0  0  0  0
  7 10  1  0  0  0  0
  7 40  1  0  0  0  0
  7 41  1  0  0  0  0
  9 42  1  0  0  0  0
  9 43  1  0  0  0  0
 11 44  1  0  0  0  0
 11 45  1  0  0  0  0
 11 46  1  0  0  0  0
 12 47  1  0  0  0  0
 13 48  1  0  0  0  0
 13 49  1  0  0  0  0
 13 50  1  0  0  0  0
 14 17  1  0  0  0  0
 14 18  1  0  0  0  0
 15 51  1  0  0  0  0
 15 52  1  0  0  0  0
 15 53  1  0  0  0  0
 16 18  2  0  0  0  0
 17 54  1  0  0  0  0
 17 55  1  0  0  0  0
 18 19  1  0  0  0  0
 19 20  1  0  0  0  0
 19 56  1  0  0  0  0
 19 57  1  0  0  0  0
 20 21  1  0  0  0  0
 20 58  1  0  0  0  0
 20 59  1  0  0  0  0
 21 22  1  0  0  0  0
 21 60  1  0  0  0  0
 21 61  1  0  0  0  0
 22 23  1  0  0  0  0
 22 62  1  0  0  0  0
 22 63  1  0  0  0  0
 23 24  1  0  0  0  0
 23 64  1  0  0  0  0
 23 65  1  0  0  0  0
 24 25  1  0  0  0  0
 24 66  1  0  0  0  0
 24 67  1  0  0  0  0
 25 26  1  0  0  0  0
 25 68  1  0  0  0  0
 25 69  1  0  0  0  0
 26 27  2  0  0  0  0
 26 70  1  0  0  0  0
 27 28  1  0  0  0  0
 27 71  1  0  0  0  0
 28 29  1  0  0  0  0
 28 72  1  0  0  0  0
 28 73  1  0  0  0  0
 29 30  1  0  0  0  0
 29 74  1  0  0  0  0
 29 75  1  0  0  0  0
 30 31  1  0  0  0  0
 30 76  1  0  0  0  0
 30 77  1  0  0  0  0
 31 32  1  0  0  0  0
 31 78  1  0  0  0  0
 31 79  1  0  0  0  0
 32 33  1  0  0  0  0
 32 80  1  0  0  0  0
 32 81  1  0  0  0  0
 33 34  1  0  0  0  0
 33 82  1  0  0  0  0
 33 83  1  0  0  0  0
 34 35  1  0  0  0  0
 34 84  1  0  0  0  0
 34 85  1  0  0  0  0
 35 86  1  0  0  0  0
 35 87  1  0  0  0  0
 35 88  1  0  0  0  0
M  CHG  1   8  -1
M  END
$$$$