/media/chris/experiments/cd1a-new-docking/inputs/ligands/4x6e_ligand.pdb
 OpenBabel07012320273D

 88 87  0  0  1  0  0  0  0  0999 V2000
  -48.9180   59.3599   71.1526 N   0  0  0  0  0  4  0  0  0  0  0  0
  -44.2684   62.9918   67.8482 C   0  0  1  0  0  0  0  0  0  0  0  0
  -44.6416   64.3755   67.7963 O   0  0  0  0  0  0  0  0  0  0  0  0
  -48.0111   61.6560   67.1692 P   0  0  1  0  0  0  0  0  0  0  0  0
  -45.4731   62.1599   68.2211 C   0  0  0  0  0  0  0  0  0  0  0  0
  -46.5403   62.2931   67.2512 O   0  0  0  0  0  0  0  0  0  0  0  0
  -49.5226   61.1719   69.4285 C   0  0  0  0  0  0  0  0  0  0  0  0
  -47.8718   60.1347   67.1456 O   0  5  0  0  0  0  0  0  0  0  0  0
  -48.4488   60.3738   70.1256 C   0  0  0  0  0  0  0  0  0  0  0  0
  -48.9260   62.0845   68.4671 O   0  0  0  0  0  0  0  0  0  0  0  0
  -49.6924   60.0347   72.2389 C   0  0  0  0  0  0  0  0  0  0  0  0
  -48.6456   62.0900   65.9053 O   0  0  0  0  0  0  0  0  0  0  0  0
  -47.7207   58.6966   71.7500 C   0  0  0  0  0  0  0  0  0  0  0  0
  -43.2707   61.1523   66.5772 O   0  0  0  0  0  0  0  0  0  0  0  0
  -49.7915   58.3222   70.5071 C   0  0  0  0  0  0  0  0  0  0  0  0
  -41.6498   61.4332   68.1090 O   0  0  0  0  0  0  0  0  0  0  0  0
  -43.6370   62.5493   66.5452 C   0  0  0  0  0  0  0  0  0  0  0  0
  -42.1287   60.8209   67.1868 C   0  0  0  0  0  0  0  0  0  0  0  0
  -41.5470   59.5850   66.5720 C   0  0  0  0  0  0  0  0  0  0  0  0
  -42.4780   58.3810   66.6510 C   0  0  0  0  0  0  0  0  0  0  0  0
  -43.8050   58.5690   65.9360 C   0  0  0  0  0  0  0  0  0  0  0  0
  -44.7241   57.3648   66.0412 C   0  0  0  0  0  0  0  0  0  0  0  0
  -45.0954   57.0268   67.4749 C   0  0  0  0  0  0  0  0  0  0  0  0
  -45.9968   55.8154   67.5620 C   0  0  0  0  0  0  0  0  0  0  0  0
  -46.4170   55.4365   68.9676 C   0  0  0  0  0  0  0  0  0  0  0  0
  -45.2866   55.1276   69.8726 C   0  0  0  0  0  0  0  0  0  0  0  0
  -45.2622   55.3168   71.1758 C   0  0  0  0  0  0  0  0  0  0  0  0
  -46.3682   55.8403   72.0332 C   0  0  0  0  0  0  0  0  0  0  0  0
  -46.2741   55.2420   73.4377 C   0  0  0  0  0  0  0  0  0  0  0  0
  -44.9908   55.5527   74.1941 C   0  0  0  0  0  0  0  0  0  0  0  0
  -43.7117   55.0802   73.5138 C   0  0  0  0  0  0  0  0  0  0  0  0
  -43.6687   53.5743   73.2758 C   0  0  0  0  0  0  0  0  0  0  0  0
  -42.3870   53.0955   72.6126 C   0  0  0  0  0  0  0  0  0  0  0  0
  -42.0918   53.7044   71.2500 C   0  0  0  0  0  0  0  0  0  0  0  0
  -41.9389   55.1936   71.3014 C   0  0  0  0  0  0  0  0  0  0  0  0
  -43.5239   62.8501   68.6035 H   0  0  0  0  0  0  0  0  0  0  0  0
  -45.3165   64.5028   67.1113 H   0  0  0  0  0  0  0  0  0  0  0  0
  -45.8321   62.4796   69.1771 H   0  0  0  0  0  0  0  0  0  0  0  0
  -45.1731   61.1332   68.2464 H   0  0  0  0  0  0  0  0  0  0  0  0
  -50.0729   61.7335   70.1542 H   0  0  0  0  0  0  0  0  0  0  0  0
  -50.1770   60.5007   68.9127 H   0  0  0  0  0  0  0  0  0  0  0  0
  -47.8977   59.8457   69.3757 H   0  0  0  0  0  0  0  0  0  0  0  0
  -47.8758   61.0903   70.6763 H   0  0  0  0  0  0  0  0  0  0  0  0
  -49.0792   60.7767   72.7061 H   0  0  0  0  0  0  0  0  0  0  0  0
  -49.9919   59.3097   72.9666 H   0  0  0  0  0  0  0  0  0  0  0  0
  -50.5605   60.5006   71.8215 H   0  0  0  0  0  0  0  0  0  0  0  0
  -48.0883   61.8263   65.1565 H   0  0  0  0  0  0  0  0  0  0  0  0
  -47.0970   59.4340   72.2105 H   0  0  0  0  0  0  0  0  0  0  0  0
  -47.1711   58.1938   70.9819 H   0  0  0  0  0  0  0  0  0  0  0  0
  -48.0363   57.9866   72.4858 H   0  0  0  0  0  0  0  0  0  0  0  0
  -50.6501   58.7953   70.0783 H   0  0  0  0  0  0  0  0  0  0  0  0
  -50.1059   57.6125   71.2436 H   0  0  0  0  0  0  0  0  0  0  0  0
  -49.2407   57.8196   69.7397 H   0  0  0  0  0  0  0  0  0  0  0  0
  -42.7586   63.1343   66.3691 H   0  0  0  0  0  0  0  0  0  0  0  0
  -44.3534   62.6887   65.7627 H   0  0  0  0  0  0  0  0  0  0  0  0
  -40.6379   59.3462   67.0832 H   0  0  0  0  0  0  0  0  0  0  0  0
  -41.3821   59.7924   65.5353 H   0  0  0  0  0  0  0  0  0  0  0  0
  -42.6787   58.1797   67.6825 H   0  0  0  0  0  0  0  0  0  0  0  0
  -41.9769   57.5734   66.1596 H   0  0  0  0  0  0  0  0  0  0  0  0
  -43.6088   58.7562   64.9009 H   0  0  0  0  0  0  0  0  0  0  0  0
  -44.3043   59.3890   66.4084 H   0  0  0  0  0  0  0  0  0  0  0  0
  -44.2305   56.5199   65.6083 H   0  0  0  0  0  0  0  0  0  0  0  0
  -45.6292   57.6059   65.5239 H   0  0  0  0  0  0  0  0  0  0  0  0
  -45.6019   57.8648   67.9062 H   0  0  0  0  0  0  0  0  0  0  0  0
  -44.1925   56.8028   68.0036 H   0  0  0  0  0  0  0  0  0  0  0  0
  -45.4784   54.9831   67.1337 H   0  0  0  0  0  0  0  0  0  0  0  0
  -46.8941   56.0690   67.0372 H   0  0  0  0  0  0  0  0  0  0  0  0
  -47.0465   54.5733   68.9092 H   0  0  0  0  0  0  0  0  0  0  0  0
  -46.9195   56.2866   69.3798 H   0  0  0  0  0  0  0  0  0  0  0  0
  -44.4387   54.7267   69.4420 H   0  0  0  0  0  0  0  0  0  0  0  0
  -44.3819   55.0769   71.6580 H   0  0  0  0  0  0  0  0  0  0  0  0
  -47.3090   55.5750   71.5979 H   0  0  0  0  0  0  0  0  0  0  0  0
  -46.2849   56.9050   72.1002 H   0  0  0  0  0  0  0  0  0  0  0  0
  -46.3566   54.1788   73.3500 H   0  0  0  0  0  0  0  0  0  0  0  0
  -47.0652   55.6892   74.0026 H   0  0  0  0  0  0  0  0  0  0  0  0
  -45.0493   55.0831   75.1538 H   0  0  0  0  0  0  0  0  0  0  0  0
  -44.9253   56.6194   74.2462 H   0  0  0  0  0  0  0  0  0  0  0  0
  -42.8805   55.3491   74.1317 H   0  0  0  0  0  0  0  0  0  0  0  0
  -43.6735   55.5515   72.5539 H   0  0  0  0  0  0  0  0  0  0  0  0
  -44.4934   53.3081   72.6482 H   0  0  0  0  0  0  0  0  0  0  0  0
  -43.7175   53.1049   74.2361 H   0  0  0  0  0  0  0  0  0  0  0  0
  -42.4536   52.0344   72.4927 H   0  0  0  0  0  0  0  0  0  0  0  0
  -41.5889   53.4060   73.2540 H   0  0  0  0  0  0  0  0  0  0  0  0
  -42.8972   53.4660   70.5871 H   0  0  0  0  0  0  0  0  0  0  0  0
  -41.1633   53.2965   70.9088 H   0  0  0  0  0  0  0  0  0  0  0  0
  -42.8531   55.6345   71.6400 H   0  0  0  0  0  0  0  0  0  0  0  0
  -41.7057   55.5621   70.3243 H   0  0  0  0  0  0  0  0  0  0  0  0
  -41.1487   55.4479   71.9765 H   0  0  0  0  0  0  0  0  0  0  0  0
  1  9  1  0  0  0  0
  1 11  1  0  0  0  0
  1 13  1  0  0  0  0
  1 15  1  0  0  0  0
  2  3  1  0  0  0  0
  2  5  1  0  0  0  0
  2 17  1  0  0  0  0
  2 36  1  1  0  0  0
  3 37  1  0  0  0  0
  4  6  1  0  0  0  0
  4  8  2  6  0  0  0
  4 10  1  0  0  0  0
  4 12  1  0  0  0  0
  5  6  1  0  0  0  0
  5 38  1  0  0  0  0
  5 39  1  0  0  0  0
  7  9  1  0  0  0  0
  7 10  1  0  0  0  0
  7 40  1  0  0  0  0
  7 41  1  0  0  0  0
  9 42  1  0  0  0  0
  9 43  1  0  0  0  0
 11 44  1  0  0  0  0
 11 45  1  0  0  0  0
 11 46  1  0  0  0  0
 12 47  1  0  0  0  0
 13 48  1  0  0  0  0
 13 49  1  0  0  0  0
 13 50  1  0  0  0  0
 14 17  1  0  0  0  0
 14 18  1  0  0  0  0
 15 51  1  0  0  0  0
 15 52  1  0  0  0  0
 15 53  1  0  0  0  0
 16 18  2  0  0  0  0
 17 54  1  0  0  0  0
 17 55  1  0  0  0  0
 18 19  1  0  0  0  0
 19 20  1  0  0  0  0
 19 56  1  0  0  0  0
 19 57  1  0  0  0  0
 20 21  1  0  0  0  0
 20 58  1  0  0  0  0
 20 59  1  0  0  0  0
 21 22  1  0  0  0  0
 21 60  1  0  0  0  0
 21 61  1  0  0  0  0
 22 23  1  0  0  0  0
 22 62  1  0  0  0  0
 22 63  1  0  0  0  0
 23 24  1  0  0  0  0
 23 64  1  0  0  0  0
 23 65  1  0  0  0  0
 24 25  1  0  0  0  0
 24 66  1  0  0  0  0
 24 67  1  0  0  0  0
 25 26  1  0  0  0  0
 25 68  1  0  0  0  0
 25 69  1  0  0  0  0
 26 27  2  0  0  0  0
 26 70  1  0  0  0  0
 27 28  1  0  0  0  0
 27 71  1  0  0  0  0
 28 29  1  0  0  0  0
 28 72  1  0  0  0  0
 28 73  1  0  0  0  0
 29 30  1  0  0  0  0
 29 74  1  0  0  0  0
 29 75  1  0  0  0  0
 30 31  1  0  0  0  0
 30 76  1  0  0  0  0
 30 77  1  0  0  0  0
 31 32  1  0  0  0  0
 31 78  1  0  0  0  0
 31 79  1  0  0  0  0
 32 33  1  0  0  0  0
 32 80  1  0  0  0  0
 32 81  1  0  0  0  0
 33 34  1  0  0  0  0
 33 82  1  0  0  0  0
 33 83  1  0  0  0  0
 34 35  1  0  0  0  0
 34 84  1  0  0  0  0
 34 85  1  0  0  0  0
 35 86  1  0  0  0  0
 35 87  1  0  0  0  0
 35 88  1  0  0  0  0
M  CHG  1   8  -1
M  END
$$$$