/media/chris/experiments/cd1a-new-docking/inputs/ligands/4x6e_ligand.pdb
 OpenBabel07012320273D

 88 87  0  0  1  0  0  0  0  0999 V2000
  -40.1648   54.4869   64.7572 N   0  0  0  0  0  4  0  0  0  0  0  0
  -38.2780   58.4696   69.5233 C   0  0  1  0  0  0  0  0  0  0  0  0
  -38.7527   57.1666   69.8883 O   0  0  0  0  0  0  0  0  0  0  0  0
  -38.1527   57.6390   65.5803 P   0  0  1  0  0  0  0  0  0  0  0  0
  -37.5488   58.3872   68.2028 C   0  0  0  0  0  0  0  0  0  0  0  0
  -38.4127   57.9184   67.1392 O   0  0  0  0  0  0  0  0  0  0  0  0
  -38.0313   54.9349   66.1243 C   0  0  0  0  0  0  0  0  0  0  0  0
  -37.0532   58.5860   65.1024 O   0  5  0  0  0  0  0  0  0  0  0  0
  -39.5273   54.7398   66.1108 C   0  0  0  0  0  0  0  0  0  0  0  0
  -37.6679   56.0892   65.3192 O   0  0  0  0  0  0  0  0  0  0  0  0
  -39.6140   53.2399   64.1435 C   0  0  0  0  0  0  0  0  0  0  0  0
  -39.3923   57.9412   64.8316 O   0  0  0  0  0  0  0  0  0  0  0  0
  -39.8606   55.6435   63.8627 C   0  0  0  0  0  0  0  0  0  0  0  0
  -40.4418   59.0951   68.5635 O   0  0  0  0  0  0  0  0  0  0  0  0
  -41.6537   54.3426   64.8951 C   0  0  0  0  0  0  0  0  0  0  0  0
  -39.1537   59.4138   66.7492 O   0  0  0  0  0  0  0  0  0  0  0  0
  -39.4100   59.4746   69.5007 C   0  0  0  0  0  0  0  0  0  0  0  0
  -40.2402   59.3661   67.2706 C   0  0  0  0  0  0  0  0  0  0  0  0
  -41.5470   59.5850   66.5720 C   0  0  0  0  0  0  0  0  0  0  0  0
  -42.4780   58.3810   66.6510 C   0  0  0  0  0  0  0  0  0  0  0  0
  -43.8050   58.5690   65.9360 C   0  0  0  0  0  0  0  0  0  0  0  0
  -44.7241   57.3648   66.0412 C   0  0  0  0  0  0  0  0  0  0  0  0
  -45.0954   57.0268   67.4749 C   0  0  0  0  0  0  0  0  0  0  0  0
  -45.9968   55.8154   67.5620 C   0  0  0  0  0  0  0  0  0  0  0  0
  -46.4170   55.4365   68.9676 C   0  0  0  0  0  0  0  0  0  0  0  0
  -47.1809   56.4902   69.6735 C   0  0  0  0  0  0  0  0  0  0  0  0
  -48.1077   56.2951   70.5888 C   0  0  0  0  0  0  0  0  0  0  0  0
  -48.5649   54.9863   71.1463 C   0  0  0  0  0  0  0  0  0  0  0  0
  -49.0289   55.1634   72.5930 C   0  0  0  0  0  0  0  0  0  0  0  0
  -50.1954   56.1201   72.7912 C   0  0  0  0  0  0  0  0  0  0  0  0
  -51.4807   55.7262   72.0735 C   0  0  0  0  0  0  0  0  0  0  0  0
  -52.0381   54.3780   72.5183 C   0  0  0  0  0  0  0  0  0  0  0  0
  -53.3114   53.9724   71.7930 C   0  0  0  0  0  0  0  0  0  0  0  0
  -54.4803   54.9347   71.9414 C   0  0  0  0  0  0  0  0  0  0  0  0
  -54.1781   56.3008   71.4067 C   0  0  0  0  0  0  0  0  0  0  0  0
  -37.5851   58.8175   70.2608 H   0  0  0  0  0  0  0  0  0  0  0  0
  -39.3807   56.8521   69.2192 H   0  0  0  0  0  0  0  0  0  0  0  0
  -36.7255   57.7112   68.3035 H   0  0  0  0  0  0  0  0  0  0  0  0
  -37.2109   59.3699   67.9478 H   0  0  0  0  0  0  0  0  0  0  0  0
  -37.5576   54.0624   65.7253 H   0  0  0  0  0  0  0  0  0  0  0  0
  -37.7097   55.0969   67.1319 H   0  0  0  0  0  0  0  0  0  0  0  0
  -39.7515   53.9020   66.7374 H   0  0  0  0  0  0  0  0  0  0  0  0
  -39.9371   55.6690   66.4477 H   0  0  0  0  0  0  0  0  0  0  0  0
  -38.5529   53.3317   64.0405 H   0  0  0  0  0  0  0  0  0  0  0  0
  -40.0545   53.0920   63.1796 H   0  0  0  0  0  0  0  0  0  0  0  0
  -39.8403   52.4034   64.7712 H   0  0  0  0  0  0  0  0  0  0  0  0
  -39.6572   58.8587   65.0016 H   0  0  0  0  0  0  0  0  0  0  0  0
  -38.8005   55.7481   63.7630 H   0  0  0  0  0  0  0  0  0  0  0  0
  -40.2692   56.5379   64.2847 H   0  0  0  0  0  0  0  0  0  0  0  0
  -40.2944   55.4732   62.8995 H   0  0  0  0  0  0  0  0  0  0  0  0
  -41.8740   53.5144   65.5357 H   0  0  0  0  0  0  0  0  0  0  0  0
  -42.0864   54.1730   63.9313 H   0  0  0  0  0  0  0  0  0  0  0  0
  -42.0612   55.2377   65.3166 H   0  0  0  0  0  0  0  0  0  0  0  0
  -39.0199   60.4303   69.2189 H   0  0  0  0  0  0  0  0  0  0  0  0
  -39.8438   59.5110   70.4781 H   0  0  0  0  0  0  0  0  0  0  0  0
  -41.3508   59.7963   65.5416 H   0  0  0  0  0  0  0  0  0  0  0  0
  -42.0377   60.3996   67.0625 H   0  0  0  0  0  0  0  0  0  0  0  0
  -42.6787   58.1797   67.6825 H   0  0  0  0  0  0  0  0  0  0  0  0
  -41.9769   57.5734   66.1596 H   0  0  0  0  0  0  0  0  0  0  0  0
  -43.6088   58.7562   64.9009 H   0  0  0  0  0  0  0  0  0  0  0  0
  -44.3043   59.3890   66.4084 H   0  0  0  0  0  0  0  0  0  0  0  0
  -44.2305   56.5199   65.6083 H   0  0  0  0  0  0  0  0  0  0  0  0
  -45.6292   57.6059   65.5239 H   0  0  0  0  0  0  0  0  0  0  0  0
  -45.6019   57.8648   67.9062 H   0  0  0  0  0  0  0  0  0  0  0  0
  -44.1925   56.8028   68.0036 H   0  0  0  0  0  0  0  0  0  0  0  0
  -45.4784   54.9831   67.1337 H   0  0  0  0  0  0  0  0  0  0  0  0
  -46.8941   56.0690   67.0372 H   0  0  0  0  0  0  0  0  0  0  0  0
  -45.5359   55.2222   69.5357 H   0  0  0  0  0  0  0  0  0  0  0  0
  -47.0665   54.5909   68.8787 H   0  0  0  0  0  0  0  0  0  0  0  0
  -46.9673   57.4689   69.4253 H   0  0  0  0  0  0  0  0  0  0  0  0
  -48.5691   57.1393   70.9622 H   0  0  0  0  0  0  0  0  0  0  0  0
  -47.7553   54.2873   71.1174 H   0  0  0  0  0  0  0  0  0  0  0  0
  -49.3819   54.6222   70.5590 H   0  0  0  0  0  0  0  0  0  0  0  0
  -48.2007   55.5298   73.1628 H   0  0  0  0  0  0  0  0  0  0  0  0
  -49.3776   54.2030   72.9107 H   0  0  0  0  0  0  0  0  0  0  0  0
  -49.8982   57.0842   72.4345 H   0  0  0  0  0  0  0  0  0  0  0  0
  -50.4203   56.1047   73.8372 H   0  0  0  0  0  0  0  0  0  0  0  0
  -51.2816   55.6804   71.0232 H   0  0  0  0  0  0  0  0  0  0  0  0
  -52.2154   56.4655   72.3158 H   0  0  0  0  0  0  0  0  0  0  0  0
  -52.2480   54.4286   73.5662 H   0  0  0  0  0  0  0  0  0  0  0  0
  -51.2977   53.6417   72.2846 H   0  0  0  0  0  0  0  0  0  0  0  0
  -53.6179   53.0196   72.1714 H   0  0  0  0  0  0  0  0  0  0  0  0
  -53.0675   53.9625   70.7512 H   0  0  0  0  0  0  0  0  0  0  0  0
  -54.7234   55.0200   72.9800 H   0  0  0  0  0  0  0  0  0  0  0  0
  -55.2972   54.5398   71.3742 H   0  0  0  0  0  0  0  0  0  0  0  0
  -53.3628   56.7257   71.9541 H   0  0  0  0  0  0  0  0  0  0  0  0
  -55.0415   56.9240   71.5117 H   0  0  0  0  0  0  0  0  0  0  0  0
  -53.9140   56.2285   70.3723 H   0  0  0  0  0  0  0  0  0  0  0  0
  1  9  1  0  0  0  0
  1 11  1  0  0  0  0
  1 13  1  0  0  0  0
  1 15  1  0  0  0  0
  2  3  1  0  0  0  0
  2  5  1  0  0  0  0
  2 17  1  0  0  0  0
  2 36  1  1  0  0  0
  3 37  1  0  0  0  0
  4  6  1  0  0  0  0
  4  8  2  6  0  0  0
  4 10  1  0  0  0  0
  4 12  1  0  0  0  0
  5  6  1  0  0  0  0
  5 38  1  0  0  0  0
  5 39  1  0  0  0  0
  7  9  1  0  0  0  0
  7 10  1  0  0  0  0
  7 40  1  0  0  0  0
  7 41  1  0  0  0  0
  9 42  1  0  0  0  0
  9 43  1  0  0  0  0
 11 44  1  0  0  0  0
 11 45  1  0  0  0  0
 11 46  1  0  0  0  0
 12 47  1  0  0  0  0
 13 48  1  0  0  0  0
 13 49  1  0  0  0  0
 13 50  1  0  0  0  0
 14 17  1  0  0  0  0
 14 18  1  0  0  0  0
 15 51  1  0  0  0  0
 15 52  1  0  0  0  0
 15 53  1  0  0  0  0
 16 18  2  0  0  0  0
 17 54  1  0  0  0  0
 17 55  1  0  0  0  0
 18 19  1  0  0  0  0
 19 20  1  0  0  0  0
 19 56  1  0  0  0  0
 19 57  1  0  0  0  0
 20 21  1  0  0  0  0
 20 58  1  0  0  0  0
 20 59  1  0  0  0  0
 21 22  1  0  0  0  0
 21 60  1  0  0  0  0
 21 61  1  0  0  0  0
 22 23  1  0  0  0  0
 22 62  1  0  0  0  0
 22 63  1  0  0  0  0
 23 24  1  0  0  0  0
 23 64  1  0  0  0  0
 23 65  1  0  0  0  0
 24 25  1  0  0  0  0
 24 66  1  0  0  0  0
 24 67  1  0  0  0  0
 25 26  1  0  0  0  0
 25 68  1  0  0  0  0
 25 69  1  0  0  0  0
 26 27  2  0  0  0  0
 26 70  1  0  0  0  0
 27 28  1  0  0  0  0
 27 71  1  0  0  0  0
 28 29  1  0  0  0  0
 28 72  1  0  0  0  0
 28 73  1  0  0  0  0
 29 30  1  0  0  0  0
 29 74  1  0  0  0  0
 29 75  1  0  0  0  0
 30 31  1  0  0  0  0
 30 76  1  0  0  0  0
 30 77  1  0  0  0  0
 31 32  1  0  0  0  0
 31 78  1  0  0  0  0
 31 79  1  0  0  0  0
 32 33  1  0  0  0  0
 32 80  1  0  0  0  0
 32 81  1  0  0  0  0
 33 34  1  0  0  0  0
 33 82  1  0  0  0  0
 33 83  1  0  0  0  0
 34 35  1  0  0  0  0
 34 84  1  0  0  0  0
 34 85  1  0  0  0  0
 35 86  1  0  0  0  0
 35 87  1  0  0  0  0
 35 88  1  0  0  0  0
M  CHG  1   8  -1
M  END
$$$$