/media/chris/experiments/cd1a-new-docking/inputs/ligands/4x6e_ligand.pdb
 OpenBabel07012320273D

 88 87  0  0  1  0  0  0  0  0999 V2000
  -33.9940   54.5532   69.1875 N   0  0  0  0  0  4  0  0  0  0  0  0
  -39.8348   56.4890   66.8124 C   0  0  1  0  0  0  0  0  0  0  0  0
  -40.5094   56.3504   65.5546 O   0  0  0  0  0  0  0  0  0  0  0  0
  -36.9198   55.2074   65.7375 P   0  0  1  0  0  0  0  0  0  0  0  0
  -39.2775   55.1496   67.2342 C   0  0  0  0  0  0  0  0  0  0  0  0
  -38.3211   54.6382   66.2744 O   0  0  0  0  0  0  0  0  0  0  0  0
  -36.1527   55.6745   68.3483 C   0  0  0  0  0  0  0  0  0  0  0  0
  -37.1718   56.5731   65.1007 O   0  5  0  0  0  0  0  0  0  0  0  0
  -34.8871   55.7797   69.1628 C   0  0  0  0  0  0  0  0  0  0  0  0
  -35.8339   55.3848   66.9600 O   0  0  0  0  0  0  0  0  0  0  0  0
  -33.5298   54.2153   67.8071 C   0  0  0  0  0  0  0  0  0  0  0  0
  -36.4036   54.2912   64.6971 O   0  0  0  0  0  0  0  0  0  0  0  0
  -34.7769   53.4035   69.7315 C   0  0  0  0  0  0  0  0  0  0  0  0
  -39.3393   58.8554   66.4260 O   0  0  0  0  0  0  0  0  0  0  0  0
  -32.7933   54.7935   70.0576 C   0  0  0  0  0  0  0  0  0  0  0  0
  -40.0164   59.6210   68.4280 O   0  0  0  0  0  0  0  0  0  0  0  0
  -38.7723   57.5655   66.7443 C   0  0  0  0  0  0  0  0  0  0  0  0
  -40.2402   59.3661   67.2706 C   0  0  0  0  0  0  0  0  0  0  0  0
  -41.5470   59.5850   66.5720 C   0  0  0  0  0  0  0  0  0  0  0  0
  -42.4780   58.3810   66.6510 C   0  0  0  0  0  0  0  0  0  0  0  0
  -43.8050   58.5690   65.9360 C   0  0  0  0  0  0  0  0  0  0  0  0
  -44.6170   59.7376   66.4663 C   0  0  0  0  0  0  0  0  0  0  0  0
  -45.9487   59.9044   65.7548 C   0  0  0  0  0  0  0  0  0  0  0  0
  -45.7790   60.1306   64.2690 C   0  0  0  0  0  0  0  0  0  0  0  0
  -44.9620   61.3528   63.9021 C   0  0  0  0  0  0  0  0  0  0  0  0
  -44.8199   61.5680   62.4441 C   0  0  0  0  0  0  0  0  0  0  0  0
  -43.6878   61.6038   61.7719 C   0  0  0  0  0  0  0  0  0  0  0  0
  -42.3101   61.3973   62.3120 C   0  0  0  0  0  0  0  0  0  0  0  0
  -41.4573   62.6438   62.0700 C   0  0  0  0  0  0  0  0  0  0  0  0
  -40.0197   62.5557   62.5609 C   0  0  0  0  0  0  0  0  0  0  0  0
  -39.1870   61.4513   61.9211 C   0  0  0  0  0  0  0  0  0  0  0  0
  -37.7579   61.3823   62.4493 C   0  0  0  0  0  0  0  0  0  0  0  0
  -36.9178   60.2929   61.8019 C   0  0  0  0  0  0  0  0  0  0  0  0
  -37.4511   58.8771   61.9621 C   0  0  0  0  0  0  0  0  0  0  0  0
  -37.5829   58.4662   63.3964 C   0  0  0  0  0  0  0  0  0  0  0  0
  -40.5323   56.8054   67.5595 H   0  0  0  0  0  0  0  0  0  0  0  0
  -39.8763   56.0635   64.8780 H   0  0  0  0  0  0  0  0  0  0  0  0
  -40.0838   54.4521   67.3248 H   0  0  0  0  0  0  0  0  0  0  0  0
  -38.7735   55.2789   68.1691 H   0  0  0  0  0  0  0  0  0  0  0  0
  -36.6858   56.6007   68.4026 H   0  0  0  0  0  0  0  0  0  0  0  0
  -36.7554   54.8823   68.7406 H   0  0  0  0  0  0  0  0  0  0  0  0
  -34.3131   56.5919   68.7683 H   0  0  0  0  0  0  0  0  0  0  0  0
  -35.2113   55.9143   70.1736 H   0  0  0  0  0  0  0  0  0  0  0  0
  -34.3778   54.0419   67.1781 H   0  0  0  0  0  0  0  0  0  0  0  0
  -32.9241   53.3338   67.8403 H   0  0  0  0  0  0  0  0  0  0  0  0
  -32.9552   55.0283   67.4151 H   0  0  0  0  0  0  0  0  0  0  0  0
  -37.0606   54.2033   63.9888 H   0  0  0  0  0  0  0  0  0  0  0  0
  -35.6328   53.2304   69.1131 H   0  0  0  0  0  0  0  0  0  0  0  0
  -35.0961   53.6288   70.7275 H   0  0  0  0  0  0  0  0  0  0  0  0
  -34.1625   52.5275   69.7434 H   0  0  0  0  0  0  0  0  0  0  0  0
  -32.2308   55.6170   69.6697 H   0  0  0  0  0  0  0  0  0  0  0  0
  -32.1801   53.9168   70.0694 H   0  0  0  0  0  0  0  0  0  0  0  0
  -33.1137   55.0181   71.0535 H   0  0  0  0  0  0  0  0  0  0  0  0
  -38.0609   57.3034   65.9892 H   0  0  0  0  0  0  0  0  0  0  0  0
  -38.3045   57.6340   67.7041 H   0  0  0  0  0  0  0  0  0  0  0  0
  -41.3508   59.7963   65.5416 H   0  0  0  0  0  0  0  0  0  0  0  0
  -42.0377   60.3996   67.0625 H   0  0  0  0  0  0  0  0  0  0  0  0
  -42.6787   58.1797   67.6825 H   0  0  0  0  0  0  0  0  0  0  0  0
  -41.9769   57.5734   66.1596 H   0  0  0  0  0  0  0  0  0  0  0  0
  -44.3819   57.6753   66.0516 H   0  0  0  0  0  0  0  0  0  0  0  0
  -43.5836   58.7785   64.9103 H   0  0  0  0  0  0  0  0  0  0  0  0
  -44.0475   60.6344   66.3391 H   0  0  0  0  0  0  0  0  0  0  0  0
  -44.8265   59.5410   67.4970 H   0  0  0  0  0  0  0  0  0  0  0  0
  -46.4608   60.7448   66.1749 H   0  0  0  0  0  0  0  0  0  0  0  0
  -46.5071   59.0014   65.8876 H   0  0  0  0  0  0  0  0  0  0  0  0
  -46.7514   60.2377   63.8353 H   0  0  0  0  0  0  0  0  0  0  0  0
  -45.2410   59.2848   63.8948 H   0  0  0  0  0  0  0  0  0  0  0  0
  -43.9842   61.2422   64.3224 H   0  0  0  0  0  0  0  0  0  0  0  0
  -45.4844   62.2019   64.2905 H   0  0  0  0  0  0  0  0  0  0  0  0
  -45.6891   61.7026   61.9042 H   0  0  0  0  0  0  0  0  0  0  0  0
  -43.7604   61.7956   60.7605 H   0  0  0  0  0  0  0  0  0  0  0  0
  -41.8596   60.5599   61.8214 H   0  0  0  0  0  0  0  0  0  0  0  0
  -42.3707   61.2139   63.3644 H   0  0  0  0  0  0  0  0  0  0  0  0
  -41.9264   63.4666   62.5678 H   0  0  0  0  0  0  0  0  0  0  0  0
  -41.3998   62.7604   61.0079 H   0  0  0  0  0  0  0  0  0  0  0  0
  -40.0395   62.3867   63.6173 H   0  0  0  0  0  0  0  0  0  0  0  0
  -39.5531   63.4788   62.2869 H   0  0  0  0  0  0  0  0  0  0  0  0
  -39.1499   61.6236   60.8657 H   0  0  0  0  0  0  0  0  0  0  0  0
  -39.6575   60.5217   62.1647 H   0  0  0  0  0  0  0  0  0  0  0  0
  -37.7958   61.1982   63.5027 H   0  0  0  0  0  0  0  0  0  0  0  0
  -37.2926   62.3166   62.2141 H   0  0  0  0  0  0  0  0  0  0  0  0
  -35.9400   60.3285   62.2351 H   0  0  0  0  0  0  0  0  0  0  0  0
  -36.9297   60.4958   60.7514 H   0  0  0  0  0  0  0  0  0  0  0  0
  -36.7807   58.2017   61.4730 H   0  0  0  0  0  0  0  0  0  0  0  0
  -38.4286   58.8497   61.5277 H   0  0  0  0  0  0  0  0  0  0  0  0
  -36.6198   58.4829   63.8622 H   0  0  0  0  0  0  0  0  0  0  0  0
  -37.9870   57.4768   63.4483 H   0  0  0  0  0  0  0  0  0  0  0  0
  -38.2362   59.1452   63.9034 H   0  0  0  0  0  0  0  0  0  0  0  0
  1  9  1  0  0  0  0
  1 11  1  0  0  0  0
  1 13  1  0  0  0  0
  1 15  1  0  0  0  0
  2  3  1  0  0  0  0
  2  5  1  0  0  0  0
  2 17  1  0  0  0  0
  2 36  1  1  0  0  0
  3 37  1  0  0  0  0
  4  6  1  0  0  0  0
  4  8  2  6  0  0  0
  4 10  1  0  0  0  0
  4 12  1  0  0  0  0
  5  6  1  0  0  0  0
  5 38  1  0  0  0  0
  5 39  1  0  0  0  0
  7  9  1  0  0  0  0
  7 10  1  0  0  0  0
  7 40  1  0  0  0  0
  7 41  1  0  0  0  0
  9 42  1  0  0  0  0
  9 43  1  0  0  0  0
 11 44  1  0  0  0  0
 11 45  1  0  0  0  0
 11 46  1  0  0  0  0
 12 47  1  0  0  0  0
 13 48  1  0  0  0  0
 13 49  1  0  0  0  0
 13 50  1  0  0  0  0
 14 17  1  0  0  0  0
 14 18  1  0  0  0  0
 15 51  1  0  0  0  0
 15 52  1  0  0  0  0
 15 53  1  0  0  0  0
 16 18  2  0  0  0  0
 17 54  1  0  0  0  0
 17 55  1  0  0  0  0
 18 19  1  0  0  0  0
 19 20  1  0  0  0  0
 19 56  1  0  0  0  0
 19 57  1  0  0  0  0
 20 21  1  0  0  0  0
 20 58  1  0  0  0  0
 20 59  1  0  0  0  0
 21 22  1  0  0  0  0
 21 60  1  0  0  0  0
 21 61  1  0  0  0  0
 22 23  1  0  0  0  0
 22 62  1  0  0  0  0
 22 63  1  0  0  0  0
 23 24  1  0  0  0  0
 23 64  1  0  0  0  0
 23 65  1  0  0  0  0
 24 25  1  0  0  0  0
 24 66  1  0  0  0  0
 24 67  1  0  0  0  0
 25 26  1  0  0  0  0
 25 68  1  0  0  0  0
 25 69  1  0  0  0  0
 26 27  2  0  0  0  0
 26 70  1  0  0  0  0
 27 28  1  0  0  0  0
 27 71  1  0  0  0  0
 28 29  1  0  0  0  0
 28 72  1  0  0  0  0
 28 73  1  0  0  0  0
 29 30  1  0  0  0  0
 29 74  1  0  0  0  0
 29 75  1  0  0  0  0
 30 31  1  0  0  0  0
 30 76  1  0  0  0  0
 30 77  1  0  0  0  0
 31 32  1  0  0  0  0
 31 78  1  0  0  0  0
 31 79  1  0  0  0  0
 32 33  1  0  0  0  0
 32 80  1  0  0  0  0
 32 81  1  0  0  0  0
 33 34  1  0  0  0  0
 33 82  1  0  0  0  0
 33 83  1  0  0  0  0
 34 35  1  0  0  0  0
 34 84  1  0  0  0  0
 34 85  1  0  0  0  0
 35 86  1  0  0  0  0
 35 87  1  0  0  0  0
 35 88  1  0  0  0  0
M  CHG  1   8  -1
M  END
$$$$