/media/chris/experiments/cd1a-new-docking/inputs/ligands/4x6e_ligand.pdb
 OpenBabel07012320273D

 88 87  0  0  1  0  0  0  0  0999 V2000
  -40.3005   51.9841   68.8965 N   0  0  0  0  0  4  0  0  0  0  0  0
  -39.1270   57.1462   65.6942 C   0  0  1  0  0  0  0  0  0  0  0  0
  -39.7223   57.4350   64.4220 O   0  0  0  0  0  0  0  0  0  0  0  0
  -38.2640   55.1653   68.2683 P   0  0  1  0  0  0  0  0  0  0  0  0
  -38.2638   55.9119   65.5767 C   0  0  0  0  0  0  0  0  0  0  0  0
  -37.6485   55.5631   66.8405 O   0  0  0  0  0  0  0  0  0  0  0  0
  -38.1780   52.9815   69.9556 C   0  0  0  0  0  0  0  0  0  0  0  0
  -39.7874   55.1921   68.1558 O   0  5  0  0  0  0  0  0  0  0  0  0
  -39.6757   52.8075   70.0074 C   0  0  0  0  0  0  0  0  0  0  0  0
  -37.7930   53.6580   68.7280 O   0  0  0  0  0  0  0  0  0  0  0  0
  -41.7839   51.9125   69.0683 C   0  0  0  0  0  0  0  0  0  0  0  0
  -37.8477   56.1784   69.2626 O   0  0  0  0  0  0  0  0  0  0  0  0
  -39.7380   50.6018   68.9527 C   0  0  0  0  0  0  0  0  0  0  0  0
  -39.2251   59.4857   66.4098 O   0  0  0  0  0  0  0  0  0  0  0  0
  -39.9963   52.5909   67.5564 C   0  0  0  0  0  0  0  0  0  0  0  0
  -40.1085   59.1264   68.4453 O   0  0  0  0  0  0  0  0  0  0  0  0
  -38.3627   58.3421   66.2215 C   0  0  0  0  0  0  0  0  0  0  0  0
  -40.2402   59.3661   67.2706 C   0  0  0  0  0  0  0  0  0  0  0  0
  -41.5470   59.5850   66.5720 C   0  0  0  0  0  0  0  0  0  0  0  0
  -42.4780   58.3810   66.6510 C   0  0  0  0  0  0  0  0  0  0  0  0
  -43.8050   58.5690   65.9360 C   0  0  0  0  0  0  0  0  0  0  0  0
  -44.6170   59.7376   66.4663 C   0  0  0  0  0  0  0  0  0  0  0  0
  -43.9014   61.0697   66.3219 C   0  0  0  0  0  0  0  0  0  0  0  0
  -44.7168   62.2195   66.8702 C   0  0  0  0  0  0  0  0  0  0  0  0
  -44.0631   63.5802   66.7402 C   0  0  0  0  0  0  0  0  0  0  0  0
  -42.7550   63.6890   67.4252 C   0  0  0  0  0  0  0  0  0  0  0  0
  -41.6816   62.9709   67.1662 C   0  0  0  0  0  0  0  0  0  0  0  0
  -41.5278   61.9257   66.1096 C   0  0  0  0  0  0  0  0  0  0  0  0
  -41.0182   62.5581   64.8135 C   0  0  0  0  0  0  0  0  0  0  0  0
  -41.9067   63.6440   64.2245 C   0  0  0  0  0  0  0  0  0  0  0  0
  -43.3226   63.2000   63.8774 C   0  0  0  0  0  0  0  0  0  0  0  0
  -44.1782   64.3091   63.2743 C   0  0  0  0  0  0  0  0  0  0  0  0
  -45.5972   63.8757   62.9418 C   0  0  0  0  0  0  0  0  0  0  0  0
  -46.4782   64.9501   62.3222 C   0  0  0  0  0  0  0  0  0  0  0  0
  -46.6345   66.1510   63.2036 C   0  0  0  0  0  0  0  0  0  0  0  0
  -39.8952   56.9437   66.4110 H   0  0  0  0  0  0  0  0  0  0  0  0
  -39.0251   57.6184   63.7730 H   0  0  0  0  0  0  0  0  0  0  0  0
  -37.4946   56.0947   64.8558 H   0  0  0  0  0  0  0  0  0  0  0  0
  -38.8883   55.0971   65.2750 H   0  0  0  0  0  0  0  0  0  0  0  0
  -37.7092   52.0203   69.9914 H   0  0  0  0  0  0  0  0  0  0  0  0
  -37.8661   53.5716   70.7918 H   0  0  0  0  0  0  0  0  0  0  0  0
  -39.9161   52.3351   70.9369 H   0  0  0  0  0  0  0  0  0  0  0  0
  -40.0793   53.7917   69.8917 H   0  0  0  0  0  0  0  0  0  0  0  0
  -42.0123   51.4814   70.0205 H   0  0  0  0  0  0  0  0  0  0  0  0
  -42.2040   51.3070   68.2926 H   0  0  0  0  0  0  0  0  0  0  0  0
  -42.1972   52.8981   69.0146 H   0  0  0  0  0  0  0  0  0  0  0  0
  -38.1364   57.0568   68.9695 H   0  0  0  0  0  0  0  0  0  0  0  0
  -39.9536   50.1675   69.9065 H   0  0  0  0  0  0  0  0  0  0  0  0
  -38.6783   50.6418   68.8103 H   0  0  0  0  0  0  0  0  0  0  0  0
  -40.1792   50.0055   68.1815 H   0  0  0  0  0  0  0  0  0  0  0  0
  -40.3985   53.5816   67.5139 H   0  0  0  0  0  0  0  0  0  0  0  0
  -40.4374   51.9936   66.7860 H   0  0  0  0  0  0  0  0  0  0  0  0
  -38.9365   52.6299   67.4148 H   0  0  0  0  0  0  0  0  0  0  0  0
  -37.5944   58.5985   65.5223 H   0  0  0  0  0  0  0  0  0  0  0  0
  -37.9447   58.0792   67.1707 H   0  0  0  0  0  0  0  0  0  0  0  0
  -41.3508   59.7963   65.5416 H   0  0  0  0  0  0  0  0  0  0  0  0
  -42.0377   60.3996   67.0625 H   0  0  0  0  0  0  0  0  0  0  0  0
  -42.6787   58.1797   67.6825 H   0  0  0  0  0  0  0  0  0  0  0  0
  -41.9769   57.5734   66.1596 H   0  0  0  0  0  0  0  0  0  0  0  0
  -44.3819   57.6753   66.0516 H   0  0  0  0  0  0  0  0  0  0  0  0
  -43.5836   58.7785   64.9103 H   0  0  0  0  0  0  0  0  0  0  0  0
  -44.8195   59.5696   67.5034 H   0  0  0  0  0  0  0  0  0  0  0  0
  -45.5158   59.7920   65.8883 H   0  0  0  0  0  0  0  0  0  0  0  0
  -43.7100   61.2472   65.2842 H   0  0  0  0  0  0  0  0  0  0  0  0
  -42.9915   61.0159   66.8824 H   0  0  0  0  0  0  0  0  0  0  0  0
  -44.8969   62.0345   67.9086 H   0  0  0  0  0  0  0  0  0  0  0  0
  -45.6130   62.2586   66.2870 H   0  0  0  0  0  0  0  0  0  0  0  0
  -44.7231   64.3116   67.1576 H   0  0  0  0  0  0  0  0  0  0  0  0
  -43.8800   63.7368   65.6976 H   0  0  0  0  0  0  0  0  0  0  0  0
  -42.6769   64.3932   68.1756 H   0  0  0  0  0  0  0  0  0  0  0  0
  -40.8557   63.1499   67.7585 H   0  0  0  0  0  0  0  0  0  0  0  0
  -42.4756   61.4633   65.9287 H   0  0  0  0  0  0  0  0  0  0  0  0
  -40.8224   61.1931   66.4423 H   0  0  0  0  0  0  0  0  0  0  0  0
  -40.9183   61.7815   64.0841 H   0  0  0  0  0  0  0  0  0  0  0  0
  -40.0935   63.0358   65.0618 H   0  0  0  0  0  0  0  0  0  0  0  0
  -41.4428   64.0034   63.3298 H   0  0  0  0  0  0  0  0  0  0  0  0
  -42.0056   64.3930   64.9823 H   0  0  0  0  0  0  0  0  0  0  0  0
  -43.7977   62.8542   64.7716 H   0  0  0  0  0  0  0  0  0  0  0  0
  -43.2385   62.4307   63.1385 H   0  0  0  0  0  0  0  0  0  0  0  0
  -43.7084   64.6461   62.3739 H   0  0  0  0  0  0  0  0  0  0  0  0
  -44.2522   65.0818   64.0108 H   0  0  0  0  0  0  0  0  0  0  0  0
  -46.0633   63.5482   63.8475 H   0  0  0  0  0  0  0  0  0  0  0  0
  -45.5057   63.1067   62.2034 H   0  0  0  0  0  0  0  0  0  0  0  0
  -47.4462   64.5336   62.1367 H   0  0  0  0  0  0  0  0  0  0  0  0
  -46.0055   65.2730   61.4182 H   0  0  0  0  0  0  0  0  0  0  0  0
  -47.1058   65.8621   64.1197 H   0  0  0  0  0  0  0  0  0  0  0  0
  -47.2381   66.8818   62.7070 H   0  0  0  0  0  0  0  0  0  0  0  0
  -45.6714   66.5671   63.4137 H   0  0  0  0  0  0  0  0  0  0  0  0
  1  9  1  0  0  0  0
  1 11  1  0  0  0  0
  1 13  1  0  0  0  0
  1 15  1  0  0  0  0
  2  3  1  0  0  0  0
  2  5  1  0  0  0  0
  2 17  1  0  0  0  0
  2 36  1  1  0  0  0
  3 37  1  0  0  0  0
  4  6  1  0  0  0  0
  4  8  2  6  0  0  0
  4 10  1  0  0  0  0
  4 12  1  0  0  0  0
  5  6  1  0  0  0  0
  5 38  1  0  0  0  0
  5 39  1  0  0  0  0
  7  9  1  0  0  0  0
  7 10  1  0  0  0  0
  7 40  1  0  0  0  0
  7 41  1  0  0  0  0
  9 42  1  0  0  0  0
  9 43  1  0  0  0  0
 11 44  1  0  0  0  0
 11 45  1  0  0  0  0
 11 46  1  0  0  0  0
 12 47  1  0  0  0  0
 13 48  1  0  0  0  0
 13 49  1  0  0  0  0
 13 50  1  0  0  0  0
 14 17  1  0  0  0  0
 14 18  1  0  0  0  0
 15 51  1  0  0  0  0
 15 52  1  0  0  0  0
 15 53  1  0  0  0  0
 16 18  2  0  0  0  0
 17 54  1  0  0  0  0
 17 55  1  0  0  0  0
 18 19  1  0  0  0  0
 19 20  1  0  0  0  0
 19 56  1  0  0  0  0
 19 57  1  0  0  0  0
 20 21  1  0  0  0  0
 20 58  1  0  0  0  0
 20 59  1  0  0  0  0
 21 22  1  0  0  0  0
 21 60  1  0  0  0  0
 21 61  1  0  0  0  0
 22 23  1  0  0  0  0
 22 62  1  0  0  0  0
 22 63  1  0  0  0  0
 23 24  1  0  0  0  0
 23 64  1  0  0  0  0
 23 65  1  0  0  0  0
 24 25  1  0  0  0  0
 24 66  1  0  0  0  0
 24 67  1  0  0  0  0
 25 26  1  0  0  0  0
 25 68  1  0  0  0  0
 25 69  1  0  0  0  0
 26 27  2  0  0  0  0
 26 70  1  0  0  0  0
 27 28  1  0  0  0  0
 27 71  1  0  0  0  0
 28 29  1  0  0  0  0
 28 72  1  0  0  0  0
 28 73  1  0  0  0  0
 29 30  1  0  0  0  0
 29 74  1  0  0  0  0
 29 75  1  0  0  0  0
 30 31  1  0  0  0  0
 30 76  1  0  0  0  0
 30 77  1  0  0  0  0
 31 32  1  0  0  0  0
 31 78  1  0  0  0  0
 31 79  1  0  0  0  0
 32 33  1  0  0  0  0
 32 80  1  0  0  0  0
 32 81  1  0  0  0  0
 33 34  1  0  0  0  0
 33 82  1  0  0  0  0
 33 83  1  0  0  0  0
 34 35  1  0  0  0  0
 34 84  1  0  0  0  0
 34 85  1  0  0  0  0
 35 86  1  0  0  0  0
 35 87  1  0  0  0  0
 35 88  1  0  0  0  0
M  CHG  1   8  -1
M  END
$$$$