/media/chris/experiments/cd1a-new-docking/inputs/ligands/4x6e_ligand.pdb
 OpenBabel07012320273D

 88 87  0  0  1  0  0  0  0  0999 V2000
  -39.0335   66.6431   66.8038 N   0  0  0  0  0  4  0  0  0  0  0  0
  -43.0432   62.7784   69.4364 C   0  0  1  0  0  0  0  0  0  0  0  0
  -44.1224   63.5024   70.0426 O   0  0  0  0  0  0  0  0  0  0  0  0
  -39.8674   62.3301   68.4322 P   0  0  1  0  0  0  0  0  0  0  0  0
  -41.8405   62.8105   70.3501 C   0  0  0  0  0  0  0  0  0  0  0  0
  -40.7115   62.1060   69.7788 O   0  0  0  0  0  0  0  0  0  0  0  0
  -38.6083   64.7852   68.5327 C   0  0  0  0  0  0  0  0  0  0  0  0
  -40.7917   62.9532   67.3874 O   0  5  0  0  0  0  0  0  0  0  0  0
  -38.9897   65.1600   67.1219 C   0  0  0  0  0  0  0  0  0  0  0  0
  -38.5929   63.3394   68.6817 O   0  0  0  0  0  0  0  0  0  0  0  0
  -39.4406   66.8621   65.3820 C   0  0  0  0  0  0  0  0  0  0  0  0
  -39.4130   61.0137   67.9333 O   0  0  0  0  0  0  0  0  0  0  0  0
  -37.6704   67.2166   67.0123 C   0  0  0  0  0  0  0  0  0  0  0  0
  -42.3828   60.6219   68.4835 O   0  0  0  0  0  0  0  0  0  0  0  0
  -40.0115   67.3456   67.7019 C   0  0  0  0  0  0  0  0  0  0  0  0
  -42.3332   61.8587   66.6072 O   0  0  0  0  0  0  0  0  0  0  0  0
  -43.4656   61.3687   69.0806 C   0  0  0  0  0  0  0  0  0  0  0  0
  -42.1287   60.8209   67.1868 C   0  0  0  0  0  0  0  0  0  0  0  0
  -41.5470   59.5850   66.5720 C   0  0  0  0  0  0  0  0  0  0  0  0
  -42.4780   58.3810   66.6510 C   0  0  0  0  0  0  0  0  0  0  0  0
  -43.8050   58.5690   65.9360 C   0  0  0  0  0  0  0  0  0  0  0  0
  -44.7241   57.3648   66.0412 C   0  0  0  0  0  0  0  0  0  0  0  0
  -45.0954   57.0268   67.4749 C   0  0  0  0  0  0  0  0  0  0  0  0
  -45.8277   58.1599   68.1584 C   0  0  0  0  0  0  0  0  0  0  0  0
  -47.1374   58.5542   67.5064 C   0  0  0  0  0  0  0  0  0  0  0  0
  -47.8325   59.6754   68.1787 C   0  0  0  0  0  0  0  0  0  0  0  0
  -49.0372   59.6345   68.7096 C   0  0  0  0  0  0  0  0  0  0  0  0
  -49.9487   58.4534   68.7907 C   0  0  0  0  0  0  0  0  0  0  0  0
  -50.2672   58.1332   70.2520 C   0  0  0  0  0  0  0  0  0  0  0  0
  -51.1778   56.9344   70.4734 C   0  0  0  0  0  0  0  0  0  0  0  0
  -52.5502   57.0384   69.8191 C   0  0  0  0  0  0  0  0  0  0  0  0
  -52.4927   57.1746   68.3011 C   0  0  0  0  0  0  0  0  0  0  0  0
  -51.8287   55.9969   67.6054 C   0  0  0  0  0  0  0  0  0  0  0  0
  -50.3900   55.7236   68.0175 C   0  0  0  0  0  0  0  0  0  0  0  0
  -49.7878   54.5637   67.2857 C   0  0  0  0  0  0  0  0  0  0  0  0
  -42.7695   63.2491   68.5152 H   0  0  0  0  0  0  0  0  0  0  0  0
  -44.3698   63.0750   70.8775 H   0  0  0  0  0  0  0  0  0  0  0  0
  -42.1004   62.3510   71.2808 H   0  0  0  0  0  0  0  0  0  0  0  0
  -41.5576   63.8327   70.4914 H   0  0  0  0  0  0  0  0  0  0  0  0
  -39.3197   65.2032   69.2139 H   0  0  0  0  0  0  0  0  0  0  0  0
  -37.6316   65.1681   68.7435 H   0  0  0  0  0  0  0  0  0  0  0  0
  -38.2798   64.7068   66.4619 H   0  0  0  0  0  0  0  0  0  0  0  0
  -39.9947   64.8142   66.9989 H   0  0  0  0  0  0  0  0  0  0  0  0
  -38.7501   66.3655   64.7328 H   0  0  0  0  0  0  0  0  0  0  0  0
  -39.4402   67.9105   65.1683 H   0  0  0  0  0  0  0  0  0  0  0  0
  -40.4229   66.4670   65.2274 H   0  0  0  0  0  0  0  0  0  0  0  0
  -40.1811   60.4379   67.7943 H   0  0  0  0  0  0  0  0  0  0  0  0
  -36.9720   66.7175   66.3734 H   0  0  0  0  0  0  0  0  0  0  0  0
  -37.3791   67.0821   68.0331 H   0  0  0  0  0  0  0  0  0  0  0  0
  -37.6833   68.2609   66.7797 H   0  0  0  0  0  0  0  0  0  0  0  0
  -40.9890   66.9363   67.5541 H   0  0  0  0  0  0  0  0  0  0  0  0
  -40.0232   68.3899   67.4689 H   0  0  0  0  0  0  0  0  0  0  0  0
  -39.7190   67.2111   68.7223 H   0  0  0  0  0  0  0  0  0  0  0  0
  -44.2790   61.4150   68.3869 H   0  0  0  0  0  0  0  0  0  0  0  0
  -43.7581   60.8705   69.9812 H   0  0  0  0  0  0  0  0  0  0  0  0
  -40.6379   59.3462   67.0832 H   0  0  0  0  0  0  0  0  0  0  0  0
  -41.3821   59.7924   65.5353 H   0  0  0  0  0  0  0  0  0  0  0  0
  -42.6787   58.1797   67.6825 H   0  0  0  0  0  0  0  0  0  0  0  0
  -41.9769   57.5734   66.1596 H   0  0  0  0  0  0  0  0  0  0  0  0
  -43.6088   58.7562   64.9009 H   0  0  0  0  0  0  0  0  0  0  0  0
  -44.3043   59.3890   66.4084 H   0  0  0  0  0  0  0  0  0  0  0  0
  -44.2305   56.5199   65.6083 H   0  0  0  0  0  0  0  0  0  0  0  0
  -45.6292   57.6059   65.5239 H   0  0  0  0  0  0  0  0  0  0  0  0
  -44.2003   56.8156   68.0218 H   0  0  0  0  0  0  0  0  0  0  0  0
  -45.7484   56.1795   67.4537 H   0  0  0  0  0  0  0  0  0  0  0  0
  -45.1865   59.0165   68.1622 H   0  0  0  0  0  0  0  0  0  0  0  0
  -46.0726   57.8118   69.1402 H   0  0  0  0  0  0  0  0  0  0  0  0
  -47.7863   57.7034   67.5138 H   0  0  0  0  0  0  0  0  0  0  0  0
  -46.9025   58.8853   66.5164 H   0  0  0  0  0  0  0  0  0  0  0  0
  -47.3259   60.5726   68.2366 H   0  0  0  0  0  0  0  0  0  0  0  0
  -49.3905   60.5156   69.1144 H   0  0  0  0  0  0  0  0  0  0  0  0
  -49.4733   57.6080   68.3388 H   0  0  0  0  0  0  0  0  0  0  0  0
  -50.8591   58.6782   68.2754 H   0  0  0  0  0  0  0  0  0  0  0  0
  -50.7400   58.9911   70.6826 H   0  0  0  0  0  0  0  0  0  0  0  0
  -49.3329   57.8826   70.7096 H   0  0  0  0  0  0  0  0  0  0  0  0
  -51.3207   56.8162   71.5272 H   0  0  0  0  0  0  0  0  0  0  0  0
  -50.6903   56.0998   70.0143 H   0  0  0  0  0  0  0  0  0  0  0  0
  -53.0509   57.8962   70.2172 H   0  0  0  0  0  0  0  0  0  0  0  0
  -53.0706   56.1284   70.0336 H   0  0  0  0  0  0  0  0  0  0  0  0
  -51.9434   58.0612   68.0623 H   0  0  0  0  0  0  0  0  0  0  0  0
  -53.5036   57.2135   67.9526 H   0  0  0  0  0  0  0  0  0  0  0  0
  -51.8405   56.1859   66.5523 H   0  0  0  0  0  0  0  0  0  0  0  0
  -52.3877   55.1309   67.8926 H   0  0  0  0  0  0  0  0  0  0  0  0
  -50.3685   55.5145   69.0666 H   0  0  0  0  0  0  0  0  0  0  0  0
  -49.8144   56.5922   67.7744 H   0  0  0  0  0  0  0  0  0  0  0  0
  -50.3417   53.6756   67.5075 H   0  0  0  0  0  0  0  0  0  0  0  0
  -48.7711   54.4364   67.5941 H   0  0  0  0  0  0  0  0  0  0  0  0
  -49.8203   54.7506   66.2326 H   0  0  0  0  0  0  0  0  0  0  0  0
  1  9  1  0  0  0  0
  1 11  1  0  0  0  0
  1 13  1  0  0  0  0
  1 15  1  0  0  0  0
  2  3  1  0  0  0  0
  2  5  1  0  0  0  0
  2 17  1  0  0  0  0
  2 36  1  6  0  0  0
  3 37  1  0  0  0  0
  4  6  1  0  0  0  0
  4  8  2  6  0  0  0
  4 10  1  0  0  0  0
  4 12  1  0  0  0  0
  5  6  1  0  0  0  0
  5 38  1  0  0  0  0
  5 39  1  0  0  0  0
  7  9  1  0  0  0  0
  7 10  1  0  0  0  0
  7 40  1  0  0  0  0
  7 41  1  0  0  0  0
  9 42  1  0  0  0  0
  9 43  1  0  0  0  0
 11 44  1  0  0  0  0
 11 45  1  0  0  0  0
 11 46  1  0  0  0  0
 12 47  1  0  0  0  0
 13 48  1  0  0  0  0
 13 49  1  0  0  0  0
 13 50  1  0  0  0  0
 14 17  1  0  0  0  0
 14 18  1  0  0  0  0
 15 51  1  0  0  0  0
 15 52  1  0  0  0  0
 15 53  1  0  0  0  0
 16 18  2  0  0  0  0
 17 54  1  0  0  0  0
 17 55  1  0  0  0  0
 18 19  1  0  0  0  0
 19 20  1  0  0  0  0
 19 56  1  0  0  0  0
 19 57  1  0  0  0  0
 20 21  1  0  0  0  0
 20 58  1  0  0  0  0
 20 59  1  0  0  0  0
 21 22  1  0  0  0  0
 21 60  1  0  0  0  0
 21 61  1  0  0  0  0
 22 23  1  0  0  0  0
 22 62  1  0  0  0  0
 22 63  1  0  0  0  0
 23 24  1  0  0  0  0
 23 64  1  0  0  0  0
 23 65  1  0  0  0  0
 24 25  1  0  0  0  0
 24 66  1  0  0  0  0
 24 67  1  0  0  0  0
 25 26  1  0  0  0  0
 25 68  1  0  0  0  0
 25 69  1  0  0  0  0
 26 27  2  0  0  0  0
 26 70  1  0  0  0  0
 27 28  1  0  0  0  0
 27 71  1  0  0  0  0
 28 29  1  0  0  0  0
 28 72  1  0  0  0  0
 28 73  1  0  0  0  0
 29 30  1  0  0  0  0
 29 74  1  0  0  0  0
 29 75  1  0  0  0  0
 30 31  1  0  0  0  0
 30 76  1  0  0  0  0
 30 77  1  0  0  0  0
 31 32  1  0  0  0  0
 31 78  1  0  0  0  0
 31 79  1  0  0  0  0
 32 33  1  0  0  0  0
 32 80  1  0  0  0  0
 32 81  1  0  0  0  0
 33 34  1  0  0  0  0
 33 82  1  0  0  0  0
 33 83  1  0  0  0  0
 34 35  1  0  0  0  0
 34 84  1  0  0  0  0
 34 85  1  0  0  0  0
 35 86  1  0  0  0  0
 35 87  1  0  0  0  0
 35 88  1  0  0  0  0
M  CHG  1   8  -1
M  END
$$$$