/media/chris/experiments/cd1a-new-docking/inputs/ligands/4x6e_ligand.pdb
 OpenBabel07012320273D

 88 87  0  0  1  0  0  0  0  0999 V2000
  -48.9467   58.1319   68.3206 N   0  0  0  0  0  4  0  0  0  0  0  0
  -44.2684   62.9918   67.8482 C   0  0  1  0  0  0  0  0  0  0  0  0
  -44.6416   64.3755   67.7963 O   0  0  0  0  0  0  0  0  0  0  0  0
  -47.2555   61.9946   70.3654 P   0  0  1  0  0  0  0  0  0  0  0  0
  -45.4731   62.1599   68.2211 C   0  0  0  0  0  0  0  0  0  0  0  0
  -46.0173   62.5467   69.5062 O   0  0  0  0  0  0  0  0  0  0  0  0
  -47.9533   59.3233   70.3738 C   0  0  0  0  0  0  0  0  0  0  0  0
  -48.5237   62.1463   69.5271 O   0  5  0  0  0  0  0  0  0  0  0  0
  -48.0358   59.2134   68.8714 C   0  0  0  0  0  0  0  0  0  0  0  0
  -47.0611   60.4074   70.7500 O   0  0  0  0  0  0  0  0  0  0  0  0
  -48.5122   56.7852   68.8031 C   0  0  0  0  0  0  0  0  0  0  0  0
  -47.3942   62.8232   71.5830 O   0  0  0  0  0  0  0  0  0  0  0  0
  -48.8736   58.1601   66.8292 C   0  0  0  0  0  0  0  0  0  0  0  0
  -43.2707   61.1523   66.5772 O   0  0  0  0  0  0  0  0  0  0  0  0
  -50.3656   58.3676   68.7538 C   0  0  0  0  0  0  0  0  0  0  0  0
  -41.6498   61.4332   68.1090 O   0  0  0  0  0  0  0  0  0  0  0  0
  -43.6370   62.5493   66.5452 C   0  0  0  0  0  0  0  0  0  0  0  0
  -42.1287   60.8209   67.1868 C   0  0  0  0  0  0  0  0  0  0  0  0
  -41.5470   59.5850   66.5720 C   0  0  0  0  0  0  0  0  0  0  0  0
  -42.4780   58.3810   66.6510 C   0  0  0  0  0  0  0  0  0  0  0  0
  -43.8050   58.5690   65.9360 C   0  0  0  0  0  0  0  0  0  0  0  0
  -44.7241   57.3648   66.0412 C   0  0  0  0  0  0  0  0  0  0  0  0
  -45.0954   57.0268   67.4749 C   0  0  0  0  0  0  0  0  0  0  0  0
  -45.9968   55.8154   67.5620 C   0  0  0  0  0  0  0  0  0  0  0  0
  -46.4170   55.4365   68.9676 C   0  0  0  0  0  0  0  0  0  0  0  0
  -45.2866   55.1276   69.8726 C   0  0  0  0  0  0  0  0  0  0  0  0
  -45.2622   55.3168   71.1758 C   0  0  0  0  0  0  0  0  0  0  0  0
  -46.3682   55.8403   72.0332 C   0  0  0  0  0  0  0  0  0  0  0  0
  -45.9256   57.1234   72.7385 C   0  0  0  0  0  0  0  0  0  0  0  0
  -45.5435   58.2742   71.8192 C   0  0  0  0  0  0  0  0  0  0  0  0
  -44.3994   57.9777   70.8573 C   0  0  0  0  0  0  0  0  0  0  0  0
  -43.1006   57.5900   71.5565 C   0  0  0  0  0  0  0  0  0  0  0  0
  -41.9511   57.3097   70.6017 C   0  0  0  0  0  0  0  0  0  0  0  0
  -40.6414   56.9030   71.2604 C   0  0  0  0  0  0  0  0  0  0  0  0
  -40.7623   55.6434   72.0619 C   0  0  0  0  0  0  0  0  0  0  0  0
  -43.5239   62.8501   68.6035 H   0  0  0  0  0  0  0  0  0  0  0  0
  -45.3165   64.5028   67.1113 H   0  0  0  0  0  0  0  0  0  0  0  0
  -45.1835   61.1307   68.2633 H   0  0  0  0  0  0  0  0  0  0  0  0
  -46.2281   62.3172   67.4794 H   0  0  0  0  0  0  0  0  0  0  0  0
  -47.5813   58.4039   70.7754 H   0  0  0  0  0  0  0  0  0  0  0  0
  -48.9296   59.5238   70.7631 H   0  0  0  0  0  0  0  0  0  0  0  0
  -48.3826   60.1531   68.4952 H   0  0  0  0  0  0  0  0  0  0  0  0
  -47.0507   58.9434   68.5527 H   0  0  0  0  0  0  0  0  0  0  0  0
  -47.5017   56.6066   68.4999 H   0  0  0  0  0  0  0  0  0  0  0  0
  -49.1484   56.0338   68.3842 H   0  0  0  0  0  0  0  0  0  0  0  0
  -48.5754   56.7514   69.8707 H   0  0  0  0  0  0  0  0  0  0  0  0
  -47.5074   63.7529   71.3302 H   0  0  0  0  0  0  0  0  0  0  0  0
  -47.8636   57.9924   66.5184 H   0  0  0  0  0  0  0  0  0  0  0  0
  -49.2024   59.1143   66.4740 H   0  0  0  0  0  0  0  0  0  0  0  0
  -49.5026   57.3937   66.4268 H   0  0  0  0  0  0  0  0  0  0  0  0
  -50.4203   58.3478   69.8222 H   0  0  0  0  0  0  0  0  0  0  0  0
  -50.9937   57.6010   68.3503 H   0  0  0  0  0  0  0  0  0  0  0  0
  -50.6935   59.3217   68.3975 H   0  0  0  0  0  0  0  0  0  0  0  0
  -42.7586   63.1343   66.3691 H   0  0  0  0  0  0  0  0  0  0  0  0
  -44.3534   62.6887   65.7627 H   0  0  0  0  0  0  0  0  0  0  0  0
  -40.6379   59.3462   67.0832 H   0  0  0  0  0  0  0  0  0  0  0  0
  -41.3821   59.7924   65.5353 H   0  0  0  0  0  0  0  0  0  0  0  0
  -42.6787   58.1797   67.6825 H   0  0  0  0  0  0  0  0  0  0  0  0
  -41.9769   57.5734   66.1596 H   0  0  0  0  0  0  0  0  0  0  0  0
  -43.6088   58.7562   64.9009 H   0  0  0  0  0  0  0  0  0  0  0  0
  -44.3043   59.3890   66.4084 H   0  0  0  0  0  0  0  0  0  0  0  0
  -44.2305   56.5199   65.6083 H   0  0  0  0  0  0  0  0  0  0  0  0
  -45.6292   57.6059   65.5239 H   0  0  0  0  0  0  0  0  0  0  0  0
  -45.6019   57.8648   67.9062 H   0  0  0  0  0  0  0  0  0  0  0  0
  -44.1925   56.8028   68.0036 H   0  0  0  0  0  0  0  0  0  0  0  0
  -45.4784   54.9831   67.1337 H   0  0  0  0  0  0  0  0  0  0  0  0
  -46.8941   56.0690   67.0372 H   0  0  0  0  0  0  0  0  0  0  0  0
  -47.0465   54.5733   68.9092 H   0  0  0  0  0  0  0  0  0  0  0  0
  -46.9195   56.2866   69.3798 H   0  0  0  0  0  0  0  0  0  0  0  0
  -44.4387   54.7267   69.4420 H   0  0  0  0  0  0  0  0  0  0  0  0
  -44.3819   55.0769   71.6580 H   0  0  0  0  0  0  0  0  0  0  0  0
  -46.6261   55.1047   72.7661 H   0  0  0  0  0  0  0  0  0  0  0  0
  -47.2167   56.0545   71.4174 H   0  0  0  0  0  0  0  0  0  0  0  0
  -45.0763   56.8901   73.3460 H   0  0  0  0  0  0  0  0  0  0  0  0
  -46.7737   57.4608   73.2968 H   0  0  0  0  0  0  0  0  0  0  0  0
  -45.2573   59.1053   72.4292 H   0  0  0  0  0  0  0  0  0  0  0  0
  -46.4023   58.4690   71.2113 H   0  0  0  0  0  0  0  0  0  0  0  0
  -44.2182   58.8516   70.2670 H   0  0  0  0  0  0  0  0  0  0  0  0
  -44.6980   57.1402   70.2620 H   0  0  0  0  0  0  0  0  0  0  0  0
  -43.2796   56.7093   72.1371 H   0  0  0  0  0  0  0  0  0  0  0  0
  -42.8093   58.4248   72.1592 H   0  0  0  0  0  0  0  0  0  0  0  0
  -41.7721   58.1967   70.0307 H   0  0  0  0  0  0  0  0  0  0  0  0
  -42.2564   56.4722   70.0098 H   0  0  0  0  0  0  0  0  0  0  0  0
  -40.3256   57.6926   71.9098 H   0  0  0  0  0  0  0  0  0  0  0  0
  -39.9309   56.7224   70.4810 H   0  0  0  0  0  0  0  0  0  0  0  0
  -41.4679   55.7902   72.8527 H   0  0  0  0  0  0  0  0  0  0  0  0
  -39.8087   55.3918   72.4768 H   0  0  0  0  0  0  0  0  0  0  0  0
  -41.0966   54.8484   71.4286 H   0  0  0  0  0  0  0  0  0  0  0  0
  1  9  1  0  0  0  0
  1 11  1  0  0  0  0
  1 13  1  0  0  0  0
  1 15  1  0  0  0  0
  2  3  1  0  0  0  0
  2  5  1  0  0  0  0
  2 17  1  0  0  0  0
  2 36  1  1  0  0  0
  3 37  1  0  0  0  0
  4  6  1  0  0  0  0
  4  8  2  6  0  0  0
  4 10  1  0  0  0  0
  4 12  1  0  0  0  0
  5  6  1  0  0  0  0
  5 38  1  0  0  0  0
  5 39  1  0  0  0  0
  7  9  1  0  0  0  0
  7 10  1  0  0  0  0
  7 40  1  0  0  0  0
  7 41  1  0  0  0  0
  9 42  1  0  0  0  0
  9 43  1  0  0  0  0
 11 44  1  0  0  0  0
 11 45  1  0  0  0  0
 11 46  1  0  0  0  0
 12 47  1  0  0  0  0
 13 48  1  0  0  0  0
 13 49  1  0  0  0  0
 13 50  1  0  0  0  0
 14 17  1  0  0  0  0
 14 18  1  0  0  0  0
 15 51  1  0  0  0  0
 15 52  1  0  0  0  0
 15 53  1  0  0  0  0
 16 18  2  0  0  0  0
 17 54  1  0  0  0  0
 17 55  1  0  0  0  0
 18 19  1  0  0  0  0
 19 20  1  0  0  0  0
 19 56  1  0  0  0  0
 19 57  1  0  0  0  0
 20 21  1  0  0  0  0
 20 58  1  0  0  0  0
 20 59  1  0  0  0  0
 21 22  1  0  0  0  0
 21 60  1  0  0  0  0
 21 61  1  0  0  0  0
 22 23  1  0  0  0  0
 22 62  1  0  0  0  0
 22 63  1  0  0  0  0
 23 24  1  0  0  0  0
 23 64  1  0  0  0  0
 23 65  1  0  0  0  0
 24 25  1  0  0  0  0
 24 66  1  0  0  0  0
 24 67  1  0  0  0  0
 25 26  1  0  0  0  0
 25 68  1  0  0  0  0
 25 69  1  0  0  0  0
 26 27  2  0  0  0  0
 26 70  1  0  0  0  0
 27 28  1  0  0  0  0
 27 71  1  0  0  0  0
 28 29  1  0  0  0  0
 28 72  1  0  0  0  0
 28 73  1  0  0  0  0
 29 30  1  0  0  0  0
 29 74  1  0  0  0  0
 29 75  1  0  0  0  0
 30 31  1  0  0  0  0
 30 76  1  0  0  0  0
 30 77  1  0  0  0  0
 31 32  1  0  0  0  0
 31 78  1  0  0  0  0
 31 79  1  0  0  0  0
 32 33  1  0  0  0  0
 32 80  1  0  0  0  0
 32 81  1  0  0  0  0
 33 34  1  0  0  0  0
 33 82  1  0  0  0  0
 33 83  1  0  0  0  0
 34 35  1  0  0  0  0
 34 84  1  0  0  0  0
 34 85  1  0  0  0  0
 35 86  1  0  0  0  0
 35 87  1  0  0  0  0
 35 88  1  0  0  0  0
M  CHG  1   8  -1
M  END
$$$$