/media/chris/experiments/cd1a-new-docking/inputs/ligands/4x6e_ligand.pdb
 OpenBabel07012320273D

 88 87  0  0  1  0  0  0  0  0999 V2000
  -48.2391   63.6543   63.1517 N   0  0  0  0  0  4  0  0  0  0  0  0
  -45.5277   61.3614   66.8759 C   0  0  1  0  0  0  0  0  0  0  0  0
  -46.2094   60.2007   67.3703 O   0  0  0  0  0  0  0  0  0  0  0  0
  -46.4032   65.2131   66.0687 P   0  0  1  0  0  0  0  0  0  0  0  0
  -46.4899   62.5249   66.8224 C   0  0  0  0  0  0  0  0  0  0  0  0
  -45.8571   63.7238   66.3131 O   0  0  0  0  0  0  0  0  0  0  0  0
  -48.8624   64.0418   65.6180 C   0  0  0  0  0  0  0  0  0  0  0  0
  -45.6364   65.8157   64.8927 O   0  5  0  0  0  0  0  0  0  0  0  0
  -48.3415   63.1002   64.5606 C   0  0  0  0  0  0  0  0  0  0  0  0
  -48.0086   65.2144   65.7113 O   0  0  0  0  0  0  0  0  0  0  0  0
  -47.3052   64.8211   63.1142 C   0  0  0  0  0  0  0  0  0  0  0  0
  -46.1267   66.0231   67.2753 O   0  0  0  0  0  0  0  0  0  0  0  0
  -49.5951   64.1036   62.7158 C   0  0  0  0  0  0  0  0  0  0  0  0
  -43.3499   60.5720   67.6688 O   0  0  0  0  0  0  0  0  0  0  0  0
  -47.7366   62.6003   62.2066 C   0  0  0  0  0  0  0  0  0  0  0  0
  -41.5786   61.8922   67.2537 O   0  0  0  0  0  0  0  0  0  0  0  0
  -44.2962   61.6629   67.7033 C   0  0  0  0  0  0  0  0  0  0  0  0
  -42.1287   60.8209   67.1868 C   0  0  0  0  0  0  0  0  0  0  0  0
  -41.5470   59.5850   66.5720 C   0  0  0  0  0  0  0  0  0  0  0  0
  -42.4780   58.3810   66.6510 C   0  0  0  0  0  0  0  0  0  0  0  0
  -43.8050   58.5690   65.9360 C   0  0  0  0  0  0  0  0  0  0  0  0
  -43.6578   58.8291   64.4471 C   0  0  0  0  0  0  0  0  0  0  0  0
  -44.9905   59.0322   63.7470 C   0  0  0  0  0  0  0  0  0  0  0  0
  -45.7496   60.2198   64.2955 C   0  0  0  0  0  0  0  0  0  0  0  0
  -45.0364   61.5492   64.1547 C   0  0  0  0  0  0  0  0  0  0  0  0
  -44.7510   61.9354   62.7541 C   0  0  0  0  0  0  0  0  0  0  0  0
  -43.5596   62.1557   62.2376 C   0  0  0  0  0  0  0  0  0  0  0  0
  -42.2394   62.0283   62.9258 C   0  0  0  0  0  0  0  0  0  0  0  0
  -41.1072   62.3947   61.9649 C   0  0  0  0  0  0  0  0  0  0  0  0
  -39.7029   62.2891   62.5414 C   0  0  0  0  0  0  0  0  0  0  0  0
  -39.4395   63.1646   63.7606 C   0  0  0  0  0  0  0  0  0  0  0  0
  -39.6413   64.6532   63.4966 C   0  0  0  0  0  0  0  0  0  0  0  0
  -39.3633   65.5327   64.7053 C   0  0  0  0  0  0  0  0  0  0  0  0
  -39.5697   67.0240   64.4871 C   0  0  0  0  0  0  0  0  0  0  0  0
  -39.2639   67.8363   65.7078 C   0  0  0  0  0  0  0  0  0  0  0  0
  -45.1803   61.1756   65.8810 H   0  0  0  0  0  0  0  0  0  0  0  0
  -46.5240   60.3702   68.2721 H   0  0  0  0  0  0  0  0  0  0  0  0
  -46.8544   62.7184   67.8096 H   0  0  0  0  0  0  0  0  0  0  0  0
  -47.2897   62.2646   66.1610 H   0  0  0  0  0  0  0  0  0  0  0  0
  -48.8770   63.5392   66.5626 H   0  0  0  0  0  0  0  0  0  0  0  0
  -49.8520   64.3508   65.3532 H   0  0  0  0  0  0  0  0  0  0  0  0
  -47.3628   62.7863   64.8584 H   0  0  0  0  0  0  0  0  0  0  0  0
  -49.0627   62.3119   64.5032 H   0  0  0  0  0  0  0  0  0  0  0  0
  -47.6539   65.5787   63.7845 H   0  0  0  0  0  0  0  0  0  0  0  0
  -47.2661   65.2148   62.1201 H   0  0  0  0  0  0  0  0  0  0  0  0
  -46.3271   64.5047   63.4113 H   0  0  0  0  0  0  0  0  0  0  0  0
  -45.1756   66.0066   67.4649 H   0  0  0  0  0  0  0  0  0  0  0  0
  -49.9551   64.8545   63.3877 H   0  0  0  0  0  0  0  0  0  0  0  0
  -50.2657   63.2698   62.7203 H   0  0  0  0  0  0  0  0  0  0  0  0
  -49.5359   64.5084   61.7271 H   0  0  0  0  0  0  0  0  0  0  0  0
  -46.7650   62.2769   62.5171 H   0  0  0  0  0  0  0  0  0  0  0  0
  -47.6785   63.0060   61.2182 H   0  0  0  0  0  0  0  0  0  0  0  0
  -48.4082   61.7674   62.2114 H   0  0  0  0  0  0  0  0  0  0  0  0
  -44.5927   61.8330   68.7173 H   0  0  0  0  0  0  0  0  0  0  0  0
  -43.8218   62.5296   67.2925 H   0  0  0  0  0  0  0  0  0  0  0  0
  -40.6379   59.3462   67.0832 H   0  0  0  0  0  0  0  0  0  0  0  0
  -41.3821   59.7924   65.5353 H   0  0  0  0  0  0  0  0  0  0  0  0
  -42.6787   58.1797   67.6825 H   0  0  0  0  0  0  0  0  0  0  0  0
  -41.9769   57.5734   66.1596 H   0  0  0  0  0  0  0  0  0  0  0  0
  -44.3126   59.4014   66.3769 H   0  0  0  0  0  0  0  0  0  0  0  0
  -44.3534   57.6566   66.0440 H   0  0  0  0  0  0  0  0  0  0  0  0
  -43.1625   57.9917   64.0018 H   0  0  0  0  0  0  0  0  0  0  0  0
  -43.0949   59.7319   64.3334 H   0  0  0  0  0  0  0  0  0  0  0  0
  -45.5857   58.1527   63.8776 H   0  0  0  0  0  0  0  0  0  0  0  0
  -44.7924   59.2187   62.7122 H   0  0  0  0  0  0  0  0  0  0  0  0
  -45.9307   60.0476   65.3359 H   0  0  0  0  0  0  0  0  0  0  0  0
  -46.6472   60.2966   63.7181 H   0  0  0  0  0  0  0  0  0  0  0  0
  -44.1079   61.4903   64.6831 H   0  0  0  0  0  0  0  0  0  0  0  0
  -45.6916   62.2953   64.5536 H   0  0  0  0  0  0  0  0  0  0  0  0
  -45.5612   62.0418   62.1237 H   0  0  0  0  0  0  0  0  0  0  0  0
  -43.5352   62.4487   61.2484 H   0  0  0  0  0  0  0  0  0  0  0  0
  -42.1093   61.0193   63.2574 H   0  0  0  0  0  0  0  0  0  0  0  0
  -42.2161   62.6933   63.7637 H   0  0  0  0  0  0  0  0  0  0  0  0
  -41.2583   63.4049   61.6464 H   0  0  0  0  0  0  0  0  0  0  0  0
  -41.1536   61.6816   61.1685 H   0  0  0  0  0  0  0  0  0  0  0  0
  -39.0083   62.5674   61.7766 H   0  0  0  0  0  0  0  0  0  0  0  0
  -39.5900   61.2771   62.8702 H   0  0  0  0  0  0  0  0  0  0  0  0
  -38.4287   63.0107   64.0759 H   0  0  0  0  0  0  0  0  0  0  0  0
  -40.1470   62.8797   64.5110 H   0  0  0  0  0  0  0  0  0  0  0  0
  -40.6555   64.8077   63.1928 H   0  0  0  0  0  0  0  0  0  0  0  0
  -38.9401   64.9337   62.7385 H   0  0  0  0  0  0  0  0  0  0  0  0
  -38.3457   65.3794   64.9983 H   0  0  0  0  0  0  0  0  0  0  0  0
  -40.0733   65.2423   65.4513 H   0  0  0  0  0  0  0  0  0  0  0  0
  -40.5900   67.1914   64.2116 H   0  0  0  0  0  0  0  0  0  0  0  0
  -38.8950   67.3336   63.7164 H   0  0  0  0  0  0  0  0  0  0  0  0
  -39.9233   67.5507   66.5006 H   0  0  0  0  0  0  0  0  0  0  0  0
  -39.3989   68.8748   65.4883 H   0  0  0  0  0  0  0  0  0  0  0  0
  -38.2511   67.6636   66.0066 H   0  0  0  0  0  0  0  0  0  0  0  0
  1  9  1  0  0  0  0
  1 11  1  0  0  0  0
  1 13  1  0  0  0  0
  1 15  1  0  0  0  0
  2  3  1  0  0  0  0
  2  5  1  0  0  0  0
  2 17  1  0  0  0  0
  2 36  1  6  0  0  0
  3 37  1  0  0  0  0
  4  6  1  0  0  0  0
  4  8  2  6  0  0  0
  4 10  1  0  0  0  0
  4 12  1  0  0  0  0
  5  6  1  0  0  0  0
  5 38  1  0  0  0  0
  5 39  1  0  0  0  0
  7  9  1  0  0  0  0
  7 10  1  0  0  0  0
  7 40  1  0  0  0  0
  7 41  1  0  0  0  0
  9 42  1  0  0  0  0
  9 43  1  0  0  0  0
 11 44  1  0  0  0  0
 11 45  1  0  0  0  0
 11 46  1  0  0  0  0
 12 47  1  0  0  0  0
 13 48  1  0  0  0  0
 13 49  1  0  0  0  0
 13 50  1  0  0  0  0
 14 17  1  0  0  0  0
 14 18  1  0  0  0  0
 15 51  1  0  0  0  0
 15 52  1  0  0  0  0
 15 53  1  0  0  0  0
 16 18  2  0  0  0  0
 17 54  1  0  0  0  0
 17 55  1  0  0  0  0
 18 19  1  0  0  0  0
 19 20  1  0  0  0  0
 19 56  1  0  0  0  0
 19 57  1  0  0  0  0
 20 21  1  0  0  0  0
 20 58  1  0  0  0  0
 20 59  1  0  0  0  0
 21 22  1  0  0  0  0
 21 60  1  0  0  0  0
 21 61  1  0  0  0  0
 22 23  1  0  0  0  0
 22 62  1  0  0  0  0
 22 63  1  0  0  0  0
 23 24  1  0  0  0  0
 23 64  1  0  0  0  0
 23 65  1  0  0  0  0
 24 25  1  0  0  0  0
 24 66  1  0  0  0  0
 24 67  1  0  0  0  0
 25 26  1  0  0  0  0
 25 68  1  0  0  0  0
 25 69  1  0  0  0  0
 26 27  2  0  0  0  0
 26 70  1  0  0  0  0
 27 28  1  0  0  0  0
 27 71  1  0  0  0  0
 28 29  1  0  0  0  0
 28 72  1  0  0  0  0
 28 73  1  0  0  0  0
 29 30  1  0  0  0  0
 29 74  1  0  0  0  0
 29 75  1  0  0  0  0
 30 31  1  0  0  0  0
 30 76  1  0  0  0  0
 30 77  1  0  0  0  0
 31 32  1  0  0  0  0
 31 78  1  0  0  0  0
 31 79  1  0  0  0  0
 32 33  1  0  0  0  0
 32 80  1  0  0  0  0
 32 81  1  0  0  0  0
 33 34  1  0  0  0  0
 33 82  1  0  0  0  0
 33 83  1  0  0  0  0
 34 35  1  0  0  0  0
 34 84  1  0  0  0  0
 34 85  1  0  0  0  0
 35 86  1  0  0  0  0
 35 87  1  0  0  0  0
 35 88  1  0  0  0  0
M  CHG  1   8  -1
M  END
$$$$
/media/chris/experiments/cd1a-new-docking/inputs/ligands/4x6e_ligand.pdb
 OpenBabel07012320273D

 88 87  0  0  1  0  0  0  0  0999 V2000
  -50.5636   63.3427   64.2246 N   0  0  0  0  0  4  0  0  0  0  0  0
  -45.0724   62.5950   67.5462 C   0  0  1  0  0  0  0  0  0  0  0  0
  -44.2618   63.5755   66.8845 O   0  0  0  0  0  0  0  0  0  0  0  0
  -48.2356   60.2566   66.6633 P   0  0  1  0  0  0  0  0  0  0  0  0
  -46.1295   62.0900   66.5923 C   0  0  0  0  0  0  0  0  0  0  0  0
  -46.9904   61.1058   67.2148 O   0  0  0  0  0  0  0  0  0  0  0  0
  -50.4726   60.9670   65.2091 C   0  0  0  0  0  0  0  0  0  0  0  0
  -49.1855   59.9895   67.8298 O   0  5  0  0  0  0  0  0  0  0  0  0
  -50.8429   61.8612   64.0518 C   0  0  0  0  0  0  0  0  0  0  0  0
  -49.0509   61.0749   65.4925 O   0  0  0  0  0  0  0  0  0  0  0  0
  -49.1024   63.5794   64.4345 C   0  0  0  0  0  0  0  0  0  0  0  0
  -47.7371   58.9595   66.1560 O   0  0  0  0  0  0  0  0  0  0  0  0
  -51.3116   63.8332   65.4205 C   0  0  0  0  0  0  0  0  0  0  0  0
  -43.4610   60.8104   67.0845 O   0  0  0  0  0  0  0  0  0  0  0  0
  -51.0092   64.1075   63.0109 C   0  0  0  0  0  0  0  0  0  0  0  0
  -41.4959   61.7028   67.7127 O   0  0  0  0  0  0  0  0  0  0  0  0
  -44.2214   61.4792   68.1147 C   0  0  0  0  0  0  0  0  0  0  0  0
  -42.1287   60.8209   67.1868 C   0  0  0  0  0  0  0  0  0  0  0  0
  -41.5470   59.5850   66.5720 C   0  0  0  0  0  0  0  0  0  0  0  0
  -42.4780   58.3810   66.6510 C   0  0  0  0  0  0  0  0  0  0  0  0
  -43.8050   58.5690   65.9360 C   0  0  0  0  0  0  0  0  0  0  0  0
  -43.6578   58.8291   64.4471 C   0  0  0  0  0  0  0  0  0  0  0  0
  -44.9905   59.0322   63.7470 C   0  0  0  0  0  0  0  0  0  0  0  0
  -45.7496   60.2198   64.2955 C   0  0  0  0  0  0  0  0  0  0  0  0
  -45.0364   61.5492   64.1547 C   0  0  0  0  0  0  0  0  0  0  0  0
  -44.7510   61.9354   62.7541 C   0  0  0  0  0  0  0  0  0  0  0  0
  -43.5596   62.1557   62.2376 C   0  0  0  0  0  0  0  0  0  0  0  0
  -42.2394   62.0283   62.9258 C   0  0  0  0  0  0  0  0  0  0  0  0
  -41.1072   62.3947   61.9649 C   0  0  0  0  0  0  0  0  0  0  0  0
  -41.0231   61.5482   60.7032 C   0  0  0  0  0  0  0  0  0  0  0  0
  -42.2541   61.6044   59.8066 C   0  0  0  0  0  0  0  0  0  0  0  0
  -42.1410   60.7312   58.5612 C   0  0  0  0  0  0  0  0  0  0  0  0
  -43.3598   60.7968   57.6546 C   0  0  0  0  0  0  0  0  0  0  0  0
  -44.6728   60.3749   58.2967 C   0  0  0  0  0  0  0  0  0  0  0  0
  -44.6426   58.9669   58.8068 C   0  0  0  0  0  0  0  0  0  0  0  0
  -45.5694   63.0453   68.3799 H   0  0  0  0  0  0  0  0  0  0  0  0
  -43.8117   63.1663   66.1289 H   0  0  0  0  0  0  0  0  0  0  0  0
  -45.6485   61.6440   65.7469 H   0  0  0  0  0  0  0  0  0  0  0  0
  -46.7347   62.9213   66.2964 H   0  0  0  0  0  0  0  0  0  0  0  0
  -50.7076   59.9529   64.9615 H   0  0  0  0  0  0  0  0  0  0  0  0
  -51.0248   61.2694   66.0743 H   0  0  0  0  0  0  0  0  0  0  0  0
  -50.2980   61.5255   63.1943 H   0  0  0  0  0  0  0  0  0  0  0  0
  -51.9061   61.7820   63.9617 H   0  0  0  0  0  0  0  0  0  0  0  0
  -48.7739   63.0387   65.2974 H   0  0  0  0  0  0  0  0  0  0  0  0
  -48.9279   64.6248   64.5808 H   0  0  0  0  0  0  0  0  0  0  0  0
  -48.5598   63.2439   63.5755 H   0  0  0  0  0  0  0  0  0  0  0  0
  -47.2609   58.4971   66.8634 H   0  0  0  0  0  0  0  0  0  0  0  0
  -50.9957   63.2897   66.2864 H   0  0  0  0  0  0  0  0  0  0  0  0
  -52.3607   63.6860   65.2701 H   0  0  0  0  0  0  0  0  0  0  0  0
  -51.1143   64.8753   65.5619 H   0  0  0  0  0  0  0  0  0  0  0  0
  -50.4745   63.7577   62.1526 H   0  0  0  0  0  0  0  0  0  0  0  0
  -50.8121   65.1495   63.1537 H   0  0  0  0  0  0  0  0  0  0  0  0
  -52.0585   63.9602   62.8618 H   0  0  0  0  0  0  0  0  0  0  0  0
  -44.8593   60.7659   68.5934 H   0  0  0  0  0  0  0  0  0  0  0  0
  -43.5331   61.9071   68.8132 H   0  0  0  0  0  0  0  0  0  0  0  0
  -40.6379   59.3462   67.0832 H   0  0  0  0  0  0  0  0  0  0  0  0
  -41.3821   59.7924   65.5353 H   0  0  0  0  0  0  0  0  0  0  0  0
  -42.6787   58.1797   67.6825 H   0  0  0  0  0  0  0  0  0  0  0  0
  -41.9769   57.5734   66.1596 H   0  0  0  0  0  0  0  0  0  0  0  0
  -44.3126   59.4014   66.3769 H   0  0  0  0  0  0  0  0  0  0  0  0
  -44.3534   57.6566   66.0440 H   0  0  0  0  0  0  0  0  0  0  0  0
  -43.1625   57.9917   64.0018 H   0  0  0  0  0  0  0  0  0  0  0  0
  -43.0949   59.7319   64.3334 H   0  0  0  0  0  0  0  0  0  0  0  0
  -45.5857   58.1527   63.8776 H   0  0  0  0  0  0  0  0  0  0  0  0
  -44.7924   59.2187   62.7122 H   0  0  0  0  0  0  0  0  0  0  0  0
  -45.9307   60.0476   65.3359 H   0  0  0  0  0  0  0  0  0  0  0  0
  -46.6472   60.2966   63.7181 H   0  0  0  0  0  0  0  0  0  0  0  0
  -44.1079   61.4903   64.6831 H   0  0  0  0  0  0  0  0  0  0  0  0
  -45.6916   62.2953   64.5536 H   0  0  0  0  0  0  0  0  0  0  0  0
  -45.5612   62.0418   62.1237 H   0  0  0  0  0  0  0  0  0  0  0  0
  -43.5352   62.4487   61.2484 H   0  0  0  0  0  0  0  0  0  0  0  0
  -42.1093   61.0193   63.2574 H   0  0  0  0  0  0  0  0  0  0  0  0
  -42.2161   62.6933   63.7637 H   0  0  0  0  0  0  0  0  0  0  0  0
  -40.1814   62.2946   62.4920 H   0  0  0  0  0  0  0  0  0  0  0  0
  -41.3094   63.3931   61.6375 H   0  0  0  0  0  0  0  0  0  0  0  0
  -40.8720   60.5302   60.9960 H   0  0  0  0  0  0  0  0  0  0  0  0
  -40.2153   61.9492   60.1274 H   0  0  0  0  0  0  0  0  0  0  0  0
  -42.4015   62.6180   59.4971 H   0  0  0  0  0  0  0  0  0  0  0  0
  -43.0772   61.2305   60.3789 H   0  0  0  0  0  0  0  0  0  0  0  0
  -42.0054   59.7162   58.8717 H   0  0  0  0  0  0  0  0  0  0  0  0
  -41.3110   61.1001   57.9956 H   0  0  0  0  0  0  0  0  0  0  0  0
  -43.1820   60.1573   56.8154 H   0  0  0  0  0  0  0  0  0  0  0  0
  -43.4773   61.8274   57.3919 H   0  0  0  0  0  0  0  0  0  0  0  0
  -45.4521   60.4582   57.5682 H   0  0  0  0  0  0  0  0  0  0  0  0
  -44.8432   61.0179   59.1349 H   0  0  0  0  0  0  0  0  0  0  0  0
  -44.4734   58.2956   57.9909 H   0  0  0  0  0  0  0  0  0  0  0  0
  -45.5786   58.7355   59.2708 H   0  0  0  0  0  0  0  0  0  0  0  0
  -43.8543   58.8638   59.5229 H   0  0  0  0  0  0  0  0  0  0  0  0
  1  9  1  0  0  0  0
  1 11  1  0  0  0  0
  1 13  1  0  0  0  0
  1 15  1  0  0  0  0
  2  3  1  0  0  0  0
  2  5  1  0  0  0  0
  2 17  1  0  0  0  0
  2 36  1  1  0  0  0
  3 37  1  0  0  0  0
  4  6  1  0  0  0  0
  4  8  2  1  0  0  0
  4 10  1  0  0  0  0
  4 12  1  0  0  0  0
  5  6  1  0  0  0  0
  5 38  1  0  0  0  0
  5 39  1  0  0  0  0
  7  9  1  0  0  0  0
  7 10  1  0  0  0  0
  7 40  1  0  0  0  0
  7 41  1  0  0  0  0
  9 42  1  0  0  0  0
  9 43  1  0  0  0  0
 11 44  1  0  0  0  0
 11 45  1  0  0  0  0
 11 46  1  0  0  0  0
 12 47  1  0  0  0  0
 13 48  1  0  0  0  0
 13 49  1  0  0  0  0
 13 50  1  0  0  0  0
 14 17  1  0  0  0  0
 14 18  1  0  0  0  0
 15 51  1  0  0  0  0
 15 52  1  0  0  0  0
 15 53  1  0  0  0  0
 16 18  2  0  0  0  0
 17 54  1  0  0  0  0
 17 55  1  0  0  0  0
 18 19  1  0  0  0  0
 19 20  1  0  0  0  0
 19 56  1  0  0  0  0
 19 57  1  0  0  0  0
 20 21  1  0  0  0  0
 20 58  1  0  0  0  0
 20 59  1  0  0  0  0
 21 22  1  0  0  0  0
 21 60  1  0  0  0  0
 21 61  1  0  0  0  0
 22 23  1  0  0  0  0
 22 62  1  0  0  0  0
 22 63  1  0  0  0  0
 23 24  1  0  0  0  0
 23 64  1  0  0  0  0
 23 65  1  0  0  0  0
 24 25  1  0  0  0  0
 24 66  1  0  0  0  0
 24 67  1  0  0  0  0
 25 26  1  0  0  0  0
 25 68  1  0  0  0  0
 25 69  1  0  0  0  0
 26 27  2  0  0  0  0
 26 70  1  0  0  0  0
 27 28  1  0  0  0  0
 27 71  1  0  0  0  0
 28 29  1  0  0  0  0
 28 72  1  0  0  0  0
 28 73  1  0  0  0  0
 29 30  1  0  0  0  0
 29 74  1  0  0  0  0
 29 75  1  0  0  0  0
 30 31  1  0  0  0  0
 30 76  1  0  0  0  0
 30 77  1  0  0  0  0
 31 32  1  0  0  0  0
 31 78  1  0  0  0  0
 31 79  1  0  0  0  0
 32 33  1  0  0  0  0
 32 80  1  0  0  0  0
 32 81  1  0  0  0  0
 33 34  1  0  0  0  0
 33 82  1  0  0  0  0
 33 83  1  0  0  0  0
 34 35  1  0  0  0  0
 34 84  1  0  0  0  0
 34 85  1  0  0  0  0
 35 86  1  0  0  0  0
 35 87  1  0  0  0  0
 35 88  1  0  0  0  0
M  CHG  1   8  -1
M  END
$$$$
/media/chris/experiments/cd1a-new-docking/inputs/ligands/4x6e_ligand.pdb
 OpenBabel07012320273D

 88 87  0  0  1  0  0  0  0  0999 V2000
  -40.2149   65.2533   64.2237 N   0  0  0  0  0  4  0  0  0  0  0  0
  -37.9795   60.4021   68.8417 C   0  0  1  0  0  0  0  0  0  0  0  0
  -36.8177   60.2276   69.6639 O   0  0  0  0  0  0  0  0  0  0  0  0
  -36.4278   62.4685   66.7096 P   0  0  1  0  0  0  0  0  0  0  0  0
  -37.6405   60.0521   67.4117 C   0  0  0  0  0  0  0  0  0  0  0  0
  -36.5715   60.8806   66.8938 O   0  0  0  0  0  0  0  0  0  0  0  0
  -38.2576   63.9434   65.2604 C   0  0  0  0  0  0  0  0  0  0  0  0
  -35.5229   62.7297   65.5066 O   0  5  0  0  0  0  0  0  0  0  0  0
  -39.6743   64.4459   65.3893 C   0  0  0  0  0  0  0  0  0  0  0  0
  -37.8870   63.1775   66.4390 O   0  0  0  0  0  0  0  0  0  0  0  0
  -39.3729   66.4668   63.9919 C   0  0  0  0  0  0  0  0  0  0  0  0
  -35.7804   63.0288   67.9159 O   0  0  0  0  0  0  0  0  0  0  0  0
  -41.6081   65.6835   64.5465 C   0  0  0  0  0  0  0  0  0  0  0  0
  -40.3223   59.7546   68.5465 O   0  0  0  0  0  0  0  0  0  0  0  0
  -40.2275   64.4252   62.9704 C   0  0  0  0  0  0  0  0  0  0  0  0
  -39.2500   58.8962   66.7672 O   0  0  0  0  0  0  0  0  0  0  0  0
  -39.1486   59.6013   69.3747 C   0  0  0  0  0  0  0  0  0  0  0  0
  -40.2402   59.3661   67.2706 C   0  0  0  0  0  0  0  0  0  0  0  0
  -41.5470   59.5850   66.5720 C   0  0  0  0  0  0  0  0  0  0  0  0
  -42.4780   58.3810   66.6510 C   0  0  0  0  0  0  0  0  0  0  0  0
  -43.8050   58.5690   65.9360 C   0  0  0  0  0  0  0  0  0  0  0  0
  -44.7241   57.3648   66.0412 C   0  0  0  0  0  0  0  0  0  0  0  0
  -45.0954   57.0268   67.4749 C   0  0  0  0  0  0  0  0  0  0  0  0
  -45.8277   58.1599   68.1584 C   0  0  0  0  0  0  0  0  0  0  0  0
  -46.2114   57.8902   69.5993 C   0  0  0  0  0  0  0  0  0  0  0  0
  -46.9418   59.0031   70.2475 C   0  0  0  0  0  0  0  0  0  0  0  0
  -46.8144   60.2832   69.9650 C   0  0  0  0  0  0  0  0  0  0  0  0
  -45.9470   60.8938   68.9127 C   0  0  0  0  0  0  0  0  0  0  0  0
  -44.9387   61.8505   69.5512 C   0  0  0  0  0  0  0  0  0  0  0  0
  -43.9818   61.2174   70.5507 C   0  0  0  0  0  0  0  0  0  0  0  0
  -42.9921   62.1810   71.1943 C   0  0  0  0  0  0  0  0  0  0  0  0
  -42.0915   62.8909   70.1888 C   0  0  0  0  0  0  0  0  0  0  0  0
  -41.0905   63.8408   70.8271 C   0  0  0  0  0  0  0  0  0  0  0  0
  -41.6956   64.9645   71.6552 C   0  0  0  0  0  0  0  0  0  0  0  0
  -42.6121   65.8422   70.8595 C   0  0  0  0  0  0  0  0  0  0  0  0
  -38.2845   61.4274   68.8663 H   0  0  0  0  0  0  0  0  0  0  0  0
  -36.5420   59.2979   69.6410 H   0  0  0  0  0  0  0  0  0  0  0  0
  -38.5111   60.1912   66.8054 H   0  0  0  0  0  0  0  0  0  0  0  0
  -37.3132   59.0337   67.3874 H   0  0  0  0  0  0  0  0  0  0  0  0
  -37.5948   64.7771   65.1581 H   0  0  0  0  0  0  0  0  0  0  0  0
  -38.1879   63.3131   64.3986 H   0  0  0  0  0  0  0  0  0  0  0  0
  -40.3105   63.5953   65.5183 H   0  0  0  0  0  0  0  0  0  0  0  0
  -39.6609   65.1209   66.2194 H   0  0  0  0  0  0  0  0  0  0  0  0
  -39.3568   67.0646   64.8791 H   0  0  0  0  0  0  0  0  0  0  0  0
  -39.7837   67.0370   63.1850 H   0  0  0  0  0  0  0  0  0  0  0  0
  -38.3757   66.1672   63.7455 H   0  0  0  0  0  0  0  0  0  0  0  0
  -34.9235   62.5955   68.0537 H   0  0  0  0  0  0  0  0  0  0  0  0
  -41.6015   66.2736   65.4390 H   0  0  0  0  0  0  0  0  0  0  0  0
  -42.2228   64.8202   64.6942 H   0  0  0  0  0  0  0  0  0  0  0  0
  -41.9983   66.2649   63.7374 H   0  0  0  0  0  0  0  0  0  0  0  0
  -39.2301   64.1159   62.7373 H   0  0  0  0  0  0  0  0  0  0  0  0
  -40.6185   65.0074   62.1623 H   0  0  0  0  0  0  0  0  0  0  0  0
  -40.8430   63.5627   63.1191 H   0  0  0  0  0  0  0  0  0  0  0  0
  -39.3765   59.9370   70.3648 H   0  0  0  0  0  0  0  0  0  0  0  0
  -38.8728   58.5674   69.3748 H   0  0  0  0  0  0  0  0  0  0  0  0
  -41.3508   59.7963   65.5416 H   0  0  0  0  0  0  0  0  0  0  0  0
  -42.0377   60.3996   67.0625 H   0  0  0  0  0  0  0  0  0  0  0  0
  -42.6787   58.1797   67.6825 H   0  0  0  0  0  0  0  0  0  0  0  0
  -41.9769   57.5734   66.1596 H   0  0  0  0  0  0  0  0  0  0  0  0
  -43.6088   58.7562   64.9009 H   0  0  0  0  0  0  0  0  0  0  0  0
  -44.3043   59.3890   66.4084 H   0  0  0  0  0  0  0  0  0  0  0  0
  -44.2305   56.5199   65.6083 H   0  0  0  0  0  0  0  0  0  0  0  0
  -45.6292   57.6059   65.5239 H   0  0  0  0  0  0  0  0  0  0  0  0
  -44.2003   56.8156   68.0218 H   0  0  0  0  0  0  0  0  0  0  0  0
  -45.7484   56.1795   67.4537 H   0  0  0  0  0  0  0  0  0  0  0  0
  -46.7230   58.3584   67.6070 H   0  0  0  0  0  0  0  0  0  0  0  0
  -45.1511   58.9886   68.1767 H   0  0  0  0  0  0  0  0  0  0  0  0
  -45.3169   57.7053   70.1565 H   0  0  0  0  0  0  0  0  0  0  0  0
  -46.8733   57.0495   69.5907 H   0  0  0  0  0  0  0  0  0  0  0  0
  -47.6132   58.7524   70.9900 H   0  0  0  0  0  0  0  0  0  0  0  0
  -47.3758   60.9367   70.5331 H   0  0  0  0  0  0  0  0  0  0  0  0
  -46.5580   61.4343   68.2203 H   0  0  0  0  0  0  0  0  0  0  0  0
  -45.4171   60.1170   68.4020 H   0  0  0  0  0  0  0  0  0  0  0  0
  -45.4863   62.6172   70.0583 H   0  0  0  0  0  0  0  0  0  0  0  0
  -44.3300   62.2153   68.7503 H   0  0  0  0  0  0  0  0  0  0  0  0
  -43.4239   60.4593   70.0418 H   0  0  0  0  0  0  0  0  0  0  0  0
  -44.5886   60.8369   71.3457 H   0  0  0  0  0  0  0  0  0  0  0  0
  -42.3742   61.6293   71.8717 H   0  0  0  0  0  0  0  0  0  0  0  0
  -43.5656   62.9358   71.6904 H   0  0  0  0  0  0  0  0  0  0  0  0
  -42.7095   63.4517   69.5191 H   0  0  0  0  0  0  0  0  0  0  0  0
  -41.5266   62.1335   69.6865 H   0  0  0  0  0  0  0  0  0  0  0  0
  -40.5095   64.2829   70.0449 H   0  0  0  0  0  0  0  0  0  0  0  0
  -40.5148   63.2493   71.5079 H   0  0  0  0  0  0  0  0  0  0  0  0
  -40.9021   65.5654   72.0479 H   0  0  0  0  0  0  0  0  0  0  0  0
  -42.2753   64.5149   72.4342 H   0  0  0  0  0  0  0  0  0  0  0  0
  -42.0621   66.3088   70.0693 H   0  0  0  0  0  0  0  0  0  0  0  0
  -43.0282   66.5942   71.4969 H   0  0  0  0  0  0  0  0  0  0  0  0
  -43.4009   65.2505   70.4441 H   0  0  0  0  0  0  0  0  0  0  0  0
  1  9  1  0  0  0  0
  1 11  1  0  0  0  0
  1 13  1  0  0  0  0
  1 15  1  0  0  0  0
  2  3  1  0  0  0  0
  2  5  1  0  0  0  0
  2 17  1  0  0  0  0
  2 36  1  1  0  0  0
  3 37  1  0  0  0  0
  4  6  1  0  0  0  0
  4  8  2  6  0  0  0
  4 10  1  0  0  0  0
  4 12  1  0  0  0  0
  5  6  1  0  0  0  0
  5 38  1  0  0  0  0
  5 39  1  0  0  0  0
  7  9  1  0  0  0  0
  7 10  1  0  0  0  0
  7 40  1  0  0  0  0
  7 41  1  0  0  0  0
  9 42  1  0  0  0  0
  9 43  1  0  0  0  0
 11 44  1  0  0  0  0
 11 45  1  0  0  0  0
 11 46  1  0  0  0  0
 12 47  1  0  0  0  0
 13 48  1  0  0  0  0
 13 49  1  0  0  0  0
 13 50  1  0  0  0  0
 14 17  1  0  0  0  0
 14 18  1  0  0  0  0
 15 51  1  0  0  0  0
 15 52  1  0  0  0  0
 15 53  1  0  0  0  0
 16 18  2  0  0  0  0
 17 54  1  0  0  0  0
 17 55  1  0  0  0  0
 18 19  1  0  0  0  0
 19 20  1  0  0  0  0
 19 56  1  0  0  0  0
 19 57  1  0  0  0  0
 20 21  1  0  0  0  0
 20 58  1  0  0  0  0
 20 59  1  0  0  0  0
 21 22  1  0  0  0  0
 21 60  1  0  0  0  0
 21 61  1  0  0  0  0
 22 23  1  0  0  0  0
 22 62  1  0  0  0  0
 22 63  1  0  0  0  0
 23 24  1  0  0  0  0
 23 64  1  0  0  0  0
 23 65  1  0  0  0  0
 24 25  1  0  0  0  0
 24 66  1  0  0  0  0
 24 67  1  0  0  0  0
 25 26  1  0  0  0  0
 25 68  1  0  0  0  0
 25 69  1  0  0  0  0
 26 27  2  0  0  0  0
 26 70  1  0  0  0  0
 27 28  1  0  0  0  0
 27 71  1  0  0  0  0
 28 29  1  0  0  0  0
 28 72  1  0  0  0  0
 28 73  1  0  0  0  0
 29 30  1  0  0  0  0
 29 74  1  0  0  0  0
 29 75  1  0  0  0  0
 30 31  1  0  0  0  0
 30 76  1  0  0  0  0
 30 77  1  0  0  0  0
 31 32  1  0  0  0  0
 31 78  1  0  0  0  0
 31 79  1  0  0  0  0
 32 33  1  0  0  0  0
 32 80  1  0  0  0  0
 32 81  1  0  0  0  0
 33 34  1  0  0  0  0
 33 82  1  0  0  0  0
 33 83  1  0  0  0  0
 34 35  1  0  0  0  0
 34 84  1  0  0  0  0
 34 85  1  0  0  0  0
 35 86  1  0  0  0  0
 35 87  1  0  0  0  0
 35 88  1  0  0  0  0
M  CHG  1   8  -1
M  END
$$$$
/media/chris/experiments/cd1a-new-docking/inputs/ligands/4x6e_ligand.pdb
 OpenBabel07012320273D

 88 87  0  0  1  0  0  0  0  0999 V2000
  -45.5765   61.1338   69.6708 N   0  0  0  0  0  4  0  0  0  0  0  0
  -41.5607   62.8807   64.1239 C   0  0  1  0  0  0  0  0  0  0  0  0
  -41.6032   63.7453   62.9806 O   0  0  0  0  0  0  0  0  0  0  0  0
  -45.5537   62.9564   64.6754 P   0  0  1  0  0  0  0  0  0  0  0  0
  -42.8959   62.1920   64.2831 C   0  0  0  0  0  0  0  0  0  0  0  0
  -43.9749   63.1426   64.4546 O   0  0  0  0  0  0  0  0  0  0  0  0
  -45.4308   61.8600   67.2064 C   0  0  0  0  0  0  0  0  0  0  0  0
  -45.9828   61.6621   63.9865 O   0  5  0  0  0  0  0  0  0  0  0  0
  -46.0177   62.0889   68.5773 C   0  0  0  0  0  0  0  0  0  0  0  0
  -45.9303   62.8564   66.2733 O   0  0  0  0  0  0  0  0  0  0  0  0
  -46.2489   61.4703   70.9630 C   0  0  0  0  0  0  0  0  0  0  0  0
  -46.2585   64.0874   64.0332 O   0  0  0  0  0  0  0  0  0  0  0  0
  -44.0986   61.2584   69.8457 C   0  0  0  0  0  0  0  0  0  0  0  0
  -40.3646   61.0134   65.1616 O   0  0  0  0  0  0  0  0  0  0  0  0
  -45.9162   59.7178   69.3017 C   0  0  0  0  0  0  0  0  0  0  0  0
  -41.5829   59.4037   64.1731 O   0  0  0  0  0  0  0  0  0  0  0  0
  -40.4099   61.9021   64.0237 C   0  0  0  0  0  0  0  0  0  0  0  0
  -41.1924   59.9644   65.1670 C   0  0  0  0  0  0  0  0  0  0  0  0
  -41.5470   59.5850   66.5720 C   0  0  0  0  0  0  0  0  0  0  0  0
  -42.4780   58.3810   66.6510 C   0  0  0  0  0  0  0  0  0  0  0  0
  -43.8050   58.5690   65.9360 C   0  0  0  0  0  0  0  0  0  0  0  0
  -43.6578   58.8291   64.4471 C   0  0  0  0  0  0  0  0  0  0  0  0
  -42.9740   57.6892   63.7118 C   0  0  0  0  0  0  0  0  0  0  0  0
  -42.8204   57.9723   62.2340 C   0  0  0  0  0  0  0  0  0  0  0  0
  -41.9877   59.1947   61.9049 C   0  0  0  0  0  0  0  0  0  0  0  0
  -40.5915   59.1225   62.3923 C   0  0  0  0  0  0  0  0  0  0  0  0
  -39.6952   58.2212   62.0474 C   0  0  0  0  0  0  0  0  0  0  0  0
  -39.8667   57.1056   61.0683 C   0  0  0  0  0  0  0  0  0  0  0  0
  -38.5812   56.2817   60.9781 C   0  0  0  0  0  0  0  0  0  0  0  0
  -38.6195   55.1189   59.9974 C   0  0  0  0  0  0  0  0  0  0  0  0
  -39.6971   54.0776   60.2746 C   0  0  0  0  0  0  0  0  0  0  0  0
  -39.5749   53.4252   61.6477 C   0  0  0  0  0  0  0  0  0  0  0  0
  -40.6377   52.3733   61.9227 C   0  0  0  0  0  0  0  0  0  0  0  0
  -40.6441   51.1887   60.9680 C   0  0  0  0  0  0  0  0  0  0  0  0
  -40.8580   51.5945   59.5422 C   0  0  0  0  0  0  0  0  0  0  0  0
  -41.3826   63.4612   65.0050 H   0  0  0  0  0  0  0  0  0  0  0  0
  -41.7647   63.2182   62.1825 H   0  0  0  0  0  0  0  0  0  0  0  0
  -42.8564   61.5544   65.1415 H   0  0  0  0  0  0  0  0  0  0  0  0
  -43.0874   61.6286   63.3938 H   0  0  0  0  0  0  0  0  0  0  0  0
  -45.7058   60.8848   66.8627 H   0  0  0  0  0  0  0  0  0  0  0  0
  -44.3654   61.9400   67.2652 H   0  0  0  0  0  0  0  0  0  0  0  0
  -45.7517   63.0790   68.8837 H   0  0  0  0  0  0  0  0  0  0  0  0
  -47.0693   61.9256   68.4660 H   0  0  0  0  0  0  0  0  0  0  0  0
  -46.0136   62.4778   71.2357 H   0  0  0  0  0  0  0  0  0  0  0  0
  -45.9062   60.8045   71.7273 H   0  0  0  0  0  0  0  0  0  0  0  0
  -47.3082   61.3693   70.8507 H   0  0  0  0  0  0  0  0  0  0  0  0
  -46.0205   64.1250   63.0936 H   0  0  0  0  0  0  0  0  0  0  0  0
  -43.8543   62.2664   70.1086 H   0  0  0  0  0  0  0  0  0  0  0  0
  -43.6080   60.9996   68.9307 H   0  0  0  0  0  0  0  0  0  0  0  0
  -43.7745   60.5985   70.6231 H   0  0  0  0  0  0  0  0  0  0  0  0
  -46.9748   59.6262   69.1759 H   0  0  0  0  0  0  0  0  0  0  0  0
  -45.5911   59.0588   70.0795 H   0  0  0  0  0  0  0  0  0  0  0  0
  -45.4246   59.4599   68.3870 H   0  0  0  0  0  0  0  0  0  0  0  0
  -39.4920   62.4498   63.9745 H   0  0  0  0  0  0  0  0  0  0  0  0
  -40.5505   61.3104   63.1433 H   0  0  0  0  0  0  0  0  0  0  0  0
  -42.0288   60.4189   67.0383 H   0  0  0  0  0  0  0  0  0  0  0  0
  -40.6378   59.3175   67.0687 H   0  0  0  0  0  0  0  0  0  0  0  0
  -42.6787   58.1797   67.6825 H   0  0  0  0  0  0  0  0  0  0  0  0
  -41.9769   57.5734   66.1596 H   0  0  0  0  0  0  0  0  0  0  0  0
  -44.3126   59.4014   66.3769 H   0  0  0  0  0  0  0  0  0  0  0  0
  -44.3534   57.6566   66.0440 H   0  0  0  0  0  0  0  0  0  0  0  0
  -43.0787   59.7186   64.3117 H   0  0  0  0  0  0  0  0  0  0  0  0
  -44.6423   58.9284   64.0400 H   0  0  0  0  0  0  0  0  0  0  0  0
  -43.5582   56.8011   63.8335 H   0  0  0  0  0  0  0  0  0  0  0  0
  -41.9948   57.5716   64.1269 H   0  0  0  0  0  0  0  0  0  0  0  0
  -43.7965   58.1127   61.8187 H   0  0  0  0  0  0  0  0  0  0  0  0
  -42.3019   57.1336   61.8187 H   0  0  0  0  0  0  0  0  0  0  0  0
  -42.4549   60.0491   62.3483 H   0  0  0  0  0  0  0  0  0  0  0  0
  -41.9398   59.2579   60.8379 H   0  0  0  0  0  0  0  0  0  0  0  0
  -40.2928   59.8459   63.0650 H   0  0  0  0  0  0  0  0  0  0  0  0
  -38.7724   58.2935   62.5038 H   0  0  0  0  0  0  0  0  0  0  0  0
  -40.0946   57.5122   60.1051 H   0  0  0  0  0  0  0  0  0  0  0  0
  -40.6654   56.4730   61.3952 H   0  0  0  0  0  0  0  0  0  0  0  0
  -38.3731   55.8869   61.9505 H   0  0  0  0  0  0  0  0  0  0  0  0
  -37.8278   56.9492   60.6151 H   0  0  0  0  0  0  0  0  0  0  0  0
  -37.6689   54.6286   60.0266 H   0  0  0  0  0  0  0  0  0  0  0  0
  -38.8506   55.5412   59.0418 H   0  0  0  0  0  0  0  0  0  0  0  0
  -39.6287   53.3130   59.5292 H   0  0  0  0  0  0  0  0  0  0  0  0
  -40.6386   54.5854   60.2504 H   0  0  0  0  0  0  0  0  0  0  0  0
  -39.6553   54.1890   62.3927 H   0  0  0  0  0  0  0  0  0  0  0  0
  -38.6284   52.9269   61.6735 H   0  0  0  0  0  0  0  0  0  0  0  0
  -41.5949   52.8481   61.8663 H   0  0  0  0  0  0  0  0  0  0  0  0
  -40.4134   51.9724   62.8891 H   0  0  0  0  0  0  0  0  0  0  0  0
  -41.4302   50.5221   61.2555 H   0  0  0  0  0  0  0  0  0  0  0  0
  -39.6843   50.7199   61.0294 H   0  0  0  0  0  0  0  0  0  0  0  0
  -41.8125   52.0684   59.4455 H   0  0  0  0  0  0  0  0  0  0  0  0
  -40.8251   50.7276   58.9158 H   0  0  0  0  0  0  0  0  0  0  0  0
  -40.0892   52.2775   59.2465 H   0  0  0  0  0  0  0  0  0  0  0  0
  1  9  1  0  0  0  0
  1 11  1  0  0  0  0
  1 13  1  0  0  0  0
  1 15  1  0  0  0  0
  2  3  1  0  0  0  0
  2  5  1  0  0  0  0
  2 17  1  0  0  0  0
  2 36  1  1  0  0  0
  3 37  1  0  0  0  0
  4  6  1  0  0  0  0
  4  8  2  6  0  0  0
  4 10  1  0  0  0  0
  4 12  1  0  0  0  0
  5  6  1  0  0  0  0
  5 38  1  0  0  0  0
  5 39  1  0  0  0  0
  7  9  1  0  0  0  0
  7 10  1  0  0  0  0
  7 40  1  0  0  0  0
  7 41  1  0  0  0  0
  9 42  1  0  0  0  0
  9 43  1  0  0  0  0
 11 44  1  0  0  0  0
 11 45  1  0  0  0  0
 11 46  1  0  0  0  0
 12 47  1  0  0  0  0
 13 48  1  0  0  0  0
 13 49  1  0  0  0  0
 13 50  1  0  0  0  0
 14 17  1  0  0  0  0
 14 18  1  0  0  0  0
 15 51  1  0  0  0  0
 15 52  1  0  0  0  0
 15 53  1  0  0  0  0
 16 18  2  0  0  0  0
 17 54  1  0  0  0  0
 17 55  1  0  0  0  0
 18 19  1  0  0  0  0
 19 20  1  0  0  0  0
 19 56  1  0  0  0  0
 19 57  1  0  0  0  0
 20 21  1  0  0  0  0
 20 58  1  0  0  0  0
 20 59  1  0  0  0  0
 21 22  1  0  0  0  0
 21 60  1  0  0  0  0
 21 61  1  0  0  0  0
 22 23  1  0  0  0  0
 22 62  1  0  0  0  0
 22 63  1  0  0  0  0
 23 24  1  0  0  0  0
 23 64  1  0  0  0  0
 23 65  1  0  0  0  0
 24 25  1  0  0  0  0
 24 66  1  0  0  0  0
 24 67  1  0  0  0  0
 25 26  1  0  0  0  0
 25 68  1  0  0  0  0
 25 69  1  0  0  0  0
 26 27  2  0  0  0  0
 26 70  1  0  0  0  0
 27 28  1  0  0  0  0
 27 71  1  0  0  0  0
 28 29  1  0  0  0  0
 28 72  1  0  0  0  0
 28 73  1  0  0  0  0
 29 30  1  0  0  0  0
 29 74  1  0  0  0  0
 29 75  1  0  0  0  0
 30 31  1  0  0  0  0
 30 76  1  0  0  0  0
 30 77  1  0  0  0  0
 31 32  1  0  0  0  0
 31 78  1  0  0  0  0
 31 79  1  0  0  0  0
 32 33  1  0  0  0  0
 32 80  1  0  0  0  0
 32 81  1  0  0  0  0
 33 34  1  0  0  0  0
 33 82  1  0  0  0  0
 33 83  1  0  0  0  0
 34 35  1  0  0  0  0
 34 84  1  0  0  0  0
 34 85  1  0  0  0  0
 35 86  1  0  0  0  0
 35 87  1  0  0  0  0
 35 88  1  0  0  0  0
M  CHG  1   8  -1
M  END
$$$$
/media/chris/experiments/cd1a-new-docking/inputs/ligands/4x6e_ligand.pdb
 OpenBabel07012320273D

 88 87  0  0  1  0  0  0  0  0999 V2000
  -49.4471   60.7459   67.8002 N   0  0  0  0  0  4  0  0  0  0  0  0
  -42.7938   59.7489   70.4040 C   0  0  1  0  0  0  0  0  0  0  0  0
  -41.5663   59.7777   71.1449 O   0  0  0  0  0  0  0  0  0  0  0  0
  -45.8557   58.5958   69.6359 P   0  0  1  0  0  0  0  0  0  0  0  0
  -43.9593   59.7000   71.3640 C   0  0  0  0  0  0  0  0  0  0  0  0
  -45.2284   59.6528   70.6679 O   0  0  0  0  0  0  0  0  0  0  0  0
  -48.3079   59.8325   69.9190 C   0  0  0  0  0  0  0  0  0  0  0  0
  -45.9593   57.2442   70.3407 O   0  5  0  0  0  0  0  0  0  0  0  0
  -49.5802   60.0339   69.1336 C   0  0  0  0  0  0  0  0  0  0  0  0
  -47.3568   59.0533   69.1436 O   0  0  0  0  0  0  0  0  0  0  0  0
  -48.5524   59.9763   66.8824 C   0  0  0  0  0  0  0  0  0  0  0  0
  -44.9381   58.4566   68.4839 O   0  0  0  0  0  0  0  0  0  0  0  0
  -48.8541   62.0960   68.0370 C   0  0  0  0  0  0  0  0  0  0  0  0
  -41.8036   60.8958   68.4808 O   0  0  0  0  0  0  0  0  0  0  0  0
  -50.7921   60.9005   67.1493 C   0  0  0  0  0  0  0  0  0  0  0  0
  -42.7891   61.6453   66.6047 O   0  0  0  0  0  0  0  0  0  0  0  0
  -42.8785   60.9179   69.4456 C   0  0  0  0  0  0  0  0  0  0  0  0
  -42.1287   60.8209   67.1868 C   0  0  0  0  0  0  0  0  0  0  0  0
  -41.5470   59.5850   66.5720 C   0  0  0  0  0  0  0  0  0  0  0  0
  -42.4780   58.3810   66.6510 C   0  0  0  0  0  0  0  0  0  0  0  0
  -43.8050   58.5690   65.9360 C   0  0  0  0  0  0  0  0  0  0  0  0
  -44.6170   59.7376   66.4663 C   0  0  0  0  0  0  0  0  0  0  0  0
  -45.9487   59.9044   65.7548 C   0  0  0  0  0  0  0  0  0  0  0  0
  -45.7790   60.1306   64.2690 C   0  0  0  0  0  0  0  0  0  0  0  0
  -47.0730   60.3215   63.5040 C   0  0  0  0  0  0  0  0  0  0  0  0
  -46.8892   60.5251   62.0490 C   0  0  0  0  0  0  0  0  0  0  0  0
  -47.2653   61.5829   61.3603 C   0  0  0  0  0  0  0  0  0  0  0  0
  -47.9169   62.8195   61.8883 C   0  0  0  0  0  0  0  0  0  0  0  0
  -49.2850   63.0149   61.2327 C   0  0  0  0  0  0  0  0  0  0  0  0
  -50.2870   61.8942   61.4685 C   0  0  0  0  0  0  0  0  0  0  0  0
  -51.6414   62.0893   60.7978 C   0  0  0  0  0  0  0  0  0  0  0  0
  -52.6248   60.9558   61.0698 C   0  0  0  0  0  0  0  0  0  0  0  0
  -53.9721   61.1374   60.3889 C   0  0  0  0  0  0  0  0  0  0  0  0
  -54.7308   62.3991   60.7720 C   0  0  0  0  0  0  0  0  0  0  0  0
  -56.0553   62.5112   60.0815 C   0  0  0  0  0  0  0  0  0  0  0  0
  -42.8269   58.8658   69.8007 H   0  0  0  0  0  0  0  0  0  0  0  0
  -41.5372   60.5785   71.6914 H   0  0  0  0  0  0  0  0  0  0  0  0
  -43.9356   60.5732   71.9820 H   0  0  0  0  0  0  0  0  0  0  0  0
  -43.8690   58.8102   71.9514 H   0  0  0  0  0  0  0  0  0  0  0  0
  -48.5320   59.3139   70.8277 H   0  0  0  0  0  0  0  0  0  0  0  0
  -47.8790   60.7876   70.1395 H   0  0  0  0  0  0  0  0  0  0  0  0
  -50.0027   59.0689   68.9461 H   0  0  0  0  0  0  0  0  0  0  0  0
  -50.1874   60.6752   69.7377 H   0  0  0  0  0  0  0  0  0  0  0  0
  -47.5905   59.8601   67.3365 H   0  0  0  0  0  0  0  0  0  0  0  0
  -48.4489   60.5057   65.9583 H   0  0  0  0  0  0  0  0  0  0  0  0
  -48.9774   59.0123   66.6955 H   0  0  0  0  0  0  0  0  0  0  0  0
  -44.0615   58.1867   68.7995 H   0  0  0  0  0  0  0  0  0  0  0  0
  -47.8958   61.9883   68.5007 H   0  0  0  0  0  0  0  0  0  0  0  0
  -49.4986   62.6613   68.6773 H   0  0  0  0  0  0  0  0  0  0  0  0
  -48.7430   62.6056   67.1028 H   0  0  0  0  0  0  0  0  0  0  0  0
  -51.2189   59.9342   66.9786 H   0  0  0  0  0  0  0  0  0  0  0  0
  -50.6799   61.4108   66.2155 H   0  0  0  0  0  0  0  0  0  0  0  0
  -51.4355   61.4665   67.7900 H   0  0  0  0  0  0  0  0  0  0  0  0
  -42.8247   61.8289   70.0041 H   0  0  0  0  0  0  0  0  0  0  0  0
  -43.8050   60.8480   68.9149 H   0  0  0  0  0  0  0  0  0  0  0  0
  -40.6379   59.3462   67.0832 H   0  0  0  0  0  0  0  0  0  0  0  0
  -41.3821   59.7924   65.5353 H   0  0  0  0  0  0  0  0  0  0  0  0
  -42.6787   58.1797   67.6825 H   0  0  0  0  0  0  0  0  0  0  0  0
  -41.9769   57.5734   66.1596 H   0  0  0  0  0  0  0  0  0  0  0  0
  -44.3819   57.6753   66.0516 H   0  0  0  0  0  0  0  0  0  0  0  0
  -43.5836   58.7785   64.9103 H   0  0  0  0  0  0  0  0  0  0  0  0
  -44.0475   60.6344   66.3391 H   0  0  0  0  0  0  0  0  0  0  0  0
  -44.8265   59.5410   67.4970 H   0  0  0  0  0  0  0  0  0  0  0  0
  -46.4608   60.7448   66.1749 H   0  0  0  0  0  0  0  0  0  0  0  0
  -46.5071   59.0014   65.8876 H   0  0  0  0  0  0  0  0  0  0  0  0
  -45.2718   59.2825   63.8588 H   0  0  0  0  0  0  0  0  0  0  0  0
  -45.2293   61.0425   64.1637 H   0  0  0  0  0  0  0  0  0  0  0  0
  -47.5761   61.1776   63.9025 H   0  0  0  0  0  0  0  0  0  0  0  0
  -47.6372   59.4199   63.6211 H   0  0  0  0  0  0  0  0  0  0  0  0
  -46.4230   59.7676   61.5258 H   0  0  0  0  0  0  0  0  0  0  0  0
  -47.0905   61.5545   60.3436 H   0  0  0  0  0  0  0  0  0  0  0  0
  -47.2976   63.6651   61.6732 H   0  0  0  0  0  0  0  0  0  0  0  0
  -48.0466   62.7222   62.9460 H   0  0  0  0  0  0  0  0  0  0  0  0
  -49.1352   63.1073   60.1773 H   0  0  0  0  0  0  0  0  0  0  0  0
  -49.7069   63.8880   61.6849 H   0  0  0  0  0  0  0  0  0  0  0  0
  -50.4480   61.8093   62.5229 H   0  0  0  0  0  0  0  0  0  0  0  0
  -49.8609   61.0153   61.0316 H   0  0  0  0  0  0  0  0  0  0  0  0
  -51.4889   62.1589   59.7410 H   0  0  0  0  0  0  0  0  0  0  0  0
  -52.0688   62.9812   61.2061 H   0  0  0  0  0  0  0  0  0  0  0  0
  -52.7858   60.8946   62.1259 H   0  0  0  0  0  0  0  0  0  0  0  0
  -52.1908   60.0632   60.6700 H   0  0  0  0  0  0  0  0  0  0  0  0
  -54.5840   60.2956   60.6376 H   0  0  0  0  0  0  0  0  0  0  0  0
  -53.7650   61.2235   59.3427 H   0  0  0  0  0  0  0  0  0  0  0  0
  -54.1356   63.2489   60.5102 H   0  0  0  0  0  0  0  0  0  0  0  0
  -54.9185   62.3555   61.8245 H   0  0  0  0  0  0  0  0  0  0  0  0
  -55.9031   62.5572   59.0234 H   0  0  0  0  0  0  0  0  0  0  0  0
  -56.5542   63.3993   60.4090 H   0  0  0  0  0  0  0  0  0  0  0  0
  -56.6547   61.6573   60.3189 H   0  0  0  0  0  0  0  0  0  0  0  0
  1  9  1  0  0  0  0
  1 11  1  0  0  0  0
  1 13  1  0  0  0  0
  1 15  1  0  0  0  0
  2  3  1  0  0  0  0
  2  5  1  0  0  0  0
  2 17  1  0  0  0  0
  2 36  1  6  0  0  0
  3 37  1  0  0  0  0
  4  6  1  0  0  0  0
  4  8  2  1  0  0  0
  4 10  1  0  0  0  0
  4 12  1  0  0  0  0
  5  6  1  0  0  0  0
  5 38  1  0  0  0  0
  5 39  1  0  0  0  0
  7  9  1  0  0  0  0
  7 10  1  0  0  0  0
  7 40  1  0  0  0  0
  7 41  1  0  0  0  0
  9 42  1  0  0  0  0
  9 43  1  0  0  0  0
 11 44  1  0  0  0  0
 11 45  1  0  0  0  0
 11 46  1  0  0  0  0
 12 47  1  0  0  0  0
 13 48  1  0  0  0  0
 13 49  1  0  0  0  0
 13 50  1  0  0  0  0
 14 17  1  0  0  0  0
 14 18  1  0  0  0  0
 15 51  1  0  0  0  0
 15 52  1  0  0  0  0
 15 53  1  0  0  0  0
 16 18  2  0  0  0  0
 17 54  1  0  0  0  0
 17 55  1  0  0  0  0
 18 19  1  0  0  0  0
 19 20  1  0  0  0  0
 19 56  1  0  0  0  0
 19 57  1  0  0  0  0
 20 21  1  0  0  0  0
 20 58  1  0  0  0  0
 20 59  1  0  0  0  0
 21 22  1  0  0  0  0
 21 60  1  0  0  0  0
 21 61  1  0  0  0  0
 22 23  1  0  0  0  0
 22 62  1  0  0  0  0
 22 63  1  0  0  0  0
 23 24  1  0  0  0  0
 23 64  1  0  0  0  0
 23 65  1  0  0  0  0
 24 25  1  0  0  0  0
 24 66  1  0  0  0  0
 24 67  1  0  0  0  0
 25 26  1  0  0  0  0
 25 68  1  0  0  0  0
 25 69  1  0  0  0  0
 26 27  2  0  0  0  0
 26 70  1  0  0  0  0
 27 28  1  0  0  0  0
 27 71  1  0  0  0  0
 28 29  1  0  0  0  0
 28 72  1  0  0  0  0
 28 73  1  0  0  0  0
 29 30  1  0  0  0  0
 29 74  1  0  0  0  0
 29 75  1  0  0  0  0
 30 31  1  0  0  0  0
 30 76  1  0  0  0  0
 30 77  1  0  0  0  0
 31 32  1  0  0  0  0
 31 78  1  0  0  0  0
 31 79  1  0  0  0  0
 32 33  1  0  0  0  0
 32 80  1  0  0  0  0
 32 81  1  0  0  0  0
 33 34  1  0  0  0  0
 33 82  1  0  0  0  0
 33 83  1  0  0  0  0
 34 35  1  0  0  0  0
 34 84  1  0  0  0  0
 34 85  1  0  0  0  0
 35 86  1  0  0  0  0
 35 87  1  0  0  0  0
 35 88  1  0  0  0  0
M  CHG  1   8  -1
M  END
$$$$
/media/chris/experiments/cd1a-new-docking/inputs/ligands/4x6e_ligand.pdb
 OpenBabel07012320273D

 88 87  0  0  1  0  0  0  0  0999 V2000
  -37.5852   62.4019   66.3665 N   0  0  0  0  0  4  0  0  0  0  0  0
  -39.0345   57.7798   64.6191 C   0  0  1  0  0  0  0  0  0  0  0  0
  -39.6285   56.5583   65.0789 O   0  0  0  0  0  0  0  0  0  0  0  0
  -36.1767   57.2748   66.2930 P   0  0  1  0  0  0  0  0  0  0  0  0
  -37.7067   57.4780   63.9648 C   0  0  0  0  0  0  0  0  0  0  0  0
  -36.7915   56.8275   64.8795 O   0  0  0  0  0  0  0  0  0  0  0  0
  -37.1078   59.8741   66.3045 C   0  0  0  0  0  0  0  0  0  0  0  0
  -34.7935   56.6416   66.4339 O   0  5  0  0  0  0  0  0  0  0  0  0
  -36.5676   61.2777   66.4237 C   0  0  0  0  0  0  0  0  0  0  0  0
  -36.0241   58.9094   66.3927 O   0  0  0  0  0  0  0  0  0  0  0  0
  -38.3356   62.3640   65.0740 C   0  0  0  0  0  0  0  0  0  0  0  0
  -37.0443   56.7553   67.3727 O   0  0  0  0  0  0  0  0  0  0  0  0
  -36.8631   63.7051   66.4706 C   0  0  0  0  0  0  0  0  0  0  0  0
  -41.2044   58.8877   64.3757 O   0  0  0  0  0  0  0  0  0  0  0  0
  -38.5646   62.2838   67.4994 C   0  0  0  0  0  0  0  0  0  0  0  0
  -40.9406   61.0815   64.7883 O   0  0  0  0  0  0  0  0  0  0  0  0
  -39.9765   58.5318   63.7029 C   0  0  0  0  0  0  0  0  0  0  0  0
  -41.1924   59.9644   65.1670 C   0  0  0  0  0  0  0  0  0  0  0  0
  -41.5470   59.5850   66.5720 C   0  0  0  0  0  0  0  0  0  0  0  0
  -42.4780   58.3810   66.6510 C   0  0  0  0  0  0  0  0  0  0  0  0
  -43.8050   58.5690   65.9360 C   0  0  0  0  0  0  0  0  0  0  0  0
  -43.6578   58.8291   64.4471 C   0  0  0  0  0  0  0  0  0  0  0  0
  -42.9740   57.6892   63.7118 C   0  0  0  0  0  0  0  0  0  0  0  0
  -43.7434   56.3921   63.8252 C   0  0  0  0  0  0  0  0  0  0  0  0
  -45.1447   56.4328   63.2503 C   0  0  0  0  0  0  0  0  0  0  0  0
  -45.8891   55.1600   63.3846 C   0  0  0  0  0  0  0  0  0  0  0  0
  -46.6617   54.8160   64.3943 C   0  0  0  0  0  0  0  0  0  0  0  0
  -46.9920   55.6362   65.5989 C   0  0  0  0  0  0  0  0  0  0  0  0
  -45.9755   55.3719   66.7108 C   0  0  0  0  0  0  0  0  0  0  0  0
  -46.2106   56.1375   68.0047 C   0  0  0  0  0  0  0  0  0  0  0  0
  -46.2068   57.6550   67.8651 C   0  0  0  0  0  0  0  0  0  0  0  0
  -46.4283   58.3886   69.1837 C   0  0  0  0  0  0  0  0  0  0  0  0
  -46.4423   59.9028   69.0472 C   0  0  0  0  0  0  0  0  0  0  0  0
  -47.5288   60.4654   68.1429 C   0  0  0  0  0  0  0  0  0  0  0  0
  -48.9092   60.1316   68.6187 C   0  0  0  0  0  0  0  0  0  0  0  0
  -38.8516   58.4248   65.4530 H   0  0  0  0  0  0  0  0  0  0  0  0
  -39.7940   55.9743   64.3223 H   0  0  0  0  0  0  0  0  0  0  0  0
  -37.2688   58.3953   63.6308 H   0  0  0  0  0  0  0  0  0  0  0  0
  -37.8837   56.8148   63.1440 H   0  0  0  0  0  0  0  0  0  0  0  0
  -37.6024   59.7647   65.3619 H   0  0  0  0  0  0  0  0  0  0  0  0
  -37.7984   59.6970   67.1023 H   0  0  0  0  0  0  0  0  0  0  0  0
  -36.0553   61.3503   67.3603 H   0  0  0  0  0  0  0  0  0  0  0  0
  -35.9448   61.4154   65.5646 H   0  0  0  0  0  0  0  0  0  0  0  0
  -37.6470   62.4474   64.2592 H   0  0  0  0  0  0  0  0  0  0  0  0
  -39.0287   63.1784   65.0399 H   0  0  0  0  0  0  0  0  0  0  0  0
  -38.8680   61.4390   64.9977 H   0  0  0  0  0  0  0  0  0  0  0  0
  -37.1184   55.7915   67.2924 H   0  0  0  0  0  0  0  0  0  0  0  0
  -36.1648   63.7913   65.6645 H   0  0  0  0  0  0  0  0  0  0  0  0
  -36.3392   63.7491   67.4025 H   0  0  0  0  0  0  0  0  0  0  0  0
  -37.5680   64.5084   66.4194 H   0  0  0  0  0  0  0  0  0  0  0  0
  -39.0831   61.3507   67.4268 H   0  0  0  0  0  0  0  0  0  0  0  0
  -39.2685   63.0880   67.4476 H   0  0  0  0  0  0  0  0  0  0  0  0
  -38.0397   62.3287   68.4307 H   0  0  0  0  0  0  0  0  0  0  0  0
  -40.2088   57.9136   62.8611 H   0  0  0  0  0  0  0  0  0  0  0  0
  -39.4918   59.4341   63.3934 H   0  0  0  0  0  0  0  0  0  0  0  0
  -42.0288   60.4189   67.0383 H   0  0  0  0  0  0  0  0  0  0  0  0
  -40.6378   59.3175   67.0687 H   0  0  0  0  0  0  0  0  0  0  0  0
  -42.6787   58.1797   67.6825 H   0  0  0  0  0  0  0  0  0  0  0  0
  -41.9769   57.5734   66.1596 H   0  0  0  0  0  0  0  0  0  0  0  0
  -44.3126   59.4014   66.3769 H   0  0  0  0  0  0  0  0  0  0  0  0
  -44.3534   57.6566   66.0440 H   0  0  0  0  0  0  0  0  0  0  0  0
  -43.0787   59.7186   64.3117 H   0  0  0  0  0  0  0  0  0  0  0  0
  -44.6423   58.9284   64.0400 H   0  0  0  0  0  0  0  0  0  0  0  0
  -41.9978   57.5481   64.1268 H   0  0  0  0  0  0  0  0  0  0  0  0
  -42.9229   57.9510   62.6756 H   0  0  0  0  0  0  0  0  0  0  0  0
  -43.8162   56.1377   64.8620 H   0  0  0  0  0  0  0  0  0  0  0  0
  -43.2026   55.6695   63.2505 H   0  0  0  0  0  0  0  0  0  0  0  0
  -45.0745   56.6731   62.2100 H   0  0  0  0  0  0  0  0  0  0  0  0
  -45.6864   57.1680   63.8079 H   0  0  0  0  0  0  0  0  0  0  0  0
  -45.7938   54.4788   62.6152 H   0  0  0  0  0  0  0  0  0  0  0  0
  -47.0857   53.8763   64.3485 H   0  0  0  0  0  0  0  0  0  0  0  0
  -47.9706   55.3774   65.9455 H   0  0  0  0  0  0  0  0  0  0  0  0
  -46.9607   56.6728   65.3356 H   0  0  0  0  0  0  0  0  0  0  0  0
  -45.0064   55.6363   66.3421 H   0  0  0  0  0  0  0  0  0  0  0  0
  -46.0726   54.3356   66.9593 H   0  0  0  0  0  0  0  0  0  0  0  0
  -45.4403   55.8658   68.6958 H   0  0  0  0  0  0  0  0  0  0  0  0
  -47.1923   55.8702   68.3360 H   0  0  0  0  0  0  0  0  0  0  0  0
  -46.9859   57.9345   67.1871 H   0  0  0  0  0  0  0  0  0  0  0  0
  -45.2378   57.9354   67.5082 H   0  0  0  0  0  0  0  0  0  0  0  0
  -45.6422   58.1176   69.8570 H   0  0  0  0  0  0  0  0  0  0  0  0
  -47.3933   58.0987   69.5439 H   0  0  0  0  0  0  0  0  0  0  0  0
  -45.4949   60.2078   68.6543 H   0  0  0  0  0  0  0  0  0  0  0  0
  -46.6449   60.2857   70.0256 H   0  0  0  0  0  0  0  0  0  0  0  0
  -47.3988   60.0621   67.1604 H   0  0  0  0  0  0  0  0  0  0  0  0
  -47.4342   61.5312   68.1498 H   0  0  0  0  0  0  0  0  0  0  0  0
  -49.0376   59.0694   68.6239 H   0  0  0  0  0  0  0  0  0  0  0  0
  -49.6294   60.5747   67.9629 H   0  0  0  0  0  0  0  0  0  0  0  0
  -49.0470   60.5124   69.6091 H   0  0  0  0  0  0  0  0  0  0  0  0
  1  9  1  0  0  0  0
  1 11  1  0  0  0  0
  1 13  1  0  0  0  0
  1 15  1  0  0  0  0
  2  3  1  0  0  0  0
  2  5  1  0  0  0  0
  2 17  1  0  0  0  0
  2 36  1  1  0  0  0
  3 37  1  0  0  0  0
  4  6  1  0  0  0  0
  4  8  2  1  0  0  0
  4 10  1  0  0  0  0
  4 12  1  0  0  0  0
  5  6  1  0  0  0  0
  5 38  1  0  0  0  0
  5 39  1  0  0  0  0
  7  9  1  0  0  0  0
  7 10  1  0  0  0  0
  7 40  1  0  0  0  0
  7 41  1  0  0  0  0
  9 42  1  0  0  0  0
  9 43  1  0  0  0  0
 11 44  1  0  0  0  0
 11 45  1  0  0  0  0
 11 46  1  0  0  0  0
 12 47  1  0  0  0  0
 13 48  1  0  0  0  0
 13 49  1  0  0  0  0
 13 50  1  0  0  0  0
 14 17  1  0  0  0  0
 14 18  1  0  0  0  0
 15 51  1  0  0  0  0
 15 52  1  0  0  0  0
 15 53  1  0  0  0  0
 16 18  2  0  0  0  0
 17 54  1  0  0  0  0
 17 55  1  0  0  0  0
 18 19  1  0  0  0  0
 19 20  1  0  0  0  0
 19 56  1  0  0  0  0
 19 57  1  0  0  0  0
 20 21  1  0  0  0  0
 20 58  1  0  0  0  0
 20 59  1  0  0  0  0
 21 22  1  0  0  0  0
 21 60  1  0  0  0  0
 21 61  1  0  0  0  0
 22 23  1  0  0  0  0
 22 62  1  0  0  0  0
 22 63  1  0  0  0  0
 23 24  1  0  0  0  0
 23 64  1  0  0  0  0
 23 65  1  0  0  0  0
 24 25  1  0  0  0  0
 24 66  1  0  0  0  0
 24 67  1  0  0  0  0
 25 26  1  0  0  0  0
 25 68  1  0  0  0  0
 25 69  1  0  0  0  0
 26 27  2  0  0  0  0
 26 70  1  0  0  0  0
 27 28  1  0  0  0  0
 27 71  1  0  0  0  0
 28 29  1  0  0  0  0
 28 72  1  0  0  0  0
 28 73  1  0  0  0  0
 29 30  1  0  0  0  0
 29 74  1  0  0  0  0
 29 75  1  0  0  0  0
 30 31  1  0  0  0  0
 30 76  1  0  0  0  0
 30 77  1  0  0  0  0
 31 32  1  0  0  0  0
 31 78  1  0  0  0  0
 31 79  1  0  0  0  0
 32 33  1  0  0  0  0
 32 80  1  0  0  0  0
 32 81  1  0  0  0  0
 33 34  1  0  0  0  0
 33 82  1  0  0  0  0
 33 83  1  0  0  0  0
 34 35  1  0  0  0  0
 34 84  1  0  0  0  0
 34 85  1  0  0  0  0
 35 86  1  0  0  0  0
 35 87  1  0  0  0  0
 35 88  1  0  0  0  0
M  CHG  1   8  -1
M  END
$$$$
/media/chris/experiments/cd1a-new-docking/inputs/ligands/4x6e_ligand.pdb
 OpenBabel07012320273D

 88 87  0  0  1  0  0  0  0  0999 V2000
  -42.9584   64.4323   74.2804 N   0  0  0  0  0  4  0  0  0  0  0  0
  -43.1359   63.5721   66.9250 C   0  0  1  0  0  0  0  0  0  0  0  0
  -43.8417   64.7191   67.4175 O   0  0  0  0  0  0  0  0  0  0  0  0
  -40.9186   63.1397   70.2641 P   0  0  1  0  0  0  0  0  0  0  0  0
  -41.8075   63.4562   67.6351 C   0  0  0  0  0  0  0  0  0  0  0  0
  -41.9737   63.2919   69.0643 O   0  0  0  0  0  0  0  0  0  0  0  0
  -41.7198   62.6759   72.8653 C   0  0  0  0  0  0  0  0  0  0  0  0
  -40.5942   64.5353   70.7946 O   0  5  0  0  0  0  0  0  0  0  0  0
  -42.6718   63.8454   72.9107 C   0  0  0  0  0  0  0  0  0  0  0  0
  -41.5312   62.2346   71.4932 O   0  0  0  0  0  0  0  0  0  0  0  0
  -43.5460   63.3949   75.1824 C   0  0  0  0  0  0  0  0  0  0  0  0
  -39.6768   62.5391   69.7297 O   0  0  0  0  0  0  0  0  0  0  0  0
  -43.9357   65.5509   74.1255 C   0  0  0  0  0  0  0  0  0  0  0  0
  -43.2707   61.1523   66.5772 O   0  0  0  0  0  0  0  0  0  0  0  0
  -41.6960   64.9573   74.9029 C   0  0  0  0  0  0  0  0  0  0  0  0
  -41.6498   61.4332   68.1090 O   0  0  0  0  0  0  0  0  0  0  0  0
  -43.9758   62.3191   67.0548 C   0  0  0  0  0  0  0  0  0  0  0  0
  -42.1287   60.8209   67.1868 C   0  0  0  0  0  0  0  0  0  0  0  0
  -41.5470   59.5850   66.5720 C   0  0  0  0  0  0  0  0  0  0  0  0
  -42.4780   58.3810   66.6510 C   0  0  0  0  0  0  0  0  0  0  0  0
  -43.8050   58.5690   65.9360 C   0  0  0  0  0  0  0  0  0  0  0  0
  -44.7241   57.3648   66.0412 C   0  0  0  0  0  0  0  0  0  0  0  0
  -45.0954   57.0268   67.4749 C   0  0  0  0  0  0  0  0  0  0  0  0
  -45.9968   55.8154   67.5620 C   0  0  0  0  0  0  0  0  0  0  0  0
  -46.4170   55.4365   68.9676 C   0  0  0  0  0  0  0  0  0  0  0  0
  -45.2866   55.1276   69.8726 C   0  0  0  0  0  0  0  0  0  0  0  0
  -45.2622   55.3168   71.1758 C   0  0  0  0  0  0  0  0  0  0  0  0
  -46.3682   55.8403   72.0332 C   0  0  0  0  0  0  0  0  0  0  0  0
  -45.9256   57.1234   72.7385 C   0  0  0  0  0  0  0  0  0  0  0  0
  -45.5435   58.2742   71.8192 C   0  0  0  0  0  0  0  0  0  0  0  0
  -44.3994   57.9777   70.8573 C   0  0  0  0  0  0  0  0  0  0  0  0
  -43.1006   57.5900   71.5565 C   0  0  0  0  0  0  0  0  0  0  0  0
  -41.9511   57.3097   70.6017 C   0  0  0  0  0  0  0  0  0  0  0  0
  -40.6414   56.9030   71.2604 C   0  0  0  0  0  0  0  0  0  0  0  0
  -40.7623   55.6434   72.0619 C   0  0  0  0  0  0  0  0  0  0  0  0
  -42.9410   63.6935   65.8799 H   0  0  0  0  0  0  0  0  0  0  0  0
  -44.0179   64.6081   68.3649 H   0  0  0  0  0  0  0  0  0  0  0  0
  -41.2386   64.3439   67.4524 H   0  0  0  0  0  0  0  0  0  0  0  0
  -41.3031   62.5914   67.2575 H   0  0  0  0  0  0  0  0  0  0  0  0
  -42.1219   61.8703   73.4435 H   0  0  0  0  0  0  0  0  0  0  0  0
  -40.7756   62.9788   73.2674 H   0  0  0  0  0  0  0  0  0  0  0  0
  -42.2597   64.6238   72.3032 H   0  0  0  0  0  0  0  0  0  0  0  0
  -43.6090   63.4613   72.5655 H   0  0  0  0  0  0  0  0  0  0  0  0
  -44.4467   63.0137   74.7483 H   0  0  0  0  0  0  0  0  0  0  0  0
  -43.7660   63.8327   76.1337 H   0  0  0  0  0  0  0  0  0  0  0  0
  -42.8460   62.5960   75.3107 H   0  0  0  0  0  0  0  0  0  0  0  0
  -39.3359   63.0900   69.0078 H   0  0  0  0  0  0  0  0  0  0  0  0
  -44.8359   65.1792   73.6821 H   0  0  0  0  0  0  0  0  0  0  0  0
  -43.5149   66.3078   73.4971 H   0  0  0  0  0  0  0  0  0  0  0  0
  -44.1567   65.9671   75.0861 H   0  0  0  0  0  0  0  0  0  0  0  0
  -40.9942   64.1574   75.0149 H   0  0  0  0  0  0  0  0  0  0  0  0
  -41.9183   65.3738   75.8631 H   0  0  0  0  0  0  0  0  0  0  0  0
  -41.2764   65.7145   74.2741 H   0  0  0  0  0  0  0  0  0  0  0  0
  -44.8718   62.4413   66.4827 H   0  0  0  0  0  0  0  0  0  0  0  0
  -44.1997   62.1731   68.0908 H   0  0  0  0  0  0  0  0  0  0  0  0
  -40.6379   59.3462   67.0832 H   0  0  0  0  0  0  0  0  0  0  0  0
  -41.3821   59.7924   65.5353 H   0  0  0  0  0  0  0  0  0  0  0  0
  -42.6787   58.1797   67.6825 H   0  0  0  0  0  0  0  0  0  0  0  0
  -41.9769   57.5734   66.1596 H   0  0  0  0  0  0  0  0  0  0  0  0
  -43.6088   58.7562   64.9009 H   0  0  0  0  0  0  0  0  0  0  0  0
  -44.3043   59.3890   66.4084 H   0  0  0  0  0  0  0  0  0  0  0  0
  -44.2305   56.5199   65.6083 H   0  0  0  0  0  0  0  0  0  0  0  0
  -45.6292   57.6059   65.5239 H   0  0  0  0  0  0  0  0  0  0  0  0
  -45.6019   57.8648   67.9062 H   0  0  0  0  0  0  0  0  0  0  0  0
  -44.1925   56.8028   68.0036 H   0  0  0  0  0  0  0  0  0  0  0  0
  -45.4784   54.9831   67.1337 H   0  0  0  0  0  0  0  0  0  0  0  0
  -46.8941   56.0690   67.0372 H   0  0  0  0  0  0  0  0  0  0  0  0
  -47.0465   54.5733   68.9092 H   0  0  0  0  0  0  0  0  0  0  0  0
  -46.9195   56.2866   69.3798 H   0  0  0  0  0  0  0  0  0  0  0  0
  -44.4387   54.7267   69.4420 H   0  0  0  0  0  0  0  0  0  0  0  0
  -44.3819   55.0769   71.6580 H   0  0  0  0  0  0  0  0  0  0  0  0
  -46.6261   55.1047   72.7661 H   0  0  0  0  0  0  0  0  0  0  0  0
  -47.2167   56.0545   71.4174 H   0  0  0  0  0  0  0  0  0  0  0  0
  -45.0763   56.8901   73.3460 H   0  0  0  0  0  0  0  0  0  0  0  0
  -46.7737   57.4608   73.2968 H   0  0  0  0  0  0  0  0  0  0  0  0
  -45.2573   59.1053   72.4292 H   0  0  0  0  0  0  0  0  0  0  0  0
  -46.4023   58.4690   71.2113 H   0  0  0  0  0  0  0  0  0  0  0  0
  -44.2182   58.8516   70.2670 H   0  0  0  0  0  0  0  0  0  0  0  0
  -44.6980   57.1402   70.2620 H   0  0  0  0  0  0  0  0  0  0  0  0
  -43.2796   56.7093   72.1371 H   0  0  0  0  0  0  0  0  0  0  0  0
  -42.8093   58.4248   72.1592 H   0  0  0  0  0  0  0  0  0  0  0  0
  -41.7721   58.1967   70.0307 H   0  0  0  0  0  0  0  0  0  0  0  0
  -42.2564   56.4722   70.0098 H   0  0  0  0  0  0  0  0  0  0  0  0
  -40.3256   57.6926   71.9098 H   0  0  0  0  0  0  0  0  0  0  0  0
  -39.9309   56.7224   70.4810 H   0  0  0  0  0  0  0  0  0  0  0  0
  -41.4679   55.7902   72.8527 H   0  0  0  0  0  0  0  0  0  0  0  0
  -39.8087   55.3918   72.4768 H   0  0  0  0  0  0  0  0  0  0  0  0
  -41.0966   54.8484   71.4286 H   0  0  0  0  0  0  0  0  0  0  0  0
  1  9  1  0  0  0  0
  1 11  1  0  0  0  0
  1 13  1  0  0  0  0
  1 15  1  0  0  0  0
  2  3  1  0  0  0  0
  2  5  1  0  0  0  0
  2 17  1  0  0  0  0
  2 36  1  6  0  0  0
  3 37  1  0  0  0  0
  4  6  1  0  0  0  0
  4  8  2  1  0  0  0
  4 10  1  0  0  0  0
  4 12  1  0  0  0  0
  5  6  1  0  0  0  0
  5 38  1  0  0  0  0
  5 39  1  0  0  0  0
  7  9  1  0  0  0  0
  7 10  1  0  0  0  0
  7 40  1  0  0  0  0
  7 41  1  0  0  0  0
  9 42  1  0  0  0  0
  9 43  1  0  0  0  0
 11 44  1  0  0  0  0
 11 45  1  0  0  0  0
 11 46  1  0  0  0  0
 12 47  1  0  0  0  0
 13 48  1  0  0  0  0
 13 49  1  0  0  0  0
 13 50  1  0  0  0  0
 14 17  1  0  0  0  0
 14 18  1  0  0  0  0
 15 51  1  0  0  0  0
 15 52  1  0  0  0  0
 15 53  1  0  0  0  0
 16 18  2  0  0  0  0
 17 54  1  0  0  0  0
 17 55  1  0  0  0  0
 18 19  1  0  0  0  0
 19 20  1  0  0  0  0
 19 56  1  0  0  0  0
 19 57  1  0  0  0  0
 20 21  1  0  0  0  0
 20 58  1  0  0  0  0
 20 59  1  0  0  0  0
 21 22  1  0  0  0  0
 21 60  1  0  0  0  0
 21 61  1  0  0  0  0
 22 23  1  0  0  0  0
 22 62  1  0  0  0  0
 22 63  1  0  0  0  0
 23 24  1  0  0  0  0
 23 64  1  0  0  0  0
 23 65  1  0  0  0  0
 24 25  1  0  0  0  0
 24 66  1  0  0  0  0
 24 67  1  0  0  0  0
 25 26  1  0  0  0  0
 25 68  1  0  0  0  0
 25 69  1  0  0  0  0
 26 27  2  0  0  0  0
 26 70  1  0  0  0  0
 27 28  1  0  0  0  0
 27 71  1  0  0  0  0
 28 29  1  0  0  0  0
 28 72  1  0  0  0  0
 28 73  1  0  0  0  0
 29 30  1  0  0  0  0
 29 74  1  0  0  0  0
 29 75  1  0  0  0  0
 30 31  1  0  0  0  0
 30 76  1  0  0  0  0
 30 77  1  0  0  0  0
 31 32  1  0  0  0  0
 31 78  1  0  0  0  0
 31 79  1  0  0  0  0
 32 33  1  0  0  0  0
 32 80  1  0  0  0  0
 32 81  1  0  0  0  0
 33 34  1  0  0  0  0
 33 82  1  0  0  0  0
 33 83  1  0  0  0  0
 34 35  1  0  0  0  0
 34 84  1  0  0  0  0
 34 85  1  0  0  0  0
 35 86  1  0  0  0  0
 35 87  1  0  0  0  0
 35 88  1  0  0  0  0
M  CHG  1   8  -1
M  END
$$$$
/media/chris/experiments/cd1a-new-docking/inputs/ligands/4x6e_ligand.pdb
 OpenBabel07012320273D

 88 87  0  0  1  0  0  0  0  0999 V2000
  -33.9940   54.5532   69.1875 N   0  0  0  0  0  4  0  0  0  0  0  0
  -39.8348   56.4890   66.8124 C   0  0  1  0  0  0  0  0  0  0  0  0
  -40.5094   56.3504   65.5546 O   0  0  0  0  0  0  0  0  0  0  0  0
  -36.9198   55.2074   65.7375 P   0  0  1  0  0  0  0  0  0  0  0  0
  -39.2775   55.1496   67.2342 C   0  0  0  0  0  0  0  0  0  0  0  0
  -38.3211   54.6382   66.2744 O   0  0  0  0  0  0  0  0  0  0  0  0
  -36.1527   55.6745   68.3483 C   0  0  0  0  0  0  0  0  0  0  0  0
  -37.1718   56.5731   65.1007 O   0  5  0  0  0  0  0  0  0  0  0  0
  -34.8871   55.7797   69.1628 C   0  0  0  0  0  0  0  0  0  0  0  0
  -35.8339   55.3848   66.9600 O   0  0  0  0  0  0  0  0  0  0  0  0
  -33.5298   54.2153   67.8071 C   0  0  0  0  0  0  0  0  0  0  0  0
  -36.4036   54.2912   64.6971 O   0  0  0  0  0  0  0  0  0  0  0  0
  -34.7769   53.4035   69.7315 C   0  0  0  0  0  0  0  0  0  0  0  0
  -39.3393   58.8554   66.4260 O   0  0  0  0  0  0  0  0  0  0  0  0
  -32.7933   54.7935   70.0576 C   0  0  0  0  0  0  0  0  0  0  0  0
  -40.0164   59.6210   68.4280 O   0  0  0  0  0  0  0  0  0  0  0  0
  -38.7723   57.5655   66.7443 C   0  0  0  0  0  0  0  0  0  0  0  0
  -40.2402   59.3661   67.2706 C   0  0  0  0  0  0  0  0  0  0  0  0
  -41.5470   59.5850   66.5720 C   0  0  0  0  0  0  0  0  0  0  0  0
  -42.4780   58.3810   66.6510 C   0  0  0  0  0  0  0  0  0  0  0  0
  -43.8050   58.5690   65.9360 C   0  0  0  0  0  0  0  0  0  0  0  0
  -44.6170   59.7376   66.4663 C   0  0  0  0  0  0  0  0  0  0  0  0
  -45.9487   59.9044   65.7548 C   0  0  0  0  0  0  0  0  0  0  0  0
  -45.7790   60.1306   64.2690 C   0  0  0  0  0  0  0  0  0  0  0  0
  -44.9620   61.3528   63.9021 C   0  0  0  0  0  0  0  0  0  0  0  0
  -44.8199   61.5680   62.4441 C   0  0  0  0  0  0  0  0  0  0  0  0
  -43.6878   61.6038   61.7719 C   0  0  0  0  0  0  0  0  0  0  0  0
  -42.3101   61.3973   62.3120 C   0  0  0  0  0  0  0  0  0  0  0  0
  -41.4573   62.6438   62.0700 C   0  0  0  0  0  0  0  0  0  0  0  0
  -40.0197   62.5557   62.5609 C   0  0  0  0  0  0  0  0  0  0  0  0
  -39.1870   61.4513   61.9211 C   0  0  0  0  0  0  0  0  0  0  0  0
  -37.7579   61.3823   62.4493 C   0  0  0  0  0  0  0  0  0  0  0  0
  -36.9178   60.2929   61.8019 C   0  0  0  0  0  0  0  0  0  0  0  0
  -37.4511   58.8771   61.9621 C   0  0  0  0  0  0  0  0  0  0  0  0
  -37.5829   58.4662   63.3964 C   0  0  0  0  0  0  0  0  0  0  0  0
  -40.5323   56.8054   67.5595 H   0  0  0  0  0  0  0  0  0  0  0  0
  -39.8763   56.0635   64.8780 H   0  0  0  0  0  0  0  0  0  0  0  0
  -40.0838   54.4521   67.3248 H   0  0  0  0  0  0  0  0  0  0  0  0
  -38.7735   55.2789   68.1691 H   0  0  0  0  0  0  0  0  0  0  0  0
  -36.6858   56.6007   68.4026 H   0  0  0  0  0  0  0  0  0  0  0  0
  -36.7554   54.8823   68.7406 H   0  0  0  0  0  0  0  0  0  0  0  0
  -34.3131   56.5919   68.7683 H   0  0  0  0  0  0  0  0  0  0  0  0
  -35.2113   55.9143   70.1736 H   0  0  0  0  0  0  0  0  0  0  0  0
  -34.3778   54.0419   67.1781 H   0  0  0  0  0  0  0  0  0  0  0  0
  -32.9241   53.3338   67.8403 H   0  0  0  0  0  0  0  0  0  0  0  0
  -32.9552   55.0283   67.4151 H   0  0  0  0  0  0  0  0  0  0  0  0
  -37.0606   54.2033   63.9888 H   0  0  0  0  0  0  0  0  0  0  0  0
  -35.6328   53.2304   69.1131 H   0  0  0  0  0  0  0  0  0  0  0  0
  -35.0961   53.6288   70.7275 H   0  0  0  0  0  0  0  0  0  0  0  0
  -34.1625   52.5275   69.7434 H   0  0  0  0  0  0  0  0  0  0  0  0
  -32.2308   55.6170   69.6697 H   0  0  0  0  0  0  0  0  0  0  0  0
  -32.1801   53.9168   70.0694 H   0  0  0  0  0  0  0  0  0  0  0  0
  -33.1137   55.0181   71.0535 H   0  0  0  0  0  0  0  0  0  0  0  0
  -38.0609   57.3034   65.9892 H   0  0  0  0  0  0  0  0  0  0  0  0
  -38.3045   57.6340   67.7041 H   0  0  0  0  0  0  0  0  0  0  0  0
  -41.3508   59.7963   65.5416 H   0  0  0  0  0  0  0  0  0  0  0  0
  -42.0377   60.3996   67.0625 H   0  0  0  0  0  0  0  0  0  0  0  0
  -42.6787   58.1797   67.6825 H   0  0  0  0  0  0  0  0  0  0  0  0
  -41.9769   57.5734   66.1596 H   0  0  0  0  0  0  0  0  0  0  0  0
  -44.3819   57.6753   66.0516 H   0  0  0  0  0  0  0  0  0  0  0  0
  -43.5836   58.7785   64.9103 H   0  0  0  0  0  0  0  0  0  0  0  0
  -44.0475   60.6344   66.3391 H   0  0  0  0  0  0  0  0  0  0  0  0
  -44.8265   59.5410   67.4970 H   0  0  0  0  0  0  0  0  0  0  0  0
  -46.4608   60.7448   66.1749 H   0  0  0  0  0  0  0  0  0  0  0  0
  -46.5071   59.0014   65.8876 H   0  0  0  0  0  0  0  0  0  0  0  0
  -46.7514   60.2377   63.8353 H   0  0  0  0  0  0  0  0  0  0  0  0
  -45.2410   59.2848   63.8948 H   0  0  0  0  0  0  0  0  0  0  0  0
  -43.9842   61.2422   64.3224 H   0  0  0  0  0  0  0  0  0  0  0  0
  -45.4844   62.2019   64.2905 H   0  0  0  0  0  0  0  0  0  0  0  0
  -45.6891   61.7026   61.9042 H   0  0  0  0  0  0  0  0  0  0  0  0
  -43.7604   61.7956   60.7605 H   0  0  0  0  0  0  0  0  0  0  0  0
  -41.8596   60.5599   61.8214 H   0  0  0  0  0  0  0  0  0  0  0  0
  -42.3707   61.2139   63.3644 H   0  0  0  0  0  0  0  0  0  0  0  0
  -41.9264   63.4666   62.5678 H   0  0  0  0  0  0  0  0  0  0  0  0
  -41.3998   62.7604   61.0079 H   0  0  0  0  0  0  0  0  0  0  0  0
  -40.0395   62.3867   63.6173 H   0  0  0  0  0  0  0  0  0  0  0  0
  -39.5531   63.4788   62.2869 H   0  0  0  0  0  0  0  0  0  0  0  0
  -39.1499   61.6236   60.8657 H   0  0  0  0  0  0  0  0  0  0  0  0
  -39.6575   60.5217   62.1647 H   0  0  0  0  0  0  0  0  0  0  0  0
  -37.7958   61.1982   63.5027 H   0  0  0  0  0  0  0  0  0  0  0  0
  -37.2926   62.3166   62.2141 H   0  0  0  0  0  0  0  0  0  0  0  0
  -35.9400   60.3285   62.2351 H   0  0  0  0  0  0  0  0  0  0  0  0
  -36.9297   60.4958   60.7514 H   0  0  0  0  0  0  0  0  0  0  0  0
  -36.7807   58.2017   61.4730 H   0  0  0  0  0  0  0  0  0  0  0  0
  -38.4286   58.8497   61.5277 H   0  0  0  0  0  0  0  0  0  0  0  0
  -36.6198   58.4829   63.8622 H   0  0  0  0  0  0  0  0  0  0  0  0
  -37.9870   57.4768   63.4483 H   0  0  0  0  0  0  0  0  0  0  0  0
  -38.2362   59.1452   63.9034 H   0  0  0  0  0  0  0  0  0  0  0  0
  1  9  1  0  0  0  0
  1 11  1  0  0  0  0
  1 13  1  0  0  0  0
  1 15  1  0  0  0  0
  2  3  1  0  0  0  0
  2  5  1  0  0  0  0
  2 17  1  0  0  0  0
  2 36  1  1  0  0  0
  3 37  1  0  0  0  0
  4  6  1  0  0  0  0
  4  8  2  6  0  0  0
  4 10  1  0  0  0  0
  4 12  1  0  0  0  0
  5  6  1  0  0  0  0
  5 38  1  0  0  0  0
  5 39  1  0  0  0  0
  7  9  1  0  0  0  0
  7 10  1  0  0  0  0
  7 40  1  0  0  0  0
  7 41  1  0  0  0  0
  9 42  1  0  0  0  0
  9 43  1  0  0  0  0
 11 44  1  0  0  0  0
 11 45  1  0  0  0  0
 11 46  1  0  0  0  0
 12 47  1  0  0  0  0
 13 48  1  0  0  0  0
 13 49  1  0  0  0  0
 13 50  1  0  0  0  0
 14 17  1  0  0  0  0
 14 18  1  0  0  0  0
 15 51  1  0  0  0  0
 15 52  1  0  0  0  0
 15 53  1  0  0  0  0
 16 18  2  0  0  0  0
 17 54  1  0  0  0  0
 17 55  1  0  0  0  0
 18 19  1  0  0  0  0
 19 20  1  0  0  0  0
 19 56  1  0  0  0  0
 19 57  1  0  0  0  0
 20 21  1  0  0  0  0
 20 58  1  0  0  0  0
 20 59  1  0  0  0  0
 21 22  1  0  0  0  0
 21 60  1  0  0  0  0
 21 61  1  0  0  0  0
 22 23  1  0  0  0  0
 22 62  1  0  0  0  0
 22 63  1  0  0  0  0
 23 24  1  0  0  0  0
 23 64  1  0  0  0  0
 23 65  1  0  0  0  0
 24 25  1  0  0  0  0
 24 66  1  0  0  0  0
 24 67  1  0  0  0  0
 25 26  1  0  0  0  0
 25 68  1  0  0  0  0
 25 69  1  0  0  0  0
 26 27  2  0  0  0  0
 26 70  1  0  0  0  0
 27 28  1  0  0  0  0
 27 71  1  0  0  0  0
 28 29  1  0  0  0  0
 28 72  1  0  0  0  0
 28 73  1  0  0  0  0
 29 30  1  0  0  0  0
 29 74  1  0  0  0  0
 29 75  1  0  0  0  0
 30 31  1  0  0  0  0
 30 76  1  0  0  0  0
 30 77  1  0  0  0  0
 31 32  1  0  0  0  0
 31 78  1  0  0  0  0
 31 79  1  0  0  0  0
 32 33  1  0  0  0  0
 32 80  1  0  0  0  0
 32 81  1  0  0  0  0
 33 34  1  0  0  0  0
 33 82  1  0  0  0  0
 33 83  1  0  0  0  0
 34 35  1  0  0  0  0
 34 84  1  0  0  0  0
 34 85  1  0  0  0  0
 35 86  1  0  0  0  0
 35 87  1  0  0  0  0
 35 88  1  0  0  0  0
M  CHG  1   8  -1
M  END
$$$$
/media/chris/experiments/cd1a-new-docking/inputs/ligands/4x6e_ligand.pdb
 OpenBabel07012320273D

 88 87  0  0  1  0  0  0  0  0999 V2000
  -37.9114   69.4778   63.2675 N   0  0  0  0  0  4  0  0  0  0  0  0
  -41.7409   63.0292   65.3535 C   0  0  1  0  0  0  0  0  0  0  0  0
  -41.0970   63.4409   66.5668 O   0  0  0  0  0  0  0  0  0  0  0  0
  -40.1602   65.9772   65.1668 P   0  0  1  0  0  0  0  0  0  0  0  0
  -42.2844   64.2426   64.6361 C   0  0  0  0  0  0  0  0  0  0  0  0
  -41.2337   65.1749   64.2836 O   0  0  0  0  0  0  0  0  0  0  0  0
  -39.7494   67.6911   63.0415 C   0  0  0  0  0  0  0  0  0  0  0  0
  -38.9037   65.1167   65.2888 O   0  5  0  0  0  0  0  0  0  0  0  0
  -39.3050   69.1110   62.7920 C   0  0  0  0  0  0  0  0  0  0  0  0
  -39.7557   67.4098   64.4676 O   0  0  0  0  0  0  0  0  0  0  0  0
  -37.7889   69.2671   64.7426 C   0  0  0  0  0  0  0  0  0  0  0  0
  -40.7209   66.1857   66.5198 O   0  0  0  0  0  0  0  0  0  0  0  0
  -37.6663   70.9188   62.9609 C   0  0  0  0  0  0  0  0  0  0  0  0
  -40.3646   61.0134   65.1616 O   0  0  0  0  0  0  0  0  0  0  0  0
  -36.8792   68.6381   62.5704 C   0  0  0  0  0  0  0  0  0  0  0  0
  -41.5829   59.4037   64.1731 O   0  0  0  0  0  0  0  0  0  0  0  0
  -40.8026   62.2143   64.4888 C   0  0  0  0  0  0  0  0  0  0  0  0
  -41.1924   59.9644   65.1670 C   0  0  0  0  0  0  0  0  0  0  0  0
  -41.5470   59.5850   66.5720 C   0  0  0  0  0  0  0  0  0  0  0  0
  -42.4780   58.3810   66.6510 C   0  0  0  0  0  0  0  0  0  0  0  0
  -43.8050   58.5690   65.9360 C   0  0  0  0  0  0  0  0  0  0  0  0
  -44.6170   59.7376   66.4663 C   0  0  0  0  0  0  0  0  0  0  0  0
  -43.9014   61.0697   66.3219 C   0  0  0  0  0  0  0  0  0  0  0  0
  -44.7168   62.2195   66.8702 C   0  0  0  0  0  0  0  0  0  0  0  0
  -45.0441   62.1185   68.3462 C   0  0  0  0  0  0  0  0  0  0  0  0
  -45.8565   63.2436   68.8623 C   0  0  0  0  0  0  0  0  0  0  0  0
  -45.3921   64.3656   69.3726 C   0  0  0  0  0  0  0  0  0  0  0  0
  -43.9606   64.7716   69.5080 C   0  0  0  0  0  0  0  0  0  0  0  0
  -43.6162   65.0048   70.9799 C   0  0  0  0  0  0  0  0  0  0  0  0
  -43.7841   63.7956   71.8883 C   0  0  0  0  0  0  0  0  0  0  0  0
  -42.9181   62.5943   71.5284 C   0  0  0  0  0  0  0  0  0  0  0  0
  -41.4217   62.8839   71.5831 C   0  0  0  0  0  0  0  0  0  0  0  0
  -40.5535   61.6933   71.2083 C   0  0  0  0  0  0  0  0  0  0  0  0
  -40.7581   61.1554   69.8000 C   0  0  0  0  0  0  0  0  0  0  0  0
  -40.4560   62.1716   68.7419 C   0  0  0  0  0  0  0  0  0  0  0  0
  -42.5651   62.3876   65.5858 H   0  0  0  0  0  0  0  0  0  0  0  0
  -40.3500   64.0225   66.3552 H   0  0  0  0  0  0  0  0  0  0  0  0
  -42.9861   64.7371   65.2748 H   0  0  0  0  0  0  0  0  0  0  0  0
  -42.7527   63.9125   63.7325 H   0  0  0  0  0  0  0  0  0  0  0  0
  -39.0761   67.0189   62.5518 H   0  0  0  0  0  0  0  0  0  0  0  0
  -40.7392   67.5623   62.6561 H   0  0  0  0  0  0  0  0  0  0  0  0
  -39.3442   69.2833   61.7367 H   0  0  0  0  0  0  0  0  0  0  0  0
  -39.9701   69.7211   63.3669 H   0  0  0  0  0  0  0  0  0  0  0  0
  -38.5203   69.8611   65.2497 H   0  0  0  0  0  0  0  0  0  0  0  0
  -36.8099   69.5556   65.0639 H   0  0  0  0  0  0  0  0  0  0  0  0
  -37.9488   68.2338   64.9697 H   0  0  0  0  0  0  0  0  0  0  0  0
  -40.9511   65.3281   66.9102 H   0  0  0  0  0  0  0  0  0  0  0  0
  -38.4005   71.5188   63.4566 H   0  0  0  0  0  0  0  0  0  0  0  0
  -37.7321   71.0748   61.9044 H   0  0  0  0  0  0  0  0  0  0  0  0
  -36.6904   71.1950   63.3021 H   0  0  0  0  0  0  0  0  0  0  0  0
  -37.0530   67.6052   62.7887 H   0  0  0  0  0  0  0  0  0  0  0  0
  -35.9038   68.9157   62.9118 H   0  0  0  0  0  0  0  0  0  0  0  0
  -36.9455   68.7955   61.5141 H   0  0  0  0  0  0  0  0  0  0  0  0
  -39.9464   62.8098   64.2494 H   0  0  0  0  0  0  0  0  0  0  0  0
  -41.3295   61.9274   63.6028 H   0  0  0  0  0  0  0  0  0  0  0  0
  -42.0288   60.4189   67.0383 H   0  0  0  0  0  0  0  0  0  0  0  0
  -40.6378   59.3175   67.0687 H   0  0  0  0  0  0  0  0  0  0  0  0
  -42.6787   58.1797   67.6825 H   0  0  0  0  0  0  0  0  0  0  0  0
  -41.9769   57.5734   66.1596 H   0  0  0  0  0  0  0  0  0  0  0  0
  -44.3819   57.6753   66.0516 H   0  0  0  0  0  0  0  0  0  0  0  0
  -43.5836   58.7785   64.9103 H   0  0  0  0  0  0  0  0  0  0  0  0
  -44.8195   59.5696   67.5034 H   0  0  0  0  0  0  0  0  0  0  0  0
  -45.5158   59.7920   65.8883 H   0  0  0  0  0  0  0  0  0  0  0  0
  -43.7100   61.2472   65.2842 H   0  0  0  0  0  0  0  0  0  0  0  0
  -42.9915   61.0159   66.8824 H   0  0  0  0  0  0  0  0  0  0  0  0
  -45.6377   62.2634   66.3272 H   0  0  0  0  0  0  0  0  0  0  0  0
  -44.1162   63.0973   66.7540 H   0  0  0  0  0  0  0  0  0  0  0  0
  -44.1250   62.0887   68.8932 H   0  0  0  0  0  0  0  0  0  0  0  0
  -45.6288   61.2314   68.4732 H   0  0  0  0  0  0  0  0  0  0  0  0
  -46.8822   63.1391   68.8180 H   0  0  0  0  0  0  0  0  0  0  0  0
  -46.0947   65.0385   69.7170 H   0  0  0  0  0  0  0  0  0  0  0  0
  -43.7956   65.6750   68.9587 H   0  0  0  0  0  0  0  0  0  0  0  0
  -43.3378   63.9916   69.1224 H   0  0  0  0  0  0  0  0  0  0  0  0
  -44.2498   65.7846   71.3478 H   0  0  0  0  0  0  0  0  0  0  0  0
  -42.5749   65.2498   71.0042 H   0  0  0  0  0  0  0  0  0  0  0  0
  -44.8087   63.4900   71.8481 H   0  0  0  0  0  0  0  0  0  0  0  0
  -43.4717   64.1080   72.8628 H   0  0  0  0  0  0  0  0  0  0  0  0
  -43.1667   62.2833   70.5352 H   0  0  0  0  0  0  0  0  0  0  0  0
  -43.1180   61.8340   72.2542 H   0  0  0  0  0  0  0  0  0  0  0  0
  -41.1720   63.1834   72.5795 H   0  0  0  0  0  0  0  0  0  0  0  0
  -41.2258   63.6517   70.8641 H   0  0  0  0  0  0  0  0  0  0  0  0
  -40.7625   60.9020   71.8977 H   0  0  0  0  0  0  0  0  0  0  0  0
  -39.5424   62.0411   71.2476 H   0  0  0  0  0  0  0  0  0  0  0  0
  -41.7773   60.8466   69.6966 H   0  0  0  0  0  0  0  0  0  0  0  0
  -40.0805   60.3384   69.6652 H   0  0  0  0  0  0  0  0  0  0  0  0
  -41.1184   63.0052   68.8484 H   0  0  0  0  0  0  0  0  0  0  0  0
  -40.5895   61.7312   67.7759 H   0  0  0  0  0  0  0  0  0  0  0  0
  -39.4444   62.5044   68.8454 H   0  0  0  0  0  0  0  0  0  0  0  0
  1  9  1  0  0  0  0
  1 11  1  0  0  0  0
  1 13  1  0  0  0  0
  1 15  1  0  0  0  0
  2  3  1  0  0  0  0
  2  5  1  0  0  0  0
  2 17  1  0  0  0  0
  2 36  1  1  0  0  0
  3 37  1  0  0  0  0
  4  6  1  0  0  0  0
  4  8  2  1  0  0  0
  4 10  1  0  0  0  0
  4 12  1  0  0  0  0
  5  6  1  0  0  0  0
  5 38  1  0  0  0  0
  5 39  1  0  0  0  0
  7  9  1  0  0  0  0
  7 10  1  0  0  0  0
  7 40  1  0  0  0  0
  7 41  1  0  0  0  0
  9 42  1  0  0  0  0
  9 43  1  0  0  0  0
 11 44  1  0  0  0  0
 11 45  1  0  0  0  0
 11 46  1  0  0  0  0
 12 47  1  0  0  0  0
 13 48  1  0  0  0  0
 13 49  1  0  0  0  0
 13 50  1  0  0  0  0
 14 17  1  0  0  0  0
 14 18  1  0  0  0  0
 15 51  1  0  0  0  0
 15 52  1  0  0  0  0
 15 53  1  0  0  0  0
 16 18  2  0  0  0  0
 17 54  1  0  0  0  0
 17 55  1  0  0  0  0
 18 19  1  0  0  0  0
 19 20  1  0  0  0  0
 19 56  1  0  0  0  0
 19 57  1  0  0  0  0
 20 21  1  0  0  0  0
 20 58  1  0  0  0  0
 20 59  1  0  0  0  0
 21 22  1  0  0  0  0
 21 60  1  0  0  0  0
 21 61  1  0  0  0  0
 22 23  1  0  0  0  0
 22 62  1  0  0  0  0
 22 63  1  0  0  0  0
 23 24  1  0  0  0  0
 23 64  1  0  0  0  0
 23 65  1  0  0  0  0
 24 25  1  0  0  0  0
 24 66  1  0  0  0  0
 24 67  1  0  0  0  0
 25 26  1  0  0  0  0
 25 68  1  0  0  0  0
 25 69  1  0  0  0  0
 26 27  2  0  0  0  0
 26 70  1  0  0  0  0
 27 28  1  0  0  0  0
 27 71  1  0  0  0  0
 28 29  1  0  0  0  0
 28 72  1  0  0  0  0
 28 73  1  0  0  0  0
 29 30  1  0  0  0  0
 29 74  1  0  0  0  0
 29 75  1  0  0  0  0
 30 31  1  0  0  0  0
 30 76  1  0  0  0  0
 30 77  1  0  0  0  0
 31 32  1  0  0  0  0
 31 78  1  0  0  0  0
 31 79  1  0  0  0  0
 32 33  1  0  0  0  0
 32 80  1  0  0  0  0
 32 81  1  0  0  0  0
 33 34  1  0  0  0  0
 33 82  1  0  0  0  0
 33 83  1  0  0  0  0
 34 35  1  0  0  0  0
 34 84  1  0  0  0  0
 34 85  1  0  0  0  0
 35 86  1  0  0  0  0
 35 87  1  0  0  0  0
 35 88  1  0  0  0  0
M  CHG  1   8  -1
M  END
$$$$
/media/chris/experiments/cd1a-new-docking/inputs/ligands/4x6e_ligand.pdb
 OpenBabel07012320273D

 88 87  0  0  1  0  0  0  0  0999 V2000
  -36.0935   58.6323   61.0923 N   0  0  0  0  0  4  0  0  0  0  0  0
  -38.3428   59.6393   65.0556 C   0  0  1  0  0  0  0  0  0  0  0  0
  -37.0447   59.8758   64.4939 O   0  0  0  0  0  0  0  0  0  0  0  0
  -39.5267   57.2310   62.0470 P   0  0  1  0  0  0  0  0  0  0  0  0
  -39.3051   59.2591   63.9548 C   0  0  0  0  0  0  0  0  0  0  0  0
  -38.8924   58.0499   63.2729 O   0  0  0  0  0  0  0  0  0  0  0  0
  -38.4968   59.1117   60.3077 C   0  0  0  0  0  0  0  0  0  0  0  0
  -41.0408   57.4337   62.0699 O   0  5  0  0  0  0  0  0  0  0  0  0
  -37.3421   59.4875   61.2030 C   0  0  0  0  0  0  0  0  0  0  0  0
  -38.9428   57.7602   60.6034 O   0  0  0  0  0  0  0  0  0  0  0  0
  -35.0455   59.1096   62.0457 C   0  0  0  0  0  0  0  0  0  0  0  0
  -39.2415   55.7923   62.2403 O   0  0  0  0  0  0  0  0  0  0  0  0
  -35.5658   58.7361   59.6990 C   0  0  0  0  0  0  0  0  0  0  0  0
  -39.5828   58.3411   66.7204 O   0  0  0  0  0  0  0  0  0  0  0  0
  -36.4100   57.1962   61.3988 C   0  0  0  0  0  0  0  0  0  0  0  0
  -39.8236   60.0222   68.1929 O   0  0  0  0  0  0  0  0  0  0  0  0
  -38.2787   58.6015   66.1561 C   0  0  0  0  0  0  0  0  0  0  0  0
  -40.2402   59.3661   67.2706 C   0  0  0  0  0  0  0  0  0  0  0  0
  -41.5470   59.5850   66.5720 C   0  0  0  0  0  0  0  0  0  0  0  0
  -42.4780   58.3810   66.6510 C   0  0  0  0  0  0  0  0  0  0  0  0
  -43.8050   58.5690   65.9360 C   0  0  0  0  0  0  0  0  0  0  0  0
  -44.7241   57.3648   66.0412 C   0  0  0  0  0  0  0  0  0  0  0  0
  -44.1117   56.1003   65.4637 C   0  0  0  0  0  0  0  0  0  0  0  0
  -45.0468   54.9156   65.5614 C   0  0  0  0  0  0  0  0  0  0  0  0
  -44.4861   53.6177   65.0163 C   0  0  0  0  0  0  0  0  0  0  0  0
  -44.1065   53.6779   63.5864 C   0  0  0  0  0  0  0  0  0  0  0  0
  -43.1448   52.9873   63.0095 C   0  0  0  0  0  0  0  0  0  0  0  0
  -42.2563   51.9694   63.6475 C   0  0  0  0  0  0  0  0  0  0  0  0
  -40.7936   52.4024   63.5349 C   0  0  0  0  0  0  0  0  0  0  0  0
  -40.4507   53.7224   64.2098 C   0  0  0  0  0  0  0  0  0  0  0  0
  -40.6959   53.7599   65.7134 C   0  0  0  0  0  0  0  0  0  0  0  0
  -40.3573   55.1026   66.3526 C   0  0  0  0  0  0  0  0  0  0  0  0
  -38.9076   55.5214   66.1661 C   0  0  0  0  0  0  0  0  0  0  0  0
  -37.8737   54.5594   66.7321 C   0  0  0  0  0  0  0  0  0  0  0  0
  -37.9420   53.2007   66.1056 C   0  0  0  0  0  0  0  0  0  0  0  0
  -38.7036   60.5369   65.5128 H   0  0  0  0  0  0  0  0  0  0  0  0
  -36.7184   59.0616   64.0797 H   0  0  0  0  0  0  0  0  0  0  0  0
  -39.3521   60.0582   63.2447 H   0  0  0  0  0  0  0  0  0  0  0  0
  -40.2628   59.0808   64.3974 H   0  0  0  0  0  0  0  0  0  0  0  0
  -38.1836   59.1649   59.2859 H   0  0  0  0  0  0  0  0  0  0  0  0
  -39.3058   59.7912   60.4778 H   0  0  0  0  0  0  0  0  0  0  0  0
  -37.0671   60.4956   60.9730 H   0  0  0  0  0  0  0  0  0  0  0  0
  -37.6984   59.3407   62.2012 H   0  0  0  0  0  0  0  0  0  0  0  0
  -34.8121   60.1326   61.8363 H   0  0  0  0  0  0  0  0  0  0  0  0
  -34.1643   58.5128   61.9351 H   0  0  0  0  0  0  0  0  0  0  0  0
  -35.4100   59.0249   63.0481 H   0  0  0  0  0  0  0  0  0  0  0  0
  -39.5949   55.5049   63.0966 H   0  0  0  0  0  0  0  0  0  0  0  0
  -35.3397   59.7584   59.4785 H   0  0  0  0  0  0  0  0  0  0  0  0
  -36.3025   58.3773   59.0109 H   0  0  0  0  0  0  0  0  0  0  0  0
  -34.6772   58.1469   59.6094 H   0  0  0  0  0  0  0  0  0  0  0  0
  -36.7883   57.1195   62.3967 H   0  0  0  0  0  0  0  0  0  0  0  0
  -35.5209   56.6078   61.3082 H   0  0  0  0  0  0  0  0  0  0  0  0
  -37.1462   56.8383   60.7098 H   0  0  0  0  0  0  0  0  0  0  0  0
  -37.6304   58.9560   66.9299 H   0  0  0  0  0  0  0  0  0  0  0  0
  -37.9093   57.6901   65.7344 H   0  0  0  0  0  0  0  0  0  0  0  0
  -41.3508   59.7963   65.5416 H   0  0  0  0  0  0  0  0  0  0  0  0
  -42.0377   60.3996   67.0625 H   0  0  0  0  0  0  0  0  0  0  0  0
  -42.6787   58.1797   67.6825 H   0  0  0  0  0  0  0  0  0  0  0  0
  -41.9769   57.5734   66.1596 H   0  0  0  0  0  0  0  0  0  0  0  0
  -43.6088   58.7562   64.9009 H   0  0  0  0  0  0  0  0  0  0  0  0
  -44.3043   59.3890   66.4084 H   0  0  0  0  0  0  0  0  0  0  0  0
  -45.6287   57.5786   65.5112 H   0  0  0  0  0  0  0  0  0  0  0  0
  -44.9036   57.1882   67.0812 H   0  0  0  0  0  0  0  0  0  0  0  0
  -43.2140   55.8759   66.0011 H   0  0  0  0  0  0  0  0  0  0  0  0
  -43.9119   56.2761   64.4273 H   0  0  0  0  0  0  0  0  0  0  0  0
  -45.9374   55.1485   65.0161 H   0  0  0  0  0  0  0  0  0  0  0  0
  -45.2208   54.7541   66.6047 H   0  0  0  0  0  0  0  0  0  0  0  0
  -45.2270   52.8549   65.1357 H   0  0  0  0  0  0  0  0  0  0  0  0
  -43.5909   53.4129   65.5654 H   0  0  0  0  0  0  0  0  0  0  0  0
  -44.6459   54.3209   62.9859 H   0  0  0  0  0  0  0  0  0  0  0  0
  -42.9874   53.1694   62.0059 H   0  0  0  0  0  0  0  0  0  0  0  0
  -42.3855   51.0285   63.1546 H   0  0  0  0  0  0  0  0  0  0  0  0
  -42.5154   51.8779   64.6816 H   0  0  0  0  0  0  0  0  0  0  0  0
  -40.5545   52.4910   62.4957 H   0  0  0  0  0  0  0  0  0  0  0  0
  -40.2241   51.6536   64.0445 H   0  0  0  0  0  0  0  0  0  0  0  0
  -41.0431   54.4901   63.7577 H   0  0  0  0  0  0  0  0  0  0  0  0
  -39.3985   53.8626   64.0749 H   0  0  0  0  0  0  0  0  0  0  0  0
  -40.0937   53.0045   66.1736 H   0  0  0  0  0  0  0  0  0  0  0  0
  -41.7419   53.5941   65.8656 H   0  0  0  0  0  0  0  0  0  0  0  0
  -40.5576   55.0373   67.4016 H   0  0  0  0  0  0  0  0  0  0  0  0
  -40.9604   55.8407   65.8664 H   0  0  0  0  0  0  0  0  0  0  0  0
  -38.7734   56.4692   66.6442 H   0  0  0  0  0  0  0  0  0  0  0  0
  -38.7408   55.5459   65.1095 H   0  0  0  0  0  0  0  0  0  0  0  0
  -38.0395   54.4595   67.7845 H   0  0  0  0  0  0  0  0  0  0  0  0
  -36.9063   54.9642   66.5198 H   0  0  0  0  0  0  0  0  0  0  0  0
  -38.9003   52.7661   66.2997 H   0  0  0  0  0  0  0  0  0  0  0  0
  -37.1773   52.5778   66.5204 H   0  0  0  0  0  0  0  0  0  0  0  0
  -37.7972   53.2874   65.0490 H   0  0  0  0  0  0  0  0  0  0  0  0
  1  9  1  0  0  0  0
  1 11  1  0  0  0  0
  1 13  1  0  0  0  0
  1 15  1  0  0  0  0
  2  3  1  0  0  0  0
  2  5  1  0  0  0  0
  2 17  1  0  0  0  0
  2 36  1  1  0  0  0
  3 37  1  0  0  0  0
  4  6  1  0  0  0  0
  4  8  2  1  0  0  0
  4 10  1  0  0  0  0
  4 12  1  0  0  0  0
  5  6  1  0  0  0  0
  5 38  1  0  0  0  0
  5 39  1  0  0  0  0
  7  9  1  0  0  0  0
  7 10  1  0  0  0  0
  7 40  1  0  0  0  0
  7 41  1  0  0  0  0
  9 42  1  0  0  0  0
  9 43  1  0  0  0  0
 11 44  1  0  0  0  0
 11 45  1  0  0  0  0
 11 46  1  0  0  0  0
 12 47  1  0  0  0  0
 13 48  1  0  0  0  0
 13 49  1  0  0  0  0
 13 50  1  0  0  0  0
 14 17  1  0  0  0  0
 14 18  1  0  0  0  0
 15 51  1  0  0  0  0
 15 52  1  0  0  0  0
 15 53  1  0  0  0  0
 16 18  2  0  0  0  0
 17 54  1  0  0  0  0
 17 55  1  0  0  0  0
 18 19  1  0  0  0  0
 19 20  1  0  0  0  0
 19 56  1  0  0  0  0
 19 57  1  0  0  0  0
 20 21  1  0  0  0  0
 20 58  1  0  0  0  0
 20 59  1  0  0  0  0
 21 22  1  0  0  0  0
 21 60  1  0  0  0  0
 21 61  1  0  0  0  0
 22 23  1  0  0  0  0
 22 62  1  0  0  0  0
 22 63  1  0  0  0  0
 23 24  1  0  0  0  0
 23 64  1  0  0  0  0
 23 65  1  0  0  0  0
 24 25  1  0  0  0  0
 24 66  1  0  0  0  0
 24 67  1  0  0  0  0
 25 26  1  0  0  0  0
 25 68  1  0  0  0  0
 25 69  1  0  0  0  0
 26 27  2  0  0  0  0
 26 70  1  0  0  0  0
 27 28  1  0  0  0  0
 27 71  1  0  0  0  0
 28 29  1  0  0  0  0
 28 72  1  0  0  0  0
 28 73  1  0  0  0  0
 29 30  1  0  0  0  0
 29 74  1  0  0  0  0
 29 75  1  0  0  0  0
 30 31  1  0  0  0  0
 30 76  1  0  0  0  0
 30 77  1  0  0  0  0
 31 32  1  0  0  0  0
 31 78  1  0  0  0  0
 31 79  1  0  0  0  0
 32 33  1  0  0  0  0
 32 80  1  0  0  0  0
 32 81  1  0  0  0  0
 33 34  1  0  0  0  0
 33 82  1  0  0  0  0
 33 83  1  0  0  0  0
 34 35  1  0  0  0  0
 34 84  1  0  0  0  0
 34 85  1  0  0  0  0
 35 86  1  0  0  0  0
 35 87  1  0  0  0  0
 35 88  1  0  0  0  0
M  CHG  1   8  -1
M  END
$$$$
/media/chris/experiments/cd1a-new-docking/inputs/ligands/4x6e_ligand.pdb
 OpenBabel07012320273D

 88 87  0  0  1  0  0  0  0  0999 V2000
  -33.7524   55.4488   68.6009 N   0  0  0  0  0  4  0  0  0  0  0  0
  -39.4975   56.5952   66.0461 C   0  0  1  0  0  0  0  0  0  0  0  0
  -39.6704   57.5768   65.0150 O   0  0  0  0  0  0  0  0  0  0  0  0
  -37.2851   53.2824   66.6654 P   0  0  1  0  0  0  0  0  0  0  0  0
  -38.4614   55.5858   65.6104 C   0  0  0  0  0  0  0  0  0  0  0  0
  -38.2576   54.5580   66.6102 O   0  0  0  0  0  0  0  0  0  0  0  0
  -35.5053   53.5713   68.7564 C   0  0  0  0  0  0  0  0  0  0  0  0
  -37.0491   52.7997   65.2352 O   0  5  0  0  0  0  0  0  0  0  0  0
  -34.0838   54.0198   68.9893 C   0  0  0  0  0  0  0  0  0  0  0  0
  -35.8350   53.6600   67.3434 O   0  0  0  0  0  0  0  0  0  0  0  0
  -34.5870   56.4113   69.3834 C   0  0  0  0  0  0  0  0  0  0  0  0
  -37.9601   52.2043   67.4206 O   0  0  0  0  0  0  0  0  0  0  0  0
  -34.0407   55.6273   67.1464 C   0  0  0  0  0  0  0  0  0  0  0  0
  -40.1976   58.1437   67.8087 O   0  0  0  0  0  0  0  0  0  0  0  0
  -32.3022   55.7422   68.8604 C   0  0  0  0  0  0  0  0  0  0  0  0
  -39.3411   60.1674   67.3359 O   0  0  0  0  0  0  0  0  0  0  0  0
  -39.1529   57.2490   67.3675 C   0  0  0  0  0  0  0  0  0  0  0  0
  -40.2402   59.3661   67.2706 C   0  0  0  0  0  0  0  0  0  0  0  0
  -41.5470   59.5850   66.5720 C   0  0  0  0  0  0  0  0  0  0  0  0
  -42.4780   58.3810   66.6510 C   0  0  0  0  0  0  0  0  0  0  0  0
  -43.8050   58.5690   65.9360 C   0  0  0  0  0  0  0  0  0  0  0  0
  -44.6170   59.7376   66.4663 C   0  0  0  0  0  0  0  0  0  0  0  0
  -44.9506   59.6053   67.9423 C   0  0  0  0  0  0  0  0  0  0  0  0
  -45.7735   60.7686   68.4492 C   0  0  0  0  0  0  0  0  0  0  0  0
  -46.1253   60.7036   69.9216 C   0  0  0  0  0  0  0  0  0  0  0  0
  -46.9009   59.5018   70.3040 C   0  0  0  0  0  0  0  0  0  0  0  0
  -48.2139   59.3977   70.3172 C   0  0  0  0  0  0  0  0  0  0  0  0
  -49.2064   60.4399   69.9156 C   0  0  0  0  0  0  0  0  0  0  0  0
  -49.0087   60.8172   68.4466 C   0  0  0  0  0  0  0  0  0  0  0  0
  -49.1875   59.6800   67.4516 C   0  0  0  0  0  0  0  0  0  0  0  0
  -48.9722   60.0612   65.9919 C   0  0  0  0  0  0  0  0  0  0  0  0
  -49.1762   58.9013   65.0228 C   0  0  0  0  0  0  0  0  0  0  0  0
  -48.2509   57.7218   65.2760 C   0  0  0  0  0  0  0  0  0  0  0  0
  -48.4120   56.5502   64.3190 C   0  0  0  0  0  0  0  0  0  0  0  0
  -47.4856   55.4153   64.6309 C   0  0  0  0  0  0  0  0  0  0  0  0
  -40.4191   56.0745   66.2025 H   0  0  0  0  0  0  0  0  0  0  0  0
  -38.8345   58.0483   64.8740 H   0  0  0  0  0  0  0  0  0  0  0  0
  -37.5343   56.0924   65.4407 H   0  0  0  0  0  0  0  0  0  0  0  0
  -38.8119   55.1146   64.7160 H   0  0  0  0  0  0  0  0  0  0  0  0
  -36.1694   54.1980   69.3142 H   0  0  0  0  0  0  0  0  0  0  0  0
  -35.6073   52.5551   69.0754 H   0  0  0  0  0  0  0  0  0  0  0  0
  -33.8751   53.9099   70.0330 H   0  0  0  0  0  0  0  0  0  0  0  0
  -33.4848   53.4063   68.3493 H   0  0  0  0  0  0  0  0  0  0  0  0
  -35.6231   56.2112   69.2059 H   0  0  0  0  0  0  0  0  0  0  0  0
  -34.3594   57.4111   69.0779 H   0  0  0  0  0  0  0  0  0  0  0  0
  -34.3759   56.3003   70.4265 H   0  0  0  0  0  0  0  0  0  0  0  0
  -38.8110   52.0002   67.0020 H   0  0  0  0  0  0  0  0  0  0  0  0
  -35.0734   55.4187   66.9593 H   0  0  0  0  0  0  0  0  0  0  0  0
  -33.4324   54.9558   66.5773 H   0  0  0  0  0  0  0  0  0  0  0  0
  -33.8229   56.6351   66.8607 H   0  0  0  0  0  0  0  0  0  0  0  0
  -32.0934   55.6150   69.9021 H   0  0  0  0  0  0  0  0  0  0  0  0
  -32.0854   56.7500   68.5737 H   0  0  0  0  0  0  0  0  0  0  0  0
  -31.6949   55.0707   68.2902 H   0  0  0  0  0  0  0  0  0  0  0  0
  -38.2456   57.8045   67.2534 H   0  0  0  0  0  0  0  0  0  0  0  0
  -39.0407   56.4788   68.1018 H   0  0  0  0  0  0  0  0  0  0  0  0
  -41.3508   59.7963   65.5416 H   0  0  0  0  0  0  0  0  0  0  0  0
  -42.0377   60.3996   67.0625 H   0  0  0  0  0  0  0  0  0  0  0  0
  -42.6787   58.1797   67.6825 H   0  0  0  0  0  0  0  0  0  0  0  0
  -41.9769   57.5734   66.1596 H   0  0  0  0  0  0  0  0  0  0  0  0
  -44.3819   57.6753   66.0516 H   0  0  0  0  0  0  0  0  0  0  0  0
  -43.5836   58.7785   64.9103 H   0  0  0  0  0  0  0  0  0  0  0  0
  -45.5314   59.7964   65.9137 H   0  0  0  0  0  0  0  0  0  0  0  0
  -44.0231   60.6199   66.3495 H   0  0  0  0  0  0  0  0  0  0  0  0
  -44.0379   59.5605   68.4990 H   0  0  0  0  0  0  0  0  0  0  0  0
  -45.5289   58.7141   68.0695 H   0  0  0  0  0  0  0  0  0  0  0  0
  -46.6853   60.8002   67.8902 H   0  0  0  0  0  0  0  0  0  0  0  0
  -45.1701   61.6430   68.3218 H   0  0  0  0  0  0  0  0  0  0  0  0
  -46.7037   61.5695   70.1677 H   0  0  0  0  0  0  0  0  0  0  0  0
  -45.2009   60.6587   70.4586 H   0  0  0  0  0  0  0  0  0  0  0  0
  -46.3626   58.6679   70.5866 H   0  0  0  0  0  0  0  0  0  0  0  0
  -48.5997   58.4968   70.6405 H   0  0  0  0  0  0  0  0  0  0  0  0
  -49.0728   61.3091   70.5252 H   0  0  0  0  0  0  0  0  0  0  0  0
  -50.1945   60.0510   70.0470 H   0  0  0  0  0  0  0  0  0  0  0  0
  -48.0161   61.2008   68.3349 H   0  0  0  0  0  0  0  0  0  0  0  0
  -49.7731   61.5308   68.2197 H   0  0  0  0  0  0  0  0  0  0  0  0
  -50.1842   59.3040   67.5528 H   0  0  0  0  0  0  0  0  0  0  0  0
  -48.4346   58.9566   67.6858 H   0  0  0  0  0  0  0  0  0  0  0  0
  -47.9714   60.4232   65.8807 H   0  0  0  0  0  0  0  0  0  0  0  0
  -49.7024   60.8050   65.7502 H   0  0  0  0  0  0  0  0  0  0  0  0
  -49.0045   59.2578   64.0287 H   0  0  0  0  0  0  0  0  0  0  0  0
  -50.1767   58.5491   65.1637 H   0  0  0  0  0  0  0  0  0  0  0  0
  -48.4339   57.3654   66.2682 H   0  0  0  0  0  0  0  0  0  0  0  0
  -47.2569   58.0892   65.1283 H   0  0  0  0  0  0  0  0  0  0  0  0
  -48.2126   56.8910   63.3245 H   0  0  0  0  0  0  0  0  0  0  0  0
  -49.4132   56.1864   64.4203 H   0  0  0  0  0  0  0  0  0  0  0  0
  -46.4723   55.7463   64.5386 H   0  0  0  0  0  0  0  0  0  0  0  0
  -47.6622   54.6123   63.9462 H   0  0  0  0  0  0  0  0  0  0  0  0
  -47.6606   55.0765   65.6307 H   0  0  0  0  0  0  0  0  0  0  0  0
  1  9  1  0  0  0  0
  1 11  1  0  0  0  0
  1 13  1  0  0  0  0
  1 15  1  0  0  0  0
  2  3  1  0  0  0  0
  2  5  1  0  0  0  0
  2 17  1  0  0  0  0
  2 36  1  1  0  0  0
  3 37  1  0  0  0  0
  4  6  1  0  0  0  0
  4  8  2  6  0  0  0
  4 10  1  0  0  0  0
  4 12  1  0  0  0  0
  5  6  1  0  0  0  0
  5 38  1  0  0  0  0
  5 39  1  0  0  0  0
  7  9  1  0  0  0  0
  7 10  1  0  0  0  0
  7 40  1  0  0  0  0
  7 41  1  0  0  0  0
  9 42  1  0  0  0  0
  9 43  1  0  0  0  0
 11 44  1  0  0  0  0
 11 45  1  0  0  0  0
 11 46  1  0  0  0  0
 12 47  1  0  0  0  0
 13 48  1  0  0  0  0
 13 49  1  0  0  0  0
 13 50  1  0  0  0  0
 14 17  1  0  0  0  0
 14 18  1  0  0  0  0
 15 51  1  0  0  0  0
 15 52  1  0  0  0  0
 15 53  1  0  0  0  0
 16 18  2  0  0  0  0
 17 54  1  0  0  0  0
 17 55  1  0  0  0  0
 18 19  1  0  0  0  0
 19 20  1  0  0  0  0
 19 56  1  0  0  0  0
 19 57  1  0  0  0  0
 20 21  1  0  0  0  0
 20 58  1  0  0  0  0
 20 59  1  0  0  0  0
 21 22  1  0  0  0  0
 21 60  1  0  0  0  0
 21 61  1  0  0  0  0
 22 23  1  0  0  0  0
 22 62  1  0  0  0  0
 22 63  1  0  0  0  0
 23 24  1  0  0  0  0
 23 64  1  0  0  0  0
 23 65  1  0  0  0  0
 24 25  1  0  0  0  0
 24 66  1  0  0  0  0
 24 67  1  0  0  0  0
 25 26  1  0  0  0  0
 25 68  1  0  0  0  0
 25 69  1  0  0  0  0
 26 27  2  0  0  0  0
 26 70  1  0  0  0  0
 27 28  1  0  0  0  0
 27 71  1  0  0  0  0
 28 29  1  0  0  0  0
 28 72  1  0  0  0  0
 28 73  1  0  0  0  0
 29 30  1  0  0  0  0
 29 74  1  0  0  0  0
 29 75  1  0  0  0  0
 30 31  1  0  0  0  0
 30 76  1  0  0  0  0
 30 77  1  0  0  0  0
 31 32  1  0  0  0  0
 31 78  1  0  0  0  0
 31 79  1  0  0  0  0
 32 33  1  0  0  0  0
 32 80  1  0  0  0  0
 32 81  1  0  0  0  0
 33 34  1  0  0  0  0
 33 82  1  0  0  0  0
 33 83  1  0  0  0  0
 34 35  1  0  0  0  0
 34 84  1  0  0  0  0
 34 85  1  0  0  0  0
 35 86  1  0  0  0  0
 35 87  1  0  0  0  0
 35 88  1  0  0  0  0
M  CHG  1   8  -1
M  END
$$$$
/media/chris/experiments/cd1a-new-docking/inputs/ligands/4x6e_ligand.pdb
 OpenBabel07012320273D

 88 87  0  0  1  0  0  0  0  0999 V2000
  -48.9467   58.1319   68.3206 N   0  0  0  0  0  4  0  0  0  0  0  0
  -44.2684   62.9918   67.8482 C   0  0  1  0  0  0  0  0  0  0  0  0
  -44.6416   64.3755   67.7963 O   0  0  0  0  0  0  0  0  0  0  0  0
  -47.2555   61.9946   70.3654 P   0  0  1  0  0  0  0  0  0  0  0  0
  -45.4731   62.1599   68.2211 C   0  0  0  0  0  0  0  0  0  0  0  0
  -46.0173   62.5467   69.5062 O   0  0  0  0  0  0  0  0  0  0  0  0
  -47.9533   59.3233   70.3738 C   0  0  0  0  0  0  0  0  0  0  0  0
  -48.5237   62.1463   69.5271 O   0  5  0  0  0  0  0  0  0  0  0  0
  -48.0358   59.2134   68.8714 C   0  0  0  0  0  0  0  0  0  0  0  0
  -47.0611   60.4074   70.7500 O   0  0  0  0  0  0  0  0  0  0  0  0
  -48.5122   56.7852   68.8031 C   0  0  0  0  0  0  0  0  0  0  0  0
  -47.3942   62.8232   71.5830 O   0  0  0  0  0  0  0  0  0  0  0  0
  -48.8736   58.1601   66.8292 C   0  0  0  0  0  0  0  0  0  0  0  0
  -43.2707   61.1523   66.5772 O   0  0  0  0  0  0  0  0  0  0  0  0
  -50.3656   58.3676   68.7538 C   0  0  0  0  0  0  0  0  0  0  0  0
  -41.6498   61.4332   68.1090 O   0  0  0  0  0  0  0  0  0  0  0  0
  -43.6370   62.5493   66.5452 C   0  0  0  0  0  0  0  0  0  0  0  0
  -42.1287   60.8209   67.1868 C   0  0  0  0  0  0  0  0  0  0  0  0
  -41.5470   59.5850   66.5720 C   0  0  0  0  0  0  0  0  0  0  0  0
  -42.4780   58.3810   66.6510 C   0  0  0  0  0  0  0  0  0  0  0  0
  -43.8050   58.5690   65.9360 C   0  0  0  0  0  0  0  0  0  0  0  0
  -44.7241   57.3648   66.0412 C   0  0  0  0  0  0  0  0  0  0  0  0
  -45.0954   57.0268   67.4749 C   0  0  0  0  0  0  0  0  0  0  0  0
  -45.9968   55.8154   67.5620 C   0  0  0  0  0  0  0  0  0  0  0  0
  -46.4170   55.4365   68.9676 C   0  0  0  0  0  0  0  0  0  0  0  0
  -45.2866   55.1276   69.8726 C   0  0  0  0  0  0  0  0  0  0  0  0
  -45.2622   55.3168   71.1758 C   0  0  0  0  0  0  0  0  0  0  0  0
  -46.3682   55.8403   72.0332 C   0  0  0  0  0  0  0  0  0  0  0  0
  -45.9256   57.1234   72.7385 C   0  0  0  0  0  0  0  0  0  0  0  0
  -45.5435   58.2742   71.8192 C   0  0  0  0  0  0  0  0  0  0  0  0
  -44.3994   57.9777   70.8573 C   0  0  0  0  0  0  0  0  0  0  0  0
  -43.1006   57.5900   71.5565 C   0  0  0  0  0  0  0  0  0  0  0  0
  -41.9511   57.3097   70.6017 C   0  0  0  0  0  0  0  0  0  0  0  0
  -40.6414   56.9030   71.2604 C   0  0  0  0  0  0  0  0  0  0  0  0
  -40.7623   55.6434   72.0619 C   0  0  0  0  0  0  0  0  0  0  0  0
  -43.5239   62.8501   68.6035 H   0  0  0  0  0  0  0  0  0  0  0  0
  -45.3165   64.5028   67.1113 H   0  0  0  0  0  0  0  0  0  0  0  0
  -45.1835   61.1307   68.2633 H   0  0  0  0  0  0  0  0  0  0  0  0
  -46.2281   62.3172   67.4794 H   0  0  0  0  0  0  0  0  0  0  0  0
  -47.5813   58.4039   70.7754 H   0  0  0  0  0  0  0  0  0  0  0  0
  -48.9296   59.5238   70.7631 H   0  0  0  0  0  0  0  0  0  0  0  0
  -48.3826   60.1531   68.4952 H   0  0  0  0  0  0  0  0  0  0  0  0
  -47.0507   58.9434   68.5527 H   0  0  0  0  0  0  0  0  0  0  0  0
  -47.5017   56.6066   68.4999 H   0  0  0  0  0  0  0  0  0  0  0  0
  -49.1484   56.0338   68.3842 H   0  0  0  0  0  0  0  0  0  0  0  0
  -48.5754   56.7514   69.8707 H   0  0  0  0  0  0  0  0  0  0  0  0
  -47.5074   63.7529   71.3302 H   0  0  0  0  0  0  0  0  0  0  0  0
  -47.8636   57.9924   66.5184 H   0  0  0  0  0  0  0  0  0  0  0  0
  -49.2024   59.1143   66.4740 H   0  0  0  0  0  0  0  0  0  0  0  0
  -49.5026   57.3937   66.4268 H   0  0  0  0  0  0  0  0  0  0  0  0
  -50.4203   58.3478   69.8222 H   0  0  0  0  0  0  0  0  0  0  0  0
  -50.9937   57.6010   68.3503 H   0  0  0  0  0  0  0  0  0  0  0  0
  -50.6935   59.3217   68.3975 H   0  0  0  0  0  0  0  0  0  0  0  0
  -42.7586   63.1343   66.3691 H   0  0  0  0  0  0  0  0  0  0  0  0
  -44.3534   62.6887   65.7627 H   0  0  0  0  0  0  0  0  0  0  0  0
  -40.6379   59.3462   67.0832 H   0  0  0  0  0  0  0  0  0  0  0  0
  -41.3821   59.7924   65.5353 H   0  0  0  0  0  0  0  0  0  0  0  0
  -42.6787   58.1797   67.6825 H   0  0  0  0  0  0  0  0  0  0  0  0
  -41.9769   57.5734   66.1596 H   0  0  0  0  0  0  0  0  0  0  0  0
  -43.6088   58.7562   64.9009 H   0  0  0  0  0  0  0  0  0  0  0  0
  -44.3043   59.3890   66.4084 H   0  0  0  0  0  0  0  0  0  0  0  0
  -44.2305   56.5199   65.6083 H   0  0  0  0  0  0  0  0  0  0  0  0
  -45.6292   57.6059   65.5239 H   0  0  0  0  0  0  0  0  0  0  0  0
  -45.6019   57.8648   67.9062 H   0  0  0  0  0  0  0  0  0  0  0  0
  -44.1925   56.8028   68.0036 H   0  0  0  0  0  0  0  0  0  0  0  0
  -45.4784   54.9831   67.1337 H   0  0  0  0  0  0  0  0  0  0  0  0
  -46.8941   56.0690   67.0372 H   0  0  0  0  0  0  0  0  0  0  0  0
  -47.0465   54.5733   68.9092 H   0  0  0  0  0  0  0  0  0  0  0  0
  -46.9195   56.2866   69.3798 H   0  0  0  0  0  0  0  0  0  0  0  0
  -44.4387   54.7267   69.4420 H   0  0  0  0  0  0  0  0  0  0  0  0
  -44.3819   55.0769   71.6580 H   0  0  0  0  0  0  0  0  0  0  0  0
  -46.6261   55.1047   72.7661 H   0  0  0  0  0  0  0  0  0  0  0  0
  -47.2167   56.0545   71.4174 H   0  0  0  0  0  0  0  0  0  0  0  0
  -45.0763   56.8901   73.3460 H   0  0  0  0  0  0  0  0  0  0  0  0
  -46.7737   57.4608   73.2968 H   0  0  0  0  0  0  0  0  0  0  0  0
  -45.2573   59.1053   72.4292 H   0  0  0  0  0  0  0  0  0  0  0  0
  -46.4023   58.4690   71.2113 H   0  0  0  0  0  0  0  0  0  0  0  0
  -44.2182   58.8516   70.2670 H   0  0  0  0  0  0  0  0  0  0  0  0
  -44.6980   57.1402   70.2620 H   0  0  0  0  0  0  0  0  0  0  0  0
  -43.2796   56.7093   72.1371 H   0  0  0  0  0  0  0  0  0  0  0  0
  -42.8093   58.4248   72.1592 H   0  0  0  0  0  0  0  0  0  0  0  0
  -41.7721   58.1967   70.0307 H   0  0  0  0  0  0  0  0  0  0  0  0
  -42.2564   56.4722   70.0098 H   0  0  0  0  0  0  0  0  0  0  0  0
  -40.3256   57.6926   71.9098 H   0  0  0  0  0  0  0  0  0  0  0  0
  -39.9309   56.7224   70.4810 H   0  0  0  0  0  0  0  0  0  0  0  0
  -41.4679   55.7902   72.8527 H   0  0  0  0  0  0  0  0  0  0  0  0
  -39.8087   55.3918   72.4768 H   0  0  0  0  0  0  0  0  0  0  0  0
  -41.0966   54.8484   71.4286 H   0  0  0  0  0  0  0  0  0  0  0  0
  1  9  1  0  0  0  0
  1 11  1  0  0  0  0
  1 13  1  0  0  0  0
  1 15  1  0  0  0  0
  2  3  1  0  0  0  0
  2  5  1  0  0  0  0
  2 17  1  0  0  0  0
  2 36  1  1  0  0  0
  3 37  1  0  0  0  0
  4  6  1  0  0  0  0
  4  8  2  6  0  0  0
  4 10  1  0  0  0  0
  4 12  1  0  0  0  0
  5  6  1  0  0  0  0
  5 38  1  0  0  0  0
  5 39  1  0  0  0  0
  7  9  1  0  0  0  0
  7 10  1  0  0  0  0
  7 40  1  0  0  0  0
  7 41  1  0  0  0  0
  9 42  1  0  0  0  0
  9 43  1  0  0  0  0
 11 44  1  0  0  0  0
 11 45  1  0  0  0  0
 11 46  1  0  0  0  0
 12 47  1  0  0  0  0
 13 48  1  0  0  0  0
 13 49  1  0  0  0  0
 13 50  1  0  0  0  0
 14 17  1  0  0  0  0
 14 18  1  0  0  0  0
 15 51  1  0  0  0  0
 15 52  1  0  0  0  0
 15 53  1  0  0  0  0
 16 18  2  0  0  0  0
 17 54  1  0  0  0  0
 17 55  1  0  0  0  0
 18 19  1  0  0  0  0
 19 20  1  0  0  0  0
 19 56  1  0  0  0  0
 19 57  1  0  0  0  0
 20 21  1  0  0  0  0
 20 58  1  0  0  0  0
 20 59  1  0  0  0  0
 21 22  1  0  0  0  0
 21 60  1  0  0  0  0
 21 61  1  0  0  0  0
 22 23  1  0  0  0  0
 22 62  1  0  0  0  0
 22 63  1  0  0  0  0
 23 24  1  0  0  0  0
 23 64  1  0  0  0  0
 23 65  1  0  0  0  0
 24 25  1  0  0  0  0
 24 66  1  0  0  0  0
 24 67  1  0  0  0  0
 25 26  1  0  0  0  0
 25 68  1  0  0  0  0
 25 69  1  0  0  0  0
 26 27  2  0  0  0  0
 26 70  1  0  0  0  0
 27 28  1  0  0  0  0
 27 71  1  0  0  0  0
 28 29  1  0  0  0  0
 28 72  1  0  0  0  0
 28 73  1  0  0  0  0
 29 30  1  0  0  0  0
 29 74  1  0  0  0  0
 29 75  1  0  0  0  0
 30 31  1  0  0  0  0
 30 76  1  0  0  0  0
 30 77  1  0  0  0  0
 31 32  1  0  0  0  0
 31 78  1  0  0  0  0
 31 79  1  0  0  0  0
 32 33  1  0  0  0  0
 32 80  1  0  0  0  0
 32 81  1  0  0  0  0
 33 34  1  0  0  0  0
 33 82  1  0  0  0  0
 33 83  1  0  0  0  0
 34 35  1  0  0  0  0
 34 84  1  0  0  0  0
 34 85  1  0  0  0  0
 35 86  1  0  0  0  0
 35 87  1  0  0  0  0
 35 88  1  0  0  0  0
M  CHG  1   8  -1
M  END
$$$$
/media/chris/experiments/cd1a-new-docking/inputs/ligands/4x6e_ligand.pdb
 OpenBabel07012320273D

 88 87  0  0  1  0  0  0  0  0999 V2000
  -38.4774   51.0979   66.1790 N   0  0  0  0  0  4  0  0  0  0  0  0
  -38.3648   57.8711   64.7826 C   0  0  1  0  0  0  0  0  0  0  0  0
  -37.8927   58.9003   63.9026 O   0  0  0  0  0  0  0  0  0  0  0  0
  -39.3877   54.7646   65.5561 P   0  0  1  0  0  0  0  0  0  0  0  0
  -37.5421   56.6203   64.5803 C   0  0  0  0  0  0  0  0  0  0  0  0
  -37.9872   55.5392   65.4349 O   0  0  0  0  0  0  0  0  0  0  0  0
  -38.3015   52.6579   64.1402 C   0  0  0  0  0  0  0  0  0  0  0  0
  -40.5033   55.7307   65.1608 O   0  5  0  0  0  0  0  0  0  0  0  0
  -37.6304   52.0367   65.3401 C   0  0  0  0  0  0  0  0  0  0  0  0
  -39.4408   53.4573   64.5595 O   0  0  0  0  0  0  0  0  0  0  0  0
  -38.9401   49.9363   65.3594 C   0  0  0  0  0  0  0  0  0  0  0  0
  -39.5882   54.3660   66.9665 O   0  0  0  0  0  0  0  0  0  0  0  0
  -39.6699   51.8467   66.6765 C   0  0  0  0  0  0  0  0  0  0  0  0
  -39.2251   59.4857   66.4098 O   0  0  0  0  0  0  0  0  0  0  0  0
  -37.6898   50.5822   67.3496 C   0  0  0  0  0  0  0  0  0  0  0  0
  -40.1085   59.1264   68.4453 O   0  0  0  0  0  0  0  0  0  0  0  0
  -38.3627   58.3421   66.2215 C   0  0  0  0  0  0  0  0  0  0  0  0
  -40.2402   59.3661   67.2706 C   0  0  0  0  0  0  0  0  0  0  0  0
  -41.5470   59.5850   66.5720 C   0  0  0  0  0  0  0  0  0  0  0  0
  -42.4780   58.3810   66.6510 C   0  0  0  0  0  0  0  0  0  0  0  0
  -43.8050   58.5690   65.9360 C   0  0  0  0  0  0  0  0  0  0  0  0
  -44.7241   57.3648   66.0412 C   0  0  0  0  0  0  0  0  0  0  0  0
  -46.0403   57.5587   65.3081 C   0  0  0  0  0  0  0  0  0  0  0  0
  -46.9497   56.3572   65.4376 C   0  0  0  0  0  0  0  0  0  0  0  0
  -46.3705   55.0622   64.9050 C   0  0  0  0  0  0  0  0  0  0  0  0
  -46.0120   55.1072   63.4692 C   0  0  0  0  0  0  0  0  0  0  0  0
  -45.1327   55.9155   62.9142 C   0  0  0  0  0  0  0  0  0  0  0  0
  -44.2778   56.9295   63.6024 C   0  0  0  0  0  0  0  0  0  0  0  0
  -42.9479   56.3002   64.0209 C   0  0  0  0  0  0  0  0  0  0  0  0
  -42.0974   55.7558   62.8826 C   0  0  0  0  0  0  0  0  0  0  0  0
  -42.7620   54.6711   62.0436 C   0  0  0  0  0  0  0  0  0  0  0  0
  -43.1683   53.4413   62.8490 C   0  0  0  0  0  0  0  0  0  0  0  0
  -43.8166   52.3489   62.0134 C   0  0  0  0  0  0  0  0  0  0  0  0
  -44.2517   51.1112   62.7837 C   0  0  0  0  0  0  0  0  0  0  0  0
  -43.1148   50.4383   63.4895 C   0  0  0  0  0  0  0  0  0  0  0  0
  -39.3821   57.6377   64.5468 H   0  0  0  0  0  0  0  0  0  0  0  0
  -36.9705   59.1111   64.1172 H   0  0  0  0  0  0  0  0  0  0  0  0
  -36.5187   56.8392   64.8035 H   0  0  0  0  0  0  0  0  0  0  0  0
  -37.6559   56.3084   63.5632 H   0  0  0  0  0  0  0  0  0  0  0  0
  -38.6363   51.8834   63.4822 H   0  0  0  0  0  0  0  0  0  0  0  0
  -37.5997   53.2884   63.6353 H   0  0  0  0  0  0  0  0  0  0  0  0
  -36.7834   51.4848   64.9895 H   0  0  0  0  0  0  0  0  0  0  0  0
  -37.3908   52.8555   65.9860 H   0  0  0  0  0  0  0  0  0  0  0  0
  -39.5028   50.2923   64.5219 H   0  0  0  0  0  0  0  0  0  0  0  0
  -39.5568   49.2999   65.9590 H   0  0  0  0  0  0  0  0  0  0  0  0
  -38.0917   49.3853   65.0108 H   0  0  0  0  0  0  0  0  0  0  0  0
  -39.5527   55.1526   67.5330 H   0  0  0  0  0  0  0  0  0  0  0  0
  -40.2325   52.2150   65.8442 H   0  0  0  0  0  0  0  0  0  0  0  0
  -39.3482   52.6687   67.2812 H   0  0  0  0  0  0  0  0  0  0  0  0
  -40.2835   51.1930   67.2605 H   0  0  0  0  0  0  0  0  0  0  0  0
  -36.8347   50.0453   66.9955 H   0  0  0  0  0  0  0  0  0  0  0  0
  -38.3045   49.9292   67.9333 H   0  0  0  0  0  0  0  0  0  0  0  0
  -37.3691   51.4049   67.9540 H   0  0  0  0  0  0  0  0  0  0  0  0
  -37.3645   58.6113   66.4969 H   0  0  0  0  0  0  0  0  0  0  0  0
  -38.7273   57.5445   66.8344 H   0  0  0  0  0  0  0  0  0  0  0  0
  -41.3508   59.7963   65.5416 H   0  0  0  0  0  0  0  0  0  0  0  0
  -42.0377   60.3996   67.0625 H   0  0  0  0  0  0  0  0  0  0  0  0
  -42.6787   58.1797   67.6825 H   0  0  0  0  0  0  0  0  0  0  0  0
  -41.9769   57.5734   66.1596 H   0  0  0  0  0  0  0  0  0  0  0  0
  -43.6088   58.7562   64.9009 H   0  0  0  0  0  0  0  0  0  0  0  0
  -44.3043   59.3890   66.4084 H   0  0  0  0  0  0  0  0  0  0  0  0
  -44.9328   57.1840   67.0750 H   0  0  0  0  0  0  0  0  0  0  0  0
  -44.2219   56.5372   65.5852 H   0  0  0  0  0  0  0  0  0  0  0  0
  -45.8357   57.7257   64.2712 H   0  0  0  0  0  0  0  0  0  0  0  0
  -46.5398   58.3972   65.7467 H   0  0  0  0  0  0  0  0  0  0  0  0
  -47.8524   56.5635   64.9014 H   0  0  0  0  0  0  0  0  0  0  0  0
  -47.1060   56.2090   66.4857 H   0  0  0  0  0  0  0  0  0  0  0  0
  -47.0940   54.2868   65.0469 H   0  0  0  0  0  0  0  0  0  0  0  0
  -45.4638   54.8843   65.4446 H   0  0  0  0  0  0  0  0  0  0  0  0
  -46.4964   54.4432   62.8450 H   0  0  0  0  0  0  0  0  0  0  0  0
  -45.0219   55.8403   61.8909 H   0  0  0  0  0  0  0  0  0  0  0  0
  -44.7873   57.2905   64.4713 H   0  0  0  0  0  0  0  0  0  0  0  0
  -44.0854   57.7392   62.9299 H   0  0  0  0  0  0  0  0  0  0  0  0
  -43.1607   55.4925   64.6896 H   0  0  0  0  0  0  0  0  0  0  0  0
  -42.3761   57.0875   64.4661 H   0  0  0  0  0  0  0  0  0  0  0  0
  -41.2019   55.3482   63.3030 H   0  0  0  0  0  0  0  0  0  0  0  0
  -41.9204   56.5785   62.2217 H   0  0  0  0  0  0  0  0  0  0  0  0
  -42.0765   54.3652   61.2812 H   0  0  0  0  0  0  0  0  0  0  0  0
  -43.6586   55.0920   61.6387 H   0  0  0  0  0  0  0  0  0  0  0  0
  -43.8629   53.7462   63.6035 H   0  0  0  0  0  0  0  0  0  0  0  0
  -42.2716   53.0281   63.2615 H   0  0  0  0  0  0  0  0  0  0  0  0
  -43.1138   52.0431   61.2668 H   0  0  0  0  0  0  0  0  0  0  0  0
  -44.7114   52.7763   61.6115 H   0  0  0  0  0  0  0  0  0  0  0  0
  -44.6871   50.4162   62.0965 H   0  0  0  0  0  0  0  0  0  0  0  0
  -44.9532   51.4249   63.5284 H   0  0  0  0  0  0  0  0  0  0  0  0
  -42.3925   50.1111   62.7711 H   0  0  0  0  0  0  0  0  0  0  0  0
  -43.4829   49.5944   64.0348 H   0  0  0  0  0  0  0  0  0  0  0  0
  -42.6569   51.1285   64.1669 H   0  0  0  0  0  0  0  0  0  0  0  0
  1  9  1  0  0  0  0
  1 11  1  0  0  0  0
  1 13  1  0  0  0  0
  1 15  1  0  0  0  0
  2  3  1  0  0  0  0
  2  5  1  0  0  0  0
  2 17  1  0  0  0  0
  2 36  1  6  0  0  0
  3 37  1  0  0  0  0
  4  6  1  0  0  0  0
  4  8  2  6  0  0  0
  4 10  1  0  0  0  0
  4 12  1  0  0  0  0
  5  6  1  0  0  0  0
  5 38  1  0  0  0  0
  5 39  1  0  0  0  0
  7  9  1  0  0  0  0
  7 10  1  0  0  0  0
  7 40  1  0  0  0  0
  7 41  1  0  0  0  0
  9 42  1  0  0  0  0
  9 43  1  0  0  0  0
 11 44  1  0  0  0  0
 11 45  1  0  0  0  0
 11 46  1  0  0  0  0
 12 47  1  0  0  0  0
 13 48  1  0  0  0  0
 13 49  1  0  0  0  0
 13 50  1  0  0  0  0
 14 17  1  0  0  0  0
 14 18  1  0  0  0  0
 15 51  1  0  0  0  0
 15 52  1  0  0  0  0
 15 53  1  0  0  0  0
 16 18  2  0  0  0  0
 17 54  1  0  0  0  0
 17 55  1  0  0  0  0
 18 19  1  0  0  0  0
 19 20  1  0  0  0  0
 19 56  1  0  0  0  0
 19 57  1  0  0  0  0
 20 21  1  0  0  0  0
 20 58  1  0  0  0  0
 20 59  1  0  0  0  0
 21 22  1  0  0  0  0
 21 60  1  0  0  0  0
 21 61  1  0  0  0  0
 22 23  1  0  0  0  0
 22 62  1  0  0  0  0
 22 63  1  0  0  0  0
 23 24  1  0  0  0  0
 23 64  1  0  0  0  0
 23 65  1  0  0  0  0
 24 25  1  0  0  0  0
 24 66  1  0  0  0  0
 24 67  1  0  0  0  0
 25 26  1  0  0  0  0
 25 68  1  0  0  0  0
 25 69  1  0  0  0  0
 26 27  2  0  0  0  0
 26 70  1  0  0  0  0
 27 28  1  0  0  0  0
 27 71  1  0  0  0  0
 28 29  1  0  0  0  0
 28 72  1  0  0  0  0
 28 73  1  0  0  0  0
 29 30  1  0  0  0  0
 29 74  1  0  0  0  0
 29 75  1  0  0  0  0
 30 31  1  0  0  0  0
 30 76  1  0  0  0  0
 30 77  1  0  0  0  0
 31 32  1  0  0  0  0
 31 78  1  0  0  0  0
 31 79  1  0  0  0  0
 32 33  1  0  0  0  0
 32 80  1  0  0  0  0
 32 81  1  0  0  0  0
 33 34  1  0  0  0  0
 33 82  1  0  0  0  0
 33 83  1  0  0  0  0
 34 35  1  0  0  0  0
 34 84  1  0  0  0  0
 34 85  1  0  0  0  0
 35 86  1  0  0  0  0
 35 87  1  0  0  0  0
 35 88  1  0  0  0  0
M  CHG  1   8  -1
M  END
$$$$
/media/chris/experiments/cd1a-new-docking/inputs/ligands/4x6e_ligand.pdb
 OpenBabel07012320273D

 88 87  0  0  1  0  0  0  0  0999 V2000
  -40.9088   60.7691   60.0593 N   0  0  0  0  0  4  0  0  0  0  0  0
  -39.1270   57.1462   65.6942 C   0  0  1  0  0  0  0  0  0  0  0  0
  -40.1770   56.7678   66.5946 O   0  0  0  0  0  0  0  0  0  0  0  0
  -38.7493   58.1314   61.8032 P   0  0  1  0  0  0  0  0  0  0  0  0
  -39.7060   57.3877   64.3199 C   0  0  0  0  0  0  0  0  0  0  0  0
  -38.6842   57.7582   63.3628 O   0  0  0  0  0  0  0  0  0  0  0  0
  -41.4132   58.8496   61.6973 C   0  0  0  0  0  0  0  0  0  0  0  0
  -37.8883   57.1292   61.0361 O   0  5  0  0  0  0  0  0  0  0  0  0
  -41.1361   60.3181   61.4903 C   0  0  0  0  0  0  0  0  0  0  0  0
  -40.2890   58.0555   61.2299 O   0  0  0  0  0  0  0  0  0  0  0  0
  -40.6306   62.2372   60.0107 C   0  0  0  0  0  0  0  0  0  0  0  0
  -38.1784   59.4831   61.6153 O   0  0  0  0  0  0  0  0  0  0  0  0
  -42.1417   60.4820   59.2668 C   0  0  0  0  0  0  0  0  0  0  0  0
  -39.2251   59.4857   66.4098 O   0  0  0  0  0  0  0  0  0  0  0  0
  -39.7462   60.0350   59.4542 C   0  0  0  0  0  0  0  0  0  0  0  0
  -40.1085   59.1264   68.4453 O   0  0  0  0  0  0  0  0  0  0  0  0
  -38.3627   58.3421   66.2215 C   0  0  0  0  0  0  0  0  0  0  0  0
  -40.2402   59.3661   67.2706 C   0  0  0  0  0  0  0  0  0  0  0  0
  -41.5470   59.5850   66.5720 C   0  0  0  0  0  0  0  0  0  0  0  0
  -42.4780   58.3810   66.6510 C   0  0  0  0  0  0  0  0  0  0  0  0
  -43.8050   58.5690   65.9360 C   0  0  0  0  0  0  0  0  0  0  0  0
  -44.6170   59.7376   66.4663 C   0  0  0  0  0  0  0  0  0  0  0  0
  -45.9487   59.9044   65.7548 C   0  0  0  0  0  0  0  0  0  0  0  0
  -45.7790   60.1306   64.2690 C   0  0  0  0  0  0  0  0  0  0  0  0
  -44.9620   61.3528   63.9021 C   0  0  0  0  0  0  0  0  0  0  0  0
  -45.5183   62.6261   64.4133 C   0  0  0  0  0  0  0  0  0  0  0  0
  -46.3721   63.4074   63.7846 C   0  0  0  0  0  0  0  0  0  0  0  0
  -46.9976   63.1709   62.4484 C   0  0  0  0  0  0  0  0  0  0  0  0
  -48.3148   62.4105   62.6106 C   0  0  0  0  0  0  0  0  0  0  0  0
  -49.3780   63.1174   63.4385 C   0  0  0  0  0  0  0  0  0  0  0  0
  -48.9695   63.4418   64.8704 C   0  0  0  0  0  0  0  0  0  0  0  0
  -50.0651   64.1340   65.6745 C   0  0  0  0  0  0  0  0  0  0  0  0
  -49.6566   64.4751   67.0988 C   0  0  0  0  0  0  0  0  0  0  0  0
  -50.7286   65.1522   67.9395 C   0  0  0  0  0  0  0  0  0  0  0  0
  -50.2599   65.4770   69.3245 C   0  0  0  0  0  0  0  0  0  0  0  0
  -38.4172   56.3492   65.6171 H   0  0  0  0  0  0  0  0  0  0  0  0
  -40.8198   57.4909   66.6638 H   0  0  0  0  0  0  0  0  0  0  0  0
  -40.4257   58.1771   64.3811 H   0  0  0  0  0  0  0  0  0  0  0  0
  -40.1600   56.4781   63.9860 H   0  0  0  0  0  0  0  0  0  0  0  0
  -42.2912   58.5752   61.1507 H   0  0  0  0  0  0  0  0  0  0  0  0
  -41.5601   58.6660   62.7411 H   0  0  0  0  0  0  0  0  0  0  0  0
  -41.9724   60.8640   61.8742 H   0  0  0  0  0  0  0  0  0  0  0  0
  -40.2123   60.5061   61.9965 H   0  0  0  0  0  0  0  0  0  0  0  0
  -41.4532   62.7705   60.4396 H   0  0  0  0  0  0  0  0  0  0  0  0
  -40.4996   62.5419   58.9933 H   0  0  0  0  0  0  0  0  0  0  0  0
  -39.7400   62.4500   60.5642 H   0  0  0  0  0  0  0  0  0  0  0  0
  -37.2721   59.5022   61.9605 H   0  0  0  0  0  0  0  0  0  0  0  0
  -42.9712   61.0040   59.6961 H   0  0  0  0  0  0  0  0  0  0  0  0
  -42.3370   59.4301   59.2795 H   0  0  0  0  0  0  0  0  0  0  0  0
  -42.0001   60.8063   58.2570 H   0  0  0  0  0  0  0  0  0  0  0  0
  -38.8617   60.2393   60.0206 H   0  0  0  0  0  0  0  0  0  0  0  0
  -39.6061   60.3596   58.4443 H   0  0  0  0  0  0  0  0  0  0  0  0
  -39.9429   58.9833   59.4668 H   0  0  0  0  0  0  0  0  0  0  0  0
  -37.5944   58.5985   65.5223 H   0  0  0  0  0  0  0  0  0  0  0  0
  -37.9447   58.0792   67.1707 H   0  0  0  0  0  0  0  0  0  0  0  0
  -41.3508   59.7963   65.5416 H   0  0  0  0  0  0  0  0  0  0  0  0
  -42.0377   60.3996   67.0625 H   0  0  0  0  0  0  0  0  0  0  0  0
  -42.6787   58.1797   67.6825 H   0  0  0  0  0  0  0  0  0  0  0  0
  -41.9769   57.5734   66.1596 H   0  0  0  0  0  0  0  0  0  0  0  0
  -44.3819   57.6753   66.0516 H   0  0  0  0  0  0  0  0  0  0  0  0
  -43.5836   58.7785   64.9103 H   0  0  0  0  0  0  0  0  0  0  0  0
  -44.0475   60.6344   66.3391 H   0  0  0  0  0  0  0  0  0  0  0  0
  -44.8265   59.5410   67.4970 H   0  0  0  0  0  0  0  0  0  0  0  0
  -46.4608   60.7448   66.1749 H   0  0  0  0  0  0  0  0  0  0  0  0
  -46.5071   59.0014   65.8876 H   0  0  0  0  0  0  0  0  0  0  0  0
  -46.7514   60.2377   63.8353 H   0  0  0  0  0  0  0  0  0  0  0  0
  -45.2410   59.2848   63.8948 H   0  0  0  0  0  0  0  0  0  0  0  0
  -44.9084   61.4135   62.8351 H   0  0  0  0  0  0  0  0  0  0  0  0
  -44.0013   61.2304   64.3571 H   0  0  0  0  0  0  0  0  0  0  0  0
  -45.2081   62.9297   65.3496 H   0  0  0  0  0  0  0  0  0  0  0  0
  -46.6385   64.2792   64.2683 H   0  0  0  0  0  0  0  0  0  0  0  0
  -46.3296   62.5958   61.8419 H   0  0  0  0  0  0  0  0  0  0  0  0
  -47.1932   64.1138   61.9819 H   0  0  0  0  0  0  0  0  0  0  0  0
  -48.0995   61.4735   63.0803 H   0  0  0  0  0  0  0  0  0  0  0  0
  -48.7230   62.3140   61.6263 H   0  0  0  0  0  0  0  0  0  0  0  0
  -50.2430   62.4886   63.4745 H   0  0  0  0  0  0  0  0  0  0  0  0
  -49.5553   64.0569   62.9581 H   0  0  0  0  0  0  0  0  0  0  0  0
  -48.1140   64.0838   64.8411 H   0  0  0  0  0  0  0  0  0  0  0  0
  -48.7627   62.5114   65.3567 H   0  0  0  0  0  0  0  0  0  0  0  0
  -50.9159   63.4863   65.7132 H   0  0  0  0  0  0  0  0  0  0  0  0
  -50.2776   65.0591   65.1806 H   0  0  0  0  0  0  0  0  0  0  0  0
  -48.8111   65.1293   67.0522 H   0  0  0  0  0  0  0  0  0  0  0  0
  -49.4510   63.5412   67.5787 H   0  0  0  0  0  0  0  0  0  0  0  0
  -51.5727   64.4983   68.0086 H   0  0  0  0  0  0  0  0  0  0  0  0
  -50.9800   66.0749   67.4594 H   0  0  0  0  0  0  0  0  0  0  0  0
  -49.9995   64.5729   69.8341 H   0  0  0  0  0  0  0  0  0  0  0  0
  -51.0424   65.9747   69.8583 H   0  0  0  0  0  0  0  0  0  0  0  0
  -49.4030   66.1155   69.2705 H   0  0  0  0  0  0  0  0  0  0  0  0
  1  9  1  0  0  0  0
  1 11  1  0  0  0  0
  1 13  1  0  0  0  0
  1 15  1  0  0  0  0
  2  3  1  0  0  0  0
  2  5  1  0  0  0  0
  2 17  1  0  0  0  0
  2 36  1  6  0  0  0
  3 37  1  0  0  0  0
  4  6  1  0  0  0  0
  4  8  2  6  0  0  0
  4 10  1  0  0  0  0
  4 12  1  0  0  0  0
  5  6  1  0  0  0  0
  5 38  1  0  0  0  0
  5 39  1  0  0  0  0
  7  9  1  0  0  0  0
  7 10  1  0  0  0  0
  7 40  1  0  0  0  0
  7 41  1  0  0  0  0
  9 42  1  0  0  0  0
  9 43  1  0  0  0  0
 11 44  1  0  0  0  0
 11 45  1  0  0  0  0
 11 46  1  0  0  0  0
 12 47  1  0  0  0  0
 13 48  1  0  0  0  0
 13 49  1  0  0  0  0
 13 50  1  0  0  0  0
 14 17  1  0  0  0  0
 14 18  1  0  0  0  0
 15 51  1  0  0  0  0
 15 52  1  0  0  0  0
 15 53  1  0  0  0  0
 16 18  2  0  0  0  0
 17 54  1  0  0  0  0
 17 55  1  0  0  0  0
 18 19  1  0  0  0  0
 19 20  1  0  0  0  0
 19 56  1  0  0  0  0
 19 57  1  0  0  0  0
 20 21  1  0  0  0  0
 20 58  1  0  0  0  0
 20 59  1  0  0  0  0
 21 22  1  0  0  0  0
 21 60  1  0  0  0  0
 21 61  1  0  0  0  0
 22 23  1  0  0  0  0
 22 62  1  0  0  0  0
 22 63  1  0  0  0  0
 23 24  1  0  0  0  0
 23 64  1  0  0  0  0
 23 65  1  0  0  0  0
 24 25  1  0  0  0  0
 24 66  1  0  0  0  0
 24 67  1  0  0  0  0
 25 26  1  0  0  0  0
 25 68  1  0  0  0  0
 25 69  1  0  0  0  0
 26 27  2  0  0  0  0
 26 70  1  0  0  0  0
 27 28  1  0  0  0  0
 27 71  1  0  0  0  0
 28 29  1  0  0  0  0
 28 72  1  0  0  0  0
 28 73  1  0  0  0  0
 29 30  1  0  0  0  0
 29 74  1  0  0  0  0
 29 75  1  0  0  0  0
 30 31  1  0  0  0  0
 30 76  1  0  0  0  0
 30 77  1  0  0  0  0
 31 32  1  0  0  0  0
 31 78  1  0  0  0  0
 31 79  1  0  0  0  0
 32 33  1  0  0  0  0
 32 80  1  0  0  0  0
 32 81  1  0  0  0  0
 33 34  1  0  0  0  0
 33 82  1  0  0  0  0
 33 83  1  0  0  0  0
 34 35  1  0  0  0  0
 34 84  1  0  0  0  0
 34 85  1  0  0  0  0
 35 86  1  0  0  0  0
 35 87  1  0  0  0  0
 35 88  1  0  0  0  0
M  CHG  1   8  -1
M  END
$$$$
/media/chris/experiments/cd1a-new-docking/inputs/ligands/4x6e_ligand.pdb
 OpenBabel07012320273D

 88 87  0  0  1  0  0  0  0  0999 V2000
  -38.2423   53.8197   56.5884 N   0  0  0  0  0  4  0  0  0  0  0  0
  -40.8185   59.2353   62.3420 C   0  0  1  0  0  0  0  0  0  0  0  0
  -39.6117   59.5966   63.0272 O   0  0  0  0  0  0  0  0  0  0  0  0
  -39.5323   55.5177   61.4596 P   0  0  1  0  0  0  0  0  0  0  0  0
  -40.9762   57.7329   62.3598 C   0  0  0  0  0  0  0  0  0  0  0  0
  -39.8588   57.0668   61.7233 O   0  0  0  0  0  0  0  0  0  0  0  0
  -39.0487   54.5367   58.9245 C   0  0  0  0  0  0  0  0  0  0  0  0
  -40.8559   54.7695   61.3102 O   0  5  0  0  0  0  0  0  0  0  0  0
  -37.9655   54.5751   57.8750 C   0  0  0  0  0  0  0  0  0  0  0  0
  -38.6502   55.3137   60.0865 O   0  0  0  0  0  0  0  0  0  0  0  0
  -39.4518   54.3731   55.9058 C   0  0  0  0  0  0  0  0  0  0  0  0
  -38.8166   54.9774   62.6361 O   0  0  0  0  0  0  0  0  0  0  0  0
  -38.4865   52.3843   56.9207 C   0  0  0  0  0  0  0  0  0  0  0  0
  -42.1851   59.6432   64.3322 O   0  0  0  0  0  0  0  0  0  0  0  0
  -37.0696   53.9218   55.6552 C   0  0  0  0  0  0  0  0  0  0  0  0
  -40.1645   60.4953   64.8259 O   0  0  0  0  0  0  0  0  0  0  0  0
  -42.0146   59.9524   62.9314 C   0  0  0  0  0  0  0  0  0  0  0  0
  -41.1924   59.9644   65.1670 C   0  0  0  0  0  0  0  0  0  0  0  0
  -41.5470   59.5850   66.5720 C   0  0  0  0  0  0  0  0  0  0  0  0
  -42.4780   58.3810   66.6510 C   0  0  0  0  0  0  0  0  0  0  0  0
  -43.8050   58.5690   65.9360 C   0  0  0  0  0  0  0  0  0  0  0  0
  -44.7241   57.3648   66.0412 C   0  0  0  0  0  0  0  0  0  0  0  0
  -46.0403   57.5587   65.3081 C   0  0  0  0  0  0  0  0  0  0  0  0
  -45.8412   57.7918   63.8270 C   0  0  0  0  0  0  0  0  0  0  0  0
  -47.1183   58.0095   63.0412 C   0  0  0  0  0  0  0  0  0  0  0  0
  -46.9060   58.2196   61.5910 C   0  0  0  0  0  0  0  0  0  0  0  0
  -47.6617   58.9460   60.7936 C   0  0  0  0  0  0  0  0  0  0  0  0
  -48.8654   59.7463   61.1720 C   0  0  0  0  0  0  0  0  0  0  0  0
  -50.0923   59.2456   60.4080 C   0  0  0  0  0  0  0  0  0  0  0  0
  -51.3872   59.9925   60.6925 C   0  0  0  0  0  0  0  0  0  0  0  0
  -51.8357   59.9726   62.1487 C   0  0  0  0  0  0  0  0  0  0  0  0
  -52.0680   58.5679   62.6955 C   0  0  0  0  0  0  0  0  0  0  0  0
  -52.5321   58.5433   64.1432 C   0  0  0  0  0  0  0  0  0  0  0  0
  -51.5834   59.1881   65.1425 C   0  0  0  0  0  0  0  0  0  0  0  0
  -51.3461   60.6403   64.8626 C   0  0  0  0  0  0  0  0  0  0  0  0
  -40.7572   59.5477   61.3204 H   0  0  0  0  0  0  0  0  0  0  0  0
  -39.6683   59.3130   63.9530 H   0  0  0  0  0  0  0  0  0  0  0  0
  -41.8753   57.4729   61.8414 H   0  0  0  0  0  0  0  0  0  0  0  0
  -41.0149   57.4149   63.3808 H   0  0  0  0  0  0  0  0  0  0  0  0
  -39.2193   53.5223   59.2192 H   0  0  0  0  0  0  0  0  0  0  0  0
  -39.9452   54.9543   58.5161 H   0  0  0  0  0  0  0  0  0  0  0  0
  -37.7962   55.6004   57.6200 H   0  0  0  0  0  0  0  0  0  0  0  0
  -37.1250   54.0826   58.3174 H   0  0  0  0  0  0  0  0  0  0  0  0
  -40.2941   54.3054   56.5622 H   0  0  0  0  0  0  0  0  0  0  0  0
  -39.6471   53.8121   55.0158 H   0  0  0  0  0  0  0  0  0  0  0  0
  -39.2799   55.3980   55.6508 H   0  0  0  0  0  0  0  0  0  0  0  0
  -39.3560   55.1094   63.4314 H   0  0  0  0  0  0  0  0  0  0  0  0
  -39.3216   52.3092   57.5855 H   0  0  0  0  0  0  0  0  0  0  0  0
  -37.6176   51.9744   57.3918 H   0  0  0  0  0  0  0  0  0  0  0  0
  -38.6954   51.8409   56.0229 H   0  0  0  0  0  0  0  0  0  0  0  0
  -36.8928   54.9495   55.4157 H   0  0  0  0  0  0  0  0  0  0  0  0
  -37.2792   53.3775   54.7581 H   0  0  0  0  0  0  0  0  0  0  0  0
  -36.2015   53.5110   56.1270 H   0  0  0  0  0  0  0  0  0  0  0  0
  -42.8943   59.6538   62.4006 H   0  0  0  0  0  0  0  0  0  0  0  0
  -41.8509   61.0058   62.8396 H   0  0  0  0  0  0  0  0  0  0  0  0
  -42.0288   60.4189   67.0383 H   0  0  0  0  0  0  0  0  0  0  0  0
  -40.6378   59.3175   67.0687 H   0  0  0  0  0  0  0  0  0  0  0  0
  -42.6787   58.1797   67.6825 H   0  0  0  0  0  0  0  0  0  0  0  0
  -41.9769   57.5734   66.1596 H   0  0  0  0  0  0  0  0  0  0  0  0
  -43.6088   58.7562   64.9009 H   0  0  0  0  0  0  0  0  0  0  0  0
  -44.3043   59.3890   66.4084 H   0  0  0  0  0  0  0  0  0  0  0  0
  -44.9328   57.1840   67.0750 H   0  0  0  0  0  0  0  0  0  0  0  0
  -44.2219   56.5372   65.5852 H   0  0  0  0  0  0  0  0  0  0  0  0
  -46.5454   58.4048   65.7250 H   0  0  0  0  0  0  0  0  0  0  0  0
  -46.6160   56.6644   65.4251 H   0  0  0  0  0  0  0  0  0  0  0  0
  -45.3412   56.9379   63.4198 H   0  0  0  0  0  0  0  0  0  0  0  0
  -45.2745   58.6950   63.7374 H   0  0  0  0  0  0  0  0  0  0  0  0
  -47.6138   58.8714   63.4368 H   0  0  0  0  0  0  0  0  0  0  0  0
  -47.6995   57.1168   63.1424 H   0  0  0  0  0  0  0  0  0  0  0  0
  -46.0896   57.7533   61.1653 H   0  0  0  0  0  0  0  0  0  0  0  0
  -47.3928   58.9645   59.7975 H   0  0  0  0  0  0  0  0  0  0  0  0
  -48.6955   60.7754   60.9329 H   0  0  0  0  0  0  0  0  0  0  0  0
  -49.0401   59.6402   62.2223 H   0  0  0  0  0  0  0  0  0  0  0  0
  -50.2419   58.2169   60.6614 H   0  0  0  0  0  0  0  0  0  0  0  0
  -49.8804   59.4064   59.3716 H   0  0  0  0  0  0  0  0  0  0  0  0
  -52.1617   59.5512   60.1006 H   0  0  0  0  0  0  0  0  0  0  0  0
  -51.2000   61.0180   60.4513 H   0  0  0  0  0  0  0  0  0  0  0  0
  -52.7501   60.5226   62.2289 H   0  0  0  0  0  0  0  0  0  0  0  0
  -51.0475   60.4085   62.7264 H   0  0  0  0  0  0  0  0  0  0  0  0
  -51.1501   58.0225   62.6259 H   0  0  0  0  0  0  0  0  0  0  0  0
  -52.8492   58.1301   62.1098 H   0  0  0  0  0  0  0  0  0  0  0  0
  -52.6682   57.5212   64.4291 H   0  0  0  0  0  0  0  0  0  0  0  0
  -53.4319   59.1215   64.1747 H   0  0  0  0  0  0  0  0  0  0  0  0
  -50.6454   58.6747   65.1040 H   0  0  0  0  0  0  0  0  0  0  0  0
  -52.0357   59.1158   66.1095 H   0  0  0  0  0  0  0  0  0  0  0  0
  -50.8929   60.7485   63.8993 H   0  0  0  0  0  0  0  0  0  0  0  0
  -50.6967   61.0461   65.6099 H   0  0  0  0  0  0  0  0  0  0  0  0
  -52.2792   61.1638   64.8785 H   0  0  0  0  0  0  0  0  0  0  0  0
  1  9  1  0  0  0  0
  1 11  1  0  0  0  0
  1 13  1  0  0  0  0
  1 15  1  0  0  0  0
  2  3  1  0  0  0  0
  2  5  1  0  0  0  0
  2 17  1  0  0  0  0
  2 36  1  6  0  0  0
  3 37  1  0  0  0  0
  4  6  1  0  0  0  0
  4  8  2  6  0  0  0
  4 10  1  0  0  0  0
  4 12  1  0  0  0  0
  5  6  1  0  0  0  0
  5 38  1  0  0  0  0
  5 39  1  0  0  0  0
  7  9  1  0  0  0  0
  7 10  1  0  0  0  0
  7 40  1  0  0  0  0
  7 41  1  0  0  0  0
  9 42  1  0  0  0  0
  9 43  1  0  0  0  0
 11 44  1  0  0  0  0
 11 45  1  0  0  0  0
 11 46  1  0  0  0  0
 12 47  1  0  0  0  0
 13 48  1  0  0  0  0
 13 49  1  0  0  0  0
 13 50  1  0  0  0  0
 14 17  1  0  0  0  0
 14 18  1  0  0  0  0
 15 51  1  0  0  0  0
 15 52  1  0  0  0  0
 15 53  1  0  0  0  0
 16 18  2  0  0  0  0
 17 54  1  0  0  0  0
 17 55  1  0  0  0  0
 18 19  1  0  0  0  0
 19 20  1  0  0  0  0
 19 56  1  0  0  0  0
 19 57  1  0  0  0  0
 20 21  1  0  0  0  0
 20 58  1  0  0  0  0
 20 59  1  0  0  0  0
 21 22  1  0  0  0  0
 21 60  1  0  0  0  0
 21 61  1  0  0  0  0
 22 23  1  0  0  0  0
 22 62  1  0  0  0  0
 22 63  1  0  0  0  0
 23 24  1  0  0  0  0
 23 64  1  0  0  0  0
 23 65  1  0  0  0  0
 24 25  1  0  0  0  0
 24 66  1  0  0  0  0
 24 67  1  0  0  0  0
 25 26  1  0  0  0  0
 25 68  1  0  0  0  0
 25 69  1  0  0  0  0
 26 27  2  0  0  0  0
 26 70  1  0  0  0  0
 27 28  1  0  0  0  0
 27 71  1  0  0  0  0
 28 29  1  0  0  0  0
 28 72  1  0  0  0  0
 28 73  1  0  0  0  0
 29 30  1  0  0  0  0
 29 74  1  0  0  0  0
 29 75  1  0  0  0  0
 30 31  1  0  0  0  0
 30 76  1  0  0  0  0
 30 77  1  0  0  0  0
 31 32  1  0  0  0  0
 31 78  1  0  0  0  0
 31 79  1  0  0  0  0
 32 33  1  0  0  0  0
 32 80  1  0  0  0  0
 32 81  1  0  0  0  0
 33 34  1  0  0  0  0
 33 82  1  0  0  0  0
 33 83  1  0  0  0  0
 34 35  1  0  0  0  0
 34 84  1  0  0  0  0
 34 85  1  0  0  0  0
 35 86  1  0  0  0  0
 35 87  1  0  0  0  0
 35 88  1  0  0  0  0
M  CHG  1   8  -1
M  END
$$$$
/media/chris/experiments/cd1a-new-docking/inputs/ligands/4x6e_ligand.pdb
 OpenBabel07012320273D

 88 87  0  0  1  0  0  0  0  0999 V2000
  -36.3468   62.7901   70.0225 N   0  0  0  0  0  4  0  0  0  0  0  0
  -42.7551   64.1652   66.5820 C   0  0  1  0  0  0  0  0  0  0  0  0
  -43.8238   65.1071   66.7466 O   0  0  0  0  0  0  0  0  0  0  0  0
  -40.1661   66.2909   68.8252 P   0  0  1  0  0  0  0  0  0  0  0  0
  -41.7885   64.2951   67.7358 C   0  0  0  0  0  0  0  0  0  0  0  0
  -41.2289   65.6281   67.8217 O   0  0  0  0  0  0  0  0  0  0  0  0
  -38.3141   64.3917   69.5909 C   0  0  0  0  0  0  0  0  0  0  0  0
  -40.7202   66.1857   70.2451 O   0  5  0  0  0  0  0  0  0  0  0  0
  -36.9061   63.9705   69.2501 C   0  0  0  0  0  0  0  0  0  0  0  0
  -38.7161   65.5171   68.7634 O   0  0  0  0  0  0  0  0  0  0  0  0
  -34.9447   62.4996   69.5925 C   0  0  0  0  0  0  0  0  0  0  0  0
  -40.0194   67.7224   68.4821 O   0  0  0  0  0  0  0  0  0  0  0  0
  -37.1969   61.5935   69.7472 C   0  0  0  0  0  0  0  0  0  0  0  0
  -42.2227   61.7949   66.2768 O   0  0  0  0  0  0  0  0  0  0  0  0
  -36.3523   63.0757   71.4973 C   0  0  0  0  0  0  0  0  0  0  0  0
  -42.4772   60.9308   68.3362 O   0  0  0  0  0  0  0  0  0  0  0  0
  -43.2896   62.7572   66.4271 C   0  0  0  0  0  0  0  0  0  0  0  0
  -42.1287   60.8209   67.1868 C   0  0  0  0  0  0  0  0  0  0  0  0
  -41.5470   59.5850   66.5720 C   0  0  0  0  0  0  0  0  0  0  0  0
  -42.4780   58.3810   66.6510 C   0  0  0  0  0  0  0  0  0  0  0  0
  -43.8050   58.5690   65.9360 C   0  0  0  0  0  0  0  0  0  0  0  0
  -43.6578   58.8291   64.4471 C   0  0  0  0  0  0  0  0  0  0  0  0
  -44.9905   59.0322   63.7470 C   0  0  0  0  0  0  0  0  0  0  0  0
  -44.8261   59.2729   62.2629 C   0  0  0  0  0  0  0  0  0  0  0  0
  -43.9862   60.4821   61.9050 C   0  0  0  0  0  0  0  0  0  0  0  0
  -44.5124   61.7604   62.4353 C   0  0  0  0  0  0  0  0  0  0  0  0
  -43.7964   62.8115   62.7778 C   0  0  0  0  0  0  0  0  0  0  0  0
  -42.3141   62.9677   62.6725 C   0  0  0  0  0  0  0  0  0  0  0  0
  -41.9427   63.5649   61.3142 C   0  0  0  0  0  0  0  0  0  0  0  0
  -40.4530   63.7601   61.0731 C   0  0  0  0  0  0  0  0  0  0  0  0
  -39.6208   62.4842   61.1165 C   0  0  0  0  0  0  0  0  0  0  0  0
  -40.0264   61.4563   60.0653 C   0  0  0  0  0  0  0  0  0  0  0  0
  -39.8845   61.9538   58.6356 C   0  0  0  0  0  0  0  0  0  0  0  0
  -38.4750   62.3472   58.2196 C   0  0  0  0  0  0  0  0  0  0  0  0
  -38.4045   62.8438   56.8083 C   0  0  0  0  0  0  0  0  0  0  0  0
  -42.2222   64.3827   65.6800 H   0  0  0  0  0  0  0  0  0  0  0  0
  -44.3062   64.9091   67.5645 H   0  0  0  0  0  0  0  0  0  0  0  0
  -40.9921   63.5933   67.6011 H   0  0  0  0  0  0  0  0  0  0  0  0
  -42.3239   64.1004   68.6415 H   0  0  0  0  0  0  0  0  0  0  0  0
  -38.3580   64.6772   70.6212 H   0  0  0  0  0  0  0  0  0  0  0  0
  -38.9771   63.5714   69.4104 H   0  0  0  0  0  0  0  0  0  0  0  0
  -36.8848   63.7182   68.2105 H   0  0  0  0  0  0  0  0  0  0  0  0
  -36.2889   64.8024   69.5182 H   0  0  0  0  0  0  0  0  0  0  0  0
  -34.9290   62.2945   68.5425 H   0  0  0  0  0  0  0  0  0  0  0  0
  -34.5765   61.6493   70.1275 H   0  0  0  0  0  0  0  0  0  0  0  0
  -34.3252   63.3471   69.7998 H   0  0  0  0  0  0  0  0  0  0  0  0
  -40.8862   68.1557   68.5256 H   0  0  0  0  0  0  0  0  0  0  0  0
  -37.1944   61.3882   68.6971 H   0  0  0  0  0  0  0  0  0  0  0  0
  -38.1986   61.7855   70.0707 H   0  0  0  0  0  0  0  0  0  0  0  0
  -36.8067   60.7494   70.2765 H   0  0  0  0  0  0  0  0  0  0  0  0
  -35.7438   63.9328   71.6969 H   0  0  0  0  0  0  0  0  0  0  0  0
  -35.9627   62.2307   72.0257 H   0  0  0  0  0  0  0  0  0  0  0  0
  -37.3545   63.2668   71.8198 H   0  0  0  0  0  0  0  0  0  0  0  0
  -43.9170   62.7176   65.5613 H   0  0  0  0  0  0  0  0  0  0  0  0
  -43.8402   62.5100   67.3107 H   0  0  0  0  0  0  0  0  0  0  0  0
  -40.6379   59.3462   67.0832 H   0  0  0  0  0  0  0  0  0  0  0  0
  -41.3821   59.7924   65.5353 H   0  0  0  0  0  0  0  0  0  0  0  0
  -42.6787   58.1797   67.6825 H   0  0  0  0  0  0  0  0  0  0  0  0
  -41.9769   57.5734   66.1596 H   0  0  0  0  0  0  0  0  0  0  0  0
  -44.3126   59.4014   66.3769 H   0  0  0  0  0  0  0  0  0  0  0  0
  -44.3534   57.6566   66.0440 H   0  0  0  0  0  0  0  0  0  0  0  0
  -43.1625   57.9917   64.0018 H   0  0  0  0  0  0  0  0  0  0  0  0
  -43.0949   59.7319   64.3334 H   0  0  0  0  0  0  0  0  0  0  0  0
  -45.4820   59.8778   64.1807 H   0  0  0  0  0  0  0  0  0  0  0  0
  -45.5667   58.1394   63.8729 H   0  0  0  0  0  0  0  0  0  0  0  0
  -45.7989   59.4053   61.8373 H   0  0  0  0  0  0  0  0  0  0  0  0
  -44.3083   58.4207   61.8748 H   0  0  0  0  0  0  0  0  0  0  0  0
  -43.9385   60.5547   60.8385 H   0  0  0  0  0  0  0  0  0  0  0  0
  -43.0253   60.3343   62.3518 H   0  0  0  0  0  0  0  0  0  0  0  0
  -45.5356   61.8348   62.5471 H   0  0  0  0  0  0  0  0  0  0  0  0
  -44.3166   63.6161   63.1612 H   0  0  0  0  0  0  0  0  0  0  0  0
  -41.8492   62.0097   62.7767 H   0  0  0  0  0  0  0  0  0  0  0  0
  -41.9756   63.6235   63.4472 H   0  0  0  0  0  0  0  0  0  0  0  0
  -42.4184   64.5198   61.2320 H   0  0  0  0  0  0  0  0  0  0  0  0
  -42.2700   62.8573   60.5813 H   0  0  0  0  0  0  0  0  0  0  0  0
  -40.0798   64.4254   61.8234 H   0  0  0  0  0  0  0  0  0  0  0  0
  -40.3588   64.1448   60.0791 H   0  0  0  0  0  0  0  0  0  0  0  0
  -39.7312   62.0407   62.0840 H   0  0  0  0  0  0  0  0  0  0  0  0
  -38.6083   62.7621   60.9102 H   0  0  0  0  0  0  0  0  0  0  0  0
  -41.0497   61.1905   60.2303 H   0  0  0  0  0  0  0  0  0  0  0  0
  -39.3649   60.6222   60.1727 H   0  0  0  0  0  0  0  0  0  0  0  0
  -40.5144   62.8110   58.5201 H   0  0  0  0  0  0  0  0  0  0  0  0
  -40.1589   61.1315   58.0082 H   0  0  0  0  0  0  0  0  0  0  0  0
  -37.8394   61.4915   58.3133 H   0  0  0  0  0  0  0  0  0  0  0  0
  -38.1613   63.1460   58.8586 H   0  0  0  0  0  0  0  0  0  0  0  0
  -38.7129   62.0664   56.1408 H   0  0  0  0  0  0  0  0  0  0  0  0
  -37.3991   63.1310   56.5810 H   0  0  0  0  0  0  0  0  0  0  0  0
  -39.0511   63.6887   56.6947 H   0  0  0  0  0  0  0  0  0  0  0  0
  1  9  1  0  0  0  0
  1 11  1  0  0  0  0
  1 13  1  0  0  0  0
  1 15  1  0  0  0  0
  2  3  1  0  0  0  0
  2  5  1  0  0  0  0
  2 17  1  0  0  0  0
  2 36  1  6  0  0  0
  3 37  1  0  0  0  0
  4  6  1  0  0  0  0
  4  8  2  1  0  0  0
  4 10  1  0  0  0  0
  4 12  1  0  0  0  0
  5  6  1  0  0  0  0
  5 38  1  0  0  0  0
  5 39  1  0  0  0  0
  7  9  1  0  0  0  0
  7 10  1  0  0  0  0
  7 40  1  0  0  0  0
  7 41  1  0  0  0  0
  9 42  1  0  0  0  0
  9 43  1  0  0  0  0
 11 44  1  0  0  0  0
 11 45  1  0  0  0  0
 11 46  1  0  0  0  0
 12 47  1  0  0  0  0
 13 48  1  0  0  0  0
 13 49  1  0  0  0  0
 13 50  1  0  0  0  0
 14 17  1  0  0  0  0
 14 18  1  0  0  0  0
 15 51  1  0  0  0  0
 15 52  1  0  0  0  0
 15 53  1  0  0  0  0
 16 18  2  0  0  0  0
 17 54  1  0  0  0  0
 17 55  1  0  0  0  0
 18 19  1  0  0  0  0
 19 20  1  0  0  0  0
 19 56  1  0  0  0  0
 19 57  1  0  0  0  0
 20 21  1  0  0  0  0
 20 58  1  0  0  0  0
 20 59  1  0  0  0  0
 21 22  1  0  0  0  0
 21 60  1  0  0  0  0
 21 61  1  0  0  0  0
 22 23  1  0  0  0  0
 22 62  1  0  0  0  0
 22 63  1  0  0  0  0
 23 24  1  0  0  0  0
 23 64  1  0  0  0  0
 23 65  1  0  0  0  0
 24 25  1  0  0  0  0
 24 66  1  0  0  0  0
 24 67  1  0  0  0  0
 25 26  1  0  0  0  0
 25 68  1  0  0  0  0
 25 69  1  0  0  0  0
 26 27  2  0  0  0  0
 26 70  1  0  0  0  0
 27 28  1  0  0  0  0
 27 71  1  0  0  0  0
 28 29  1  0  0  0  0
 28 72  1  0  0  0  0
 28 73  1  0  0  0  0
 29 30  1  0  0  0  0
 29 74  1  0  0  0  0
 29 75  1  0  0  0  0
 30 31  1  0  0  0  0
 30 76  1  0  0  0  0
 30 77  1  0  0  0  0
 31 32  1  0  0  0  0
 31 78  1  0  0  0  0
 31 79  1  0  0  0  0
 32 33  1  0  0  0  0
 32 80  1  0  0  0  0
 32 81  1  0  0  0  0
 33 34  1  0  0  0  0
 33 82  1  0  0  0  0
 33 83  1  0  0  0  0
 34 35  1  0  0  0  0
 34 84  1  0  0  0  0
 34 85  1  0  0  0  0
 35 86  1  0  0  0  0
 35 87  1  0  0  0  0
 35 88  1  0  0  0  0
M  CHG  1   8  -1
M  END
$$$$
/media/chris/experiments/cd1a-new-docking/inputs/ligands/4x6e_ligand.pdb
 OpenBabel07012320273D

 88 87  0  0  1  0  0  0  0  0999 V2000
  -40.0338   59.3409   60.2171 N   0  0  0  0  0  4  0  0  0  0  0  0
  -38.3648   57.8711   64.7826 C   0  0  1  0  0  0  0  0  0  0  0  0
  -39.6861   57.5057   64.3618 O   0  0  0  0  0  0  0  0  0  0  0  0
  -38.4750   61.4783   62.9854 P   0  0  1  0  0  0  0  0  0  0  0  0
  -37.8025   58.9032   63.8334 C   0  0  0  0  0  0  0  0  0  0  0  0
  -38.6068   60.1073   63.8095 O   0  0  0  0  0  0  0  0  0  0  0  0
  -39.7875   61.8752   60.5890 C   0  0  0  0  0  0  0  0  0  0  0  0
  -37.2375   61.3827   62.0946 O   0  5  0  0  0  0  0  0  0  0  0  0
  -39.2569   60.6165   59.9486 C   0  0  0  0  0  0  0  0  0  0  0  0
  -39.7926   61.7390   62.0361 O   0  0  0  0  0  0  0  0  0  0  0  0
  -39.3847   58.1790   59.5361 C   0  0  0  0  0  0  0  0  0  0  0  0
  -38.2812   62.5896   63.9424 O   0  0  0  0  0  0  0  0  0  0  0  0
  -41.4191   59.5045   59.6834 C   0  0  0  0  0  0  0  0  0  0  0  0
  -39.2251   59.4857   66.4098 O   0  0  0  0  0  0  0  0  0  0  0  0
  -40.0983   59.0643   61.6921 C   0  0  0  0  0  0  0  0  0  0  0  0
  -40.1085   59.1264   68.4453 O   0  0  0  0  0  0  0  0  0  0  0  0
  -38.3627   58.3421   66.2215 C   0  0  0  0  0  0  0  0  0  0  0  0
  -40.2402   59.3661   67.2706 C   0  0  0  0  0  0  0  0  0  0  0  0
  -41.5470   59.5850   66.5720 C   0  0  0  0  0  0  0  0  0  0  0  0
  -42.4780   58.3810   66.6510 C   0  0  0  0  0  0  0  0  0  0  0  0
  -43.8050   58.5690   65.9360 C   0  0  0  0  0  0  0  0  0  0  0  0
  -43.6578   58.8291   64.4471 C   0  0  0  0  0  0  0  0  0  0  0  0
  -44.9905   59.0322   63.7470 C   0  0  0  0  0  0  0  0  0  0  0  0
  -45.9012   57.8334   63.8917 C   0  0  0  0  0  0  0  0  0  0  0  0
  -45.3401   56.5393   63.3382 C   0  0  0  0  0  0  0  0  0  0  0  0
  -45.0161   56.5910   61.8944 C   0  0  0  0  0  0  0  0  0  0  0  0
  -44.0655   55.9103   61.2879 C   0  0  0  0  0  0  0  0  0  0  0  0
  -43.1365   54.9137   61.9013 C   0  0  0  0  0  0  0  0  0  0  0  0
  -42.7440   53.8550   60.8694 C   0  0  0  0  0  0  0  0  0  0  0  0
  -42.0212   54.3811   59.6381 C   0  0  0  0  0  0  0  0  0  0  0  0
  -42.7993   55.4079   58.8240 C   0  0  0  0  0  0  0  0  0  0  0  0
  -44.1328   54.8856   58.2995 C   0  0  0  0  0  0  0  0  0  0  0  0
  -44.9054   55.9008   57.4722 C   0  0  0  0  0  0  0  0  0  0  0  0
  -45.2599   57.1933   58.1921 C   0  0  0  0  0  0  0  0  0  0  0  0
  -46.0337   58.1432   57.3304 C   0  0  0  0  0  0  0  0  0  0  0  0
  -37.7283   57.0117   64.7492 H   0  0  0  0  0  0  0  0  0  0  0  0
  -40.2624   58.2854   64.3923 H   0  0  0  0  0  0  0  0  0  0  0  0
  -37.7722   58.4874   62.8480 H   0  0  0  0  0  0  0  0  0  0  0  0
  -36.8215   59.1654   64.1707 H   0  0  0  0  0  0  0  0  0  0  0  0
  -40.7859   62.0518   60.2472 H   0  0  0  0  0  0  0  0  0  0  0  0
  -39.1578   62.6968   60.3180 H   0  0  0  0  0  0  0  0  0  0  0  0
  -39.2423   60.7715   58.8900 H   0  0  0  0  0  0  0  0  0  0  0  0
  -38.2940   60.4594   60.3880 H   0  0  0  0  0  0  0  0  0  0  0  0
  -39.3334   58.3655   58.4837 H   0  0  0  0  0  0  0  0  0  0  0  0
  -39.9599   57.2945   59.7140 H   0  0  0  0  0  0  0  0  0  0  0  0
  -38.3962   58.0455   59.9232 H   0  0  0  0  0  0  0  0  0  0  0  0
  -37.4999   62.4127   64.4894 H   0  0  0  0  0  0  0  0  0  0  0  0
  -41.3755   59.7017   58.6326 H   0  0  0  0  0  0  0  0  0  0  0  0
  -41.8984   60.3220   60.1801 H   0  0  0  0  0  0  0  0  0  0  0  0
  -41.9757   58.6069   59.8551 H   0  0  0  0  0  0  0  0  0  0  0  0
  -39.1068   58.9468   62.0767 H   0  0  0  0  0  0  0  0  0  0  0  0
  -40.6557   58.1670   61.8627 H   0  0  0  0  0  0  0  0  0  0  0  0
  -40.5785   59.8821   62.1877 H   0  0  0  0  0  0  0  0  0  0  0  0
  -37.3645   58.6113   66.4969 H   0  0  0  0  0  0  0  0  0  0  0  0
  -38.7273   57.5445   66.8344 H   0  0  0  0  0  0  0  0  0  0  0  0
  -41.3508   59.7963   65.5416 H   0  0  0  0  0  0  0  0  0  0  0  0
  -42.0377   60.3996   67.0625 H   0  0  0  0  0  0  0  0  0  0  0  0
  -42.6787   58.1797   67.6825 H   0  0  0  0  0  0  0  0  0  0  0  0
  -41.9769   57.5734   66.1596 H   0  0  0  0  0  0  0  0  0  0  0  0
  -44.3126   59.4014   66.3769 H   0  0  0  0  0  0  0  0  0  0  0  0
  -44.3534   57.6566   66.0440 H   0  0  0  0  0  0  0  0  0  0  0  0
  -43.1625   57.9917   64.0018 H   0  0  0  0  0  0  0  0  0  0  0  0
  -43.0949   59.7319   64.3334 H   0  0  0  0  0  0  0  0  0  0  0  0
  -44.8102   59.2042   62.7064 H   0  0  0  0  0  0  0  0  0  0  0  0
  -45.4760   59.8700   64.2022 H   0  0  0  0  0  0  0  0  0  0  0  0
  -46.8157   58.0461   63.3786 H   0  0  0  0  0  0  0  0  0  0  0  0
  -46.0328   57.6799   64.9424 H   0  0  0  0  0  0  0  0  0  0  0  0
  -46.0630   55.7658   63.4931 H   0  0  0  0  0  0  0  0  0  0  0  0
  -44.4214   56.3548   63.8547 H   0  0  0  0  0  0  0  0  0  0  0  0
  -45.5885   57.2189   61.3086 H   0  0  0  0  0  0  0  0  0  0  0  0
  -43.9495   56.0847   60.2773 H   0  0  0  0  0  0  0  0  0  0  0  0
  -43.6227   54.4389   62.7278 H   0  0  0  0  0  0  0  0  0  0  0  0
  -42.2549   55.4181   62.2377 H   0  0  0  0  0  0  0  0  0  0  0  0
  -43.6372   53.3643   60.5436 H   0  0  0  0  0  0  0  0  0  0  0  0
  -42.0519   53.2047   61.3625 H   0  0  0  0  0  0  0  0  0  0  0  0
  -41.8021   53.5497   59.0013 H   0  0  0  0  0  0  0  0  0  0  0  0
  -41.1473   54.8838   59.9964 H   0  0  0  0  0  0  0  0  0  0  0  0
  -42.1991   55.7029   57.9887 H   0  0  0  0  0  0  0  0  0  0  0  0
  -43.0174   56.2270   59.4770 H   0  0  0  0  0  0  0  0  0  0  0  0
  -44.7368   54.6019   59.1359 H   0  0  0  0  0  0  0  0  0  0  0  0
  -43.9131   54.0601   57.6551 H   0  0  0  0  0  0  0  0  0  0  0  0
  -45.8166   55.4406   57.1515 H   0  0  0  0  0  0  0  0  0  0  0  0
  -44.2583   56.1792   56.6669 H   0  0  0  0  0  0  0  0  0  0  0  0
  -44.3543   57.6720   58.5012 H   0  0  0  0  0  0  0  0  0  0  0  0
  -45.8786   56.9381   59.0270 H   0  0  0  0  0  0  0  0  0  0  0  0
  -45.4414   58.4194   56.4832 H   0  0  0  0  0  0  0  0  0  0  0  0
  -46.2784   59.0185   57.8952 H   0  0  0  0  0  0  0  0  0  0  0  0
  -46.9339   57.6703   56.9975 H   0  0  0  0  0  0  0  0  0  0  0  0
  1  9  1  0  0  0  0
  1 11  1  0  0  0  0
  1 13  1  0  0  0  0
  1 15  1  0  0  0  0
  2  3  1  0  0  0  0
  2  5  1  0  0  0  0
  2 17  1  0  0  0  0
  2 36  1  6  0  0  0
  3 37  1  0  0  0  0
  4  6  1  0  0  0  0
  4  8  2  6  0  0  0
  4 10  1  0  0  0  0
  4 12  1  0  0  0  0
  5  6  1  0  0  0  0
  5 38  1  0  0  0  0
  5 39  1  0  0  0  0
  7  9  1  0  0  0  0
  7 10  1  0  0  0  0
  7 40  1  0  0  0  0
  7 41  1  0  0  0  0
  9 42  1  0  0  0  0
  9 43  1  0  0  0  0
 11 44  1  0  0  0  0
 11 45  1  0  0  0  0
 11 46  1  0  0  0  0
 12 47  1  0  0  0  0
 13 48  1  0  0  0  0
 13 49  1  0  0  0  0
 13 50  1  0  0  0  0
 14 17  1  0  0  0  0
 14 18  1  0  0  0  0
 15 51  1  0  0  0  0
 15 52  1  0  0  0  0
 15 53  1  0  0  0  0
 16 18  2  0  0  0  0
 17 54  1  0  0  0  0
 17 55  1  0  0  0  0
 18 19  1  0  0  0  0
 19 20  1  0  0  0  0
 19 56  1  0  0  0  0
 19 57  1  0  0  0  0
 20 21  1  0  0  0  0
 20 58  1  0  0  0  0
 20 59  1  0  0  0  0
 21 22  1  0  0  0  0
 21 60  1  0  0  0  0
 21 61  1  0  0  0  0
 22 23  1  0  0  0  0
 22 62  1  0  0  0  0
 22 63  1  0  0  0  0
 23 24  1  0  0  0  0
 23 64  1  0  0  0  0
 23 65  1  0  0  0  0
 24 25  1  0  0  0  0
 24 66  1  0  0  0  0
 24 67  1  0  0  0  0
 25 26  1  0  0  0  0
 25 68  1  0  0  0  0
 25 69  1  0  0  0  0
 26 27  2  0  0  0  0
 26 70  1  0  0  0  0
 27 28  1  0  0  0  0
 27 71  1  0  0  0  0
 28 29  1  0  0  0  0
 28 72  1  0  0  0  0
 28 73  1  0  0  0  0
 29 30  1  0  0  0  0
 29 74  1  0  0  0  0
 29 75  1  0  0  0  0
 30 31  1  0  0  0  0
 30 76  1  0  0  0  0
 30 77  1  0  0  0  0
 31 32  1  0  0  0  0
 31 78  1  0  0  0  0
 31 79  1  0  0  0  0
 32 33  1  0  0  0  0
 32 80  1  0  0  0  0
 32 81  1  0  0  0  0
 33 34  1  0  0  0  0
 33 82  1  0  0  0  0
 33 83  1  0  0  0  0
 34 35  1  0  0  0  0
 34 84  1  0  0  0  0
 34 85  1  0  0  0  0
 35 86  1  0  0  0  0
 35 87  1  0  0  0  0
 35 88  1  0  0  0  0
M  CHG  1   8  -1
M  END
$$$$
/media/chris/experiments/cd1a-new-docking/inputs/ligands/4x6e_ligand.pdb
 OpenBabel07012320273D

 88 87  0  0  1  0  0  0  0  0999 V2000
  -39.3542   63.7286   66.8256 N   0  0  0  0  0  4  0  0  0  0  0  0
  -37.6039   58.4478   68.1581 C   0  0  1  0  0  0  0  0  0  0  0  0
  -36.7193   57.6756   68.9814 O   0  0  0  0  0  0  0  0  0  0  0  0
  -35.9457   61.3109   68.6844 P   0  0  1  0  0  0  0  0  0  0  0  0
  -36.8028   59.1739   67.1030 C   0  0  0  0  0  0  0  0  0  0  0  0
  -35.8171   60.0583   67.6892 O   0  0  0  0  0  0  0  0  0  0  0  0
  -37.7007   63.4404   68.7760 C   0  0  0  0  0  0  0  0  0  0  0  0
  -34.5442   61.8620   68.9418 O   0  5  0  0  0  0  0  0  0  0  0  0
  -38.4128   64.3720   67.8268 C   0  0  0  0  0  0  0  0  0  0  0  0
  -36.8731   62.5035   68.0343 O   0  0  0  0  0  0  0  0  0  0  0  0
  -38.6164   62.7558   65.9629 C   0  0  0  0  0  0  0  0  0  0  0  0
  -36.5093   60.8399   69.9685 O   0  0  0  0  0  0  0  0  0  0  0  0
  -39.9366   64.7989   65.9620 C   0  0  0  0  0  0  0  0  0  0  0  0
  -39.5828   58.3411   66.7204 O   0  0  0  0  0  0  0  0  0  0  0  0
  -40.4624   63.0040   67.5352 C   0  0  0  0  0  0  0  0  0  0  0  0
  -39.8236   60.0222   68.1929 O   0  0  0  0  0  0  0  0  0  0  0  0
  -38.6932   57.5790   67.5658 C   0  0  0  0  0  0  0  0  0  0  0  0
  -40.2402   59.3661   67.2706 C   0  0  0  0  0  0  0  0  0  0  0  0
  -41.5470   59.5850   66.5720 C   0  0  0  0  0  0  0  0  0  0  0  0
  -42.4780   58.3810   66.6510 C   0  0  0  0  0  0  0  0  0  0  0  0
  -43.8050   58.5690   65.9360 C   0  0  0  0  0  0  0  0  0  0  0  0
  -44.6170   59.7376   66.4663 C   0  0  0  0  0  0  0  0  0  0  0  0
  -44.9506   59.6053   67.9423 C   0  0  0  0  0  0  0  0  0  0  0  0
  -45.7447   58.3528   68.2393 C   0  0  0  0  0  0  0  0  0  0  0  0
  -46.1237   58.1717   69.6952 C   0  0  0  0  0  0  0  0  0  0  0  0
  -46.8862   56.9328   69.9704 C   0  0  0  0  0  0  0  0  0  0  0  0
  -46.5200   55.9602   70.7795 C   0  0  0  0  0  0  0  0  0  0  0  0
  -45.2889   55.9037   71.6244 C   0  0  0  0  0  0  0  0  0  0  0  0
  -44.1468   55.2468   70.8475 C   0  0  0  0  0  0  0  0  0  0  0  0
  -44.4137   53.8260   70.3727 C   0  0  0  0  0  0  0  0  0  0  0  0
  -45.5949   53.6758   69.4217 C   0  0  0  0  0  0  0  0  0  0  0  0
  -45.4394   54.4673   68.1273 C   0  0  0  0  0  0  0  0  0  0  0  0
  -46.6230   54.3343   67.1822 C   0  0  0  0  0  0  0  0  0  0  0  0
  -47.9552   54.8184   67.7346 C   0  0  0  0  0  0  0  0  0  0  0  0
  -48.3662   54.0909   68.9777 C   0  0  0  0  0  0  0  0  0  0  0  0
  -38.1008   59.1818   68.7574 H   0  0  0  0  0  0  0  0  0  0  0  0
  -36.2694   57.0105   68.4372 H   0  0  0  0  0  0  0  0  0  0  0  0
  -37.4702   59.7516   66.4981 H   0  0  0  0  0  0  0  0  0  0  0  0
  -36.2865   58.4432   66.5161 H   0  0  0  0  0  0  0  0  0  0  0  0
  -38.4242   62.8971   69.3473 H   0  0  0  0  0  0  0  0  0  0  0  0
  -37.0775   64.0160   69.4281 H   0  0  0  0  0  0  0  0  0  0  0  0
  -38.9838   65.0604   68.4141 H   0  0  0  0  0  0  0  0  0  0  0  0
  -37.6402   64.8229   67.2397 H   0  0  0  0  0  0  0  0  0  0  0  0
  -37.8239   63.2617   65.4521 H   0  0  0  0  0  0  0  0  0  0  0  0
  -39.2892   62.3324   65.2467 H   0  0  0  0  0  0  0  0  0  0  0  0
  -38.2079   61.9770   66.5724 H   0  0  0  0  0  0  0  0  0  0  0  0
  -35.9458   60.1384   70.3310 H   0  0  0  0  0  0  0  0  0  0  0  0
  -39.1489   65.3164   65.4554 H   0  0  0  0  0  0  0  0  0  0  0  0
  -40.4839   65.4890   66.5695 H   0  0  0  0  0  0  0  0  0  0  0  0
  -40.5942   64.3579   65.2422 H   0  0  0  0  0  0  0  0  0  0  0  0
  -40.0473   62.2366   68.1547 H   0  0  0  0  0  0  0  0  0  0  0  0
  -41.1197   62.5641   66.8146 H   0  0  0  0  0  0  0  0  0  0  0  0
  -41.0094   63.6951   68.1418 H   0  0  0  0  0  0  0  0  0  0  0  0
  -39.2599   57.1425   68.3615 H   0  0  0  0  0  0  0  0  0  0  0  0
  -38.2290   56.8235   66.9668 H   0  0  0  0  0  0  0  0  0  0  0  0
  -41.3508   59.7963   65.5416 H   0  0  0  0  0  0  0  0  0  0  0  0
  -42.0377   60.3996   67.0625 H   0  0  0  0  0  0  0  0  0  0  0  0
  -42.6787   58.1797   67.6825 H   0  0  0  0  0  0  0  0  0  0  0  0
  -41.9769   57.5734   66.1596 H   0  0  0  0  0  0  0  0  0  0  0  0
  -44.3819   57.6753   66.0516 H   0  0  0  0  0  0  0  0  0  0  0  0
  -43.5836   58.7785   64.9103 H   0  0  0  0  0  0  0  0  0  0  0  0
  -45.5314   59.7964   65.9137 H   0  0  0  0  0  0  0  0  0  0  0  0
  -44.0231   60.6199   66.3495 H   0  0  0  0  0  0  0  0  0  0  0  0
  -45.5246   60.4566   68.2433 H   0  0  0  0  0  0  0  0  0  0  0  0
  -44.0291   59.5456   68.4829 H   0  0  0  0  0  0  0  0  0  0  0  0
  -45.1593   57.5086   67.9402 H   0  0  0  0  0  0  0  0  0  0  0  0
  -46.6631   58.4427   67.6977 H   0  0  0  0  0  0  0  0  0  0  0  0
  -46.7213   59.0076   69.9936 H   0  0  0  0  0  0  0  0  0  0  0  0
  -45.2092   58.1007   70.2461 H   0  0  0  0  0  0  0  0  0  0  0  0
  -47.7888   56.8208   69.4827 H   0  0  0  0  0  0  0  0  0  0  0  0
  -47.1534   55.1473   70.8363 H   0  0  0  0  0  0  0  0  0  0  0  0
  -45.4911   55.3326   72.5064 H   0  0  0  0  0  0  0  0  0  0  0  0
  -45.0026   56.8992   71.8923 H   0  0  0  0  0  0  0  0  0  0  0  0
  -43.2849   55.2268   71.4813 H   0  0  0  0  0  0  0  0  0  0  0  0
  -44.0158   55.8340   69.9626 H   0  0  0  0  0  0  0  0  0  0  0  0
  -44.6009   53.2182   71.2332 H   0  0  0  0  0  0  0  0  0  0  0  0
  -43.5464   53.5270   69.8218 H   0  0  0  0  0  0  0  0  0  0  0  0
  -46.4777   54.0152   69.9221 H   0  0  0  0  0  0  0  0  0  0  0  0
  -45.6525   52.6417   69.1529 H   0  0  0  0  0  0  0  0  0  0  0  0
  -44.5630   54.1190   67.6218 H   0  0  0  0  0  0  0  0  0  0  0  0
  -45.3714   55.5000   68.3991 H   0  0  0  0  0  0  0  0  0  0  0  0
  -46.7273   53.3004   66.9270 H   0  0  0  0  0  0  0  0  0  0  0  0
  -46.4043   54.9634   66.3448 H   0  0  0  0  0  0  0  0  0  0  0  0
  -48.7081   54.6728   66.9883 H   0  0  0  0  0  0  0  0  0  0  0  0
  -47.8428   55.8519   67.9881 H   0  0  0  0  0  0  0  0  0  0  0  0
  -48.4877   53.0506   68.7584 H   0  0  0  0  0  0  0  0  0  0  0  0
  -49.2921   54.4905   69.3352 H   0  0  0  0  0  0  0  0  0  0  0  0
  -47.6124   54.2117   69.7274 H   0  0  0  0  0  0  0  0  0  0  0  0
  1  9  1  0  0  0  0
  1 11  1  0  0  0  0
  1 13  1  0  0  0  0
  1 15  1  0  0  0  0
  2  3  1  0  0  0  0
  2  5  1  0  0  0  0
  2 17  1  0  0  0  0
  2 36  1  1  0  0  0
  3 37  1  0  0  0  0
  4  6  1  0  0  0  0
  4  8  2  1  0  0  0
  4 10  1  0  0  0  0
  4 12  1  0  0  0  0
  5  6  1  0  0  0  0
  5 38  1  0  0  0  0
  5 39  1  0  0  0  0
  7  9  1  0  0  0  0
  7 10  1  0  0  0  0
  7 40  1  0  0  0  0
  7 41  1  0  0  0  0
  9 42  1  0  0  0  0
  9 43  1  0  0  0  0
 11 44  1  0  0  0  0
 11 45  1  0  0  0  0
 11 46  1  0  0  0  0
 12 47  1  0  0  0  0
 13 48  1  0  0  0  0
 13 49  1  0  0  0  0
 13 50  1  0  0  0  0
 14 17  1  0  0  0  0
 14 18  1  0  0  0  0
 15 51  1  0  0  0  0
 15 52  1  0  0  0  0
 15 53  1  0  0  0  0
 16 18  2  0  0  0  0
 17 54  1  0  0  0  0
 17 55  1  0  0  0  0
 18 19  1  0  0  0  0
 19 20  1  0  0  0  0
 19 56  1  0  0  0  0
 19 57  1  0  0  0  0
 20 21  1  0  0  0  0
 20 58  1  0  0  0  0
 20 59  1  0  0  0  0
 21 22  1  0  0  0  0
 21 60  1  0  0  0  0
 21 61  1  0  0  0  0
 22 23  1  0  0  0  0
 22 62  1  0  0  0  0
 22 63  1  0  0  0  0
 23 24  1  0  0  0  0
 23 64  1  0  0  0  0
 23 65  1  0  0  0  0
 24 25  1  0  0  0  0
 24 66  1  0  0  0  0
 24 67  1  0  0  0  0
 25 26  1  0  0  0  0
 25 68  1  0  0  0  0
 25 69  1  0  0  0  0
 26 27  2  0  0  0  0
 26 70  1  0  0  0  0
 27 28  1  0  0  0  0
 27 71  1  0  0  0  0
 28 29  1  0  0  0  0
 28 72  1  0  0  0  0
 28 73  1  0  0  0  0
 29 30  1  0  0  0  0
 29 74  1  0  0  0  0
 29 75  1  0  0  0  0
 30 31  1  0  0  0  0
 30 76  1  0  0  0  0
 30 77  1  0  0  0  0
 31 32  1  0  0  0  0
 31 78  1  0  0  0  0
 31 79  1  0  0  0  0
 32 33  1  0  0  0  0
 32 80  1  0  0  0  0
 32 81  1  0  0  0  0
 33 34  1  0  0  0  0
 33 82  1  0  0  0  0
 33 83  1  0  0  0  0
 34 35  1  0  0  0  0
 34 84  1  0  0  0  0
 34 85  1  0  0  0  0
 35 86  1  0  0  0  0
 35 87  1  0  0  0  0
 35 88  1  0  0  0  0
M  CHG  1   8  -1
M  END
$$$$
/media/chris/experiments/cd1a-new-docking/inputs/ligands/4x6e_ligand.pdb
 OpenBabel07012320273D

 88 87  0  0  1  0  0  0  0  0999 V2000
  -39.7743   64.9576   70.5208 N   0  0  0  0  0  4  0  0  0  0  0  0
  -39.2605   61.0236   63.2181 C   0  0  1  0  0  0  0  0  0  0  0  0
  -40.4020   61.8629   63.4397 O   0  0  0  0  0  0  0  0  0  0  0  0
  -37.6366   61.7830   66.8292 P   0  0  1  0  0  0  0  0  0  0  0  0
  -38.1195   61.4853   64.0941 C   0  0  0  0  0  0  0  0  0  0  0  0
  -38.4563   61.4100   65.5007 O   0  0  0  0  0  0  0  0  0  0  0  0
  -38.6060   63.5784   68.6893 C   0  0  0  0  0  0  0  0  0  0  0  0
  -36.6708   62.9176   66.4915 O   0  5  0  0  0  0  0  0  0  0  0  0
  -39.6709   63.6514   69.7555 C   0  0  0  0  0  0  0  0  0  0  0  0
  -38.6384   62.2809   68.0347 O   0  0  0  0  0  0  0  0  0  0  0  0
  -38.4848   65.2626   71.2131 C   0  0  0  0  0  0  0  0  0  0  0  0
  -36.8485   60.6028   67.2466 O   0  0  0  0  0  0  0  0  0  0  0  0
  -40.8552   64.8276   71.5431 C   0  0  0  0  0  0  0  0  0  0  0  0
  -40.0862   59.3247   64.7759 O   0  0  0  0  0  0  0  0  0  0  0  0
  -40.1039   66.0890   69.5892 C   0  0  0  0  0  0  0  0  0  0  0  0
  -41.8149   60.7290   64.4724 O   0  0  0  0  0  0  0  0  0  0  0  0
  -39.6067   59.5657   63.4347 C   0  0  0  0  0  0  0  0  0  0  0  0
  -41.1924   59.9644   65.1670 C   0  0  0  0  0  0  0  0  0  0  0  0
  -41.5470   59.5850   66.5720 C   0  0  0  0  0  0  0  0  0  0  0  0
  -42.4780   58.3810   66.6510 C   0  0  0  0  0  0  0  0  0  0  0  0
  -43.8050   58.5690   65.9360 C   0  0  0  0  0  0  0  0  0  0  0  0
  -44.7241   57.3648   66.0412 C   0  0  0  0  0  0  0  0  0  0  0  0
  -45.0954   57.0268   67.4749 C   0  0  0  0  0  0  0  0  0  0  0  0
  -45.8277   58.1599   68.1584 C   0  0  0  0  0  0  0  0  0  0  0  0
  -46.2114   57.8902   69.5993 C   0  0  0  0  0  0  0  0  0  0  0  0
  -46.9418   59.0031   70.2475 C   0  0  0  0  0  0  0  0  0  0  0  0
  -46.8144   60.2832   69.9650 C   0  0  0  0  0  0  0  0  0  0  0  0
  -45.9470   60.8938   68.9127 C   0  0  0  0  0  0  0  0  0  0  0  0
  -44.9387   61.8505   69.5512 C   0  0  0  0  0  0  0  0  0  0  0  0
  -43.9818   61.2174   70.5507 C   0  0  0  0  0  0  0  0  0  0  0  0
  -44.6491   60.5461   71.7451 C   0  0  0  0  0  0  0  0  0  0  0  0
  -45.5084   61.4942   72.5751 C   0  0  0  0  0  0  0  0  0  0  0  0
  -46.1629   60.8331   73.7778 C   0  0  0  0  0  0  0  0  0  0  0  0
  -47.0847   59.6659   73.4581 C   0  0  0  0  0  0  0  0  0  0  0  0
  -46.3774   58.5411   72.7666 C   0  0  0  0  0  0  0  0  0  0  0  0
  -38.9474   61.1074   62.1984 H   0  0  0  0  0  0  0  0  0  0  0  0
  -40.6850   61.7862   64.3643 H   0  0  0  0  0  0  0  0  0  0  0  0
  -37.8829   62.4995   63.8485 H   0  0  0  0  0  0  0  0  0  0  0  0
  -37.2834   60.8415   63.9176 H   0  0  0  0  0  0  0  0  0  0  0  0
  -37.6458   63.7237   69.1384 H   0  0  0  0  0  0  0  0  0  0  0  0
  -38.7882   64.3411   67.9613 H   0  0  0  0  0  0  0  0  0  0  0  0
  -40.6153   63.4750   69.2843 H   0  0  0  0  0  0  0  0  0  0  0  0
  -39.3935   62.9178   70.4834 H   0  0  0  0  0  0  0  0  0  0  0  0
  -38.2400   64.4624   71.8799 H   0  0  0  0  0  0  0  0  0  0  0  0
  -38.5844   66.1718   71.7684 H   0  0  0  0  0  0  0  0  0  0  0  0
  -37.7070   65.3719   70.4864 H   0  0  0  0  0  0  0  0  0  0  0  0
  -36.2668   60.3290   66.5202 H   0  0  0  0  0  0  0  0  0  0  0  0
  -40.6225   64.0221   72.2078 H   0  0  0  0  0  0  0  0  0  0  0  0
  -41.7862   64.6291   71.0545 H   0  0  0  0  0  0  0  0  0  0  0  0
  -40.9314   65.7385   72.0994 H   0  0  0  0  0  0  0  0  0  0  0  0
  -39.3306   66.1840   68.8558 H   0  0  0  0  0  0  0  0  0  0  0  0
  -40.1806   66.9991   70.1466 H   0  0  0  0  0  0  0  0  0  0  0  0
  -41.0354   65.8898   69.1017 H   0  0  0  0  0  0  0  0  0  0  0  0
  -38.7318   58.9728   63.2674 H   0  0  0  0  0  0  0  0  0  0  0  0
  -40.3850   59.3020   62.7495 H   0  0  0  0  0  0  0  0  0  0  0  0
  -42.0288   60.4189   67.0383 H   0  0  0  0  0  0  0  0  0  0  0  0
  -40.6378   59.3175   67.0687 H   0  0  0  0  0  0  0  0  0  0  0  0
  -42.6787   58.1797   67.6825 H   0  0  0  0  0  0  0  0  0  0  0  0
  -41.9769   57.5734   66.1596 H   0  0  0  0  0  0  0  0  0  0  0  0
  -43.6088   58.7562   64.9009 H   0  0  0  0  0  0  0  0  0  0  0  0
  -44.3043   59.3890   66.4084 H   0  0  0  0  0  0  0  0  0  0  0  0
  -44.2305   56.5199   65.6083 H   0  0  0  0  0  0  0  0  0  0  0  0
  -45.6292   57.6059   65.5239 H   0  0  0  0  0  0  0  0  0  0  0  0
  -44.2003   56.8156   68.0218 H   0  0  0  0  0  0  0  0  0  0  0  0
  -45.7484   56.1795   67.4537 H   0  0  0  0  0  0  0  0  0  0  0  0
  -46.7230   58.3584   67.6070 H   0  0  0  0  0  0  0  0  0  0  0  0
  -45.1511   58.9886   68.1767 H   0  0  0  0  0  0  0  0  0  0  0  0
  -45.3169   57.7053   70.1565 H   0  0  0  0  0  0  0  0  0  0  0  0
  -46.8733   57.0495   69.5907 H   0  0  0  0  0  0  0  0  0  0  0  0
  -47.6132   58.7524   70.9900 H   0  0  0  0  0  0  0  0  0  0  0  0
  -47.3758   60.9367   70.5331 H   0  0  0  0  0  0  0  0  0  0  0  0
  -46.5580   61.4343   68.2203 H   0  0  0  0  0  0  0  0  0  0  0  0
  -45.4171   60.1170   68.4020 H   0  0  0  0  0  0  0  0  0  0  0  0
  -45.4863   62.6172   70.0583 H   0  0  0  0  0  0  0  0  0  0  0  0
  -44.3300   62.2153   68.7503 H   0  0  0  0  0  0  0  0  0  0  0  0
  -43.3331   61.9838   70.9204 H   0  0  0  0  0  0  0  0  0  0  0  0
  -43.4665   60.4430   70.0220 H   0  0  0  0  0  0  0  0  0  0  0  0
  -43.8857   60.1411   72.3759 H   0  0  0  0  0  0  0  0  0  0  0  0
  -45.2996   59.7899   71.3578 H   0  0  0  0  0  0  0  0  0  0  0  0
  -46.2787   61.8895   71.9464 H   0  0  0  0  0  0  0  0  0  0  0  0
  -44.8580   62.2553   72.9527 H   0  0  0  0  0  0  0  0  0  0  0  0
  -46.7365   61.5760   74.2915 H   0  0  0  0  0  0  0  0  0  0  0  0
  -45.3641   60.4270   74.3626 H   0  0  0  0  0  0  0  0  0  0  0  0
  -47.8724   60.0158   72.8241 H   0  0  0  0  0  0  0  0  0  0  0  0
  -47.4607   59.2884   74.3860 H   0  0  0  0  0  0  0  0  0  0  0  0
  -45.9878   58.8860   71.8316 H   0  0  0  0  0  0  0  0  0  0  0  0
  -47.0655   57.7404   72.5927 H   0  0  0  0  0  0  0  0  0  0  0  0
  -45.5737   58.1935   73.3815 H   0  0  0  0  0  0  0  0  0  0  0  0
  1  9  1  0  0  0  0
  1 11  1  0  0  0  0
  1 13  1  0  0  0  0
  1 15  1  0  0  0  0
  2  3  1  0  0  0  0
  2  5  1  0  0  0  0
  2 17  1  0  0  0  0
  2 36  1  6  0  0  0
  3 37  1  0  0  0  0
  4  6  1  0  0  0  0
  4  8  2  6  0  0  0
  4 10  1  0  0  0  0
  4 12  1  0  0  0  0
  5  6  1  0  0  0  0
  5 38  1  0  0  0  0
  5 39  1  0  0  0  0
  7  9  1  0  0  0  0
  7 10  1  0  0  0  0
  7 40  1  0  0  0  0
  7 41  1  0  0  0  0
  9 42  1  0  0  0  0
  9 43  1  0  0  0  0
 11 44  1  0  0  0  0
 11 45  1  0  0  0  0
 11 46  1  0  0  0  0
 12 47  1  0  0  0  0
 13 48  1  0  0  0  0
 13 49  1  0  0  0  0
 13 50  1  0  0  0  0
 14 17  1  0  0  0  0
 14 18  1  0  0  0  0
 15 51  1  0  0  0  0
 15 52  1  0  0  0  0
 15 53  1  0  0  0  0
 16 18  2  0  0  0  0
 17 54  1  0  0  0  0
 17 55  1  0  0  0  0
 18 19  1  0  0  0  0
 19 20  1  0  0  0  0
 19 56  1  0  0  0  0
 19 57  1  0  0  0  0
 20 21  1  0  0  0  0
 20 58  1  0  0  0  0
 20 59  1  0  0  0  0
 21 22  1  0  0  0  0
 21 60  1  0  0  0  0
 21 61  1  0  0  0  0
 22 23  1  0  0  0  0
 22 62  1  0  0  0  0
 22 63  1  0  0  0  0
 23 24  1  0  0  0  0
 23 64  1  0  0  0  0
 23 65  1  0  0  0  0
 24 25  1  0  0  0  0
 24 66  1  0  0  0  0
 24 67  1  0  0  0  0
 25 26  1  0  0  0  0
 25 68  1  0  0  0  0
 25 69  1  0  0  0  0
 26 27  2  0  0  0  0
 26 70  1  0  0  0  0
 27 28  1  0  0  0  0
 27 71  1  0  0  0  0
 28 29  1  0  0  0  0
 28 72  1  0  0  0  0
 28 73  1  0  0  0  0
 29 30  1  0  0  0  0
 29 74  1  0  0  0  0
 29 75  1  0  0  0  0
 30 31  1  0  0  0  0
 30 76  1  0  0  0  0
 30 77  1  0  0  0  0
 31 32  1  0  0  0  0
 31 78  1  0  0  0  0
 31 79  1  0  0  0  0
 32 33  1  0  0  0  0
 32 80  1  0  0  0  0
 32 81  1  0  0  0  0
 33 34  1  0  0  0  0
 33 82  1  0  0  0  0
 33 83  1  0  0  0  0
 34 35  1  0  0  0  0
 34 84  1  0  0  0  0
 34 85  1  0  0  0  0
 35 86  1  0  0  0  0
 35 87  1  0  0  0  0
 35 88  1  0  0  0  0
M  CHG  1   8  -1
M  END
$$$$
/media/chris/experiments/cd1a-new-docking/inputs/ligands/4x6e_ligand.pdb
 OpenBabel07012320273D

 88 87  0  0  1  0  0  0  0  0999 V2000
  -36.5486   63.8937   69.4018 N   0  0  0  0  0  4  0  0  0  0  0  0
  -38.3519   60.0368   69.4239 C   0  0  1  0  0  0  0  0  0  0  0  0
  -37.8957   60.3743   68.1070 O   0  0  0  0  0  0  0  0  0  0  0  0
  -41.1374   62.9497   69.5215 P   0  0  1  0  0  0  0  0  0  0  0  0
  -38.9879   61.2497   70.0617 C   0  0  0  0  0  0  0  0  0  0  0  0
  -40.1305   61.7187   69.3055 O   0  0  0  0  0  0  0  0  0  0  0  0
  -38.9653   64.6057   69.9255 C   0  0  0  0  0  0  0  0  0  0  0  0
  -41.8186   62.7770   70.8780 O   0  5  0  0  0  0  0  0  0  0  0  0
  -38.0266   63.7862   69.0750 C   0  0  0  0  0  0  0  0  0  0  0  0
  -40.3406   64.3885   69.5079 O   0  0  0  0  0  0  0  0  0  0  0  0
  -36.2873   63.4387   70.8017 C   0  0  0  0  0  0  0  0  0  0  0  0
  -42.1728   62.9058   68.4659 O   0  0  0  0  0  0  0  0  0  0  0  0
  -36.1332   65.3221   69.2700 C   0  0  0  0  0  0  0  0  0  0  0  0
  -40.4418   59.0951   68.5635 O   0  0  0  0  0  0  0  0  0  0  0  0
  -35.7382   63.0508   68.4588 C   0  0  0  0  0  0  0  0  0  0  0  0
  -39.1537   59.4138   66.7492 O   0  0  0  0  0  0  0  0  0  0  0  0
  -39.2828   58.8433   69.3882 C   0  0  0  0  0  0  0  0  0  0  0  0
  -40.2402   59.3661   67.2706 C   0  0  0  0  0  0  0  0  0  0  0  0
  -41.5470   59.5850   66.5720 C   0  0  0  0  0  0  0  0  0  0  0  0
  -42.4780   58.3810   66.6510 C   0  0  0  0  0  0  0  0  0  0  0  0
  -43.8050   58.5690   65.9360 C   0  0  0  0  0  0  0  0  0  0  0  0
  -44.7241   57.3648   66.0412 C   0  0  0  0  0  0  0  0  0  0  0  0
  -44.1117   56.1003   65.4637 C   0  0  0  0  0  0  0  0  0  0  0  0
  -45.0468   54.9156   65.5614 C   0  0  0  0  0  0  0  0  0  0  0  0
  -44.4861   53.6177   65.0163 C   0  0  0  0  0  0  0  0  0  0  0  0
  -44.1065   53.6779   63.5864 C   0  0  0  0  0  0  0  0  0  0  0  0
  -43.1448   52.9873   63.0095 C   0  0  0  0  0  0  0  0  0  0  0  0
  -42.2563   51.9694   63.6475 C   0  0  0  0  0  0  0  0  0  0  0  0
  -40.7936   52.4024   63.5349 C   0  0  0  0  0  0  0  0  0  0  0  0
  -40.4507   53.7224   64.2098 C   0  0  0  0  0  0  0  0  0  0  0  0
  -40.6959   53.7599   65.7134 C   0  0  0  0  0  0  0  0  0  0  0  0
  -40.3573   55.1026   66.3526 C   0  0  0  0  0  0  0  0  0  0  0  0
  -40.5841   55.1400   67.8555 C   0  0  0  0  0  0  0  0  0  0  0  0
  -42.0083   54.8525   68.3067 C   0  0  0  0  0  0  0  0  0  0  0  0
  -42.4804   53.4896   67.9027 C   0  0  0  0  0  0  0  0  0  0  0  0
  -37.5179   59.7464   70.0280 H   0  0  0  0  0  0  0  0  0  0  0  0
  -38.6524   60.6374   67.5602 H   0  0  0  0  0  0  0  0  0  0  0  0
  -38.2619   62.0340   70.1143 H   0  0  0  0  0  0  0  0  0  0  0  0
  -39.3265   60.9727   71.0382 H   0  0  0  0  0  0  0  0  0  0  0  0
  -38.7236   65.6427   69.8200 H   0  0  0  0  0  0  0  0  0  0  0  0
  -38.8599   64.3079   70.9478 H   0  0  0  0  0  0  0  0  0  0  0  0
  -38.3083   62.7590   69.1771 H   0  0  0  0  0  0  0  0  0  0  0  0
  -38.1268   64.1781   68.0844 H   0  0  0  0  0  0  0  0  0  0  0  0
  -36.8601   64.0329   71.4827 H   0  0  0  0  0  0  0  0  0  0  0  0
  -35.2460   63.5464   71.0233 H   0  0  0  0  0  0  0  0  0  0  0  0
  -36.5687   62.4112   70.9012 H   0  0  0  0  0  0  0  0  0  0  0  0
  -42.6275   62.0494   68.4945 H   0  0  0  0  0  0  0  0  0  0  0  0
  -36.7093   65.9245   69.9410 H   0  0  0  0  0  0  0  0  0  0  0  0
  -36.2982   65.6503   68.2650 H   0  0  0  0  0  0  0  0  0  0  0  0
  -35.0946   65.4151   69.5096 H   0  0  0  0  0  0  0  0  0  0  0  0
  -36.0342   62.0268   68.5515 H   0  0  0  0  0  0  0  0  0  0  0  0
  -34.6997   63.1450   68.6989 H   0  0  0  0  0  0  0  0  0  0  0  0
  -35.9033   63.3802   67.4542 H   0  0  0  0  0  0  0  0  0  0  0  0
  -39.6066   58.6260   70.3846 H   0  0  0  0  0  0  0  0  0  0  0  0
  -38.7488   58.0158   68.9699 H   0  0  0  0  0  0  0  0  0  0  0  0
  -41.3508   59.7963   65.5416 H   0  0  0  0  0  0  0  0  0  0  0  0
  -42.0377   60.3996   67.0625 H   0  0  0  0  0  0  0  0  0  0  0  0
  -42.6787   58.1797   67.6825 H   0  0  0  0  0  0  0  0  0  0  0  0
  -41.9769   57.5734   66.1596 H   0  0  0  0  0  0  0  0  0  0  0  0
  -43.6088   58.7562   64.9009 H   0  0  0  0  0  0  0  0  0  0  0  0
  -44.3043   59.3890   66.4084 H   0  0  0  0  0  0  0  0  0  0  0  0
  -45.6287   57.5786   65.5112 H   0  0  0  0  0  0  0  0  0  0  0  0
  -44.9036   57.1882   67.0812 H   0  0  0  0  0  0  0  0  0  0  0  0
  -43.2140   55.8759   66.0011 H   0  0  0  0  0  0  0  0  0  0  0  0
  -43.9119   56.2761   64.4273 H   0  0  0  0  0  0  0  0  0  0  0  0
  -45.9374   55.1485   65.0161 H   0  0  0  0  0  0  0  0  0  0  0  0
  -45.2208   54.7541   66.6047 H   0  0  0  0  0  0  0  0  0  0  0  0
  -45.2270   52.8549   65.1357 H   0  0  0  0  0  0  0  0  0  0  0  0
  -43.5909   53.4129   65.5654 H   0  0  0  0  0  0  0  0  0  0  0  0
  -44.6459   54.3209   62.9859 H   0  0  0  0  0  0  0  0  0  0  0  0
  -42.9874   53.1694   62.0059 H   0  0  0  0  0  0  0  0  0  0  0  0
  -42.3855   51.0285   63.1546 H   0  0  0  0  0  0  0  0  0  0  0  0
  -42.5154   51.8779   64.6816 H   0  0  0  0  0  0  0  0  0  0  0  0
  -40.5545   52.4910   62.4957 H   0  0  0  0  0  0  0  0  0  0  0  0
  -40.2241   51.6536   64.0445 H   0  0  0  0  0  0  0  0  0  0  0  0
  -41.0431   54.4901   63.7577 H   0  0  0  0  0  0  0  0  0  0  0  0
  -39.3985   53.8626   64.0749 H   0  0  0  0  0  0  0  0  0  0  0  0
  -40.0937   53.0045   66.1736 H   0  0  0  0  0  0  0  0  0  0  0  0
  -41.7419   53.5941   65.8656 H   0  0  0  0  0  0  0  0  0  0  0  0
  -40.9683   55.8555   65.9001 H   0  0  0  0  0  0  0  0  0  0  0  0
  -39.3132   55.2713   66.1901 H   0  0  0  0  0  0  0  0  0  0  0  0
  -40.3172   56.1152   68.2057 H   0  0  0  0  0  0  0  0  0  0  0  0
  -39.9809   54.3567   68.2648 H   0  0  0  0  0  0  0  0  0  0  0  0
  -42.6587   55.5825   67.8722 H   0  0  0  0  0  0  0  0  0  0  0  0
  -42.0226   54.8949   69.3758 H   0  0  0  0  0  0  0  0  0  0  0  0
  -42.4781   53.4133   66.8354 H   0  0  0  0  0  0  0  0  0  0  0  0
  -43.4733   53.3329   68.2694 H   0  0  0  0  0  0  0  0  0  0  0  0
  -41.8270   52.7492   68.3146 H   0  0  0  0  0  0  0  0  0  0  0  0
  1  9  1  0  0  0  0
  1 11  1  0  0  0  0
  1 13  1  0  0  0  0
  1 15  1  0  0  0  0
  2  3  1  0  0  0  0
  2  5  1  0  0  0  0
  2 17  1  0  0  0  0
  2 36  1  1  0  0  0
  3 37  1  0  0  0  0
  4  6  1  0  0  0  0
  4  8  2  1  0  0  0
  4 10  1  0  0  0  0
  4 12  1  0  0  0  0
  5  6  1  0  0  0  0
  5 38  1  0  0  0  0
  5 39  1  0  0  0  0
  7  9  1  0  0  0  0
  7 10  1  0  0  0  0
  7 40  1  0  0  0  0
  7 41  1  0  0  0  0
  9 42  1  0  0  0  0
  9 43  1  0  0  0  0
 11 44  1  0  0  0  0
 11 45  1  0  0  0  0
 11 46  1  0  0  0  0
 12 47  1  0  0  0  0
 13 48  1  0  0  0  0
 13 49  1  0  0  0  0
 13 50  1  0  0  0  0
 14 17  1  0  0  0  0
 14 18  1  0  0  0  0
 15 51  1  0  0  0  0
 15 52  1  0  0  0  0
 15 53  1  0  0  0  0
 16 18  2  0  0  0  0
 17 54  1  0  0  0  0
 17 55  1  0  0  0  0
 18 19  1  0  0  0  0
 19 20  1  0  0  0  0
 19 56  1  0  0  0  0
 19 57  1  0  0  0  0
 20 21  1  0  0  0  0
 20 58  1  0  0  0  0
 20 59  1  0  0  0  0
 21 22  1  0  0  0  0
 21 60  1  0  0  0  0
 21 61  1  0  0  0  0
 22 23  1  0  0  0  0
 22 62  1  0  0  0  0
 22 63  1  0  0  0  0
 23 24  1  0  0  0  0
 23 64  1  0  0  0  0
 23 65  1  0  0  0  0
 24 25  1  0  0  0  0
 24 66  1  0  0  0  0
 24 67  1  0  0  0  0
 25 26  1  0  0  0  0
 25 68  1  0  0  0  0
 25 69  1  0  0  0  0
 26 27  2  0  0  0  0
 26 70  1  0  0  0  0
 27 28  1  0  0  0  0
 27 71  1  0  0  0  0
 28 29  1  0  0  0  0
 28 72  1  0  0  0  0
 28 73  1  0  0  0  0
 29 30  1  0  0  0  0
 29 74  1  0  0  0  0
 29 75  1  0  0  0  0
 30 31  1  0  0  0  0
 30 76  1  0  0  0  0
 30 77  1  0  0  0  0
 31 32  1  0  0  0  0
 31 78  1  0  0  0  0
 31 79  1  0  0  0  0
 32 33  1  0  0  0  0
 32 80  1  0  0  0  0
 32 81  1  0  0  0  0
 33 34  1  0  0  0  0
 33 82  1  0  0  0  0
 33 83  1  0  0  0  0
 34 35  1  0  0  0  0
 34 84  1  0  0  0  0
 34 85  1  0  0  0  0
 35 86  1  0  0  0  0
 35 87  1  0  0  0  0
 35 88  1  0  0  0  0
M  CHG  1   8  -1
M  END
$$$$
/media/chris/experiments/cd1a-new-docking/inputs/ligands/4x6e_ligand.pdb
 OpenBabel07012320273D

 88 87  0  0  1  0  0  0  0  0999 V2000
  -46.0406   71.0860   65.6306 N   0  0  0  0  0  4  0  0  0  0  0  0
  -42.4451   63.8547   67.8386 C   0  0  1  0  0  0  0  0  0  0  0  0
  -42.4666   64.8789   68.8421 O   0  0  0  0  0  0  0  0  0  0  0  0
  -43.9028   66.2644   64.9538 P   0  0  1  0  0  0  0  0  0  0  0  0
  -42.3668   64.4923   66.4712 C   0  0  0  0  0  0  0  0  0  0  0  0
  -43.4917   65.3695   66.2211 O   0  0  0  0  0  0  0  0  0  0  0  0
  -45.1948   68.6884   65.2334 C   0  0  0  0  0  0  0  0  0  0  0  0
  -45.2672   65.7896   64.4565 O   0  5  0  0  0  0  0  0  0  0  0  0
  -44.8905   70.0973   65.6791 C   0  0  0  0  0  0  0  0  0  0  0  0
  -44.0081   67.8571   65.3503 O   0  0  0  0  0  0  0  0  0  0  0  0
  -46.5698   71.2060   64.2375 C   0  0  0  0  0  0  0  0  0  0  0  0
  -42.9093   66.0489   63.8792 O   0  0  0  0  0  0  0  0  0  0  0  0
  -45.5416   72.4209   66.0771 C   0  0  0  0  0  0  0  0  0  0  0  0
  -41.2761   61.8437   67.0743 O   0  0  0  0  0  0  0  0  0  0  0  0
  -47.1545   70.6429   66.5359 C   0  0  0  0  0  0  0  0  0  0  0  0
  -43.2158   60.8980   67.7033 O   0  0  0  0  0  0  0  0  0  0  0  0
  -41.3201   62.8725   68.0874 C   0  0  0  0  0  0  0  0  0  0  0  0
  -42.1287   60.8209   67.1868 C   0  0  0  0  0  0  0  0  0  0  0  0
  -41.5470   59.5850   66.5720 C   0  0  0  0  0  0  0  0  0  0  0  0
  -42.4780   58.3810   66.6510 C   0  0  0  0  0  0  0  0  0  0  0  0
  -43.8050   58.5690   65.9360 C   0  0  0  0  0  0  0  0  0  0  0  0
  -43.6578   58.8291   64.4471 C   0  0  0  0  0  0  0  0  0  0  0  0
  -42.8367   60.0699   64.1412 C   0  0  0  0  0  0  0  0  0  0  0  0
  -42.7147   60.3231   62.6551 C   0  0  0  0  0  0  0  0  0  0  0  0
  -41.8915   61.5399   62.2839 C   0  0  0  0  0  0  0  0  0  0  0  0
  -41.7964   61.7820   60.8263 C   0  0  0  0  0  0  0  0  0  0  0  0
  -42.6175   62.5192   60.1072 C   0  0  0  0  0  0  0  0  0  0  0  0
  -43.7921   63.3020   60.5971 C   0  0  0  0  0  0  0  0  0  0  0  0
  -45.0728   62.8080   59.9222 C   0  0  0  0  0  0  0  0  0  0  0  0
  -45.4219   61.3487   60.1753 C   0  0  0  0  0  0  0  0  0  0  0  0
  -44.3663   60.3462   59.7246 C   0  0  0  0  0  0  0  0  0  0  0  0
  -44.0542   60.4191   58.2335 C   0  0  0  0  0  0  0  0  0  0  0  0
  -43.0138   59.4093   57.7756 C   0  0  0  0  0  0  0  0  0  0  0  0
  -42.6623   59.4614   56.2963 C   0  0  0  0  0  0  0  0  0  0  0  0
  -42.0916   60.7829   55.8823 C   0  0  0  0  0  0  0  0  0  0  0  0
  -43.3515   63.2881   67.8861 H   0  0  0  0  0  0  0  0  0  0  0  0
  -41.6446   65.3919   68.7981 H   0  0  0  0  0  0  0  0  0  0  0  0
  -42.3575   63.7211   65.7295 H   0  0  0  0  0  0  0  0  0  0  0  0
  -41.4725   65.0782   66.4284 H   0  0  0  0  0  0  0  0  0  0  0  0
  -45.5173   68.7024   64.2132 H   0  0  0  0  0  0  0  0  0  0  0  0
  -45.9663   68.2846   65.8551 H   0  0  0  0  0  0  0  0  0  0  0  0
  -44.5443   70.0506   66.6905 H   0  0  0  0  0  0  0  0  0  0  0  0
  -44.1701   70.4663   64.9794 H   0  0  0  0  0  0  0  0  0  0  0  0
  -45.7840   71.5215   63.5834 H   0  0  0  0  0  0  0  0  0  0  0  0
  -47.3611   71.9260   64.2174 H   0  0  0  0  0  0  0  0  0  0  0  0
  -46.9431   70.2566   63.9147 H   0  0  0  0  0  0  0  0  0  0  0  0
  -42.8658   65.1041   63.6638 H   0  0  0  0  0  0  0  0  0  0  0  0
  -44.7480   72.7386   65.4336 H   0  0  0  0  0  0  0  0  0  0  0  0
  -45.1793   72.3486   67.0813 H   0  0  0  0  0  0  0  0  0  0  0  0
  -46.3401   73.1320   66.0364 H   0  0  0  0  0  0  0  0  0  0  0  0
  -47.5135   69.6865   66.2178 H   0  0  0  0  0  0  0  0  0  0  0  0
  -47.9520   71.3550   66.4949 H   0  0  0  0  0  0  0  0  0  0  0  0
  -46.7912   70.5716   67.5398 H   0  0  0  0  0  0  0  0  0  0  0  0
  -41.4659   62.4128   69.0425 H   0  0  0  0  0  0  0  0  0  0  0  0
  -40.3952   63.4098   68.0580 H   0  0  0  0  0  0  0  0  0  0  0  0
  -40.6379   59.3462   67.0832 H   0  0  0  0  0  0  0  0  0  0  0  0
  -41.3821   59.7924   65.5353 H   0  0  0  0  0  0  0  0  0  0  0  0
  -42.6787   58.1797   67.6825 H   0  0  0  0  0  0  0  0  0  0  0  0
  -41.9769   57.5734   66.1596 H   0  0  0  0  0  0  0  0  0  0  0  0
  -44.3126   59.4014   66.3769 H   0  0  0  0  0  0  0  0  0  0  0  0
  -44.3534   57.6566   66.0440 H   0  0  0  0  0  0  0  0  0  0  0  0
  -44.6329   58.9523   64.0242 H   0  0  0  0  0  0  0  0  0  0  0  0
  -43.1429   57.9916   64.0247 H   0  0  0  0  0  0  0  0  0  0  0  0
  -41.8563   59.9438   64.5508 H   0  0  0  0  0  0  0  0  0  0  0  0
  -43.3362   60.9097   64.5773 H   0  0  0  0  0  0  0  0  0  0  0  0
  -43.6996   60.4535   62.2576 H   0  0  0  0  0  0  0  0  0  0  0  0
  -42.2033   59.4769   62.2461 H   0  0  0  0  0  0  0  0  0  0  0  0
  -40.9018   61.4062   62.6678 H   0  0  0  0  0  0  0  0  0  0  0  0
  -42.3868   62.3889   62.7066 H   0  0  0  0  0  0  0  0  0  0  0  0
  -41.0137   61.3311   60.3272 H   0  0  0  0  0  0  0  0  0  0  0  0
  -42.4287   62.5607   59.0935 H   0  0  0  0  0  0  0  0  0  0  0  0
  -43.6480   64.3371   60.3675 H   0  0  0  0  0  0  0  0  0  0  0  0
  -43.8821   63.1725   61.6554 H   0  0  0  0  0  0  0  0  0  0  0  0
  -44.9629   62.9429   58.8664 H   0  0  0  0  0  0  0  0  0  0  0  0
  -45.8703   63.3803   60.3478 H   0  0  0  0  0  0  0  0  0  0  0  0
  -46.3309   61.1299   59.6550 H   0  0  0  0  0  0  0  0  0  0  0  0
  -45.5032   61.2405   61.2367 H   0  0  0  0  0  0  0  0  0  0  0  0
  -44.7176   59.3608   59.9492 H   0  0  0  0  0  0  0  0  0  0  0  0
  -43.4633   60.5844   60.2469 H   0  0  0  0  0  0  0  0  0  0  0  0
  -43.6918   61.4012   58.0121 H   0  0  0  0  0  0  0  0  0  0  0  0
  -44.9609   60.1909   57.7132 H   0  0  0  0  0  0  0  0  0  0  0  0
  -43.3862   58.4299   57.9923 H   0  0  0  0  0  0  0  0  0  0  0  0
  -42.1144   59.6529   58.3016 H   0  0  0  0  0  0  0  0  0  0  0  0
  -43.5498   59.2788   55.7273 H   0  0  0  0  0  0  0  0  0  0  0  0
  -41.9153   58.7168   56.1160 H   0  0  0  0  0  0  0  0  0  0  0  0
  -42.8158   61.5525   56.0502 H   0  0  0  0  0  0  0  0  0  0  0  0
  -41.8382   60.7522   54.8432 H   0  0  0  0  0  0  0  0  0  0  0  0
  -41.2132   60.9881   56.4578 H   0  0  0  0  0  0  0  0  0  0  0  0
  1  9  1  0  0  0  0
  1 11  1  0  0  0  0
  1 13  1  0  0  0  0
  1 15  1  0  0  0  0
  2  3  1  0  0  0  0
  2  5  1  0  0  0  0
  2 17  1  0  0  0  0
  2 36  1  1  0  0  0
  3 37  1  0  0  0  0
  4  6  1  0  0  0  0
  4  8  2  6  0  0  0
  4 10  1  0  0  0  0
  4 12  1  0  0  0  0
  5  6  1  0  0  0  0
  5 38  1  0  0  0  0
  5 39  1  0  0  0  0
  7  9  1  0  0  0  0
  7 10  1  0  0  0  0
  7 40  1  0  0  0  0
  7 41  1  0  0  0  0
  9 42  1  0  0  0  0
  9 43  1  0  0  0  0
 11 44  1  0  0  0  0
 11 45  1  0  0  0  0
 11 46  1  0  0  0  0
 12 47  1  0  0  0  0
 13 48  1  0  0  0  0
 13 49  1  0  0  0  0
 13 50  1  0  0  0  0
 14 17  1  0  0  0  0
 14 18  1  0  0  0  0
 15 51  1  0  0  0  0
 15 52  1  0  0  0  0
 15 53  1  0  0  0  0
 16 18  2  0  0  0  0
 17 54  1  0  0  0  0
 17 55  1  0  0  0  0
 18 19  1  0  0  0  0
 19 20  1  0  0  0  0
 19 56  1  0  0  0  0
 19 57  1  0  0  0  0
 20 21  1  0  0  0  0
 20 58  1  0  0  0  0
 20 59  1  0  0  0  0
 21 22  1  0  0  0  0
 21 60  1  0  0  0  0
 21 61  1  0  0  0  0
 22 23  1  0  0  0  0
 22 62  1  0  0  0  0
 22 63  1  0  0  0  0
 23 24  1  0  0  0  0
 23 64  1  0  0  0  0
 23 65  1  0  0  0  0
 24 25  1  0  0  0  0
 24 66  1  0  0  0  0
 24 67  1  0  0  0  0
 25 26  1  0  0  0  0
 25 68  1  0  0  0  0
 25 69  1  0  0  0  0
 26 27  2  0  0  0  0
 26 70  1  0  0  0  0
 27 28  1  0  0  0  0
 27 71  1  0  0  0  0
 28 29  1  0  0  0  0
 28 72  1  0  0  0  0
 28 73  1  0  0  0  0
 29 30  1  0  0  0  0
 29 74  1  0  0  0  0
 29 75  1  0  0  0  0
 30 31  1  0  0  0  0
 30 76  1  0  0  0  0
 30 77  1  0  0  0  0
 31 32  1  0  0  0  0
 31 78  1  0  0  0  0
 31 79  1  0  0  0  0
 32 33  1  0  0  0  0
 32 80  1  0  0  0  0
 32 81  1  0  0  0  0
 33 34  1  0  0  0  0
 33 82  1  0  0  0  0
 33 83  1  0  0  0  0
 34 35  1  0  0  0  0
 34 84  1  0  0  0  0
 34 85  1  0  0  0  0
 35 86  1  0  0  0  0
 35 87  1  0  0  0  0
 35 88  1  0  0  0  0
M  CHG  1   8  -1
M  END
$$$$
/media/chris/experiments/cd1a-new-docking/inputs/ligands/4x6e_ligand.pdb
 OpenBabel07012320273D

 88 87  0  0  1  0  0  0  0  0999 V2000
  -50.2297   62.1744   62.4774 N   0  0  0  0  0  4  0  0  0  0  0  0
  -42.7276   62.2162   63.6499 C   0  0  1  0  0  0  0  0  0  0  0  0
  -43.2019   63.0919   64.6817 O   0  0  0  0  0  0  0  0  0  0  0  0
  -45.3478   63.5786   60.9055 P   0  0  1  0  0  0  0  0  0  0  0  0
  -43.0525   62.8089   62.2989 C   0  0  0  0  0  0  0  0  0  0  0  0
  -44.4766   63.0074   62.1265 O   0  0  0  0  0  0  0  0  0  0  0  0
  -47.8469   62.9559   61.9005 C   0  0  0  0  0  0  0  0  0  0  0  0
  -44.6130   63.2597   59.6046 O   0  5  0  0  0  0  0  0  0  0  0  0
  -49.0762   62.1828   61.4916 C   0  0  0  0  0  0  0  0  0  0  0  0
  -46.8393   62.8872   60.8551 O   0  0  0  0  0  0  0  0  0  0  0  0
  -49.7981   61.5897   63.7839 C   0  0  0  0  0  0  0  0  0  0  0  0
  -45.4477   65.0482   61.0415 O   0  0  0  0  0  0  0  0  0  0  0  0
  -51.3335   61.3411   61.9136 C   0  0  0  0  0  0  0  0  0  0  0  0
  -40.9743   61.2799   65.0797 O   0  0  0  0  0  0  0  0  0  0  0  0
  -50.7311   63.5707   62.7131 C   0  0  0  0  0  0  0  0  0  0  0  0
  -41.1021   59.1991   64.2392 O   0  0  0  0  0  0  0  0  0  0  0  0
  -41.2510   61.9268   63.8181 C   0  0  0  0  0  0  0  0  0  0  0  0
  -41.1924   59.9644   65.1670 C   0  0  0  0  0  0  0  0  0  0  0  0
  -41.5470   59.5850   66.5720 C   0  0  0  0  0  0  0  0  0  0  0  0
  -42.4780   58.3810   66.6510 C   0  0  0  0  0  0  0  0  0  0  0  0
  -43.8050   58.5690   65.9360 C   0  0  0  0  0  0  0  0  0  0  0  0
  -43.6578   58.8291   64.4471 C   0  0  0  0  0  0  0  0  0  0  0  0
  -42.9740   57.6892   63.7118 C   0  0  0  0  0  0  0  0  0  0  0  0
  -43.7434   56.3921   63.8252 C   0  0  0  0  0  0  0  0  0  0  0  0
  -45.1447   56.4328   63.2503 C   0  0  0  0  0  0  0  0  0  0  0  0
  -45.8891   55.1600   63.3846 C   0  0  0  0  0  0  0  0  0  0  0  0
  -46.6617   54.8160   64.3943 C   0  0  0  0  0  0  0  0  0  0  0  0
  -46.9920   55.6362   65.5989 C   0  0  0  0  0  0  0  0  0  0  0  0
  -45.9755   55.3719   66.7108 C   0  0  0  0  0  0  0  0  0  0  0  0
  -45.8836   53.9274   67.1804 C   0  0  0  0  0  0  0  0  0  0  0  0
  -45.4735   52.9260   66.1073 C   0  0  0  0  0  0  0  0  0  0  0  0
  -45.4084   51.4874   66.6095 C   0  0  0  0  0  0  0  0  0  0  0  0
  -44.9832   50.4865   65.5469 C   0  0  0  0  0  0  0  0  0  0  0  0
  -43.6021   50.7157   64.9515 C   0  0  0  0  0  0  0  0  0  0  0  0
  -43.4676   52.0570   64.2987 C   0  0  0  0  0  0  0  0  0  0  0  0
  -43.2267   61.2726   63.7241 H   0  0  0  0  0  0  0  0  0  0  0  0
  -42.7489   63.9469   64.6136 H   0  0  0  0  0  0  0  0  0  0  0  0
  -42.7005   62.1461   61.5362 H   0  0  0  0  0  0  0  0  0  0  0  0
  -42.5732   63.7632   62.2306 H   0  0  0  0  0  0  0  0  0  0  0  0
  -47.4500   62.5377   62.8019 H   0  0  0  0  0  0  0  0  0  0  0  0
  -48.1153   63.9794   62.0597 H   0  0  0  0  0  0  0  0  0  0  0  0
  -49.4347   62.6031   60.5753 H   0  0  0  0  0  0  0  0  0  0  0  0
  -48.7585   61.1636   61.4188 H   0  0  0  0  0  0  0  0  0  0  0  0
  -49.4387   60.5940   63.6277 H   0  0  0  0  0  0  0  0  0  0  0  0
  -50.6297   61.5673   64.4568 H   0  0  0  0  0  0  0  0  0  0  0  0
  -49.0169   62.1893   64.2023 H   0  0  0  0  0  0  0  0  0  0  0  0
  -44.5571   65.4317   61.0689 H   0  0  0  0  0  0  0  0  0  0  0  0
  -50.9785   60.3459   61.7449 H   0  0  0  0  0  0  0  0  0  0  0  0
  -51.6625   61.7643   60.9875 H   0  0  0  0  0  0  0  0  0  0  0  0
  -52.1502   61.3162   62.6045 H   0  0  0  0  0  0  0  0  0  0  0  0
  -49.9418   64.1696   63.1172 H   0  0  0  0  0  0  0  0  0  0  0  0
  -51.5481   63.5445   63.4035 H   0  0  0  0  0  0  0  0  0  0  0  0
  -51.0604   63.9926   61.7866 H   0  0  0  0  0  0  0  0  0  0  0  0
  -40.7097   62.8488   63.7749 H   0  0  0  0  0  0  0  0  0  0  0  0
  -40.9483   61.2677   63.0314 H   0  0  0  0  0  0  0  0  0  0  0  0
  -42.0288   60.4189   67.0383 H   0  0  0  0  0  0  0  0  0  0  0  0
  -40.6378   59.3175   67.0687 H   0  0  0  0  0  0  0  0  0  0  0  0
  -42.6787   58.1797   67.6825 H   0  0  0  0  0  0  0  0  0  0  0  0
  -41.9769   57.5734   66.1596 H   0  0  0  0  0  0  0  0  0  0  0  0
  -44.3126   59.4014   66.3769 H   0  0  0  0  0  0  0  0  0  0  0  0
  -44.3534   57.6566   66.0440 H   0  0  0  0  0  0  0  0  0  0  0  0
  -43.0787   59.7186   64.3117 H   0  0  0  0  0  0  0  0  0  0  0  0
  -44.6423   58.9284   64.0400 H   0  0  0  0  0  0  0  0  0  0  0  0
  -41.9978   57.5481   64.1268 H   0  0  0  0  0  0  0  0  0  0  0  0
  -42.9229   57.9510   62.6756 H   0  0  0  0  0  0  0  0  0  0  0  0
  -43.8162   56.1377   64.8620 H   0  0  0  0  0  0  0  0  0  0  0  0
  -43.2026   55.6695   63.2505 H   0  0  0  0  0  0  0  0  0  0  0  0
  -45.0745   56.6731   62.2100 H   0  0  0  0  0  0  0  0  0  0  0  0
  -45.6864   57.1680   63.8079 H   0  0  0  0  0  0  0  0  0  0  0  0
  -45.7938   54.4788   62.6152 H   0  0  0  0  0  0  0  0  0  0  0  0
  -47.0857   53.8763   64.3485 H   0  0  0  0  0  0  0  0  0  0  0  0
  -47.9706   55.3774   65.9455 H   0  0  0  0  0  0  0  0  0  0  0  0
  -46.9607   56.6728   65.3356 H   0  0  0  0  0  0  0  0  0  0  0  0
  -46.2421   55.9764   67.5525 H   0  0  0  0  0  0  0  0  0  0  0  0
  -45.0175   55.6093   66.2975 H   0  0  0  0  0  0  0  0  0  0  0  0
  -46.8434   53.6383   67.5546 H   0  0  0  0  0  0  0  0  0  0  0  0
  -45.1131   53.9027   67.9224 H   0  0  0  0  0  0  0  0  0  0  0  0
  -44.5067   53.2004   65.7400 H   0  0  0  0  0  0  0  0  0  0  0  0
  -46.2225   52.9590   65.3439 H   0  0  0  0  0  0  0  0  0  0  0  0
  -46.3785   51.2100   66.9657 H   0  0  0  0  0  0  0  0  0  0  0  0
  -44.6665   51.4589   67.3799 H   0  0  0  0  0  0  0  0  0  0  0  0
  -45.6969   50.5268   64.7507 H   0  0  0  0  0  0  0  0  0  0  0  0
  -44.9396   49.5363   66.0369 H   0  0  0  0  0  0  0  0  0  0  0  0
  -43.4155   49.9585   64.2189 H   0  0  0  0  0  0  0  0  0  0  0  0
  -42.8945   50.6748   65.7531 H   0  0  0  0  0  0  0  0  0  0  0  0
  -44.1639   52.1313   63.4896 H   0  0  0  0  0  0  0  0  0  0  0  0
  -42.4720   52.1733   63.9243 H   0  0  0  0  0  0  0  0  0  0  0  0
  -43.6709   52.8247   65.0157 H   0  0  0  0  0  0  0  0  0  0  0  0
  1  9  1  0  0  0  0
  1 11  1  0  0  0  0
  1 13  1  0  0  0  0
  1 15  1  0  0  0  0
  2  3  1  0  0  0  0
  2  5  1  0  0  0  0
  2 17  1  0  0  0  0
  2 36  1  1  0  0  0
  3 37  1  0  0  0  0
  4  6  1  0  0  0  0
  4  8  2  6  0  0  0
  4 10  1  0  0  0  0
  4 12  1  0  0  0  0
  5  6  1  0  0  0  0
  5 38  1  0  0  0  0
  5 39  1  0  0  0  0
  7  9  1  0  0  0  0
  7 10  1  0  0  0  0
  7 40  1  0  0  0  0
  7 41  1  0  0  0  0
  9 42  1  0  0  0  0
  9 43  1  0  0  0  0
 11 44  1  0  0  0  0
 11 45  1  0  0  0  0
 11 46  1  0  0  0  0
 12 47  1  0  0  0  0
 13 48  1  0  0  0  0
 13 49  1  0  0  0  0
 13 50  1  0  0  0  0
 14 17  1  0  0  0  0
 14 18  1  0  0  0  0
 15 51  1  0  0  0  0
 15 52  1  0  0  0  0
 15 53  1  0  0  0  0
 16 18  2  0  0  0  0
 17 54  1  0  0  0  0
 17 55  1  0  0  0  0
 18 19  1  0  0  0  0
 19 20  1  0  0  0  0
 19 56  1  0  0  0  0
 19 57  1  0  0  0  0
 20 21  1  0  0  0  0
 20 58  1  0  0  0  0
 20 59  1  0  0  0  0
 21 22  1  0  0  0  0
 21 60  1  0  0  0  0
 21 61  1  0  0  0  0
 22 23  1  0  0  0  0
 22 62  1  0  0  0  0
 22 63  1  0  0  0  0
 23 24  1  0  0  0  0
 23 64  1  0  0  0  0
 23 65  1  0  0  0  0
 24 25  1  0  0  0  0
 24 66  1  0  0  0  0
 24 67  1  0  0  0  0
 25 26  1  0  0  0  0
 25 68  1  0  0  0  0
 25 69  1  0  0  0  0
 26 27  2  0  0  0  0
 26 70  1  0  0  0  0
 27 28  1  0  0  0  0
 27 71  1  0  0  0  0
 28 29  1  0  0  0  0
 28 72  1  0  0  0  0
 28 73  1  0  0  0  0
 29 30  1  0  0  0  0
 29 74  1  0  0  0  0
 29 75  1  0  0  0  0
 30 31  1  0  0  0  0
 30 76  1  0  0  0  0
 30 77  1  0  0  0  0
 31 32  1  0  0  0  0
 31 78  1  0  0  0  0
 31 79  1  0  0  0  0
 32 33  1  0  0  0  0
 32 80  1  0  0  0  0
 32 81  1  0  0  0  0
 33 34  1  0  0  0  0
 33 82  1  0  0  0  0
 33 83  1  0  0  0  0
 34 35  1  0  0  0  0
 34 84  1  0  0  0  0
 34 85  1  0  0  0  0
 35 86  1  0  0  0  0
 35 87  1  0  0  0  0
 35 88  1  0  0  0  0
M  CHG  1   8  -1
M  END
$$$$
/media/chris/experiments/cd1a-new-docking/inputs/ligands/4x6e_ligand.pdb
 OpenBabel07012320273D

 88 87  0  0  1  0  0  0  0  0999 V2000
  -39.2490   69.3318   62.1944 N   0  0  0  0  0  4  0  0  0  0  0  0
  -41.7409   63.0292   65.3535 C   0  0  1  0  0  0  0  0  0  0  0  0
  -41.0970   63.4409   66.5668 O   0  0  0  0  0  0  0  0  0  0  0  0
  -40.1602   65.9772   65.1668 P   0  0  1  0  0  0  0  0  0  0  0  0
  -42.2844   64.2426   64.6361 C   0  0  0  0  0  0  0  0  0  0  0  0
  -41.2337   65.1749   64.2836 O   0  0  0  0  0  0  0  0  0  0  0  0
  -40.6674   68.5036   64.1753 C   0  0  0  0  0  0  0  0  0  0  0  0
  -38.9037   65.1167   65.2888 O   0  5  0  0  0  0  0  0  0  0  0  0
  -39.9244   69.6402   63.5178 C   0  0  0  0  0  0  0  0  0  0  0  0
  -39.7557   67.4098   64.4676 O   0  0  0  0  0  0  0  0  0  0  0  0
  -38.2477   68.2342   62.3606 C   0  0  0  0  0  0  0  0  0  0  0  0
  -40.7209   66.1857   66.5198 O   0  0  0  0  0  0  0  0  0  0  0  0
  -38.5473   70.5613   61.7187 C   0  0  0  0  0  0  0  0  0  0  0  0
  -40.3646   61.0134   65.1616 O   0  0  0  0  0  0  0  0  0  0  0  0
  -40.2644   68.9109   61.1706 C   0  0  0  0  0  0  0  0  0  0  0  0
  -41.5829   59.4037   64.1731 O   0  0  0  0  0  0  0  0  0  0  0  0
  -40.8026   62.2143   64.4888 C   0  0  0  0  0  0  0  0  0  0  0  0
  -41.1924   59.9644   65.1670 C   0  0  0  0  0  0  0  0  0  0  0  0
  -41.5470   59.5850   66.5720 C   0  0  0  0  0  0  0  0  0  0  0  0
  -42.4780   58.3810   66.6510 C   0  0  0  0  0  0  0  0  0  0  0  0
  -43.8050   58.5690   65.9360 C   0  0  0  0  0  0  0  0  0  0  0  0
  -44.6170   59.7376   66.4663 C   0  0  0  0  0  0  0  0  0  0  0  0
  -43.9014   61.0697   66.3219 C   0  0  0  0  0  0  0  0  0  0  0  0
  -44.7168   62.2195   66.8702 C   0  0  0  0  0  0  0  0  0  0  0  0
  -45.0441   62.1185   68.3462 C   0  0  0  0  0  0  0  0  0  0  0  0
  -45.8565   63.2436   68.8623 C   0  0  0  0  0  0  0  0  0  0  0  0
  -45.3921   64.3656   69.3726 C   0  0  0  0  0  0  0  0  0  0  0  0
  -43.9606   64.7716   69.5080 C   0  0  0  0  0  0  0  0  0  0  0  0
  -43.4078   64.3108   70.8577 C   0  0  0  0  0  0  0  0  0  0  0  0
  -41.9563   64.6789   71.1278 C   0  0  0  0  0  0  0  0  0  0  0  0
  -41.6621   66.1741   71.1387 C   0  0  0  0  0  0  0  0  0  0  0  0
  -42.4350   66.9392   72.2079 C   0  0  0  0  0  0  0  0  0  0  0  0
  -42.1579   68.4342   72.2119 C   0  0  0  0  0  0  0  0  0  0  0  0
  -42.5139   69.1662   70.9266 C   0  0  0  0  0  0  0  0  0  0  0  0
  -43.9697   69.0683   70.5880 C   0  0  0  0  0  0  0  0  0  0  0  0
  -42.5651   62.3876   65.5858 H   0  0  0  0  0  0  0  0  0  0  0  0
  -40.3500   64.0225   66.3552 H   0  0  0  0  0  0  0  0  0  0  0  0
  -42.9861   64.7371   65.2748 H   0  0  0  0  0  0  0  0  0  0  0  0
  -42.7527   63.9125   63.7325 H   0  0  0  0  0  0  0  0  0  0  0  0
  -41.4363   68.1564   63.5172 H   0  0  0  0  0  0  0  0  0  0  0  0
  -41.0992   68.8519   65.0903 H   0  0  0  0  0  0  0  0  0  0  0  0
  -40.6245   70.4316   63.3489 H   0  0  0  0  0  0  0  0  0  0  0  0
  -39.1297   69.8859   64.1909 H   0  0  0  0  0  0  0  0  0  0  0  0
  -37.5187   68.5236   63.0885 H   0  0  0  0  0  0  0  0  0  0  0  0
  -37.7631   68.0488   61.4248 H   0  0  0  0  0  0  0  0  0  0  0  0
  -38.7444   67.3446   62.6875 H   0  0  0  0  0  0  0  0  0  0  0  0
  -40.9511   65.3281   66.9102 H   0  0  0  0  0  0  0  0  0  0  0  0
  -37.8234   70.8630   62.4467 H   0  0  0  0  0  0  0  0  0  0  0  0
  -39.2600   71.3468   61.5777 H   0  0  0  0  0  0  0  0  0  0  0  0
  -38.0556   70.3550   60.7911 H   0  0  0  0  0  0  0  0  0  0  0  0
  -40.7685   68.0300   61.5094 H   0  0  0  0  0  0  0  0  0  0  0  0
  -39.7718   68.7055   60.2432 H   0  0  0  0  0  0  0  0  0  0  0  0
  -40.9762   69.6973   61.0298 H   0  0  0  0  0  0  0  0  0  0  0  0
  -39.9464   62.8098   64.2494 H   0  0  0  0  0  0  0  0  0  0  0  0
  -41.3295   61.9274   63.6028 H   0  0  0  0  0  0  0  0  0  0  0  0
  -42.0288   60.4189   67.0383 H   0  0  0  0  0  0  0  0  0  0  0  0
  -40.6378   59.3175   67.0687 H   0  0  0  0  0  0  0  0  0  0  0  0
  -42.6787   58.1797   67.6825 H   0  0  0  0  0  0  0  0  0  0  0  0
  -41.9769   57.5734   66.1596 H   0  0  0  0  0  0  0  0  0  0  0  0
  -44.3819   57.6753   66.0516 H   0  0  0  0  0  0  0  0  0  0  0  0
  -43.5836   58.7785   64.9103 H   0  0  0  0  0  0  0  0  0  0  0  0
  -44.8195   59.5696   67.5034 H   0  0  0  0  0  0  0  0  0  0  0  0
  -45.5158   59.7920   65.8883 H   0  0  0  0  0  0  0  0  0  0  0  0
  -43.7100   61.2472   65.2842 H   0  0  0  0  0  0  0  0  0  0  0  0
  -42.9915   61.0159   66.8824 H   0  0  0  0  0  0  0  0  0  0  0  0
  -45.6377   62.2634   66.3272 H   0  0  0  0  0  0  0  0  0  0  0  0
  -44.1162   63.0973   66.7540 H   0  0  0  0  0  0  0  0  0  0  0  0
  -44.1250   62.0887   68.8932 H   0  0  0  0  0  0  0  0  0  0  0  0
  -45.6288   61.2314   68.4732 H   0  0  0  0  0  0  0  0  0  0  0  0
  -46.8822   63.1391   68.8180 H   0  0  0  0  0  0  0  0  0  0  0  0
  -46.0947   65.0385   69.7170 H   0  0  0  0  0  0  0  0  0  0  0  0
  -43.8872   65.8370   69.4408 H   0  0  0  0  0  0  0  0  0  0  0  0
  -43.3923   64.3169   68.7236 H   0  0  0  0  0  0  0  0  0  0  0  0
  -43.4922   63.2451   70.9026 H   0  0  0  0  0  0  0  0  0  0  0  0
  -43.9846   64.8192   71.6019 H   0  0  0  0  0  0  0  0  0  0  0  0
  -41.3526   64.2274   70.3685 H   0  0  0  0  0  0  0  0  0  0  0  0
  -41.7361   64.3237   72.1128 H   0  0  0  0  0  0  0  0  0  0  0  0
  -41.9197   66.5767   70.1814 H   0  0  0  0  0  0  0  0  0  0  0  0
  -40.6216   66.2882   71.3608 H   0  0  0  0  0  0  0  0  0  0  0  0
  -42.1679   66.5438   73.1656 H   0  0  0  0  0  0  0  0  0  0  0  0
  -43.4753   66.8152   71.9900 H   0  0  0  0  0  0  0  0  0  0  0  0
  -41.1131   68.5760   72.3942 H   0  0  0  0  0  0  0  0  0  0  0  0
  -42.7866   68.8491   72.9718 H   0  0  0  0  0  0  0  0  0  0  0  0
  -41.9469   68.7432   70.1238 H   0  0  0  0  0  0  0  0  0  0  0  0
  -42.2853   70.2014   71.0712 H   0  0  0  0  0  0  0  0  0  0  0  0
  -44.2325   68.0422   70.4365 H   0  0  0  0  0  0  0  0  0  0  0  0
  -44.1660   69.6225   69.6940 H   0  0  0  0  0  0  0  0  0  0  0  0
  -44.5506   69.4704   71.3916 H   0  0  0  0  0  0  0  0  0  0  0  0
  1  9  1  0  0  0  0
  1 11  1  0  0  0  0
  1 13  1  0  0  0  0
  1 15  1  0  0  0  0
  2  3  1  0  0  0  0
  2  5  1  0  0  0  0
  2 17  1  0  0  0  0
  2 36  1  1  0  0  0
  3 37  1  0  0  0  0
  4  6  1  0  0  0  0
  4  8  2  1  0  0  0
  4 10  1  0  0  0  0
  4 12  1  0  0  0  0
  5  6  1  0  0  0  0
  5 38  1  0  0  0  0
  5 39  1  0  0  0  0
  7  9  1  0  0  0  0
  7 10  1  0  0  0  0
  7 40  1  0  0  0  0
  7 41  1  0  0  0  0
  9 42  1  0  0  0  0
  9 43  1  0  0  0  0
 11 44  1  0  0  0  0
 11 45  1  0  0  0  0
 11 46  1  0  0  0  0
 12 47  1  0  0  0  0
 13 48  1  0  0  0  0
 13 49  1  0  0  0  0
 13 50  1  0  0  0  0
 14 17  1  0  0  0  0
 14 18  1  0  0  0  0
 15 51  1  0  0  0  0
 15 52  1  0  0  0  0
 15 53  1  0  0  0  0
 16 18  2  0  0  0  0
 17 54  1  0  0  0  0
 17 55  1  0  0  0  0
 18 19  1  0  0  0  0
 19 20  1  0  0  0  0
 19 56  1  0  0  0  0
 19 57  1  0  0  0  0
 20 21  1  0  0  0  0
 20 58  1  0  0  0  0
 20 59  1  0  0  0  0
 21 22  1  0  0  0  0
 21 60  1  0  0  0  0
 21 61  1  0  0  0  0
 22 23  1  0  0  0  0
 22 62  1  0  0  0  0
 22 63  1  0  0  0  0
 23 24  1  0  0  0  0
 23 64  1  0  0  0  0
 23 65  1  0  0  0  0
 24 25  1  0  0  0  0
 24 66  1  0  0  0  0
 24 67  1  0  0  0  0
 25 26  1  0  0  0  0
 25 68  1  0  0  0  0
 25 69  1  0  0  0  0
 26 27  2  0  0  0  0
 26 70  1  0  0  0  0
 27 28  1  0  0  0  0
 27 71  1  0  0  0  0
 28 29  1  0  0  0  0
 28 72  1  0  0  0  0
 28 73  1  0  0  0  0
 29 30  1  0  0  0  0
 29 74  1  0  0  0  0
 29 75  1  0  0  0  0
 30 31  1  0  0  0  0
 30 76  1  0  0  0  0
 30 77  1  0  0  0  0
 31 32  1  0  0  0  0
 31 78  1  0  0  0  0
 31 79  1  0  0  0  0
 32 33  1  0  0  0  0
 32 80  1  0  0  0  0
 32 81  1  0  0  0  0
 33 34  1  0  0  0  0
 33 82  1  0  0  0  0
 33 83  1  0  0  0  0
 34 35  1  0  0  0  0
 34 84  1  0  0  0  0
 34 85  1  0  0  0  0
 35 86  1  0  0  0  0
 35 87  1  0  0  0  0
 35 88  1  0  0  0  0
M  CHG  1   8  -1
M  END
$$$$
/media/chris/experiments/cd1a-new-docking/inputs/ligands/4x6e_ligand.pdb
 OpenBabel07012320273D

 88 87  0  0  1  0  0  0  0  0999 V2000
  -43.5290   66.1492   63.5435 N   0  0  0  0  0  4  0  0  0  0  0  0
  -42.2404   63.4171   68.9119 C   0  0  1  0  0  0  0  0  0  0  0  0
  -42.8573   64.1193   69.9994 O   0  0  0  0  0  0  0  0  0  0  0  0
  -40.7899   63.1600   65.8911 P   0  0  1  0  0  0  0  0  0  0  0  0
  -40.9769   64.1365   68.5014 C   0  0  0  0  0  0  0  0  0  0  0  0
  -40.3188   63.4781   67.3920 O   0  0  0  0  0  0  0  0  0  0  0  0
  -41.2420   65.5286   64.5464 C   0  0  0  0  0  0  0  0  0  0  0  0
  -42.3074   62.9825   65.8945 O   0  5  0  0  0  0  0  0  0  0  0  0
  -42.5467   65.0653   63.9471 C   0  0  0  0  0  0  0  0  0  0  0  0
  -40.4020   64.3861   64.8658 O   0  0  0  0  0  0  0  0  0  0  0  0
  -43.8996   66.9867   64.7252 C   0  0  0  0  0  0  0  0  0  0  0  0
  -40.1685   61.8891   65.4588 O   0  0  0  0  0  0  0  0  0  0  0  0
  -44.7607   65.5000   63.0032 C   0  0  0  0  0  0  0  0  0  0  0  0
  -41.3570   61.2510   68.1894 O   0  0  0  0  0  0  0  0  0  0  0  0
  -42.9307   67.0361   62.4891 C   0  0  0  0  0  0  0  0  0  0  0  0
  -43.1430   61.3669   66.8296 O   0  0  0  0  0  0  0  0  0  0  0  0
  -41.9935   61.9671   69.2705 C   0  0  0  0  0  0  0  0  0  0  0  0
  -42.1287   60.8209   67.1868 C   0  0  0  0  0  0  0  0  0  0  0  0
  -41.5470   59.5850   66.5720 C   0  0  0  0  0  0  0  0  0  0  0  0
  -42.4780   58.3810   66.6510 C   0  0  0  0  0  0  0  0  0  0  0  0
  -43.8050   58.5690   65.9360 C   0  0  0  0  0  0  0  0  0  0  0  0
  -44.7241   57.3648   66.0412 C   0  0  0  0  0  0  0  0  0  0  0  0
  -45.0954   57.0268   67.4749 C   0  0  0  0  0  0  0  0  0  0  0  0
  -45.8277   58.1599   68.1584 C   0  0  0  0  0  0  0  0  0  0  0  0
  -47.1374   58.5542   67.5064 C   0  0  0  0  0  0  0  0  0  0  0  0
  -47.0026   58.9914   66.0982 C   0  0  0  0  0  0  0  0  0  0  0  0
  -47.3358   60.1713   65.6170 C   0  0  0  0  0  0  0  0  0  0  0  0
  -47.8798   61.3362   66.3784 C   0  0  0  0  0  0  0  0  0  0  0  0
  -46.9440   62.5383   66.2412 C   0  0  0  0  0  0  0  0  0  0  0  0
  -47.3782   63.7911   66.9879 C   0  0  0  0  0  0  0  0  0  0  0  0
  -48.7388   64.3443   66.5814 C   0  0  0  0  0  0  0  0  0  0  0  0
  -49.8873   63.3679   66.8131 C   0  0  0  0  0  0  0  0  0  0  0  0
  -50.0617   62.9617   68.2679 C   0  0  0  0  0  0  0  0  0  0  0  0
  -51.1875   61.9748   68.5382 C   0  0  0  0  0  0  0  0  0  0  0  0
  -51.3183   61.6280   69.9895 C   0  0  0  0  0  0  0  0  0  0  0  0
  -42.9019   63.4078   68.0709 H   0  0  0  0  0  0  0  0  0  0  0  0
  -42.2569   64.1272   70.7612 H   0  0  0  0  0  0  0  0  0  0  0  0
  -40.3070   64.1628   69.3353 H   0  0  0  0  0  0  0  0  0  0  0  0
  -41.2434   65.1251   68.1905 H   0  0  0  0  0  0  0  0  0  0  0  0
  -41.4406   66.0821   65.4403 H   0  0  0  0  0  0  0  0  0  0  0  0
  -40.7332   66.1486   63.8381 H   0  0  0  0  0  0  0  0  0  0  0  0
  -42.3175   64.4924   63.0729 H   0  0  0  0  0  0  0  0  0  0  0  0
  -43.0354   64.5150   64.7237 H   0  0  0  0  0  0  0  0  0  0  0  0
  -44.3273   66.3644   65.4833 H   0  0  0  0  0  0  0  0  0  0  0  0
  -44.6121   67.7275   64.4279 H   0  0  0  0  0  0  0  0  0  0  0  0
  -43.0246   67.4675   65.1101 H   0  0  0  0  0  0  0  0  0  0  0  0
  -40.4116   61.1831   66.0780 H   0  0  0  0  0  0  0  0  0  0  0  0
  -45.1887   64.8676   63.7527 H   0  0  0  0  0  0  0  0  0  0  0  0
  -44.5076   64.9142   62.1443 H   0  0  0  0  0  0  0  0  0  0  0  0
  -45.4683   66.2530   62.7254 H   0  0  0  0  0  0  0  0  0  0  0  0
  -42.0479   67.5024   62.8741 H   0  0  0  0  0  0  0  0  0  0  0  0
  -43.6393   67.7883   62.2116 H   0  0  0  0  0  0  0  0  0  0  0  0
  -42.6786   66.4494   61.6305 H   0  0  0  0  0  0  0  0  0  0  0  0
  -42.9304   61.5001   69.4918 H   0  0  0  0  0  0  0  0  0  0  0  0
  -41.3418   61.9393   70.1187 H   0  0  0  0  0  0  0  0  0  0  0  0
  -40.6379   59.3462   67.0832 H   0  0  0  0  0  0  0  0  0  0  0  0
  -41.3821   59.7924   65.5353 H   0  0  0  0  0  0  0  0  0  0  0  0
  -42.6787   58.1797   67.6825 H   0  0  0  0  0  0  0  0  0  0  0  0
  -41.9769   57.5734   66.1596 H   0  0  0  0  0  0  0  0  0  0  0  0
  -43.6088   58.7562   64.9009 H   0  0  0  0  0  0  0  0  0  0  0  0
  -44.3043   59.3890   66.4084 H   0  0  0  0  0  0  0  0  0  0  0  0
  -44.2305   56.5199   65.6083 H   0  0  0  0  0  0  0  0  0  0  0  0
  -45.6292   57.6059   65.5239 H   0  0  0  0  0  0  0  0  0  0  0  0
  -44.2003   56.8156   68.0218 H   0  0  0  0  0  0  0  0  0  0  0  0
  -45.7484   56.1795   67.4537 H   0  0  0  0  0  0  0  0  0  0  0  0
  -45.1865   59.0165   68.1622 H   0  0  0  0  0  0  0  0  0  0  0  0
  -46.0726   57.8118   69.1402 H   0  0  0  0  0  0  0  0  0  0  0  0
  -47.5644   59.3582   68.0687 H   0  0  0  0  0  0  0  0  0  0  0  0
  -47.7554   57.6807   67.5010 H   0  0  0  0  0  0  0  0  0  0  0  0
  -46.6111   58.3078   65.4315 H   0  0  0  0  0  0  0  0  0  0  0  0
  -47.2069   60.3061   64.6020 H   0  0  0  0  0  0  0  0  0  0  0  0
  -47.9685   61.0731   67.4117 H   0  0  0  0  0  0  0  0  0  0  0  0
  -48.8405   61.5940   65.9841 H   0  0  0  0  0  0  0  0  0  0  0  0
  -46.8699   62.7822   65.2020 H   0  0  0  0  0  0  0  0  0  0  0  0
  -46.0147   62.2405   66.6800 H   0  0  0  0  0  0  0  0  0  0  0  0
  -46.6456   64.5514   66.8146 H   0  0  0  0  0  0  0  0  0  0  0  0
  -47.4647   63.5110   68.0169 H   0  0  0  0  0  0  0  0  0  0  0  0
  -48.7074   64.5891   65.5403 H   0  0  0  0  0  0  0  0  0  0  0  0
  -48.9258   65.2009   67.1947 H   0  0  0  0  0  0  0  0  0  0  0  0
  -49.7021   62.4859   66.2363 H   0  0  0  0  0  0  0  0  0  0  0  0
  -50.7863   63.8678   66.5186 H   0  0  0  0  0  0  0  0  0  0  0  0
  -50.2547   63.8470   68.8371 H   0  0  0  0  0  0  0  0  0  0  0  0
  -49.1575   62.4615   68.5453 H   0  0  0  0  0  0  0  0  0  0  0  0
  -50.9950   61.0774   67.9882 H   0  0  0  0  0  0  0  0  0  0  0  0
  -52.1026   62.4381   68.2336 H   0  0  0  0  0  0  0  0  0  0  0  0
  -50.4167   61.1612   70.3273 H   0  0  0  0  0  0  0  0  0  0  0  0
  -52.1398   60.9555   70.1228 H   0  0  0  0  0  0  0  0  0  0  0  0
  -51.4918   62.5196   70.5550 H   0  0  0  0  0  0  0  0  0  0  0  0
  1  9  1  0  0  0  0
  1 11  1  0  0  0  0
  1 13  1  0  0  0  0
  1 15  1  0  0  0  0
  2  3  1  0  0  0  0
  2  5  1  0  0  0  0
  2 17  1  0  0  0  0
  2 36  1  6  0  0  0
  3 37  1  0  0  0  0
  4  6  1  0  0  0  0
  4  8  2  6  0  0  0
  4 10  1  0  0  0  0
  4 12  1  0  0  0  0
  5  6  1  0  0  0  0
  5 38  1  0  0  0  0
  5 39  1  0  0  0  0
  7  9  1  0  0  0  0
  7 10  1  0  0  0  0
  7 40  1  0  0  0  0
  7 41  1  0  0  0  0
  9 42  1  0  0  0  0
  9 43  1  0  0  0  0
 11 44  1  0  0  0  0
 11 45  1  0  0  0  0
 11 46  1  0  0  0  0
 12 47  1  0  0  0  0
 13 48  1  0  0  0  0
 13 49  1  0  0  0  0
 13 50  1  0  0  0  0
 14 17  1  0  0  0  0
 14 18  1  0  0  0  0
 15 51  1  0  0  0  0
 15 52  1  0  0  0  0
 15 53  1  0  0  0  0
 16 18  2  0  0  0  0
 17 54  1  0  0  0  0
 17 55  1  0  0  0  0
 18 19  1  0  0  0  0
 19 20  1  0  0  0  0
 19 56  1  0  0  0  0
 19 57  1  0  0  0  0
 20 21  1  0  0  0  0
 20 58  1  0  0  0  0
 20 59  1  0  0  0  0
 21 22  1  0  0  0  0
 21 60  1  0  0  0  0
 21 61  1  0  0  0  0
 22 23  1  0  0  0  0
 22 62  1  0  0  0  0
 22 63  1  0  0  0  0
 23 24  1  0  0  0  0
 23 64  1  0  0  0  0
 23 65  1  0  0  0  0
 24 25  1  0  0  0  0
 24 66  1  0  0  0  0
 24 67  1  0  0  0  0
 25 26  1  0  0  0  0
 25 68  1  0  0  0  0
 25 69  1  0  0  0  0
 26 27  2  0  0  0  0
 26 70  1  0  0  0  0
 27 28  1  0  0  0  0
 27 71  1  0  0  0  0
 28 29  1  0  0  0  0
 28 72  1  0  0  0  0
 28 73  1  0  0  0  0
 29 30  1  0  0  0  0
 29 74  1  0  0  0  0
 29 75  1  0  0  0  0
 30 31  1  0  0  0  0
 30 76  1  0  0  0  0
 30 77  1  0  0  0  0
 31 32  1  0  0  0  0
 31 78  1  0  0  0  0
 31 79  1  0  0  0  0
 32 33  1  0  0  0  0
 32 80  1  0  0  0  0
 32 81  1  0  0  0  0
 33 34  1  0  0  0  0
 33 82  1  0  0  0  0
 33 83  1  0  0  0  0
 34 35  1  0  0  0  0
 34 84  1  0  0  0  0
 34 85  1  0  0  0  0
 35 86  1  0  0  0  0
 35 87  1  0  0  0  0
 35 88  1  0  0  0  0
M  CHG  1   8  -1
M  END
$$$$
/media/chris/experiments/cd1a-new-docking/inputs/ligands/4x6e_ligand.pdb
 OpenBabel07012320273D

 88 87  0  0  1  0  0  0  0  0999 V2000
  -42.2824   62.7430   65.1635 N   0  0  0  0  0  4  0  0  0  0  0  0
  -37.5896   59.5918   66.0438 C   0  0  1  0  0  0  0  0  0  0  0  0
  -36.1559   59.6004   66.0687 O   0  0  0  0  0  0  0  0  0  0  0  0
  -37.7940   62.4631   64.3298 P   0  0  1  0  0  0  0  0  0  0  0  0
  -38.0683   59.6980   64.6148 C   0  0  0  0  0  0  0  0  0  0  0  0
  -37.5961   60.9098   63.9777 O   0  0  0  0  0  0  0  0  0  0  0  0
  -39.9938   63.9194   65.1441 C   0  0  0  0  0  0  0  0  0  0  0  0
  -37.0650   63.2892   63.2714 O   0  5  0  0  0  0  0  0  0  0  0  0
  -41.4757   63.9945   64.8708 C   0  0  0  0  0  0  0  0  0  0  0  0
  -39.3842   62.8830   64.3273 O   0  0  0  0  0  0  0  0  0  0  0  0
  -41.7776   61.5928   64.3526 C   0  0  0  0  0  0  0  0  0  0  0  0
  -37.1752   62.7331   65.6460 O   0  0  0  0  0  0  0  0  0  0  0  0
  -43.7093   63.0003   64.8054 C   0  0  0  0  0  0  0  0  0  0  0  0
  -39.5828   58.3411   66.7204 O   0  0  0  0  0  0  0  0  0  0  0  0
  -42.1914   62.3865   66.6199 C   0  0  0  0  0  0  0  0  0  0  0  0
  -39.8236   60.0222   68.1929 O   0  0  0  0  0  0  0  0  0  0  0  0
  -38.1389   58.3714   66.7518 C   0  0  0  0  0  0  0  0  0  0  0  0
  -40.2402   59.3661   67.2706 C   0  0  0  0  0  0  0  0  0  0  0  0
  -41.5470   59.5850   66.5720 C   0  0  0  0  0  0  0  0  0  0  0  0
  -42.4780   58.3810   66.6510 C   0  0  0  0  0  0  0  0  0  0  0  0
  -43.8050   58.5690   65.9360 C   0  0  0  0  0  0  0  0  0  0  0  0
  -44.6170   59.7376   66.4663 C   0  0  0  0  0  0  0  0  0  0  0  0
  -44.9506   59.6053   67.9423 C   0  0  0  0  0  0  0  0  0  0  0  0
  -45.7447   58.3528   68.2393 C   0  0  0  0  0  0  0  0  0  0  0  0
  -46.1237   58.1717   69.6952 C   0  0  0  0  0  0  0  0  0  0  0  0
  -46.8862   56.9328   69.9704 C   0  0  0  0  0  0  0  0  0  0  0  0
  -46.5200   55.9602   70.7795 C   0  0  0  0  0  0  0  0  0  0  0  0
  -45.2889   55.9037   71.6244 C   0  0  0  0  0  0  0  0  0  0  0  0
  -45.5682   56.5048   73.0029 C   0  0  0  0  0  0  0  0  0  0  0  0
  -46.6500   55.8049   73.8124 C   0  0  0  0  0  0  0  0  0  0  0  0
  -46.3680   54.3427   74.1360 C   0  0  0  0  0  0  0  0  0  0  0  0
  -45.1040   54.1348   74.9639 C   0  0  0  0  0  0  0  0  0  0  0  0
  -45.1394   54.8236   76.3189 C   0  0  0  0  0  0  0  0  0  0  0  0
  -46.2517   54.3689   77.2519 C   0  0  0  0  0  0  0  0  0  0  0  0
  -46.1670   52.9117   77.5881 C   0  0  0  0  0  0  0  0  0  0  0  0
  -37.9619   60.4400   66.5795 H   0  0  0  0  0  0  0  0  0  0  0  0
  -35.8195   58.8312   65.5828 H   0  0  0  0  0  0  0  0  0  0  0  0
  -39.1382   59.6970   64.6071 H   0  0  0  0  0  0  0  0  0  0  0  0
  -37.6787   58.8630   64.0709 H   0  0  0  0  0  0  0  0  0  0  0  0
  -39.8362   63.6929   66.1779 H   0  0  0  0  0  0  0  0  0  0  0  0
  -39.5465   64.8612   64.9039 H   0  0  0  0  0  0  0  0  0  0  0  0
  -41.8766   64.7867   65.4679 H   0  0  0  0  0  0  0  0  0  0  0  0
  -41.5616   64.1464   63.8152 H   0  0  0  0  0  0  0  0  0  0  0  0
  -41.8379   61.8361   63.3124 H   0  0  0  0  0  0  0  0  0  0  0  0
  -42.3742   60.7272   64.5517 H   0  0  0  0  0  0  0  0  0  0  0  0
  -40.7595   61.3921   64.6136 H   0  0  0  0  0  0  0  0  0  0  0  0
  -36.2397   62.4777   65.6220 H   0  0  0  0  0  0  0  0  0  0  0  0
  -43.7765   63.2545   63.7682 H   0  0  0  0  0  0  0  0  0  0  0  0
  -44.0849   63.8096   65.3960 H   0  0  0  0  0  0  0  0  0  0  0  0
  -44.2888   62.1211   64.9954 H   0  0  0  0  0  0  0  0  0  0  0  0
  -41.1697   62.2017   66.8787 H   0  0  0  0  0  0  0  0  0  0  0  0
  -42.7718   61.5077   66.8089 H   0  0  0  0  0  0  0  0  0  0  0  0
  -42.5679   63.1961   67.2095 H   0  0  0  0  0  0  0  0  0  0  0  0
  -37.8143   58.3864   67.7713 H   0  0  0  0  0  0  0  0  0  0  0  0
  -37.7756   57.5008   66.2469 H   0  0  0  0  0  0  0  0  0  0  0  0
  -41.3508   59.7963   65.5416 H   0  0  0  0  0  0  0  0  0  0  0  0
  -42.0377   60.3996   67.0625 H   0  0  0  0  0  0  0  0  0  0  0  0
  -42.6787   58.1797   67.6825 H   0  0  0  0  0  0  0  0  0  0  0  0
  -41.9769   57.5734   66.1596 H   0  0  0  0  0  0  0  0  0  0  0  0
  -44.3819   57.6753   66.0516 H   0  0  0  0  0  0  0  0  0  0  0  0
  -43.5836   58.7785   64.9103 H   0  0  0  0  0  0  0  0  0  0  0  0
  -45.5314   59.7964   65.9137 H   0  0  0  0  0  0  0  0  0  0  0  0
  -44.0231   60.6199   66.3495 H   0  0  0  0  0  0  0  0  0  0  0  0
  -45.5246   60.4566   68.2433 H   0  0  0  0  0  0  0  0  0  0  0  0
  -44.0291   59.5456   68.4829 H   0  0  0  0  0  0  0  0  0  0  0  0
  -45.1593   57.5086   67.9402 H   0  0  0  0  0  0  0  0  0  0  0  0
  -46.6631   58.4427   67.6977 H   0  0  0  0  0  0  0  0  0  0  0  0
  -46.7213   59.0076   69.9936 H   0  0  0  0  0  0  0  0  0  0  0  0
  -45.2092   58.1007   70.2461 H   0  0  0  0  0  0  0  0  0  0  0  0
  -47.7888   56.8208   69.4827 H   0  0  0  0  0  0  0  0  0  0  0  0
  -47.1534   55.1473   70.8363 H   0  0  0  0  0  0  0  0  0  0  0  0
  -44.5075   56.4583   71.1483 H   0  0  0  0  0  0  0  0  0  0  0  0
  -44.9918   54.8825   71.7418 H   0  0  0  0  0  0  0  0  0  0  0  0
  -45.8659   57.5233   72.8649 H   0  0  0  0  0  0  0  0  0  0  0  0
  -44.6628   56.3938   73.5621 H   0  0  0  0  0  0  0  0  0  0  0  0
  -47.5631   55.8517   73.2565 H   0  0  0  0  0  0  0  0  0  0  0  0
  -46.6977   56.3151   74.7517 H   0  0  0  0  0  0  0  0  0  0  0  0
  -46.2620   53.8067   73.2160 H   0  0  0  0  0  0  0  0  0  0  0  0
  -47.1895   53.9862   74.7215 H   0  0  0  0  0  0  0  0  0  0  0  0
  -44.2718   54.5187   74.4117 H   0  0  0  0  0  0  0  0  0  0  0  0
  -45.0218   53.0843   75.1497 H   0  0  0  0  0  0  0  0  0  0  0  0
  -45.2565   55.8740   76.1526 H   0  0  0  0  0  0  0  0  0  0  0  0
  -44.2220   54.5655   76.8054 H   0  0  0  0  0  0  0  0  0  0  0  0
  -47.1929   54.5566   76.7790 H   0  0  0  0  0  0  0  0  0  0  0  0
  -46.1506   54.9170   78.1653 H   0  0  0  0  0  0  0  0  0  0  0  0
  -46.2648   52.3330   76.6934 H   0  0  0  0  0  0  0  0  0  0  0  0
  -46.9540   52.6558   78.2663 H   0  0  0  0  0  0  0  0  0  0  0  0
  -45.2215   52.7055   78.0448 H   0  0  0  0  0  0  0  0  0  0  0  0
  1  9  1  0  0  0  0
  1 11  1  0  0  0  0
  1 13  1  0  0  0  0
  1 15  1  0  0  0  0
  2  3  1  0  0  0  0
  2  5  1  0  0  0  0
  2 17  1  0  0  0  0
  2 36  1  1  0  0  0
  3 37  1  0  0  0  0
  4  6  1  0  0  0  0
  4  8  2  6  0  0  0
  4 10  1  0  0  0  0
  4 12  1  0  0  0  0
  5  6  1  0  0  0  0
  5 38  1  0  0  0  0
  5 39  1  0  0  0  0
  7  9  1  0  0  0  0
  7 10  1  0  0  0  0
  7 40  1  0  0  0  0
  7 41  1  0  0  0  0
  9 42  1  0  0  0  0
  9 43  1  0  0  0  0
 11 44  1  0  0  0  0
 11 45  1  0  0  0  0
 11 46  1  0  0  0  0
 12 47  1  0  0  0  0
 13 48  1  0  0  0  0
 13 49  1  0  0  0  0
 13 50  1  0  0  0  0
 14 17  1  0  0  0  0
 14 18  1  0  0  0  0
 15 51  1  0  0  0  0
 15 52  1  0  0  0  0
 15 53  1  0  0  0  0
 16 18  2  0  0  0  0
 17 54  1  0  0  0  0
 17 55  1  0  0  0  0
 18 19  1  0  0  0  0
 19 20  1  0  0  0  0
 19 56  1  0  0  0  0
 19 57  1  0  0  0  0
 20 21  1  0  0  0  0
 20 58  1  0  0  0  0
 20 59  1  0  0  0  0
 21 22  1  0  0  0  0
 21 60  1  0  0  0  0
 21 61  1  0  0  0  0
 22 23  1  0  0  0  0
 22 62  1  0  0  0  0
 22 63  1  0  0  0  0
 23 24  1  0  0  0  0
 23 64  1  0  0  0  0
 23 65  1  0  0  0  0
 24 25  1  0  0  0  0
 24 66  1  0  0  0  0
 24 67  1  0  0  0  0
 25 26  1  0  0  0  0
 25 68  1  0  0  0  0
 25 69  1  0  0  0  0
 26 27  2  0  0  0  0
 26 70  1  0  0  0  0
 27 28  1  0  0  0  0
 27 71  1  0  0  0  0
 28 29  1  0  0  0  0
 28 72  1  0  0  0  0
 28 73  1  0  0  0  0
 29 30  1  0  0  0  0
 29 74  1  0  0  0  0
 29 75  1  0  0  0  0
 30 31  1  0  0  0  0
 30 76  1  0  0  0  0
 30 77  1  0  0  0  0
 31 32  1  0  0  0  0
 31 78  1  0  0  0  0
 31 79  1  0  0  0  0
 32 33  1  0  0  0  0
 32 80  1  0  0  0  0
 32 81  1  0  0  0  0
 33 34  1  0  0  0  0
 33 82  1  0  0  0  0
 33 83  1  0  0  0  0
 34 35  1  0  0  0  0
 34 84  1  0  0  0  0
 34 85  1  0  0  0  0
 35 86  1  0  0  0  0
 35 87  1  0  0  0  0
 35 88  1  0  0  0  0
M  CHG  1   8  -1
M  END
$$$$
/media/chris/experiments/cd1a-new-docking/inputs/ligands/4x6e_ligand.pdb
 OpenBabel07012320273D

 88 87  0  0  1  0  0  0  0  0999 V2000
  -38.3367   61.6347   70.7057 N   0  0  0  0  0  4  0  0  0  0  0  0
  -40.4045   63.4005   67.5060 C   0  0  1  0  0  0  0  0  0  0  0  0
  -40.3738   64.8050   67.7938 O   0  0  0  0  0  0  0  0  0  0  0  0
  -37.7642   60.3765   67.1348 P   0  0  1  0  0  0  0  0  0  0  0  0
  -38.9971   62.8518   67.5287 C   0  0  0  0  0  0  0  0  0  0  0  0
  -38.9666   61.4356   67.2273 O   0  0  0  0  0  0  0  0  0  0  0  0
  -36.5581   60.1346   69.6066 C   0  0  0  0  0  0  0  0  0  0  0  0
  -36.5040   61.1219   66.6984 O   0  5  0  0  0  0  0  0  0  0  0  0
  -36.9619   61.5106   70.0753 C   0  0  0  0  0  0  0  0  0  0  0  0
  -37.4799   59.6602   68.5878 O   0  0  0  0  0  0  0  0  0  0  0  0
  -38.4334   60.7749   71.9250 C   0  0  0  0  0  0  0  0  0  0  0  0
  -38.0973   59.3706   66.1026 O   0  0  0  0  0  0  0  0  0  0  0  0
  -39.3590   61.1867   69.7134 C   0  0  0  0  0  0  0  0  0  0  0  0
  -41.3570   61.2510   68.1894 O   0  0  0  0  0  0  0  0  0  0  0  0
  -38.6112   63.0596   71.0941 C   0  0  0  0  0  0  0  0  0  0  0  0
  -43.1430   61.3669   66.8296 O   0  0  0  0  0  0  0  0  0  0  0  0
  -41.3287   62.6702   68.4573 C   0  0  0  0  0  0  0  0  0  0  0  0
  -42.1287   60.8209   67.1868 C   0  0  0  0  0  0  0  0  0  0  0  0
  -41.5470   59.5850   66.5720 C   0  0  0  0  0  0  0  0  0  0  0  0
  -42.4780   58.3810   66.6510 C   0  0  0  0  0  0  0  0  0  0  0  0
  -43.8050   58.5690   65.9360 C   0  0  0  0  0  0  0  0  0  0  0  0
  -44.7241   57.3648   66.0412 C   0  0  0  0  0  0  0  0  0  0  0  0
  -46.0403   57.5587   65.3081 C   0  0  0  0  0  0  0  0  0  0  0  0
  -46.9497   56.3572   65.4376 C   0  0  0  0  0  0  0  0  0  0  0  0
  -47.3495   56.0137   66.8582 C   0  0  0  0  0  0  0  0  0  0  0  0
  -48.0933   57.0895   67.5523 C   0  0  0  0  0  0  0  0  0  0  0  0
  -49.4012   57.2446   67.5652 C   0  0  0  0  0  0  0  0  0  0  0  0
  -50.4217   56.3600   66.9259 C   0  0  0  0  0  0  0  0  0  0  0  0
  -50.8683   55.2758   67.9081 C   0  0  0  0  0  0  0  0  0  0  0  0
  -51.8993   54.2940   67.3709 C   0  0  0  0  0  0  0  0  0  0  0  0
  -52.3507   53.2276   68.3616 C   0  0  0  0  0  0  0  0  0  0  0  0
  -51.2119   52.3536   68.8769 C   0  0  0  0  0  0  0  0  0  0  0  0
  -50.1330   53.1276   69.6175 C   0  0  0  0  0  0  0  0  0  0  0  0
  -50.6003   53.8685   70.8613 C   0  0  0  0  0  0  0  0  0  0  0  0
  -49.4962   54.6238   71.5352 C   0  0  0  0  0  0  0  0  0  0  0  0
  -40.8028   63.2449   66.5252 H   0  0  0  0  0  0  0  0  0  0  0  0
  -40.0126   64.9450   68.6831 H   0  0  0  0  0  0  0  0  0  0  0  0
  -38.5802   63.0079   68.5017 H   0  0  0  0  0  0  0  0  0  0  0  0
  -38.4289   63.3633   66.7800 H   0  0  0  0  0  0  0  0  0  0  0  0
  -36.5718   59.4602   70.4372 H   0  0  0  0  0  0  0  0  0  0  0  0
  -35.5732   60.1827   69.1910 H   0  0  0  0  0  0  0  0  0  0  0  0
  -36.2423   61.8318   70.7990 H   0  0  0  0  0  0  0  0  0  0  0  0
  -37.0009   62.1111   69.1905 H   0  0  0  0  0  0  0  0  0  0  0  0
  -38.2394   59.7567   71.6597 H   0  0  0  0  0  0  0  0  0  0  0  0
  -39.4163   60.8543   72.3403 H   0  0  0  0  0  0  0  0  0  0  0  0
  -37.7137   61.0985   72.6476 H   0  0  0  0  0  0  0  0  0  0  0  0
  -38.2602   59.8169   65.2569 H   0  0  0  0  0  0  0  0  0  0  0  0
  -39.1654   60.1718   69.4353 H   0  0  0  0  0  0  0  0  0  0  0  0
  -39.3104   61.8100   68.8451 H   0  0  0  0  0  0  0  0  0  0  0  0
  -40.3338   61.2574   70.1490 H   0  0  0  0  0  0  0  0  0  0  0  0
  -37.8798   63.3827   71.8051 H   0  0  0  0  0  0  0  0  0  0  0  0
  -39.5864   63.1292   71.5289 H   0  0  0  0  0  0  0  0  0  0  0  0
  -38.5629   63.6818   70.2250 H   0  0  0  0  0  0  0  0  0  0  0  0
  -42.3180   63.0633   68.3500 H   0  0  0  0  0  0  0  0  0  0  0  0
  -40.9649   62.8148   69.4531 H   0  0  0  0  0  0  0  0  0  0  0  0
  -40.6379   59.3462   67.0832 H   0  0  0  0  0  0  0  0  0  0  0  0
  -41.3821   59.7924   65.5353 H   0  0  0  0  0  0  0  0  0  0  0  0
  -42.6787   58.1797   67.6825 H   0  0  0  0  0  0  0  0  0  0  0  0
  -41.9769   57.5734   66.1596 H   0  0  0  0  0  0  0  0  0  0  0  0
  -43.6088   58.7562   64.9009 H   0  0  0  0  0  0  0  0  0  0  0  0
  -44.3043   59.3890   66.4084 H   0  0  0  0  0  0  0  0  0  0  0  0
  -44.9328   57.1840   67.0750 H   0  0  0  0  0  0  0  0  0  0  0  0
  -44.2219   56.5372   65.5852 H   0  0  0  0  0  0  0  0  0  0  0  0
  -45.8357   57.7257   64.2712 H   0  0  0  0  0  0  0  0  0  0  0  0
  -46.5398   58.3972   65.7467 H   0  0  0  0  0  0  0  0  0  0  0  0
  -46.4451   55.5111   65.0199 H   0  0  0  0  0  0  0  0  0  0  0  0
  -47.8536   56.6062   64.9218 H   0  0  0  0  0  0  0  0  0  0  0  0
  -46.4609   55.8050   67.4165 H   0  0  0  0  0  0  0  0  0  0  0  0
  -48.0071   55.1717   66.7992 H   0  0  0  0  0  0  0  0  0  0  0  0
  -47.5348   57.7824   68.0748 H   0  0  0  0  0  0  0  0  0  0  0  0
  -49.7608   58.0680   68.0728 H   0  0  0  0  0  0  0  0  0  0  0  0
  -49.9968   55.8987   66.0590 H   0  0  0  0  0  0  0  0  0  0  0  0
  -51.2698   56.9496   66.6464 H   0  0  0  0  0  0  0  0  0  0  0  0
  -51.2880   55.7594   68.7653 H   0  0  0  0  0  0  0  0  0  0  0  0
  -49.9950   54.6971   68.1258 H   0  0  0  0  0  0  0  0  0  0  0  0
  -51.4760   53.7999   66.5214 H   0  0  0  0  0  0  0  0  0  0  0  0
  -52.7688   54.8718   67.1368 H   0  0  0  0  0  0  0  0  0  0  0  0
  -53.0683   52.5983   67.8779 H   0  0  0  0  0  0  0  0  0  0  0  0
  -52.7625   53.7381   69.2070 H   0  0  0  0  0  0  0  0  0  0  0  0
  -50.7604   51.8604   68.0416 H   0  0  0  0  0  0  0  0  0  0  0  0
  -51.6385   51.6655   69.5764 H   0  0  0  0  0  0  0  0  0  0  0  0
  -49.7185   53.8458   68.9413 H   0  0  0  0  0  0  0  0  0  0  0  0
  -49.4264   52.3988   69.9560 H   0  0  0  0  0  0  0  0  0  0  0  0
  -51.0000   53.1570   71.5533 H   0  0  0  0  0  0  0  0  0  0  0  0
  -51.3376   54.5807   70.5545 H   0  0  0  0  0  0  0  0  0  0  0  0
  -48.7393   53.9387   71.8556 H   0  0  0  0  0  0  0  0  0  0  0  0
  -49.8872   55.1457   72.3836 H   0  0  0  0  0  0  0  0  0  0  0  0
  -49.0735   55.3265   70.8479 H   0  0  0  0  0  0  0  0  0  0  0  0
  1  9  1  0  0  0  0
  1 11  1  0  0  0  0
  1 13  1  0  0  0  0
  1 15  1  0  0  0  0
  2  3  1  0  0  0  0
  2  5  1  0  0  0  0
  2 17  1  0  0  0  0
  2 36  1  6  0  0  0
  3 37  1  0  0  0  0
  4  6  1  0  0  0  0
  4  8  2  6  0  0  0
  4 10  1  0  0  0  0
  4 12  1  0  0  0  0
  5  6  1  0  0  0  0
  5 38  1  0  0  0  0
  5 39  1  0  0  0  0
  7  9  1  0  0  0  0
  7 10  1  0  0  0  0
  7 40  1  0  0  0  0
  7 41  1  0  0  0  0
  9 42  1  0  0  0  0
  9 43  1  0  0  0  0
 11 44  1  0  0  0  0
 11 45  1  0  0  0  0
 11 46  1  0  0  0  0
 12 47  1  0  0  0  0
 13 48  1  0  0  0  0
 13 49  1  0  0  0  0
 13 50  1  0  0  0  0
 14 17  1  0  0  0  0
 14 18  1  0  0  0  0
 15 51  1  0  0  0  0
 15 52  1  0  0  0  0
 15 53  1  0  0  0  0
 16 18  2  0  0  0  0
 17 54  1  0  0  0  0
 17 55  1  0  0  0  0
 18 19  1  0  0  0  0
 19 20  1  0  0  0  0
 19 56  1  0  0  0  0
 19 57  1  0  0  0  0
 20 21  1  0  0  0  0
 20 58  1  0  0  0  0
 20 59  1  0  0  0  0
 21 22  1  0  0  0  0
 21 60  1  0  0  0  0
 21 61  1  0  0  0  0
 22 23  1  0  0  0  0
 22 62  1  0  0  0  0
 22 63  1  0  0  0  0
 23 24  1  0  0  0  0
 23 64  1  0  0  0  0
 23 65  1  0  0  0  0
 24 25  1  0  0  0  0
 24 66  1  0  0  0  0
 24 67  1  0  0  0  0
 25 26  1  0  0  0  0
 25 68  1  0  0  0  0
 25 69  1  0  0  0  0
 26 27  2  0  0  0  0
 26 70  1  0  0  0  0
 27 28  1  0  0  0  0
 27 71  1  0  0  0  0
 28 29  1  0  0  0  0
 28 72  1  0  0  0  0
 28 73  1  0  0  0  0
 29 30  1  0  0  0  0
 29 74  1  0  0  0  0
 29 75  1  0  0  0  0
 30 31  1  0  0  0  0
 30 76  1  0  0  0  0
 30 77  1  0  0  0  0
 31 32  1  0  0  0  0
 31 78  1  0  0  0  0
 31 79  1  0  0  0  0
 32 33  1  0  0  0  0
 32 80  1  0  0  0  0
 32 81  1  0  0  0  0
 33 34  1  0  0  0  0
 33 82  1  0  0  0  0
 33 83  1  0  0  0  0
 34 35  1  0  0  0  0
 34 84  1  0  0  0  0
 34 85  1  0  0  0  0
 35 86  1  0  0  0  0
 35 87  1  0  0  0  0
 35 88  1  0  0  0  0
M  CHG  1   8  -1
M  END
$$$$
/media/chris/experiments/cd1a-new-docking/inputs/ligands/4x6e_ligand.pdb
 OpenBabel07012320273D

 88 87  0  0  1  0  0  0  0  0999 V2000
  -46.3742   60.7589   64.8913 N   0  0  0  0  0  4  0  0  0  0  0  0
  -39.2605   61.0236   63.2181 C   0  0  1  0  0  0  0  0  0  0  0  0
  -38.8017   61.2509   61.8786 O   0  0  0  0  0  0  0  0  0  0  0  0
  -42.4513   60.4240   62.3496 P   0  0  1  0  0  0  0  0  0  0  0  0
  -40.4197   61.9456   63.5156 C   0  0  0  0  0  0  0  0  0  0  0  0
  -41.5353   61.7135   62.6217 O   0  0  0  0  0  0  0  0  0  0  0  0
  -45.1982   60.4995   62.6172 C   0  0  0  0  0  0  0  0  0  0  0  0
  -42.5202   59.6067   63.6385 O   0  5  0  0  0  0  0  0  0  0  0  0
  -45.1696   61.0581   64.0184 C   0  0  0  0  0  0  0  0  0  0  0  0
  -43.9776   60.8517   61.9109 O   0  0  0  0  0  0  0  0  0  0  0  0
  -47.6211   61.2959   64.2653 C   0  0  0  0  0  0  0  0  0  0  0  0
  -41.8091   59.5990   61.3030 O   0  0  0  0  0  0  0  0  0  0  0  0
  -46.1764   61.4141   66.2187 C   0  0  0  0  0  0  0  0  0  0  0  0
  -40.0862   59.3247   64.7759 O   0  0  0  0  0  0  0  0  0  0  0  0
  -46.5286   59.2774   65.0857 C   0  0  0  0  0  0  0  0  0  0  0  0
  -41.8149   60.7290   64.4724 O   0  0  0  0  0  0  0  0  0  0  0  0
  -39.6067   59.5657   63.4347 C   0  0  0  0  0  0  0  0  0  0  0  0
  -41.1924   59.9644   65.1670 C   0  0  0  0  0  0  0  0  0  0  0  0
  -41.5470   59.5850   66.5720 C   0  0  0  0  0  0  0  0  0  0  0  0
  -42.4780   58.3810   66.6510 C   0  0  0  0  0  0  0  0  0  0  0  0
  -43.8050   58.5690   65.9360 C   0  0  0  0  0  0  0  0  0  0  0  0
  -44.7241   57.3648   66.0412 C   0  0  0  0  0  0  0  0  0  0  0  0
  -45.0954   57.0268   67.4749 C   0  0  0  0  0  0  0  0  0  0  0  0
  -45.8277   58.1599   68.1584 C   0  0  0  0  0  0  0  0  0  0  0  0
  -46.2114   57.8902   69.5993 C   0  0  0  0  0  0  0  0  0  0  0  0
  -46.9418   59.0031   70.2475 C   0  0  0  0  0  0  0  0  0  0  0  0
  -46.8144   60.2832   69.9650 C   0  0  0  0  0  0  0  0  0  0  0  0
  -45.9470   60.8938   68.9127 C   0  0  0  0  0  0  0  0  0  0  0  0
  -44.9387   61.8505   69.5512 C   0  0  0  0  0  0  0  0  0  0  0  0
  -43.9818   61.2174   70.5507 C   0  0  0  0  0  0  0  0  0  0  0  0
  -42.9921   62.1810   71.1943 C   0  0  0  0  0  0  0  0  0  0  0  0
  -42.0915   62.8909   70.1888 C   0  0  0  0  0  0  0  0  0  0  0  0
  -41.0905   63.8408   70.8271 C   0  0  0  0  0  0  0  0  0  0  0  0
  -41.6956   64.9645   71.6552 C   0  0  0  0  0  0  0  0  0  0  0  0
  -42.5058   64.4618   72.8104 C   0  0  0  0  0  0  0  0  0  0  0  0
  -38.4748   61.2492   63.9085 H   0  0  0  0  0  0  0  0  0  0  0  0
  -39.5146   61.0461   61.2535 H   0  0  0  0  0  0  0  0  0  0  0  0
  -40.0933   62.9587   63.4062 H   0  0  0  0  0  0  0  0  0  0  0  0
  -40.7493   61.7533   64.5153 H   0  0  0  0  0  0  0  0  0  0  0  0
  -46.0390   60.9033   62.0929 H   0  0  0  0  0  0  0  0  0  0  0  0
  -45.2768   59.4336   62.6681 H   0  0  0  0  0  0  0  0  0  0  0  0
  -44.3058   60.6609   64.5091 H   0  0  0  0  0  0  0  0  0  0  0  0
  -45.1634   62.1214   63.8992 H   0  0  0  0  0  0  0  0  0  0  0  0
  -47.5222   62.3517   64.1220 H   0  0  0  0  0  0  0  0  0  0  0  0
  -48.4551   61.0996   64.9063 H   0  0  0  0  0  0  0  0  0  0  0  0
  -47.7786   60.8209   63.3195 H   0  0  0  0  0  0  0  0  0  0  0  0
  -40.9121   59.3601   61.5847 H   0  0  0  0  0  0  0  0  0  0  0  0
  -46.0662   62.4696   66.0826 H   0  0  0  0  0  0  0  0  0  0  0  0
  -45.2964   61.0205   66.6831 H   0  0  0  0  0  0  0  0  0  0  0  0
  -47.0248   61.2214   66.8415 H   0  0  0  0  0  0  0  0  0  0  0  0
  -46.6705   58.8058   64.1358 H   0  0  0  0  0  0  0  0  0  0  0  0
  -47.3768   59.0860   65.7092 H   0  0  0  0  0  0  0  0  0  0  0  0
  -45.6484   58.8851   65.5507 H   0  0  0  0  0  0  0  0  0  0  0  0
  -38.7318   58.9728   63.2674 H   0  0  0  0  0  0  0  0  0  0  0  0
  -40.3850   59.3020   62.7495 H   0  0  0  0  0  0  0  0  0  0  0  0
  -42.0288   60.4189   67.0383 H   0  0  0  0  0  0  0  0  0  0  0  0
  -40.6378   59.3175   67.0687 H   0  0  0  0  0  0  0  0  0  0  0  0
  -42.6787   58.1797   67.6825 H   0  0  0  0  0  0  0  0  0  0  0  0
  -41.9769   57.5734   66.1596 H   0  0  0  0  0  0  0  0  0  0  0  0
  -43.6088   58.7562   64.9009 H   0  0  0  0  0  0  0  0  0  0  0  0
  -44.3043   59.3890   66.4084 H   0  0  0  0  0  0  0  0  0  0  0  0
  -44.2305   56.5199   65.6083 H   0  0  0  0  0  0  0  0  0  0  0  0
  -45.6292   57.6059   65.5239 H   0  0  0  0  0  0  0  0  0  0  0  0
  -44.2003   56.8156   68.0218 H   0  0  0  0  0  0  0  0  0  0  0  0
  -45.7484   56.1795   67.4537 H   0  0  0  0  0  0  0  0  0  0  0  0
  -46.7230   58.3584   67.6070 H   0  0  0  0  0  0  0  0  0  0  0  0
  -45.1511   58.9886   68.1767 H   0  0  0  0  0  0  0  0  0  0  0  0
  -45.3169   57.7053   70.1565 H   0  0  0  0  0  0  0  0  0  0  0  0
  -46.8733   57.0495   69.5907 H   0  0  0  0  0  0  0  0  0  0  0  0
  -47.6132   58.7524   70.9900 H   0  0  0  0  0  0  0  0  0  0  0  0
  -47.3758   60.9367   70.5331 H   0  0  0  0  0  0  0  0  0  0  0  0
  -46.5580   61.4343   68.2203 H   0  0  0  0  0  0  0  0  0  0  0  0
  -45.4171   60.1170   68.4020 H   0  0  0  0  0  0  0  0  0  0  0  0
  -45.4863   62.6172   70.0583 H   0  0  0  0  0  0  0  0  0  0  0  0
  -44.3300   62.2153   68.7503 H   0  0  0  0  0  0  0  0  0  0  0  0
  -43.4239   60.4593   70.0418 H   0  0  0  0  0  0  0  0  0  0  0  0
  -44.5886   60.8369   71.3457 H   0  0  0  0  0  0  0  0  0  0  0  0
  -42.3742   61.6293   71.8717 H   0  0  0  0  0  0  0  0  0  0  0  0
  -43.5656   62.9358   71.6904 H   0  0  0  0  0  0  0  0  0  0  0  0
  -42.7095   63.4517   69.5191 H   0  0  0  0  0  0  0  0  0  0  0  0
  -41.5266   62.1335   69.6865 H   0  0  0  0  0  0  0  0  0  0  0  0
  -40.5095   64.2829   70.0449 H   0  0  0  0  0  0  0  0  0  0  0  0
  -40.5148   63.2493   71.5079 H   0  0  0  0  0  0  0  0  0  0  0  0
  -42.3285   65.5522   71.0236 H   0  0  0  0  0  0  0  0  0  0  0  0
  -40.8879   65.5416   72.0547 H   0  0  0  0  0  0  0  0  0  0  0  0
  -43.3248   63.8785   72.4445 H   0  0  0  0  0  0  0  0  0  0  0  0
  -42.8815   65.2923   73.3707 H   0  0  0  0  0  0  0  0  0  0  0  0
  -41.8897   63.8555   73.4411 H   0  0  0  0  0  0  0  0  0  0  0  0
  1  9  1  0  0  0  0
  1 11  1  0  0  0  0
  1 13  1  0  0  0  0
  1 15  1  0  0  0  0
  2  3  1  0  0  0  0
  2  5  1  0  0  0  0
  2 17  1  0  0  0  0
  2 36  1  1  0  0  0
  3 37  1  0  0  0  0
  4  6  1  0  0  0  0
  4  8  2  1  0  0  0
  4 10  1  0  0  0  0
  4 12  1  0  0  0  0
  5  6  1  0  0  0  0
  5 38  1  0  0  0  0
  5 39  1  0  0  0  0
  7  9  1  0  0  0  0
  7 10  1  0  0  0  0
  7 40  1  0  0  0  0
  7 41  1  0  0  0  0
  9 42  1  0  0  0  0
  9 43  1  0  0  0  0
 11 44  1  0  0  0  0
 11 45  1  0  0  0  0
 11 46  1  0  0  0  0
 12 47  1  0  0  0  0
 13 48  1  0  0  0  0
 13 49  1  0  0  0  0
 13 50  1  0  0  0  0
 14 17  1  0  0  0  0
 14 18  1  0  0  0  0
 15 51  1  0  0  0  0
 15 52  1  0  0  0  0
 15 53  1  0  0  0  0
 16 18  2  0  0  0  0
 17 54  1  0  0  0  0
 17 55  1  0  0  0  0
 18 19  1  0  0  0  0
 19 20  1  0  0  0  0
 19 56  1  0  0  0  0
 19 57  1  0  0  0  0
 20 21  1  0  0  0  0
 20 58  1  0  0  0  0
 20 59  1  0  0  0  0
 21 22  1  0  0  0  0
 21 60  1  0  0  0  0
 21 61  1  0  0  0  0
 22 23  1  0  0  0  0
 22 62  1  0  0  0  0
 22 63  1  0  0  0  0
 23 24  1  0  0  0  0
 23 64  1  0  0  0  0
 23 65  1  0  0  0  0
 24 25  1  0  0  0  0
 24 66  1  0  0  0  0
 24 67  1  0  0  0  0
 25 26  1  0  0  0  0
 25 68  1  0  0  0  0
 25 69  1  0  0  0  0
 26 27  2  0  0  0  0
 26 70  1  0  0  0  0
 27 28  1  0  0  0  0
 27 71  1  0  0  0  0
 28 29  1  0  0  0  0
 28 72  1  0  0  0  0
 28 73  1  0  0  0  0
 29 30  1  0  0  0  0
 29 74  1  0  0  0  0
 29 75  1  0  0  0  0
 30 31  1  0  0  0  0
 30 76  1  0  0  0  0
 30 77  1  0  0  0  0
 31 32  1  0  0  0  0
 31 78  1  0  0  0  0
 31 79  1  0  0  0  0
 32 33  1  0  0  0  0
 32 80  1  0  0  0  0
 32 81  1  0  0  0  0
 33 34  1  0  0  0  0
 33 82  1  0  0  0  0
 33 83  1  0  0  0  0
 34 35  1  0  0  0  0
 34 84  1  0  0  0  0
 34 85  1  0  0  0  0
 35 86  1  0  0  0  0
 35 87  1  0  0  0  0
 35 88  1  0  0  0  0
M  CHG  1   8  -1
M  END
$$$$
/media/chris/experiments/cd1a-new-docking/inputs/ligands/4x6e_ligand.pdb
 OpenBabel07012320273D

 88 87  0  0  1  0  0  0  0  0999 V2000
  -48.9180   59.3599   71.1526 N   0  0  0  0  0  4  0  0  0  0  0  0
  -44.2684   62.9918   67.8482 C   0  0  1  0  0  0  0  0  0  0  0  0
  -44.6416   64.3755   67.7963 O   0  0  0  0  0  0  0  0  0  0  0  0
  -48.0111   61.6560   67.1692 P   0  0  1  0  0  0  0  0  0  0  0  0
  -45.4731   62.1599   68.2211 C   0  0  0  0  0  0  0  0  0  0  0  0
  -46.5403   62.2931   67.2512 O   0  0  0  0  0  0  0  0  0  0  0  0
  -49.5226   61.1719   69.4285 C   0  0  0  0  0  0  0  0  0  0  0  0
  -47.8718   60.1347   67.1456 O   0  5  0  0  0  0  0  0  0  0  0  0
  -48.4488   60.3738   70.1256 C   0  0  0  0  0  0  0  0  0  0  0  0
  -48.9260   62.0845   68.4671 O   0  0  0  0  0  0  0  0  0  0  0  0
  -49.6924   60.0347   72.2389 C   0  0  0  0  0  0  0  0  0  0  0  0
  -48.6456   62.0900   65.9053 O   0  0  0  0  0  0  0  0  0  0  0  0
  -47.7207   58.6966   71.7500 C   0  0  0  0  0  0  0  0  0  0  0  0
  -43.2707   61.1523   66.5772 O   0  0  0  0  0  0  0  0  0  0  0  0
  -49.7915   58.3222   70.5071 C   0  0  0  0  0  0  0  0  0  0  0  0
  -41.6498   61.4332   68.1090 O   0  0  0  0  0  0  0  0  0  0  0  0
  -43.6370   62.5493   66.5452 C   0  0  0  0  0  0  0  0  0  0  0  0
  -42.1287   60.8209   67.1868 C   0  0  0  0  0  0  0  0  0  0  0  0
  -41.5470   59.5850   66.5720 C   0  0  0  0  0  0  0  0  0  0  0  0
  -42.4780   58.3810   66.6510 C   0  0  0  0  0  0  0  0  0  0  0  0
  -43.8050   58.5690   65.9360 C   0  0  0  0  0  0  0  0  0  0  0  0
  -44.7241   57.3648   66.0412 C   0  0  0  0  0  0  0  0  0  0  0  0
  -45.0954   57.0268   67.4749 C   0  0  0  0  0  0  0  0  0  0  0  0
  -45.9968   55.8154   67.5620 C   0  0  0  0  0  0  0  0  0  0  0  0
  -46.4170   55.4365   68.9676 C   0  0  0  0  0  0  0  0  0  0  0  0
  -45.2866   55.1276   69.8726 C   0  0  0  0  0  0  0  0  0  0  0  0
  -45.2622   55.3168   71.1758 C   0  0  0  0  0  0  0  0  0  0  0  0
  -46.3682   55.8403   72.0332 C   0  0  0  0  0  0  0  0  0  0  0  0
  -46.2741   55.2420   73.4377 C   0  0  0  0  0  0  0  0  0  0  0  0
  -44.9908   55.5527   74.1941 C   0  0  0  0  0  0  0  0  0  0  0  0
  -43.7117   55.0802   73.5138 C   0  0  0  0  0  0  0  0  0  0  0  0
  -43.6687   53.5743   73.2758 C   0  0  0  0  0  0  0  0  0  0  0  0
  -42.3870   53.0955   72.6126 C   0  0  0  0  0  0  0  0  0  0  0  0
  -42.0918   53.7044   71.2500 C   0  0  0  0  0  0  0  0  0  0  0  0
  -41.9389   55.1936   71.3014 C   0  0  0  0  0  0  0  0  0  0  0  0
  -43.5239   62.8501   68.6035 H   0  0  0  0  0  0  0  0  0  0  0  0
  -45.3165   64.5028   67.1113 H   0  0  0  0  0  0  0  0  0  0  0  0
  -45.8321   62.4796   69.1771 H   0  0  0  0  0  0  0  0  0  0  0  0
  -45.1731   61.1332   68.2464 H   0  0  0  0  0  0  0  0  0  0  0  0
  -50.0729   61.7335   70.1542 H   0  0  0  0  0  0  0  0  0  0  0  0
  -50.1770   60.5007   68.9127 H   0  0  0  0  0  0  0  0  0  0  0  0
  -47.8977   59.8457   69.3757 H   0  0  0  0  0  0  0  0  0  0  0  0
  -47.8758   61.0903   70.6763 H   0  0  0  0  0  0  0  0  0  0  0  0
  -49.0792   60.7767   72.7061 H   0  0  0  0  0  0  0  0  0  0  0  0
  -49.9919   59.3097   72.9666 H   0  0  0  0  0  0  0  0  0  0  0  0
  -50.5605   60.5006   71.8215 H   0  0  0  0  0  0  0  0  0  0  0  0
  -48.0883   61.8263   65.1565 H   0  0  0  0  0  0  0  0  0  0  0  0
  -47.0970   59.4340   72.2105 H   0  0  0  0  0  0  0  0  0  0  0  0
  -47.1711   58.1938   70.9819 H   0  0  0  0  0  0  0  0  0  0  0  0
  -48.0363   57.9866   72.4858 H   0  0  0  0  0  0  0  0  0  0  0  0
  -50.6501   58.7953   70.0783 H   0  0  0  0  0  0  0  0  0  0  0  0
  -50.1059   57.6125   71.2436 H   0  0  0  0  0  0  0  0  0  0  0  0
  -49.2407   57.8196   69.7397 H   0  0  0  0  0  0  0  0  0  0  0  0
  -42.7586   63.1343   66.3691 H   0  0  0  0  0  0  0  0  0  0  0  0
  -44.3534   62.6887   65.7627 H   0  0  0  0  0  0  0  0  0  0  0  0
  -40.6379   59.3462   67.0832 H   0  0  0  0  0  0  0  0  0  0  0  0
  -41.3821   59.7924   65.5353 H   0  0  0  0  0  0  0  0  0  0  0  0
  -42.6787   58.1797   67.6825 H   0  0  0  0  0  0  0  0  0  0  0  0
  -41.9769   57.5734   66.1596 H   0  0  0  0  0  0  0  0  0  0  0  0
  -43.6088   58.7562   64.9009 H   0  0  0  0  0  0  0  0  0  0  0  0
  -44.3043   59.3890   66.4084 H   0  0  0  0  0  0  0  0  0  0  0  0
  -44.2305   56.5199   65.6083 H   0  0  0  0  0  0  0  0  0  0  0  0
  -45.6292   57.6059   65.5239 H   0  0  0  0  0  0  0  0  0  0  0  0
  -45.6019   57.8648   67.9062 H   0  0  0  0  0  0  0  0  0  0  0  0
  -44.1925   56.8028   68.0036 H   0  0  0  0  0  0  0  0  0  0  0  0
  -45.4784   54.9831   67.1337 H   0  0  0  0  0  0  0  0  0  0  0  0
  -46.8941   56.0690   67.0372 H   0  0  0  0  0  0  0  0  0  0  0  0
  -47.0465   54.5733   68.9092 H   0  0  0  0  0  0  0  0  0  0  0  0
  -46.9195   56.2866   69.3798 H   0  0  0  0  0  0  0  0  0  0  0  0
  -44.4387   54.7267   69.4420 H   0  0  0  0  0  0  0  0  0  0  0  0
  -44.3819   55.0769   71.6580 H   0  0  0  0  0  0  0  0  0  0  0  0
  -47.3090   55.5750   71.5979 H   0  0  0  0  0  0  0  0  0  0  0  0
  -46.2849   56.9050   72.1002 H   0  0  0  0  0  0  0  0  0  0  0  0
  -46.3566   54.1788   73.3500 H   0  0  0  0  0  0  0  0  0  0  0  0
  -47.0652   55.6892   74.0026 H   0  0  0  0  0  0  0  0  0  0  0  0
  -45.0493   55.0831   75.1538 H   0  0  0  0  0  0  0  0  0  0  0  0
  -44.9253   56.6194   74.2462 H   0  0  0  0  0  0  0  0  0  0  0  0
  -42.8805   55.3491   74.1317 H   0  0  0  0  0  0  0  0  0  0  0  0
  -43.6735   55.5515   72.5539 H   0  0  0  0  0  0  0  0  0  0  0  0
  -44.4934   53.3081   72.6482 H   0  0  0  0  0  0  0  0  0  0  0  0
  -43.7175   53.1049   74.2361 H   0  0  0  0  0  0  0  0  0  0  0  0
  -42.4536   52.0344   72.4927 H   0  0  0  0  0  0  0  0  0  0  0  0
  -41.5889   53.4060   73.2540 H   0  0  0  0  0  0  0  0  0  0  0  0
  -42.8972   53.4660   70.5871 H   0  0  0  0  0  0  0  0  0  0  0  0
  -41.1633   53.2965   70.9088 H   0  0  0  0  0  0  0  0  0  0  0  0
  -42.8531   55.6345   71.6400 H   0  0  0  0  0  0  0  0  0  0  0  0
  -41.7057   55.5621   70.3243 H   0  0  0  0  0  0  0  0  0  0  0  0
  -41.1487   55.4479   71.9765 H   0  0  0  0  0  0  0  0  0  0  0  0
  1  9  1  0  0  0  0
  1 11  1  0  0  0  0
  1 13  1  0  0  0  0
  1 15  1  0  0  0  0
  2  3  1  0  0  0  0
  2  5  1  0  0  0  0
  2 17  1  0  0  0  0
  2 36  1  1  0  0  0
  3 37  1  0  0  0  0
  4  6  1  0  0  0  0
  4  8  2  6  0  0  0
  4 10  1  0  0  0  0
  4 12  1  0  0  0  0
  5  6  1  0  0  0  0
  5 38  1  0  0  0  0
  5 39  1  0  0  0  0
  7  9  1  0  0  0  0
  7 10  1  0  0  0  0
  7 40  1  0  0  0  0
  7 41  1  0  0  0  0
  9 42  1  0  0  0  0
  9 43  1  0  0  0  0
 11 44  1  0  0  0  0
 11 45  1  0  0  0  0
 11 46  1  0  0  0  0
 12 47  1  0  0  0  0
 13 48  1  0  0  0  0
 13 49  1  0  0  0  0
 13 50  1  0  0  0  0
 14 17  1  0  0  0  0
 14 18  1  0  0  0  0
 15 51  1  0  0  0  0
 15 52  1  0  0  0  0
 15 53  1  0  0  0  0
 16 18  2  0  0  0  0
 17 54  1  0  0  0  0
 17 55  1  0  0  0  0
 18 19  1  0  0  0  0
 19 20  1  0  0  0  0
 19 56  1  0  0  0  0
 19 57  1  0  0  0  0
 20 21  1  0  0  0  0
 20 58  1  0  0  0  0
 20 59  1  0  0  0  0
 21 22  1  0  0  0  0
 21 60  1  0  0  0  0
 21 61  1  0  0  0  0
 22 23  1  0  0  0  0
 22 62  1  0  0  0  0
 22 63  1  0  0  0  0
 23 24  1  0  0  0  0
 23 64  1  0  0  0  0
 23 65  1  0  0  0  0
 24 25  1  0  0  0  0
 24 66  1  0  0  0  0
 24 67  1  0  0  0  0
 25 26  1  0  0  0  0
 25 68  1  0  0  0  0
 25 69  1  0  0  0  0
 26 27  2  0  0  0  0
 26 70  1  0  0  0  0
 27 28  1  0  0  0  0
 27 71  1  0  0  0  0
 28 29  1  0  0  0  0
 28 72  1  0  0  0  0
 28 73  1  0  0  0  0
 29 30  1  0  0  0  0
 29 74  1  0  0  0  0
 29 75  1  0  0  0  0
 30 31  1  0  0  0  0
 30 76  1  0  0  0  0
 30 77  1  0  0  0  0
 31 32  1  0  0  0  0
 31 78  1  0  0  0  0
 31 79  1  0  0  0  0
 32 33  1  0  0  0  0
 32 80  1  0  0  0  0
 32 81  1  0  0  0  0
 33 34  1  0  0  0  0
 33 82  1  0  0  0  0
 33 83  1  0  0  0  0
 34 35  1  0  0  0  0
 34 84  1  0  0  0  0
 34 85  1  0  0  0  0
 35 86  1  0  0  0  0
 35 87  1  0  0  0  0
 35 88  1  0  0  0  0
M  CHG  1   8  -1
M  END
$$$$
/media/chris/experiments/cd1a-new-docking/inputs/ligands/4x6e_ligand.pdb
 OpenBabel07012320273D

 88 87  0  0  1  0  0  0  0  0999 V2000
  -40.3005   51.9841   68.8965 N   0  0  0  0  0  4  0  0  0  0  0  0
  -39.1270   57.1462   65.6942 C   0  0  1  0  0  0  0  0  0  0  0  0
  -39.7223   57.4350   64.4220 O   0  0  0  0  0  0  0  0  0  0  0  0
  -38.2640   55.1653   68.2683 P   0  0  1  0  0  0  0  0  0  0  0  0
  -38.2638   55.9119   65.5767 C   0  0  0  0  0  0  0  0  0  0  0  0
  -37.6485   55.5631   66.8405 O   0  0  0  0  0  0  0  0  0  0  0  0
  -38.1780   52.9815   69.9556 C   0  0  0  0  0  0  0  0  0  0  0  0
  -39.7874   55.1921   68.1558 O   0  5  0  0  0  0  0  0  0  0  0  0
  -39.6757   52.8075   70.0074 C   0  0  0  0  0  0  0  0  0  0  0  0
  -37.7930   53.6580   68.7280 O   0  0  0  0  0  0  0  0  0  0  0  0
  -41.7839   51.9125   69.0683 C   0  0  0  0  0  0  0  0  0  0  0  0
  -37.8477   56.1784   69.2626 O   0  0  0  0  0  0  0  0  0  0  0  0
  -39.7380   50.6018   68.9527 C   0  0  0  0  0  0  0  0  0  0  0  0
  -39.2251   59.4857   66.4098 O   0  0  0  0  0  0  0  0  0  0  0  0
  -39.9963   52.5909   67.5564 C   0  0  0  0  0  0  0  0  0  0  0  0
  -40.1085   59.1264   68.4453 O   0  0  0  0  0  0  0  0  0  0  0  0
  -38.3627   58.3421   66.2215 C   0  0  0  0  0  0  0  0  0  0  0  0
  -40.2402   59.3661   67.2706 C   0  0  0  0  0  0  0  0  0  0  0  0
  -41.5470   59.5850   66.5720 C   0  0  0  0  0  0  0  0  0  0  0  0
  -42.4780   58.3810   66.6510 C   0  0  0  0  0  0  0  0  0  0  0  0
  -43.8050   58.5690   65.9360 C   0  0  0  0  0  0  0  0  0  0  0  0
  -44.6170   59.7376   66.4663 C   0  0  0  0  0  0  0  0  0  0  0  0
  -43.9014   61.0697   66.3219 C   0  0  0  0  0  0  0  0  0  0  0  0
  -44.7168   62.2195   66.8702 C   0  0  0  0  0  0  0  0  0  0  0  0
  -44.0631   63.5802   66.7402 C   0  0  0  0  0  0  0  0  0  0  0  0
  -42.7550   63.6890   67.4252 C   0  0  0  0  0  0  0  0  0  0  0  0
  -41.6816   62.9709   67.1662 C   0  0  0  0  0  0  0  0  0  0  0  0
  -41.5278   61.9257   66.1096 C   0  0  0  0  0  0  0  0  0  0  0  0
  -41.0182   62.5581   64.8135 C   0  0  0  0  0  0  0  0  0  0  0  0
  -41.9067   63.6440   64.2245 C   0  0  0  0  0  0  0  0  0  0  0  0
  -43.3226   63.2000   63.8774 C   0  0  0  0  0  0  0  0  0  0  0  0
  -44.1782   64.3091   63.2743 C   0  0  0  0  0  0  0  0  0  0  0  0
  -45.5972   63.8757   62.9418 C   0  0  0  0  0  0  0  0  0  0  0  0
  -46.4782   64.9501   62.3222 C   0  0  0  0  0  0  0  0  0  0  0  0
  -46.6345   66.1510   63.2036 C   0  0  0  0  0  0  0  0  0  0  0  0
  -39.8952   56.9437   66.4110 H   0  0  0  0  0  0  0  0  0  0  0  0
  -39.0251   57.6184   63.7730 H   0  0  0  0  0  0  0  0  0  0  0  0
  -37.4946   56.0947   64.8558 H   0  0  0  0  0  0  0  0  0  0  0  0
  -38.8883   55.0971   65.2750 H   0  0  0  0  0  0  0  0  0  0  0  0
  -37.7092   52.0203   69.9914 H   0  0  0  0  0  0  0  0  0  0  0  0
  -37.8661   53.5716   70.7918 H   0  0  0  0  0  0  0  0  0  0  0  0
  -39.9161   52.3351   70.9369 H   0  0  0  0  0  0  0  0  0  0  0  0
  -40.0793   53.7917   69.8917 H   0  0  0  0  0  0  0  0  0  0  0  0
  -42.0123   51.4814   70.0205 H   0  0  0  0  0  0  0  0  0  0  0  0
  -42.2040   51.3070   68.2926 H   0  0  0  0  0  0  0  0  0  0  0  0
  -42.1972   52.8981   69.0146 H   0  0  0  0  0  0  0  0  0  0  0  0
  -38.1364   57.0568   68.9695 H   0  0  0  0  0  0  0  0  0  0  0  0
  -39.9536   50.1675   69.9065 H   0  0  0  0  0  0  0  0  0  0  0  0
  -38.6783   50.6418   68.8103 H   0  0  0  0  0  0  0  0  0  0  0  0
  -40.1792   50.0055   68.1815 H   0  0  0  0  0  0  0  0  0  0  0  0
  -40.3985   53.5816   67.5139 H   0  0  0  0  0  0  0  0  0  0  0  0
  -40.4374   51.9936   66.7860 H   0  0  0  0  0  0  0  0  0  0  0  0
  -38.9365   52.6299   67.4148 H   0  0  0  0  0  0  0  0  0  0  0  0
  -37.5944   58.5985   65.5223 H   0  0  0  0  0  0  0  0  0  0  0  0
  -37.9447   58.0792   67.1707 H   0  0  0  0  0  0  0  0  0  0  0  0
  -41.3508   59.7963   65.5416 H   0  0  0  0  0  0  0  0  0  0  0  0
  -42.0377   60.3996   67.0625 H   0  0  0  0  0  0  0  0  0  0  0  0
  -42.6787   58.1797   67.6825 H   0  0  0  0  0  0  0  0  0  0  0  0
  -41.9769   57.5734   66.1596 H   0  0  0  0  0  0  0  0  0  0  0  0
  -44.3819   57.6753   66.0516 H   0  0  0  0  0  0  0  0  0  0  0  0
  -43.5836   58.7785   64.9103 H   0  0  0  0  0  0  0  0  0  0  0  0
  -44.8195   59.5696   67.5034 H   0  0  0  0  0  0  0  0  0  0  0  0
  -45.5158   59.7920   65.8883 H   0  0  0  0  0  0  0  0  0  0  0  0
  -43.7100   61.2472   65.2842 H   0  0  0  0  0  0  0  0  0  0  0  0
  -42.9915   61.0159   66.8824 H   0  0  0  0  0  0  0  0  0  0  0  0
  -44.8969   62.0345   67.9086 H   0  0  0  0  0  0  0  0  0  0  0  0
  -45.6130   62.2586   66.2870 H   0  0  0  0  0  0  0  0  0  0  0  0
  -44.7231   64.3116   67.1576 H   0  0  0  0  0  0  0  0  0  0  0  0
  -43.8800   63.7368   65.6976 H   0  0  0  0  0  0  0  0  0  0  0  0
  -42.6769   64.3932   68.1756 H   0  0  0  0  0  0  0  0  0  0  0  0
  -40.8557   63.1499   67.7585 H   0  0  0  0  0  0  0  0  0  0  0  0
  -42.4756   61.4633   65.9287 H   0  0  0  0  0  0  0  0  0  0  0  0
  -40.8224   61.1931   66.4423 H   0  0  0  0  0  0  0  0  0  0  0  0
  -40.9183   61.7815   64.0841 H   0  0  0  0  0  0  0  0  0  0  0  0
  -40.0935   63.0358   65.0618 H   0  0  0  0  0  0  0  0  0  0  0  0
  -41.4428   64.0034   63.3298 H   0  0  0  0  0  0  0  0  0  0  0  0
  -42.0056   64.3930   64.9823 H   0  0  0  0  0  0  0  0  0  0  0  0
  -43.7977   62.8542   64.7716 H   0  0  0  0  0  0  0  0  0  0  0  0
  -43.2385   62.4307   63.1385 H   0  0  0  0  0  0  0  0  0  0  0  0
  -43.7084   64.6461   62.3739 H   0  0  0  0  0  0  0  0  0  0  0  0
  -44.2522   65.0818   64.0108 H   0  0  0  0  0  0  0  0  0  0  0  0
  -46.0633   63.5482   63.8475 H   0  0  0  0  0  0  0  0  0  0  0  0
  -45.5057   63.1067   62.2034 H   0  0  0  0  0  0  0  0  0  0  0  0
  -47.4462   64.5336   62.1367 H   0  0  0  0  0  0  0  0  0  0  0  0
  -46.0055   65.2730   61.4182 H   0  0  0  0  0  0  0  0  0  0  0  0
  -47.1058   65.8621   64.1197 H   0  0  0  0  0  0  0  0  0  0  0  0
  -47.2381   66.8818   62.7070 H   0  0  0  0  0  0  0  0  0  0  0  0
  -45.6714   66.5671   63.4137 H   0  0  0  0  0  0  0  0  0  0  0  0
  1  9  1  0  0  0  0
  1 11  1  0  0  0  0
  1 13  1  0  0  0  0
  1 15  1  0  0  0  0
  2  3  1  0  0  0  0
  2  5  1  0  0  0  0
  2 17  1  0  0  0  0
  2 36  1  1  0  0  0
  3 37  1  0  0  0  0
  4  6  1  0  0  0  0
  4  8  2  6  0  0  0
  4 10  1  0  0  0  0
  4 12  1  0  0  0  0
  5  6  1  0  0  0  0
  5 38  1  0  0  0  0
  5 39  1  0  0  0  0
  7  9  1  0  0  0  0
  7 10  1  0  0  0  0
  7 40  1  0  0  0  0
  7 41  1  0  0  0  0
  9 42  1  0  0  0  0
  9 43  1  0  0  0  0
 11 44  1  0  0  0  0
 11 45  1  0  0  0  0
 11 46  1  0  0  0  0
 12 47  1  0  0  0  0
 13 48  1  0  0  0  0
 13 49  1  0  0  0  0
 13 50  1  0  0  0  0
 14 17  1  0  0  0  0
 14 18  1  0  0  0  0
 15 51  1  0  0  0  0
 15 52  1  0  0  0  0
 15 53  1  0  0  0  0
 16 18  2  0  0  0  0
 17 54  1  0  0  0  0
 17 55  1  0  0  0  0
 18 19  1  0  0  0  0
 19 20  1  0  0  0  0
 19 56  1  0  0  0  0
 19 57  1  0  0  0  0
 20 21  1  0  0  0  0
 20 58  1  0  0  0  0
 20 59  1  0  0  0  0
 21 22  1  0  0  0  0
 21 60  1  0  0  0  0
 21 61  1  0  0  0  0
 22 23  1  0  0  0  0
 22 62  1  0  0  0  0
 22 63  1  0  0  0  0
 23 24  1  0  0  0  0
 23 64  1  0  0  0  0
 23 65  1  0  0  0  0
 24 25  1  0  0  0  0
 24 66  1  0  0  0  0
 24 67  1  0  0  0  0
 25 26  1  0  0  0  0
 25 68  1  0  0  0  0
 25 69  1  0  0  0  0
 26 27  2  0  0  0  0
 26 70  1  0  0  0  0
 27 28  1  0  0  0  0
 27 71  1  0  0  0  0
 28 29  1  0  0  0  0
 28 72  1  0  0  0  0
 28 73  1  0  0  0  0
 29 30  1  0  0  0  0
 29 74  1  0  0  0  0
 29 75  1  0  0  0  0
 30 31  1  0  0  0  0
 30 76  1  0  0  0  0
 30 77  1  0  0  0  0
 31 32  1  0  0  0  0
 31 78  1  0  0  0  0
 31 79  1  0  0  0  0
 32 33  1  0  0  0  0
 32 80  1  0  0  0  0
 32 81  1  0  0  0  0
 33 34  1  0  0  0  0
 33 82  1  0  0  0  0
 33 83  1  0  0  0  0
 34 35  1  0  0  0  0
 34 84  1  0  0  0  0
 34 85  1  0  0  0  0
 35 86  1  0  0  0  0
 35 87  1  0  0  0  0
 35 88  1  0  0  0  0
M  CHG  1   8  -1
M  END
$$$$
/media/chris/experiments/cd1a-new-docking/inputs/ligands/4x6e_ligand.pdb
 OpenBabel07012320273D

 88 87  0  0  1  0  0  0  0  0999 V2000
  -43.0720   58.4620   75.9894 N   0  0  0  0  0  4  0  0  0  0  0  0
  -43.8031   62.2399   69.4030 C   0  0  1  0  0  0  0  0  0  0  0  0
  -44.9598   62.7416   68.7199 O   0  0  0  0  0  0  0  0  0  0  0  0
  -42.4415   62.0207   73.1913 P   0  0  1  0  0  0  0  0  0  0  0  0
  -43.9463   62.4918   70.8857 C   0  0  0  0  0  0  0  0  0  0  0  0
  -42.7949   62.0184   71.6258 O   0  0  0  0  0  0  0  0  0  0  0  0
  -42.5582   59.2940   73.6092 C   0  0  0  0  0  0  0  0  0  0  0  0
  -43.1291   63.2240   73.8342 O   0  5  0  0  0  0  0  0  0  0  0  0
  -43.2778   58.3064   74.4941 C   0  0  0  0  0  0  0  0  0  0  0  0
  -42.9715   60.6502   73.9301 O   0  0  0  0  0  0  0  0  0  0  0  0
  -41.6228   58.3360   76.3347 C   0  0  0  0  0  0  0  0  0  0  0  0
  -40.9786   62.1763   73.3465 O   0  0  0  0  0  0  0  0  0  0  0  0
  -43.8335   57.3856   76.6906 C   0  0  0  0  0  0  0  0  0  0  0  0
  -43.3499   60.5720   67.6688 O   0  0  0  0  0  0  0  0  0  0  0  0
  -43.5658   59.8031   76.4522 C   0  0  0  0  0  0  0  0  0  0  0  0
  -41.5786   61.8922   67.2537 O   0  0  0  0  0  0  0  0  0  0  0  0
  -43.5722   60.7786   69.0811 C   0  0  0  0  0  0  0  0  0  0  0  0
  -42.1287   60.8209   67.1868 C   0  0  0  0  0  0  0  0  0  0  0  0
  -41.5470   59.5850   66.5720 C   0  0  0  0  0  0  0  0  0  0  0  0
  -42.4780   58.3810   66.6510 C   0  0  0  0  0  0  0  0  0  0  0  0
  -43.8050   58.5690   65.9360 C   0  0  0  0  0  0  0  0  0  0  0  0
  -43.6578   58.8291   64.4471 C   0  0  0  0  0  0  0  0  0  0  0  0
  -42.9740   57.6892   63.7118 C   0  0  0  0  0  0  0  0  0  0  0  0
  -42.8204   57.9723   62.2340 C   0  0  0  0  0  0  0  0  0  0  0  0
  -41.9877   59.1947   61.9049 C   0  0  0  0  0  0  0  0  0  0  0  0
  -41.8617   59.4662   60.4549 C   0  0  0  0  0  0  0  0  0  0  0  0
  -42.6664   60.2194   59.7339 C   0  0  0  0  0  0  0  0  0  0  0  0
  -43.8498   60.9945   60.2149 C   0  0  0  0  0  0  0  0  0  0  0  0
  -45.1120   60.1346   60.1310 C   0  0  0  0  0  0  0  0  0  0  0  0
  -45.4623   59.6246   58.7408 C   0  0  0  0  0  0  0  0  0  0  0  0
  -44.4070   58.7336   58.0967 C   0  0  0  0  0  0  0  0  0  0  0  0
  -44.1186   57.4617   58.8874 C   0  0  0  0  0  0  0  0  0  0  0  0
  -43.0541   56.5773   58.2577 C   0  0  0  0  0  0  0  0  0  0  0  0
  -41.6824   57.2172   58.1051 C   0  0  0  0  0  0  0  0  0  0  0  0
  -40.6842   56.3025   57.4642 C   0  0  0  0  0  0  0  0  0  0  0  0
  -42.9327   62.7612   69.0630 H   0  0  0  0  0  0  0  0  0  0  0  0
  -45.7483   62.2684   69.0288 H   0  0  0  0  0  0  0  0  0  0  0  0
  -44.8187   61.9840   71.2405 H   0  0  0  0  0  0  0  0  0  0  0  0
  -44.0274   63.5479   71.0371 H   0  0  0  0  0  0  0  0  0  0  0  0
  -42.7910   59.0865   72.5857 H   0  0  0  0  0  0  0  0  0  0  0  0
  -41.5042   59.2032   73.7700 H   0  0  0  0  0  0  0  0  0  0  0  0
  -44.3258   58.3985   74.2988 H   0  0  0  0  0  0  0  0  0  0  0  0
  -42.8623   57.3514   74.2489 H   0  0  0  0  0  0  0  0  0  0  0  0
  -41.2602   57.3833   76.0093 H   0  0  0  0  0  0  0  0  0  0  0  0
  -41.4998   58.4215   77.3942 H   0  0  0  0  0  0  0  0  0  0  0  0
  -41.0712   59.1129   75.8478 H   0  0  0  0  0  0  0  0  0  0  0  0
  -40.6911   62.9899   72.9034 H   0  0  0  0  0  0  0  0  0  0  0  0
  -43.4834   56.4292   76.3625 H   0  0  0  0  0  0  0  0  0  0  0  0
  -44.8751   57.4807   76.4650 H   0  0  0  0  0  0  0  0  0  0  0  0
  -43.6877   57.4756   77.7468 H   0  0  0  0  0  0  0  0  0  0  0  0
  -43.0214   60.5760   75.9510 H   0  0  0  0  0  0  0  0  0  0  0  0
  -43.4201   59.8918   77.5085 H   0  0  0  0  0  0  0  0  0  0  0  0
  -44.6075   59.8969   76.2267 H   0  0  0  0  0  0  0  0  0  0  0  0
  -44.4315   60.2170   69.3829 H   0  0  0  0  0  0  0  0  0  0  0  0
  -42.6987   60.4548   69.6075 H   0  0  0  0  0  0  0  0  0  0  0  0
  -40.6379   59.3462   67.0832 H   0  0  0  0  0  0  0  0  0  0  0  0
  -41.3821   59.7924   65.5353 H   0  0  0  0  0  0  0  0  0  0  0  0
  -42.6787   58.1797   67.6825 H   0  0  0  0  0  0  0  0  0  0  0  0
  -41.9769   57.5734   66.1596 H   0  0  0  0  0  0  0  0  0  0  0  0
  -44.3126   59.4014   66.3769 H   0  0  0  0  0  0  0  0  0  0  0  0
  -44.3534   57.6566   66.0440 H   0  0  0  0  0  0  0  0  0  0  0  0
  -43.0787   59.7186   64.3117 H   0  0  0  0  0  0  0  0  0  0  0  0
  -44.6423   58.9284   64.0400 H   0  0  0  0  0  0  0  0  0  0  0  0
  -43.5582   56.8011   63.8335 H   0  0  0  0  0  0  0  0  0  0  0  0
  -41.9948   57.5716   64.1269 H   0  0  0  0  0  0  0  0  0  0  0  0
  -43.7965   58.1127   61.8187 H   0  0  0  0  0  0  0  0  0  0  0  0
  -42.3019   57.1336   61.8187 H   0  0  0  0  0  0  0  0  0  0  0  0
  -41.0065   59.0512   62.3067 H   0  0  0  0  0  0  0  0  0  0  0  0
  -42.4905   60.0360   62.3344 H   0  0  0  0  0  0  0  0  0  0  0  0
  -41.0694   59.0239   59.9633 H   0  0  0  0  0  0  0  0  0  0  0  0
  -42.4563   60.2811   58.7254 H   0  0  0  0  0  0  0  0  0  0  0  0
  -43.9738   61.8652   59.6055 H   0  0  0  0  0  0  0  0  0  0  0  0
  -43.6894   61.2820   61.2330 H   0  0  0  0  0  0  0  0  0  0  0  0
  -45.9346   60.7202   60.4849 H   0  0  0  0  0  0  0  0  0  0  0  0
  -44.9169   59.2654   60.7237 H   0  0  0  0  0  0  0  0  0  0  0  0
  -45.6143   60.4717   58.1050 H   0  0  0  0  0  0  0  0  0  0  0  0
  -46.3359   59.0177   58.8563 H   0  0  0  0  0  0  0  0  0  0  0  0
  -43.4985   59.2923   58.0112 H   0  0  0  0  0  0  0  0  0  0  0  0
  -44.7895   58.4316   57.1441 H   0  0  0  0  0  0  0  0  0  0  0  0
  -45.0249   56.8979   58.9623 H   0  0  0  0  0  0  0  0  0  0  0  0
  -43.7463   57.7660   59.8433 H   0  0  0  0  0  0  0  0  0  0  0  0
  -43.3954   56.2914   57.2847 H   0  0  0  0  0  0  0  0  0  0  0  0
  -42.9224   55.7523   58.9262 H   0  0  0  0  0  0  0  0  0  0  0  0
  -41.3225   57.4903   59.0750 H   0  0  0  0  0  0  0  0  0  0  0  0
  -41.7934   58.0701   57.4686 H   0  0  0  0  0  0  0  0  0  0  0  0
  -40.5492   55.4361   58.0774 H   0  0  0  0  0  0  0  0  0  0  0  0
  -39.7499   56.8129   57.3574 H   0  0  0  0  0  0  0  0  0  0  0  0
  -41.0404   56.0052   56.5001 H   0  0  0  0  0  0  0  0  0  0  0  0
  1  9  1  0  0  0  0
  1 11  1  0  0  0  0
  1 13  1  0  0  0  0
  1 15  1  0  0  0  0
  2  3  1  0  0  0  0
  2  5  1  0  0  0  0
  2 17  1  0  0  0  0
  2 36  1  6  0  0  0
  3 37  1  0  0  0  0
  4  6  1  0  0  0  0
  4  8  2  1  0  0  0
  4 10  1  0  0  0  0
  4 12  1  0  0  0  0
  5  6  1  0  0  0  0
  5 38  1  0  0  0  0
  5 39  1  0  0  0  0
  7  9  1  0  0  0  0
  7 10  1  0  0  0  0
  7 40  1  0  0  0  0
  7 41  1  0  0  0  0
  9 42  1  0  0  0  0
  9 43  1  0  0  0  0
 11 44  1  0  0  0  0
 11 45  1  0  0  0  0
 11 46  1  0  0  0  0
 12 47  1  0  0  0  0
 13 48  1  0  0  0  0
 13 49  1  0  0  0  0
 13 50  1  0  0  0  0
 14 17  1  0  0  0  0
 14 18  1  0  0  0  0
 15 51  1  0  0  0  0
 15 52  1  0  0  0  0
 15 53  1  0  0  0  0
 16 18  2  0  0  0  0
 17 54  1  0  0  0  0
 17 55  1  0  0  0  0
 18 19  1  0  0  0  0
 19 20  1  0  0  0  0
 19 56  1  0  0  0  0
 19 57  1  0  0  0  0
 20 21  1  0  0  0  0
 20 58  1  0  0  0  0
 20 59  1  0  0  0  0
 21 22  1  0  0  0  0
 21 60  1  0  0  0  0
 21 61  1  0  0  0  0
 22 23  1  0  0  0  0
 22 62  1  0  0  0  0
 22 63  1  0  0  0  0
 23 24  1  0  0  0  0
 23 64  1  0  0  0  0
 23 65  1  0  0  0  0
 24 25  1  0  0  0  0
 24 66  1  0  0  0  0
 24 67  1  0  0  0  0
 25 26  1  0  0  0  0
 25 68  1  0  0  0  0
 25 69  1  0  0  0  0
 26 27  2  0  0  0  0
 26 70  1  0  0  0  0
 27 28  1  0  0  0  0
 27 71  1  0  0  0  0
 28 29  1  0  0  0  0
 28 72  1  0  0  0  0
 28 73  1  0  0  0  0
 29 30  1  0  0  0  0
 29 74  1  0  0  0  0
 29 75  1  0  0  0  0
 30 31  1  0  0  0  0
 30 76  1  0  0  0  0
 30 77  1  0  0  0  0
 31 32  1  0  0  0  0
 31 78  1  0  0  0  0
 31 79  1  0  0  0  0
 32 33  1  0  0  0  0
 32 80  1  0  0  0  0
 32 81  1  0  0  0  0
 33 34  1  0  0  0  0
 33 82  1  0  0  0  0
 33 83  1  0  0  0  0
 34 35  1  0  0  0  0
 34 84  1  0  0  0  0
 34 85  1  0  0  0  0
 35 86  1  0  0  0  0
 35 87  1  0  0  0  0
 35 88  1  0  0  0  0
M  CHG  1   8  -1
M  END
$$$$
/media/chris/experiments/cd1a-new-docking/inputs/ligands/4x6e_ligand.pdb
 OpenBabel07012320273D

 88 87  0  0  1  0  0  0  0  0999 V2000
  -39.0335   66.6431   66.8038 N   0  0  0  0  0  4  0  0  0  0  0  0
  -43.0432   62.7784   69.4364 C   0  0  1  0  0  0  0  0  0  0  0  0
  -44.1224   63.5024   70.0426 O   0  0  0  0  0  0  0  0  0  0  0  0
  -39.8674   62.3301   68.4322 P   0  0  1  0  0  0  0  0  0  0  0  0
  -41.8405   62.8105   70.3501 C   0  0  0  0  0  0  0  0  0  0  0  0
  -40.7115   62.1060   69.7788 O   0  0  0  0  0  0  0  0  0  0  0  0
  -38.6083   64.7852   68.5327 C   0  0  0  0  0  0  0  0  0  0  0  0
  -40.7917   62.9532   67.3874 O   0  5  0  0  0  0  0  0  0  0  0  0
  -38.9897   65.1600   67.1219 C   0  0  0  0  0  0  0  0  0  0  0  0
  -38.5929   63.3394   68.6817 O   0  0  0  0  0  0  0  0  0  0  0  0
  -39.4406   66.8621   65.3820 C   0  0  0  0  0  0  0  0  0  0  0  0
  -39.4130   61.0137   67.9333 O   0  0  0  0  0  0  0  0  0  0  0  0
  -37.6704   67.2166   67.0123 C   0  0  0  0  0  0  0  0  0  0  0  0
  -42.3828   60.6219   68.4835 O   0  0  0  0  0  0  0  0  0  0  0  0
  -40.0115   67.3456   67.7019 C   0  0  0  0  0  0  0  0  0  0  0  0
  -42.3332   61.8587   66.6072 O   0  0  0  0  0  0  0  0  0  0  0  0
  -43.4656   61.3687   69.0806 C   0  0  0  0  0  0  0  0  0  0  0  0
  -42.1287   60.8209   67.1868 C   0  0  0  0  0  0  0  0  0  0  0  0
  -41.5470   59.5850   66.5720 C   0  0  0  0  0  0  0  0  0  0  0  0
  -42.4780   58.3810   66.6510 C   0  0  0  0  0  0  0  0  0  0  0  0
  -43.8050   58.5690   65.9360 C   0  0  0  0  0  0  0  0  0  0  0  0
  -44.7241   57.3648   66.0412 C   0  0  0  0  0  0  0  0  0  0  0  0
  -45.0954   57.0268   67.4749 C   0  0  0  0  0  0  0  0  0  0  0  0
  -45.8277   58.1599   68.1584 C   0  0  0  0  0  0  0  0  0  0  0  0
  -47.1374   58.5542   67.5064 C   0  0  0  0  0  0  0  0  0  0  0  0
  -47.8325   59.6754   68.1787 C   0  0  0  0  0  0  0  0  0  0  0  0
  -49.0372   59.6345   68.7096 C   0  0  0  0  0  0  0  0  0  0  0  0
  -49.9487   58.4534   68.7907 C   0  0  0  0  0  0  0  0  0  0  0  0
  -50.2672   58.1332   70.2520 C   0  0  0  0  0  0  0  0  0  0  0  0
  -51.1778   56.9344   70.4734 C   0  0  0  0  0  0  0  0  0  0  0  0
  -52.5502   57.0384   69.8191 C   0  0  0  0  0  0  0  0  0  0  0  0
  -52.4927   57.1746   68.3011 C   0  0  0  0  0  0  0  0  0  0  0  0
  -51.8287   55.9969   67.6054 C   0  0  0  0  0  0  0  0  0  0  0  0
  -50.3900   55.7236   68.0175 C   0  0  0  0  0  0  0  0  0  0  0  0
  -49.7878   54.5637   67.2857 C   0  0  0  0  0  0  0  0  0  0  0  0
  -42.7695   63.2491   68.5152 H   0  0  0  0  0  0  0  0  0  0  0  0
  -44.3698   63.0750   70.8775 H   0  0  0  0  0  0  0  0  0  0  0  0
  -42.1004   62.3510   71.2808 H   0  0  0  0  0  0  0  0  0  0  0  0
  -41.5576   63.8327   70.4914 H   0  0  0  0  0  0  0  0  0  0  0  0
  -39.3197   65.2032   69.2139 H   0  0  0  0  0  0  0  0  0  0  0  0
  -37.6316   65.1681   68.7435 H   0  0  0  0  0  0  0  0  0  0  0  0
  -38.2798   64.7068   66.4619 H   0  0  0  0  0  0  0  0  0  0  0  0
  -39.9947   64.8142   66.9989 H   0  0  0  0  0  0  0  0  0  0  0  0
  -38.7501   66.3655   64.7328 H   0  0  0  0  0  0  0  0  0  0  0  0
  -39.4402   67.9105   65.1683 H   0  0  0  0  0  0  0  0  0  0  0  0
  -40.4229   66.4670   65.2274 H   0  0  0  0  0  0  0  0  0  0  0  0
  -40.1811   60.4379   67.7943 H   0  0  0  0  0  0  0  0  0  0  0  0
  -36.9720   66.7175   66.3734 H   0  0  0  0  0  0  0  0  0  0  0  0
  -37.3791   67.0821   68.0331 H   0  0  0  0  0  0  0  0  0  0  0  0
  -37.6833   68.2609   66.7797 H   0  0  0  0  0  0  0  0  0  0  0  0
  -40.9890   66.9363   67.5541 H   0  0  0  0  0  0  0  0  0  0  0  0
  -40.0232   68.3899   67.4689 H   0  0  0  0  0  0  0  0  0  0  0  0
  -39.7190   67.2111   68.7223 H   0  0  0  0  0  0  0  0  0  0  0  0
  -44.2790   61.4150   68.3869 H   0  0  0  0  0  0  0  0  0  0  0  0
  -43.7581   60.8705   69.9812 H   0  0  0  0  0  0  0  0  0  0  0  0
  -40.6379   59.3462   67.0832 H   0  0  0  0  0  0  0  0  0  0  0  0
  -41.3821   59.7924   65.5353 H   0  0  0  0  0  0  0  0  0  0  0  0
  -42.6787   58.1797   67.6825 H   0  0  0  0  0  0  0  0  0  0  0  0
  -41.9769   57.5734   66.1596 H   0  0  0  0  0  0  0  0  0  0  0  0
  -43.6088   58.7562   64.9009 H   0  0  0  0  0  0  0  0  0  0  0  0
  -44.3043   59.3890   66.4084 H   0  0  0  0  0  0  0  0  0  0  0  0
  -44.2305   56.5199   65.6083 H   0  0  0  0  0  0  0  0  0  0  0  0
  -45.6292   57.6059   65.5239 H   0  0  0  0  0  0  0  0  0  0  0  0
  -44.2003   56.8156   68.0218 H   0  0  0  0  0  0  0  0  0  0  0  0
  -45.7484   56.1795   67.4537 H   0  0  0  0  0  0  0  0  0  0  0  0
  -45.1865   59.0165   68.1622 H   0  0  0  0  0  0  0  0  0  0  0  0
  -46.0726   57.8118   69.1402 H   0  0  0  0  0  0  0  0  0  0  0  0
  -47.7863   57.7034   67.5138 H   0  0  0  0  0  0  0  0  0  0  0  0
  -46.9025   58.8853   66.5164 H   0  0  0  0  0  0  0  0  0  0  0  0
  -47.3259   60.5726   68.2366 H   0  0  0  0  0  0  0  0  0  0  0  0
  -49.3905   60.5156   69.1144 H   0  0  0  0  0  0  0  0  0  0  0  0
  -49.4733   57.6080   68.3388 H   0  0  0  0  0  0  0  0  0  0  0  0
  -50.8591   58.6782   68.2754 H   0  0  0  0  0  0  0  0  0  0  0  0
  -50.7400   58.9911   70.6826 H   0  0  0  0  0  0  0  0  0  0  0  0
  -49.3329   57.8826   70.7096 H   0  0  0  0  0  0  0  0  0  0  0  0
  -51.3207   56.8162   71.5272 H   0  0  0  0  0  0  0  0  0  0  0  0
  -50.6903   56.0998   70.0143 H   0  0  0  0  0  0  0  0  0  0  0  0
  -53.0509   57.8962   70.2172 H   0  0  0  0  0  0  0  0  0  0  0  0
  -53.0706   56.1284   70.0336 H   0  0  0  0  0  0  0  0  0  0  0  0
  -51.9434   58.0612   68.0623 H   0  0  0  0  0  0  0  0  0  0  0  0
  -53.5036   57.2135   67.9526 H   0  0  0  0  0  0  0  0  0  0  0  0
  -51.8405   56.1859   66.5523 H   0  0  0  0  0  0  0  0  0  0  0  0
  -52.3877   55.1309   67.8926 H   0  0  0  0  0  0  0  0  0  0  0  0
  -50.3685   55.5145   69.0666 H   0  0  0  0  0  0  0  0  0  0  0  0
  -49.8144   56.5922   67.7744 H   0  0  0  0  0  0  0  0  0  0  0  0
  -50.3417   53.6756   67.5075 H   0  0  0  0  0  0  0  0  0  0  0  0
  -48.7711   54.4364   67.5941 H   0  0  0  0  0  0  0  0  0  0  0  0
  -49.8203   54.7506   66.2326 H   0  0  0  0  0  0  0  0  0  0  0  0
  1  9  1  0  0  0  0
  1 11  1  0  0  0  0
  1 13  1  0  0  0  0
  1 15  1  0  0  0  0
  2  3  1  0  0  0  0
  2  5  1  0  0  0  0
  2 17  1  0  0  0  0
  2 36  1  6  0  0  0
  3 37  1  0  0  0  0
  4  6  1  0  0  0  0
  4  8  2  6  0  0  0
  4 10  1  0  0  0  0
  4 12  1  0  0  0  0
  5  6  1  0  0  0  0
  5 38  1  0  0  0  0
  5 39  1  0  0  0  0
  7  9  1  0  0  0  0
  7 10  1  0  0  0  0
  7 40  1  0  0  0  0
  7 41  1  0  0  0  0
  9 42  1  0  0  0  0
  9 43  1  0  0  0  0
 11 44  1  0  0  0  0
 11 45  1  0  0  0  0
 11 46  1  0  0  0  0
 12 47  1  0  0  0  0
 13 48  1  0  0  0  0
 13 49  1  0  0  0  0
 13 50  1  0  0  0  0
 14 17  1  0  0  0  0
 14 18  1  0  0  0  0
 15 51  1  0  0  0  0
 15 52  1  0  0  0  0
 15 53  1  0  0  0  0
 16 18  2  0  0  0  0
 17 54  1  0  0  0  0
 17 55  1  0  0  0  0
 18 19  1  0  0  0  0
 19 20  1  0  0  0  0
 19 56  1  0  0  0  0
 19 57  1  0  0  0  0
 20 21  1  0  0  0  0
 20 58  1  0  0  0  0
 20 59  1  0  0  0  0
 21 22  1  0  0  0  0
 21 60  1  0  0  0  0
 21 61  1  0  0  0  0
 22 23  1  0  0  0  0
 22 62  1  0  0  0  0
 22 63  1  0  0  0  0
 23 24  1  0  0  0  0
 23 64  1  0  0  0  0
 23 65  1  0  0  0  0
 24 25  1  0  0  0  0
 24 66  1  0  0  0  0
 24 67  1  0  0  0  0
 25 26  1  0  0  0  0
 25 68  1  0  0  0  0
 25 69  1  0  0  0  0
 26 27  2  0  0  0  0
 26 70  1  0  0  0  0
 27 28  1  0  0  0  0
 27 71  1  0  0  0  0
 28 29  1  0  0  0  0
 28 72  1  0  0  0  0
 28 73  1  0  0  0  0
 29 30  1  0  0  0  0
 29 74  1  0  0  0  0
 29 75  1  0  0  0  0
 30 31  1  0  0  0  0
 30 76  1  0  0  0  0
 30 77  1  0  0  0  0
 31 32  1  0  0  0  0
 31 78  1  0  0  0  0
 31 79  1  0  0  0  0
 32 33  1  0  0  0  0
 32 80  1  0  0  0  0
 32 81  1  0  0  0  0
 33 34  1  0  0  0  0
 33 82  1  0  0  0  0
 33 83  1  0  0  0  0
 34 35  1  0  0  0  0
 34 84  1  0  0  0  0
 34 85  1  0  0  0  0
 35 86  1  0  0  0  0
 35 87  1  0  0  0  0
 35 88  1  0  0  0  0
M  CHG  1   8  -1
M  END
$$$$
/media/chris/experiments/cd1a-new-docking/inputs/ligands/4x6e_ligand.pdb
 OpenBabel07012320273D

 88 87  0  0  1  0  0  0  0  0999 V2000
  -37.3936   67.3526   66.4948 N   0  0  0  0  0  4  0  0  0  0  0  0
  -40.0603   61.6902   62.8284 C   0  0  1  0  0  0  0  0  0  0  0  0
  -41.1513   60.8697   62.3890 O   0  0  0  0  0  0  0  0  0  0  0  0
  -39.4426   65.5519   63.8076 P   0  0  1  0  0  0  0  0  0  0  0  0
  -40.5440   63.1083   63.0216 C   0  0  0  0  0  0  0  0  0  0  0  0
  -39.4762   63.9874   63.4508 O   0  0  0  0  0  0  0  0  0  0  0  0
  -38.9608   65.3117   66.5156 C   0  0  0  0  0  0  0  0  0  0  0  0
  -40.5165   66.2539   62.9782 O   0  5  0  0  0  0  0  0  0  0  0  0
  -37.5515   65.8444   66.4372 C   0  0  0  0  0  0  0  0  0  0  0  0
  -39.7499   65.8123   65.4022 O   0  0  0  0  0  0  0  0  0  0  0  0
  -37.9299   67.8865   67.7842 C   0  0  0  0  0  0  0  0  0  0  0  0
  -38.1215   66.0968   63.4252 O   0  0  0  0  0  0  0  0  0  0  0  0
  -38.1592   67.9563   65.3635 C   0  0  0  0  0  0  0  0  0  0  0  0
  -40.3646   61.0134   65.1616 O   0  0  0  0  0  0  0  0  0  0  0  0
  -35.9459   67.7354   66.3762 C   0  0  0  0  0  0  0  0  0  0  0  0
  -41.5829   59.4037   64.1731 O   0  0  0  0  0  0  0  0  0  0  0  0
  -39.4183   61.1199   64.0753 C   0  0  0  0  0  0  0  0  0  0  0  0
  -41.1924   59.9644   65.1670 C   0  0  0  0  0  0  0  0  0  0  0  0
  -41.5470   59.5850   66.5720 C   0  0  0  0  0  0  0  0  0  0  0  0
  -42.4780   58.3810   66.6510 C   0  0  0  0  0  0  0  0  0  0  0  0
  -43.8050   58.5690   65.9360 C   0  0  0  0  0  0  0  0  0  0  0  0
  -43.6578   58.8291   64.4471 C   0  0  0  0  0  0  0  0  0  0  0  0
  -42.9740   57.6892   63.7118 C   0  0  0  0  0  0  0  0  0  0  0  0
  -42.8204   57.9723   62.2340 C   0  0  0  0  0  0  0  0  0  0  0  0
  -41.9877   59.1947   61.9049 C   0  0  0  0  0  0  0  0  0  0  0  0
  -41.8617   59.4662   60.4549 C   0  0  0  0  0  0  0  0  0  0  0  0
  -42.6664   60.2194   59.7339 C   0  0  0  0  0  0  0  0  0  0  0  0
  -43.8498   60.9945   60.2149 C   0  0  0  0  0  0  0  0  0  0  0  0
  -43.6423   61.4248   61.6679 C   0  0  0  0  0  0  0  0  0  0  0  0
  -44.7893   62.2116   62.2851 C   0  0  0  0  0  0  0  0  0  0  0  0
  -44.5669   62.6506   63.7273 C   0  0  0  0  0  0  0  0  0  0  0  0
  -43.3610   63.5672   63.9060 C   0  0  0  0  0  0  0  0  0  0  0  0
  -43.4591   64.8675   63.1242 C   0  0  0  0  0  0  0  0  0  0  0  0
  -44.6373   65.7588   63.4874 C   0  0  0  0  0  0  0  0  0  0  0  0
  -44.6875   67.0142   62.6720 C   0  0  0  0  0  0  0  0  0  0  0  0
  -39.2969   61.7019   62.0787 H   0  0  0  0  0  0  0  0  0  0  0  0
  -41.8427   60.8596   63.0692 H   0  0  0  0  0  0  0  0  0  0  0  0
  -41.3156   63.1130   63.7629 H   0  0  0  0  0  0  0  0  0  0  0  0
  -40.9110   63.4652   62.0820 H   0  0  0  0  0  0  0  0  0  0  0  0
  -39.4072   65.6275   67.4353 H   0  0  0  0  0  0  0  0  0  0  0  0
  -38.9328   64.2430   66.4709 H   0  0  0  0  0  0  0  0  0  0  0  0
  -37.0007   65.4284   67.2547 H   0  0  0  0  0  0  0  0  0  0  0  0
  -37.1943   65.5591   65.4697 H   0  0  0  0  0  0  0  0  0  0  0  0
  -38.9616   67.6194   67.8793 H   0  0  0  0  0  0  0  0  0  0  0  0
  -37.8348   68.9522   67.7960 H   0  0  0  0  0  0  0  0  0  0  0  0
  -37.3770   67.4700   68.6002 H   0  0  0  0  0  0  0  0  0  0  0  0
  -37.9640   65.9310   62.4825 H   0  0  0  0  0  0  0  0  0  0  0  0
  -39.1909   67.6849   65.4460 H   0  0  0  0  0  0  0  0  0  0  0  0
  -37.7684   67.5948   64.4353 H   0  0  0  0  0  0  0  0  0  0  0  0
  -38.0668   69.0217   65.3987 H   0  0  0  0  0  0  0  0  0  0  0  0
  -35.3954   67.3038   67.1859 H   0  0  0  0  0  0  0  0  0  0  0  0
  -35.8547   68.8009   66.4108 H   0  0  0  0  0  0  0  0  0  0  0  0
  -35.5564   67.3740   65.4474 H   0  0  0  0  0  0  0  0  0  0  0  0
  -38.6156   61.7602   64.3760 H   0  0  0  0  0  0  0  0  0  0  0  0
  -39.0601   60.1378   63.8471 H   0  0  0  0  0  0  0  0  0  0  0  0
  -42.0288   60.4189   67.0383 H   0  0  0  0  0  0  0  0  0  0  0  0
  -40.6378   59.3175   67.0687 H   0  0  0  0  0  0  0  0  0  0  0  0
  -42.6787   58.1797   67.6825 H   0  0  0  0  0  0  0  0  0  0  0  0
  -41.9769   57.5734   66.1596 H   0  0  0  0  0  0  0  0  0  0  0  0
  -44.3126   59.4014   66.3769 H   0  0  0  0  0  0  0  0  0  0  0  0
  -44.3534   57.6566   66.0440 H   0  0  0  0  0  0  0  0  0  0  0  0
  -43.0787   59.7186   64.3117 H   0  0  0  0  0  0  0  0  0  0  0  0
  -44.6423   58.9284   64.0400 H   0  0  0  0  0  0  0  0  0  0  0  0
  -43.5582   56.8011   63.8335 H   0  0  0  0  0  0  0  0  0  0  0  0
  -41.9948   57.5716   64.1269 H   0  0  0  0  0  0  0  0  0  0  0  0
  -43.7965   58.1127   61.8187 H   0  0  0  0  0  0  0  0  0  0  0  0
  -42.3019   57.1336   61.8187 H   0  0  0  0  0  0  0  0  0  0  0  0
  -41.0065   59.0512   62.3067 H   0  0  0  0  0  0  0  0  0  0  0  0
  -42.4905   60.0360   62.3344 H   0  0  0  0  0  0  0  0  0  0  0  0
  -41.0694   59.0239   59.9633 H   0  0  0  0  0  0  0  0  0  0  0  0
  -42.4563   60.2811   58.7254 H   0  0  0  0  0  0  0  0  0  0  0  0
  -44.7245   60.3818   60.1489 H   0  0  0  0  0  0  0  0  0  0  0  0
  -43.9683   61.8660   59.6055 H   0  0  0  0  0  0  0  0  0  0  0  0
  -42.7638   62.0341   61.7097 H   0  0  0  0  0  0  0  0  0  0  0  0
  -43.5656   60.5209   62.2353 H   0  0  0  0  0  0  0  0  0  0  0  0
  -45.6658   61.5985   62.2562 H   0  0  0  0  0  0  0  0  0  0  0  0
  -44.8796   63.1094   61.7099 H   0  0  0  0  0  0  0  0  0  0  0  0
  -44.4204   61.7774   64.3282 H   0  0  0  0  0  0  0  0  0  0  0  0
  -45.4314   63.2071   64.0235 H   0  0  0  0  0  0  0  0  0  0  0  0
  -42.4871   63.0427   63.5805 H   0  0  0  0  0  0  0  0  0  0  0  0
  -43.3185   63.8287   64.9427 H   0  0  0  0  0  0  0  0  0  0  0  0
  -43.5376   64.6233   62.0854 H   0  0  0  0  0  0  0  0  0  0  0  0
  -42.5798   65.4262   63.3687 H   0  0  0  0  0  0  0  0  0  0  0  0
  -44.5589   66.0251   64.5208 H   0  0  0  0  0  0  0  0  0  0  0  0
  -45.5323   65.2079   63.2867 H   0  0  0  0  0  0  0  0  0  0  0  0
  -43.8038   67.5907   62.8499 H   0  0  0  0  0  0  0  0  0  0  0  0
  -45.5482   67.5859   62.9500 H   0  0  0  0  0  0  0  0  0  0  0  0
  -44.7464   66.7630   61.6336 H   0  0  0  0  0  0  0  0  0  0  0  0
  1  9  1  0  0  0  0
  1 11  1  0  0  0  0
  1 13  1  0  0  0  0
  1 15  1  0  0  0  0
  2  3  1  0  0  0  0
  2  5  1  0  0  0  0
  2 17  1  0  0  0  0
  2 36  1  6  0  0  0
  3 37  1  0  0  0  0
  4  6  1  0  0  0  0
  4  8  2  6  0  0  0
  4 10  1  0  0  0  0
  4 12  1  0  0  0  0
  5  6  1  0  0  0  0
  5 38  1  0  0  0  0
  5 39  1  0  0  0  0
  7  9  1  0  0  0  0
  7 10  1  0  0  0  0
  7 40  1  0  0  0  0
  7 41  1  0  0  0  0
  9 42  1  0  0  0  0
  9 43  1  0  0  0  0
 11 44  1  0  0  0  0
 11 45  1  0  0  0  0
 11 46  1  0  0  0  0
 12 47  1  0  0  0  0
 13 48  1  0  0  0  0
 13 49  1  0  0  0  0
 13 50  1  0  0  0  0
 14 17  1  0  0  0  0
 14 18  1  0  0  0  0
 15 51  1  0  0  0  0
 15 52  1  0  0  0  0
 15 53  1  0  0  0  0
 16 18  2  0  0  0  0
 17 54  1  0  0  0  0
 17 55  1  0  0  0  0
 18 19  1  0  0  0  0
 19 20  1  0  0  0  0
 19 56  1  0  0  0  0
 19 57  1  0  0  0  0
 20 21  1  0  0  0  0
 20 58  1  0  0  0  0
 20 59  1  0  0  0  0
 21 22  1  0  0  0  0
 21 60  1  0  0  0  0
 21 61  1  0  0  0  0
 22 23  1  0  0  0  0
 22 62  1  0  0  0  0
 22 63  1  0  0  0  0
 23 24  1  0  0  0  0
 23 64  1  0  0  0  0
 23 65  1  0  0  0  0
 24 25  1  0  0  0  0
 24 66  1  0  0  0  0
 24 67  1  0  0  0  0
 25 26  1  0  0  0  0
 25 68  1  0  0  0  0
 25 69  1  0  0  0  0
 26 27  2  0  0  0  0
 26 70  1  0  0  0  0
 27 28  1  0  0  0  0
 27 71  1  0  0  0  0
 28 29  1  0  0  0  0
 28 72  1  0  0  0  0
 28 73  1  0  0  0  0
 29 30  1  0  0  0  0
 29 74  1  0  0  0  0
 29 75  1  0  0  0  0
 30 31  1  0  0  0  0
 30 76  1  0  0  0  0
 30 77  1  0  0  0  0
 31 32  1  0  0  0  0
 31 78  1  0  0  0  0
 31 79  1  0  0  0  0
 32 33  1  0  0  0  0
 32 80  1  0  0  0  0
 32 81  1  0  0  0  0
 33 34  1  0  0  0  0
 33 82  1  0  0  0  0
 33 83  1  0  0  0  0
 34 35  1  0  0  0  0
 34 84  1  0  0  0  0
 34 85  1  0  0  0  0
 35 86  1  0  0  0  0
 35 87  1  0  0  0  0
 35 88  1  0  0  0  0
M  CHG  1   8  -1
M  END
$$$$
/media/chris/experiments/cd1a-new-docking/inputs/ligands/4x6e_ligand.pdb
 OpenBabel07012320273D

 88 87  0  0  1  0  0  0  0  0999 V2000
  -40.1648   54.4869   64.7572 N   0  0  0  0  0  4  0  0  0  0  0  0
  -38.2780   58.4696   69.5233 C   0  0  1  0  0  0  0  0  0  0  0  0
  -38.7527   57.1666   69.8883 O   0  0  0  0  0  0  0  0  0  0  0  0
  -38.1527   57.6390   65.5803 P   0  0  1  0  0  0  0  0  0  0  0  0
  -37.5488   58.3872   68.2028 C   0  0  0  0  0  0  0  0  0  0  0  0
  -38.4127   57.9184   67.1392 O   0  0  0  0  0  0  0  0  0  0  0  0
  -38.0313   54.9349   66.1243 C   0  0  0  0  0  0  0  0  0  0  0  0
  -37.0532   58.5860   65.1024 O   0  5  0  0  0  0  0  0  0  0  0  0
  -39.5273   54.7398   66.1108 C   0  0  0  0  0  0  0  0  0  0  0  0
  -37.6679   56.0892   65.3192 O   0  0  0  0  0  0  0  0  0  0  0  0
  -39.6140   53.2399   64.1435 C   0  0  0  0  0  0  0  0  0  0  0  0
  -39.3923   57.9412   64.8316 O   0  0  0  0  0  0  0  0  0  0  0  0
  -39.8606   55.6435   63.8627 C   0  0  0  0  0  0  0  0  0  0  0  0
  -40.4418   59.0951   68.5635 O   0  0  0  0  0  0  0  0  0  0  0  0
  -41.6537   54.3426   64.8951 C   0  0  0  0  0  0  0  0  0  0  0  0
  -39.1537   59.4138   66.7492 O   0  0  0  0  0  0  0  0  0  0  0  0
  -39.4100   59.4746   69.5007 C   0  0  0  0  0  0  0  0  0  0  0  0
  -40.2402   59.3661   67.2706 C   0  0  0  0  0  0  0  0  0  0  0  0
  -41.5470   59.5850   66.5720 C   0  0  0  0  0  0  0  0  0  0  0  0
  -42.4780   58.3810   66.6510 C   0  0  0  0  0  0  0  0  0  0  0  0
  -43.8050   58.5690   65.9360 C   0  0  0  0  0  0  0  0  0  0  0  0
  -44.7241   57.3648   66.0412 C   0  0  0  0  0  0  0  0  0  0  0  0
  -45.0954   57.0268   67.4749 C   0  0  0  0  0  0  0  0  0  0  0  0
  -45.9968   55.8154   67.5620 C   0  0  0  0  0  0  0  0  0  0  0  0
  -46.4170   55.4365   68.9676 C   0  0  0  0  0  0  0  0  0  0  0  0
  -47.1809   56.4902   69.6735 C   0  0  0  0  0  0  0  0  0  0  0  0
  -48.1077   56.2951   70.5888 C   0  0  0  0  0  0  0  0  0  0  0  0
  -48.5649   54.9863   71.1463 C   0  0  0  0  0  0  0  0  0  0  0  0
  -49.0289   55.1634   72.5930 C   0  0  0  0  0  0  0  0  0  0  0  0
  -50.1954   56.1201   72.7912 C   0  0  0  0  0  0  0  0  0  0  0  0
  -51.4807   55.7262   72.0735 C   0  0  0  0  0  0  0  0  0  0  0  0
  -52.0381   54.3780   72.5183 C   0  0  0  0  0  0  0  0  0  0  0  0
  -53.3114   53.9724   71.7930 C   0  0  0  0  0  0  0  0  0  0  0  0
  -54.4803   54.9347   71.9414 C   0  0  0  0  0  0  0  0  0  0  0  0
  -54.1781   56.3008   71.4067 C   0  0  0  0  0  0  0  0  0  0  0  0
  -37.5851   58.8175   70.2608 H   0  0  0  0  0  0  0  0  0  0  0  0
  -39.3807   56.8521   69.2192 H   0  0  0  0  0  0  0  0  0  0  0  0
  -36.7255   57.7112   68.3035 H   0  0  0  0  0  0  0  0  0  0  0  0
  -37.2109   59.3699   67.9478 H   0  0  0  0  0  0  0  0  0  0  0  0
  -37.5576   54.0624   65.7253 H   0  0  0  0  0  0  0  0  0  0  0  0
  -37.7097   55.0969   67.1319 H   0  0  0  0  0  0  0  0  0  0  0  0
  -39.7515   53.9020   66.7374 H   0  0  0  0  0  0  0  0  0  0  0  0
  -39.9371   55.6690   66.4477 H   0  0  0  0  0  0  0  0  0  0  0  0
  -38.5529   53.3317   64.0405 H   0  0  0  0  0  0  0  0  0  0  0  0
  -40.0545   53.0920   63.1796 H   0  0  0  0  0  0  0  0  0  0  0  0
  -39.8403   52.4034   64.7712 H   0  0  0  0  0  0  0  0  0  0  0  0
  -39.6572   58.8587   65.0016 H   0  0  0  0  0  0  0  0  0  0  0  0
  -38.8005   55.7481   63.7630 H   0  0  0  0  0  0  0  0  0  0  0  0
  -40.2692   56.5379   64.2847 H   0  0  0  0  0  0  0  0  0  0  0  0
  -40.2944   55.4732   62.8995 H   0  0  0  0  0  0  0  0  0  0  0  0
  -41.8740   53.5144   65.5357 H   0  0  0  0  0  0  0  0  0  0  0  0
  -42.0864   54.1730   63.9313 H   0  0  0  0  0  0  0  0  0  0  0  0
  -42.0612   55.2377   65.3166 H   0  0  0  0  0  0  0  0  0  0  0  0
  -39.0199   60.4303   69.2189 H   0  0  0  0  0  0  0  0  0  0  0  0
  -39.8438   59.5110   70.4781 H   0  0  0  0  0  0  0  0  0  0  0  0
  -41.3508   59.7963   65.5416 H   0  0  0  0  0  0  0  0  0  0  0  0
  -42.0377   60.3996   67.0625 H   0  0  0  0  0  0  0  0  0  0  0  0
  -42.6787   58.1797   67.6825 H   0  0  0  0  0  0  0  0  0  0  0  0
  -41.9769   57.5734   66.1596 H   0  0  0  0  0  0  0  0  0  0  0  0
  -43.6088   58.7562   64.9009 H   0  0  0  0  0  0  0  0  0  0  0  0
  -44.3043   59.3890   66.4084 H   0  0  0  0  0  0  0  0  0  0  0  0
  -44.2305   56.5199   65.6083 H   0  0  0  0  0  0  0  0  0  0  0  0
  -45.6292   57.6059   65.5239 H   0  0  0  0  0  0  0  0  0  0  0  0
  -45.6019   57.8648   67.9062 H   0  0  0  0  0  0  0  0  0  0  0  0
  -44.1925   56.8028   68.0036 H   0  0  0  0  0  0  0  0  0  0  0  0
  -45.4784   54.9831   67.1337 H   0  0  0  0  0  0  0  0  0  0  0  0
  -46.8941   56.0690   67.0372 H   0  0  0  0  0  0  0  0  0  0  0  0
  -45.5359   55.2222   69.5357 H   0  0  0  0  0  0  0  0  0  0  0  0
  -47.0665   54.5909   68.8787 H   0  0  0  0  0  0  0  0  0  0  0  0
  -46.9673   57.4689   69.4253 H   0  0  0  0  0  0  0  0  0  0  0  0
  -48.5691   57.1393   70.9622 H   0  0  0  0  0  0  0  0  0  0  0  0
  -47.7553   54.2873   71.1174 H   0  0  0  0  0  0  0  0  0  0  0  0
  -49.3819   54.6222   70.5590 H   0  0  0  0  0  0  0  0  0  0  0  0
  -48.2007   55.5298   73.1628 H   0  0  0  0  0  0  0  0  0  0  0  0
  -49.3776   54.2030   72.9107 H   0  0  0  0  0  0  0  0  0  0  0  0
  -49.8982   57.0842   72.4345 H   0  0  0  0  0  0  0  0  0  0  0  0
  -50.4203   56.1047   73.8372 H   0  0  0  0  0  0  0  0  0  0  0  0
  -51.2816   55.6804   71.0232 H   0  0  0  0  0  0  0  0  0  0  0  0
  -52.2154   56.4655   72.3158 H   0  0  0  0  0  0  0  0  0  0  0  0
  -52.2480   54.4286   73.5662 H   0  0  0  0  0  0  0  0  0  0  0  0
  -51.2977   53.6417   72.2846 H   0  0  0  0  0  0  0  0  0  0  0  0
  -53.6179   53.0196   72.1714 H   0  0  0  0  0  0  0  0  0  0  0  0
  -53.0675   53.9625   70.7512 H   0  0  0  0  0  0  0  0  0  0  0  0
  -54.7234   55.0200   72.9800 H   0  0  0  0  0  0  0  0  0  0  0  0
  -55.2972   54.5398   71.3742 H   0  0  0  0  0  0  0  0  0  0  0  0
  -53.3628   56.7257   71.9541 H   0  0  0  0  0  0  0  0  0  0  0  0
  -55.0415   56.9240   71.5117 H   0  0  0  0  0  0  0  0  0  0  0  0
  -53.9140   56.2285   70.3723 H   0  0  0  0  0  0  0  0  0  0  0  0
  1  9  1  0  0  0  0
  1 11  1  0  0  0  0
  1 13  1  0  0  0  0
  1 15  1  0  0  0  0
  2  3  1  0  0  0  0
  2  5  1  0  0  0  0
  2 17  1  0  0  0  0
  2 36  1  1  0  0  0
  3 37  1  0  0  0  0
  4  6  1  0  0  0  0
  4  8  2  6  0  0  0
  4 10  1  0  0  0  0
  4 12  1  0  0  0  0
  5  6  1  0  0  0  0
  5 38  1  0  0  0  0
  5 39  1  0  0  0  0
  7  9  1  0  0  0  0
  7 10  1  0  0  0  0
  7 40  1  0  0  0  0
  7 41  1  0  0  0  0
  9 42  1  0  0  0  0
  9 43  1  0  0  0  0
 11 44  1  0  0  0  0
 11 45  1  0  0  0  0
 11 46  1  0  0  0  0
 12 47  1  0  0  0  0
 13 48  1  0  0  0  0
 13 49  1  0  0  0  0
 13 50  1  0  0  0  0
 14 17  1  0  0  0  0
 14 18  1  0  0  0  0
 15 51  1  0  0  0  0
 15 52  1  0  0  0  0
 15 53  1  0  0  0  0
 16 18  2  0  0  0  0
 17 54  1  0  0  0  0
 17 55  1  0  0  0  0
 18 19  1  0  0  0  0
 19 20  1  0  0  0  0
 19 56  1  0  0  0  0
 19 57  1  0  0  0  0
 20 21  1  0  0  0  0
 20 58  1  0  0  0  0
 20 59  1  0  0  0  0
 21 22  1  0  0  0  0
 21 60  1  0  0  0  0
 21 61  1  0  0  0  0
 22 23  1  0  0  0  0
 22 62  1  0  0  0  0
 22 63  1  0  0  0  0
 23 24  1  0  0  0  0
 23 64  1  0  0  0  0
 23 65  1  0  0  0  0
 24 25  1  0  0  0  0
 24 66  1  0  0  0  0
 24 67  1  0  0  0  0
 25 26  1  0  0  0  0
 25 68  1  0  0  0  0
 25 69  1  0  0  0  0
 26 27  2  0  0  0  0
 26 70  1  0  0  0  0
 27 28  1  0  0  0  0
 27 71  1  0  0  0  0
 28 29  1  0  0  0  0
 28 72  1  0  0  0  0
 28 73  1  0  0  0  0
 29 30  1  0  0  0  0
 29 74  1  0  0  0  0
 29 75  1  0  0  0  0
 30 31  1  0  0  0  0
 30 76  1  0  0  0  0
 30 77  1  0  0  0  0
 31 32  1  0  0  0  0
 31 78  1  0  0  0  0
 31 79  1  0  0  0  0
 32 33  1  0  0  0  0
 32 80  1  0  0  0  0
 32 81  1  0  0  0  0
 33 34  1  0  0  0  0
 33 82  1  0  0  0  0
 33 83  1  0  0  0  0
 34 35  1  0  0  0  0
 34 84  1  0  0  0  0
 34 85  1  0  0  0  0
 35 86  1  0  0  0  0
 35 87  1  0  0  0  0
 35 88  1  0  0  0  0
M  CHG  1   8  -1
M  END
$$$$
/media/chris/experiments/cd1a-new-docking/inputs/ligands/4x6e_ligand.pdb
 OpenBabel07012320273D

 88 87  0  0  1  0  0  0  0  0999 V2000
  -37.1365   61.0629   56.6175 N   0  0  0  0  0  4  0  0  0  0  0  0
  -40.0603   61.6902   62.8284 C   0  0  1  0  0  0  0  0  0  0  0  0
  -40.5713   63.0084   63.0685 O   0  0  0  0  0  0  0  0  0  0  0  0
  -37.5410   59.8964   60.2421 P   0  0  1  0  0  0  0  0  0  0  0  0
  -39.1130   61.7248   61.6521 C   0  0  0  0  0  0  0  0  0  0  0  0
  -38.5776   60.4128   61.3533 O   0  0  0  0  0  0  0  0  0  0  0  0
  -39.1422   60.2777   58.0253 C   0  0  0  0  0  0  0  0  0  0  0  0
  -36.7866   58.6971   60.8135 O   0  5  0  0  0  0  0  0  0  0  0  0
  -38.3288   61.4267   57.4827 C   0  0  0  0  0  0  0  0  0  0  0  0
  -38.3147   59.4300   58.8677 O   0  0  0  0  0  0  0  0  0  0  0  0
  -37.5793   60.3063   55.4065 C   0  0  0  0  0  0  0  0  0  0  0  0
  -36.5680   60.9755   59.9640 O   0  0  0  0  0  0  0  0  0  0  0  0
  -36.2119   60.2035   57.4157 C   0  0  0  0  0  0  0  0  0  0  0  0
  -40.3646   61.0134   65.1616 O   0  0  0  0  0  0  0  0  0  0  0  0
  -36.4087   62.3008   56.1765 C   0  0  0  0  0  0  0  0  0  0  0  0
  -41.5829   59.4037   64.1731 O   0  0  0  0  0  0  0  0  0  0  0  0
  -39.4183   61.1199   64.0753 C   0  0  0  0  0  0  0  0  0  0  0  0
  -41.1924   59.9644   65.1670 C   0  0  0  0  0  0  0  0  0  0  0  0
  -41.5470   59.5850   66.5720 C   0  0  0  0  0  0  0  0  0  0  0  0
  -42.4780   58.3810   66.6510 C   0  0  0  0  0  0  0  0  0  0  0  0
  -43.8050   58.5690   65.9360 C   0  0  0  0  0  0  0  0  0  0  0  0
  -43.6578   58.8291   64.4471 C   0  0  0  0  0  0  0  0  0  0  0  0
  -42.9740   57.6892   63.7118 C   0  0  0  0  0  0  0  0  0  0  0  0
  -42.8204   57.9723   62.2340 C   0  0  0  0  0  0  0  0  0  0  0  0
  -41.9877   59.1947   61.9049 C   0  0  0  0  0  0  0  0  0  0  0  0
  -41.8617   59.4662   60.4549 C   0  0  0  0  0  0  0  0  0  0  0  0
  -42.6664   60.2194   59.7339 C   0  0  0  0  0  0  0  0  0  0  0  0
  -43.8498   60.9945   60.2149 C   0  0  0  0  0  0  0  0  0  0  0  0
  -44.8705   60.0532   60.8565 C   0  0  0  0  0  0  0  0  0  0  0  0
  -46.1364   60.7197   61.3748 C   0  0  0  0  0  0  0  0  0  0  0  0
  -46.9643   61.4403   60.3176 C   0  0  0  0  0  0  0  0  0  0  0  0
  -47.4661   60.5230   59.2073 C   0  0  0  0  0  0  0  0  0  0  0  0
  -48.3699   59.4037   59.6993 C   0  0  0  0  0  0  0  0  0  0  0  0
  -47.7449   58.4616   60.7173 C   0  0  0  0  0  0  0  0  0  0  0  0
  -48.6785   57.3729   61.1492 C   0  0  0  0  0  0  0  0  0  0  0  0
  -40.8678   61.0329   62.5815 H   0  0  0  0  0  0  0  0  0  0  0  0
  -39.8386   63.6034   63.2922 H   0  0  0  0  0  0  0  0  0  0  0  0
  -38.3029   62.3859   61.8792 H   0  0  0  0  0  0  0  0  0  0  0  0
  -39.6582   62.0642   60.7961 H   0  0  0  0  0  0  0  0  0  0  0  0
  -39.5252   59.6999   57.2102 H   0  0  0  0  0  0  0  0  0  0  0  0
  -39.9502   60.6671   58.6088 H   0  0  0  0  0  0  0  0  0  0  0  0
  -38.9816   62.0386   56.8959 H   0  0  0  0  0  0  0  0  0  0  0  0
  -37.9171   61.9130   58.3423 H   0  0  0  0  0  0  0  0  0  0  0  0
  -38.0994   59.4216   55.7092 H   0  0  0  0  0  0  0  0  0  0  0  0
  -36.7245   60.0354   54.8228 H   0  0  0  0  0  0  0  0  0  0  0  0
  -38.2311   60.9204   54.8208 H   0  0  0  0  0  0  0  0  0  0  0  0
  -36.1259   61.2325   60.7882 H   0  0  0  0  0  0  0  0  0  0  0  0
  -36.7283   59.3210   57.7309 H   0  0  0  0  0  0  0  0  0  0  0  0
  -35.8739   60.7449   58.2745 H   0  0  0  0  0  0  0  0  0  0  0  0
  -35.3712   59.9289   56.8135 H   0  0  0  0  0  0  0  0  0  0  0  0
  -37.0693   62.9182   55.6043 H   0  0  0  0  0  0  0  0  0  0  0  0
  -35.5678   62.0250   55.5750 H   0  0  0  0  0  0  0  0  0  0  0  0
  -36.0706   62.8411   57.0360 H   0  0  0  0  0  0  0  0  0  0  0  0
  -38.6156   61.7602   64.3760 H   0  0  0  0  0  0  0  0  0  0  0  0
  -39.0601   60.1378   63.8471 H   0  0  0  0  0  0  0  0  0  0  0  0
  -42.0288   60.4189   67.0383 H   0  0  0  0  0  0  0  0  0  0  0  0
  -40.6378   59.3175   67.0687 H   0  0  0  0  0  0  0  0  0  0  0  0
  -42.6787   58.1797   67.6825 H   0  0  0  0  0  0  0  0  0  0  0  0
  -41.9769   57.5734   66.1596 H   0  0  0  0  0  0  0  0  0  0  0  0
  -44.3126   59.4014   66.3769 H   0  0  0  0  0  0  0  0  0  0  0  0
  -44.3534   57.6566   66.0440 H   0  0  0  0  0  0  0  0  0  0  0  0
  -43.0787   59.7186   64.3117 H   0  0  0  0  0  0  0  0  0  0  0  0
  -44.6423   58.9284   64.0400 H   0  0  0  0  0  0  0  0  0  0  0  0
  -43.5582   56.8011   63.8335 H   0  0  0  0  0  0  0  0  0  0  0  0
  -41.9948   57.5716   64.1269 H   0  0  0  0  0  0  0  0  0  0  0  0
  -43.7965   58.1127   61.8187 H   0  0  0  0  0  0  0  0  0  0  0  0
  -42.3019   57.1336   61.8187 H   0  0  0  0  0  0  0  0  0  0  0  0
  -41.0065   59.0512   62.3067 H   0  0  0  0  0  0  0  0  0  0  0  0
  -42.4905   60.0360   62.3344 H   0  0  0  0  0  0  0  0  0  0  0  0
  -41.0694   59.0239   59.9633 H   0  0  0  0  0  0  0  0  0  0  0  0
  -42.4563   60.2811   58.7254 H   0  0  0  0  0  0  0  0  0  0  0  0
  -44.3039   61.4971   59.3866 H   0  0  0  0  0  0  0  0  0  0  0  0
  -43.5274   61.7094   60.9428 H   0  0  0  0  0  0  0  0  0  0  0  0
  -44.3950   59.5621   61.6797 H   0  0  0  0  0  0  0  0  0  0  0  0
  -45.1845   59.3858   60.0813 H   0  0  0  0  0  0  0  0  0  0  0  0
  -45.8542   61.4344   62.1194 H   0  0  0  0  0  0  0  0  0  0  0  0
  -46.7548   59.9329   61.7537 H   0  0  0  0  0  0  0  0  0  0  0  0
  -46.3593   62.2052   59.8773 H   0  0  0  0  0  0  0  0  0  0  0  0
  -47.8266   61.8379   60.8107 H   0  0  0  0  0  0  0  0  0  0  0  0
  -46.6188   60.0845   58.7229 H   0  0  0  0  0  0  0  0  0  0  0  0
  -48.0495   61.1264   58.5436 H   0  0  0  0  0  0  0  0  0  0  0  0
  -48.6681   58.8231   58.8514 H   0  0  0  0  0  0  0  0  0  0  0  0
  -49.1854   59.8815   60.2009 H   0  0  0  0  0  0  0  0  0  0  0  0
  -47.4596   59.0291   61.5784 H   0  0  0  0  0  0  0  0  0  0  0  0
  -46.9012   57.9969   60.2512 H   0  0  0  0  0  0  0  0  0  0  0  0
  -49.5362   57.8048   61.6209 H   0  0  0  0  0  0  0  0  0  0  0  0
  -48.1782   56.7276   61.8407 H   0  0  0  0  0  0  0  0  0  0  0  0
  -48.9879   56.8084   60.2945 H   0  0  0  0  0  0  0  0  0  0  0  0
  1  9  1  0  0  0  0
  1 11  1  0  0  0  0
  1 13  1  0  0  0  0
  1 15  1  0  0  0  0
  2  3  1  0  0  0  0
  2  5  1  0  0  0  0
  2 17  1  0  0  0  0
  2 36  1  6  0  0  0
  3 37  1  0  0  0  0
  4  6  1  0  0  0  0
  4  8  2  1  0  0  0
  4 10  1  0  0  0  0
  4 12  1  0  0  0  0
  5  6  1  0  0  0  0
  5 38  1  0  0  0  0
  5 39  1  0  0  0  0
  7  9  1  0  0  0  0
  7 10  1  0  0  0  0
  7 40  1  0  0  0  0
  7 41  1  0  0  0  0
  9 42  1  0  0  0  0
  9 43  1  0  0  0  0
 11 44  1  0  0  0  0
 11 45  1  0  0  0  0
 11 46  1  0  0  0  0
 12 47  1  0  0  0  0
 13 48  1  0  0  0  0
 13 49  1  0  0  0  0
 13 50  1  0  0  0  0
 14 17  1  0  0  0  0
 14 18  1  0  0  0  0
 15 51  1  0  0  0  0
 15 52  1  0  0  0  0
 15 53  1  0  0  0  0
 16 18  2  0  0  0  0
 17 54  1  0  0  0  0
 17 55  1  0  0  0  0
 18 19  1  0  0  0  0
 19 20  1  0  0  0  0
 19 56  1  0  0  0  0
 19 57  1  0  0  0  0
 20 21  1  0  0  0  0
 20 58  1  0  0  0  0
 20 59  1  0  0  0  0
 21 22  1  0  0  0  0
 21 60  1  0  0  0  0
 21 61  1  0  0  0  0
 22 23  1  0  0  0  0
 22 62  1  0  0  0  0
 22 63  1  0  0  0  0
 23 24  1  0  0  0  0
 23 64  1  0  0  0  0
 23 65  1  0  0  0  0
 24 25  1  0  0  0  0
 24 66  1  0  0  0  0
 24 67  1  0  0  0  0
 25 26  1  0  0  0  0
 25 68  1  0  0  0  0
 25 69  1  0  0  0  0
 26 27  2  0  0  0  0
 26 70  1  0  0  0  0
 27 28  1  0  0  0  0
 27 71  1  0  0  0  0
 28 29  1  0  0  0  0
 28 72  1  0  0  0  0
 28 73  1  0  0  0  0
 29 30  1  0  0  0  0
 29 74  1  0  0  0  0
 29 75  1  0  0  0  0
 30 31  1  0  0  0  0
 30 76  1  0  0  0  0
 30 77  1  0  0  0  0
 31 32  1  0  0  0  0
 31 78  1  0  0  0  0
 31 79  1  0  0  0  0
 32 33  1  0  0  0  0
 32 80  1  0  0  0  0
 32 81  1  0  0  0  0
 33 34  1  0  0  0  0
 33 82  1  0  0  0  0
 33 83  1  0  0  0  0
 34 35  1  0  0  0  0
 34 84  1  0  0  0  0
 34 85  1  0  0  0  0
 35 86  1  0  0  0  0
 35 87  1  0  0  0  0
 35 88  1  0  0  0  0
M  CHG  1   8  -1
M  END
$$$$
/media/chris/experiments/cd1a-new-docking/inputs/ligands/4x6e_ligand.pdb
 OpenBabel07012320273D

 88 87  0  0  1  0  0  0  0  0999 V2000
  -34.2639   59.9964   62.1298 N   0  0  0  0  0  4  0  0  0  0  0  0
  -38.0882   61.2386   65.3200 C   0  0  1  0  0  0  0  0  0  0  0  0
  -39.1097   60.9393   64.3592 O   0  0  0  0  0  0  0  0  0  0  0  0
  -36.7776   63.7124   63.4796 P   0  0  1  0  0  0  0  0  0  0  0  0
  -38.1577   62.7022   65.6881 C   0  0  0  0  0  0  0  0  0  0  0  0
  -37.9788   63.5569   64.5327 O   0  0  0  0  0  0  0  0  0  0  0  0
  -36.4548   61.3455   62.0951 C   0  0  0  0  0  0  0  0  0  0  0  0
  -35.4711   63.3642   64.1909 O   0  5  0  0  0  0  0  0  0  0  0  0
  -34.9523   61.3449   62.2309 C   0  0  0  0  0  0  0  0  0  0  0  0
  -36.9679   62.7018   62.1960 O   0  0  0  0  0  0  0  0  0  0  0  0
  -34.7679   59.0701   63.1896 C   0  0  0  0  0  0  0  0  0  0  0  0
  -36.7126   65.1233   63.0400 O   0  0  0  0  0  0  0  0  0  0  0  0
  -32.7955   60.1948   62.3167 C   0  0  0  0  0  0  0  0  0  0  0  0
  -39.4745   60.4576   67.1809 O   0  0  0  0  0  0  0  0  0  0  0  0
  -34.5149   59.3766   60.7847 C   0  0  0  0  0  0  0  0  0  0  0  0
  -39.9170   58.3566   67.8459 O   0  0  0  0  0  0  0  0  0  0  0  0
  -38.1929   60.3301   66.5266 C   0  0  0  0  0  0  0  0  0  0  0  0
  -40.2402   59.3661   67.2706 C   0  0  0  0  0  0  0  0  0  0  0  0
  -41.5470   59.5850   66.5720 C   0  0  0  0  0  0  0  0  0  0  0  0
  -42.4780   58.3810   66.6510 C   0  0  0  0  0  0  0  0  0  0  0  0
  -43.8050   58.5690   65.9360 C   0  0  0  0  0  0  0  0  0  0  0  0
  -44.7241   57.3648   66.0412 C   0  0  0  0  0  0  0  0  0  0  0  0
  -45.0954   57.0268   67.4749 C   0  0  0  0  0  0  0  0  0  0  0  0
  -45.8277   58.1599   68.1584 C   0  0  0  0  0  0  0  0  0  0  0  0
  -47.1374   58.5542   67.5064 C   0  0  0  0  0  0  0  0  0  0  0  0
  -48.1413   57.4668   67.4634 C   0  0  0  0  0  0  0  0  0  0  0  0
  -49.3367   57.4924   68.0159 C   0  0  0  0  0  0  0  0  0  0  0  0
  -49.9605   58.6237   68.7666 C   0  0  0  0  0  0  0  0  0  0  0  0
  -49.6328   58.5115   70.2564 C   0  0  0  0  0  0  0  0  0  0  0  0
  -50.2264   59.6001   71.1384 C   0  0  0  0  0  0  0  0  0  0  0  0
  -49.8809   59.4898   72.6185 C   0  0  0  0  0  0  0  0  0  0  0  0
  -50.3372   58.1809   73.2548 C   0  0  0  0  0  0  0  0  0  0  0  0
  -50.0099   58.0730   74.7356 C   0  0  0  0  0  0  0  0  0  0  0  0
  -50.4343   56.7738   75.4037 C   0  0  0  0  0  0  0  0  0  0  0  0
  -49.7793   55.5701   74.7990 C   0  0  0  0  0  0  0  0  0  0  0  0
  -37.1264   61.0528   64.8895 H   0  0  0  0  0  0  0  0  0  0  0  0
  -39.9811   61.1081   64.7504 H   0  0  0  0  0  0  0  0  0  0  0  0
  -37.3885   62.9171   66.4002 H   0  0  0  0  0  0  0  0  0  0  0  0
  -39.1268   62.8962   66.0982 H   0  0  0  0  0  0  0  0  0  0  0  0
  -36.8803   60.7479   62.8740 H   0  0  0  0  0  0  0  0  0  0  0  0
  -36.7190   60.9427   61.1396 H   0  0  0  0  0  0  0  0  0  0  0  0
  -34.5558   61.9710   61.4591 H   0  0  0  0  0  0  0  0  0  0  0  0
  -34.7577   61.6883   63.2255 H   0  0  0  0  0  0  0  0  0  0  0  0
  -34.5940   59.5021   64.1530 H   0  0  0  0  0  0  0  0  0  0  0  0
  -34.2531   58.1347   63.1200 H   0  0  0  0  0  0  0  0  0  0  0  0
  -35.8173   58.9107   63.0543 H   0  0  0  0  0  0  0  0  0  0  0  0
  -36.6005   65.6981   63.8133 H   0  0  0  0  0  0  0  0  0  0  0  0
  -32.6143   60.6363   63.2744 H   0  0  0  0  0  0  0  0  0  0  0  0
  -32.4224   60.8410   61.5498 H   0  0  0  0  0  0  0  0  0  0  0  0
  -32.2977   59.2493   62.2599 H   0  0  0  0  0  0  0  0  0  0  0  0
  -35.5666   59.2335   60.6486 H   0  0  0  0  0  0  0  0  0  0  0  0
  -34.0162   58.4316   60.7287 H   0  0  0  0  0  0  0  0  0  0  0  0
  -34.1409   60.0232   60.0186 H   0  0  0  0  0  0  0  0  0  0  0  0
  -37.4213   60.5867   67.2221 H   0  0  0  0  0  0  0  0  0  0  0  0
  -38.0874   59.3188   66.1932 H   0  0  0  0  0  0  0  0  0  0  0  0
  -41.3508   59.7963   65.5416 H   0  0  0  0  0  0  0  0  0  0  0  0
  -42.0377   60.3996   67.0625 H   0  0  0  0  0  0  0  0  0  0  0  0
  -42.6787   58.1797   67.6825 H   0  0  0  0  0  0  0  0  0  0  0  0
  -41.9769   57.5734   66.1596 H   0  0  0  0  0  0  0  0  0  0  0  0
  -43.6088   58.7562   64.9009 H   0  0  0  0  0  0  0  0  0  0  0  0
  -44.3043   59.3890   66.4084 H   0  0  0  0  0  0  0  0  0  0  0  0
  -44.2305   56.5199   65.6083 H   0  0  0  0  0  0  0  0  0  0  0  0
  -45.6292   57.6059   65.5239 H   0  0  0  0  0  0  0  0  0  0  0  0
  -44.2003   56.8156   68.0218 H   0  0  0  0  0  0  0  0  0  0  0  0
  -45.7484   56.1795   67.4537 H   0  0  0  0  0  0  0  0  0  0  0  0
  -45.1865   59.0165   68.1622 H   0  0  0  0  0  0  0  0  0  0  0  0
  -46.0726   57.8118   69.1402 H   0  0  0  0  0  0  0  0  0  0  0  0
  -46.9336   58.8635   66.5025 H   0  0  0  0  0  0  0  0  0  0  0  0
  -47.5560   59.3380   68.1026 H   0  0  0  0  0  0  0  0  0  0  0  0
  -47.8801   56.6087   66.9530 H   0  0  0  0  0  0  0  0  0  0  0  0
  -49.9052   56.6365   67.9198 H   0  0  0  0  0  0  0  0  0  0  0  0
  -51.0219   58.5932   68.6346 H   0  0  0  0  0  0  0  0  0  0  0  0
  -49.5730   59.5480   68.3919 H   0  0  0  0  0  0  0  0  0  0  0  0
  -48.5687   58.5432   70.3637 H   0  0  0  0  0  0  0  0  0  0  0  0
  -50.0707   57.5927   70.5865 H   0  0  0  0  0  0  0  0  0  0  0  0
  -51.2914   59.5610   71.0424 H   0  0  0  0  0  0  0  0  0  0  0  0
  -49.8029   60.5227   70.8005 H   0  0  0  0  0  0  0  0  0  0  0  0
  -50.3499   60.2998   73.1370 H   0  0  0  0  0  0  0  0  0  0  0  0
  -48.8141   59.5216   72.6955 H   0  0  0  0  0  0  0  0  0  0  0  0
  -49.8585   57.3721   72.7434 H   0  0  0  0  0  0  0  0  0  0  0  0
  -51.4031   58.1463   73.1673 H   0  0  0  0  0  0  0  0  0  0  0  0
  -50.4983   58.8795   75.2415 H   0  0  0  0  0  0  0  0  0  0  0  0
  -48.9427   58.1060   74.8053 H   0  0  0  0  0  0  0  0  0  0  0  0
  -51.4950   56.6705   75.3076 H   0  0  0  0  0  0  0  0  0  0  0  0
  -50.1321   56.8246   76.4288 H   0  0  0  0  0  0  0  0  0  0  0  0
  -50.0616   55.4895   73.7701 H   0  0  0  0  0  0  0  0  0  0  0  0
  -50.0921   54.6921   75.3245 H   0  0  0  0  0  0  0  0  0  0  0  0
  -48.7163   55.6689   74.8705 H   0  0  0  0  0  0  0  0  0  0  0  0
  1  9  1  0  0  0  0
  1 11  1  0  0  0  0
  1 13  1  0  0  0  0
  1 15  1  0  0  0  0
  2  3  1  0  0  0  0
  2  5  1  0  0  0  0
  2 17  1  0  0  0  0
  2 36  1  6  0  0  0
  3 37  1  0  0  0  0
  4  6  1  0  0  0  0
  4  8  2  1  0  0  0
  4 10  1  0  0  0  0
  4 12  1  0  0  0  0
  5  6  1  0  0  0  0
  5 38  1  0  0  0  0
  5 39  1  0  0  0  0
  7  9  1  0  0  0  0
  7 10  1  0  0  0  0
  7 40  1  0  0  0  0
  7 41  1  0  0  0  0
  9 42  1  0  0  0  0
  9 43  1  0  0  0  0
 11 44  1  0  0  0  0
 11 45  1  0  0  0  0
 11 46  1  0  0  0  0
 12 47  1  0  0  0  0
 13 48  1  0  0  0  0
 13 49  1  0  0  0  0
 13 50  1  0  0  0  0
 14 17  1  0  0  0  0
 14 18  1  0  0  0  0
 15 51  1  0  0  0  0
 15 52  1  0  0  0  0
 15 53  1  0  0  0  0
 16 18  2  0  0  0  0
 17 54  1  0  0  0  0
 17 55  1  0  0  0  0
 18 19  1  0  0  0  0
 19 20  1  0  0  0  0
 19 56  1  0  0  0  0
 19 57  1  0  0  0  0
 20 21  1  0  0  0  0
 20 58  1  0  0  0  0
 20 59  1  0  0  0  0
 21 22  1  0  0  0  0
 21 60  1  0  0  0  0
 21 61  1  0  0  0  0
 22 23  1  0  0  0  0
 22 62  1  0  0  0  0
 22 63  1  0  0  0  0
 23 24  1  0  0  0  0
 23 64  1  0  0  0  0
 23 65  1  0  0  0  0
 24 25  1  0  0  0  0
 24 66  1  0  0  0  0
 24 67  1  0  0  0  0
 25 26  1  0  0  0  0
 25 68  1  0  0  0  0
 25 69  1  0  0  0  0
 26 27  2  0  0  0  0
 26 70  1  0  0  0  0
 27 28  1  0  0  0  0
 27 71  1  0  0  0  0
 28 29  1  0  0  0  0
 28 72  1  0  0  0  0
 28 73  1  0  0  0  0
 29 30  1  0  0  0  0
 29 74  1  0  0  0  0
 29 75  1  0  0  0  0
 30 31  1  0  0  0  0
 30 76  1  0  0  0  0
 30 77  1  0  0  0  0
 31 32  1  0  0  0  0
 31 78  1  0  0  0  0
 31 79  1  0  0  0  0
 32 33  1  0  0  0  0
 32 80  1  0  0  0  0
 32 81  1  0  0  0  0
 33 34  1  0  0  0  0
 33 82  1  0  0  0  0
 33 83  1  0  0  0  0
 34 35  1  0  0  0  0
 34 84  1  0  0  0  0
 34 85  1  0  0  0  0
 35 86  1  0  0  0  0
 35 87  1  0  0  0  0
 35 88  1  0  0  0  0
M  CHG  1   8  -1
M  END
$$$$
/media/chris/experiments/cd1a-new-docking/inputs/ligands/4x6e_ligand.pdb
 OpenBabel07012320273D

 88 87  0  0  1  0  0  0  0  0999 V2000
  -37.1047   61.4036   63.4668 N   0  0  0  0  0  4  0  0  0  0  0  0
  -40.8660   63.3942   65.4355 C   0  0  1  0  0  0  0  0  0  0  0  0
  -39.5762   63.6755   65.9956 O   0  0  0  0  0  0  0  0  0  0  0  0
  -39.0144   65.5547   63.6669 P   0  0  1  0  0  0  0  0  0  0  0  0
  -41.4096   64.6394   64.7749 C   0  0  0  0  0  0  0  0  0  0  0  0
  -40.5524   65.0970   63.7011 O   0  0  0  0  0  0  0  0  0  0  0  0
  -38.0238   63.4412   62.1921 C   0  0  0  0  0  0  0  0  0  0  0  0
  -38.6652   66.1568   65.0269 O   0  5  0  0  0  0  0  0  0  0  0  0
  -36.9683   62.3690   62.3041 C   0  0  0  0  0  0  0  0  0  0  0  0
  -38.0139   64.2817   63.3781 O   0  0  0  0  0  0  0  0  0  0  0  0
  -37.0735   62.1414   64.7667 C   0  0  0  0  0  0  0  0  0  0  0  0
  -38.8544   66.6014   62.6339 O   0  0  0  0  0  0  0  0  0  0  0  0
  -35.9618   60.4431   63.4263 C   0  0  0  0  0  0  0  0  0  0  0  0
  -40.3646   61.0134   65.1616 O   0  0  0  0  0  0  0  0  0  0  0  0
  -38.3969   60.6436   63.3715 C   0  0  0  0  0  0  0  0  0  0  0  0
  -41.5829   59.4037   64.1731 O   0  0  0  0  0  0  0  0  0  0  0  0
  -40.8026   62.2143   64.4888 C   0  0  0  0  0  0  0  0  0  0  0  0
  -41.1924   59.9644   65.1670 C   0  0  0  0  0  0  0  0  0  0  0  0
  -41.5470   59.5850   66.5720 C   0  0  0  0  0  0  0  0  0  0  0  0
  -42.4780   58.3810   66.6510 C   0  0  0  0  0  0  0  0  0  0  0  0
  -43.8050   58.5690   65.9360 C   0  0  0  0  0  0  0  0  0  0  0  0
  -44.6170   59.7376   66.4663 C   0  0  0  0  0  0  0  0  0  0  0  0
  -43.9014   61.0697   66.3219 C   0  0  0  0  0  0  0  0  0  0  0  0
  -44.7168   62.2195   66.8702 C   0  0  0  0  0  0  0  0  0  0  0  0
  -45.0441   62.1185   68.3462 C   0  0  0  0  0  0  0  0  0  0  0  0
  -45.8565   63.2436   68.8623 C   0  0  0  0  0  0  0  0  0  0  0  0
  -45.3921   64.3656   69.3726 C   0  0  0  0  0  0  0  0  0  0  0  0
  -43.9606   64.7716   69.5080 C   0  0  0  0  0  0  0  0  0  0  0  0
  -43.4078   64.3108   70.8577 C   0  0  0  0  0  0  0  0  0  0  0  0
  -41.9563   64.6789   71.1278 C   0  0  0  0  0  0  0  0  0  0  0  0
  -41.6621   66.1741   71.1387 C   0  0  0  0  0  0  0  0  0  0  0  0
  -42.4350   66.9392   72.2079 C   0  0  0  0  0  0  0  0  0  0  0  0
  -42.1332   66.4826   73.6264 C   0  0  0  0  0  0  0  0  0  0  0  0
  -40.6838   66.6309   74.0640 C   0  0  0  0  0  0  0  0  0  0  0  0
  -40.2113   68.0520   74.0325 C   0  0  0  0  0  0  0  0  0  0  0  0
  -41.5418   63.1140   66.2163 H   0  0  0  0  0  0  0  0  0  0  0  0
  -38.9644   63.9294   65.2870 H   0  0  0  0  0  0  0  0  0  0  0  0
  -41.4889   65.4141   65.5087 H   0  0  0  0  0  0  0  0  0  0  0  0
  -42.3668   64.4041   64.3587 H   0  0  0  0  0  0  0  0  0  0  0  0
  -38.9850   62.9819   62.0926 H   0  0  0  0  0  0  0  0  0  0  0  0
  -37.8171   64.0461   61.3340 H   0  0  0  0  0  0  0  0  0  0  0  0
  -36.9905   61.7955   61.4010 H   0  0  0  0  0  0  0  0  0  0  0  0
  -36.0507   62.8918   62.4761 H   0  0  0  0  0  0  0  0  0  0  0  0
  -36.1564   62.6869   64.8454 H   0  0  0  0  0  0  0  0  0  0  0  0
  -37.1439   61.4436   65.5748 H   0  0  0  0  0  0  0  0  0  0  0  0
  -37.8981   62.8219   64.8104 H   0  0  0  0  0  0  0  0  0  0  0  0
  -39.4536   67.3396   62.8260 H   0  0  0  0  0  0  0  0  0  0  0  0
  -35.0401   60.9824   63.4941 H   0  0  0  0  0  0  0  0  0  0  0  0
  -35.9881   59.8960   62.5072 H   0  0  0  0  0  0  0  0  0  0  0  0
  -36.0383   59.7628   64.2487 H   0  0  0  0  0  0  0  0  0  0  0  0
  -39.2173   61.3299   63.4004 H   0  0  0  0  0  0  0  0  0  0  0  0
  -38.4720   59.9632   64.1939 H   0  0  0  0  0  0  0  0  0  0  0  0
  -38.4218   60.0963   62.4524 H   0  0  0  0  0  0  0  0  0  0  0  0
  -40.1164   62.4395   63.6993 H   0  0  0  0  0  0  0  0  0  0  0  0
  -41.7860   62.0417   64.1041 H   0  0  0  0  0  0  0  0  0  0  0  0
  -42.0288   60.4189   67.0383 H   0  0  0  0  0  0  0  0  0  0  0  0
  -40.6378   59.3175   67.0687 H   0  0  0  0  0  0  0  0  0  0  0  0
  -42.6787   58.1797   67.6825 H   0  0  0  0  0  0  0  0  0  0  0  0
  -41.9769   57.5734   66.1596 H   0  0  0  0  0  0  0  0  0  0  0  0
  -44.3819   57.6753   66.0516 H   0  0  0  0  0  0  0  0  0  0  0  0
  -43.5836   58.7785   64.9103 H   0  0  0  0  0  0  0  0  0  0  0  0
  -44.8195   59.5696   67.5034 H   0  0  0  0  0  0  0  0  0  0  0  0
  -45.5158   59.7920   65.8883 H   0  0  0  0  0  0  0  0  0  0  0  0
  -43.7100   61.2472   65.2842 H   0  0  0  0  0  0  0  0  0  0  0  0
  -42.9915   61.0159   66.8824 H   0  0  0  0  0  0  0  0  0  0  0  0
  -45.6377   62.2634   66.3272 H   0  0  0  0  0  0  0  0  0  0  0  0
  -44.1162   63.0973   66.7540 H   0  0  0  0  0  0  0  0  0  0  0  0
  -44.1250   62.0887   68.8932 H   0  0  0  0  0  0  0  0  0  0  0  0
  -45.6288   61.2314   68.4732 H   0  0  0  0  0  0  0  0  0  0  0  0
  -46.8822   63.1391   68.8180 H   0  0  0  0  0  0  0  0  0  0  0  0
  -46.0947   65.0385   69.7170 H   0  0  0  0  0  0  0  0  0  0  0  0
  -43.8872   65.8370   69.4408 H   0  0  0  0  0  0  0  0  0  0  0  0
  -43.3923   64.3169   68.7236 H   0  0  0  0  0  0  0  0  0  0  0  0
  -43.4922   63.2451   70.9026 H   0  0  0  0  0  0  0  0  0  0  0  0
  -43.9846   64.8192   71.6019 H   0  0  0  0  0  0  0  0  0  0  0  0
  -41.3526   64.2274   70.3685 H   0  0  0  0  0  0  0  0  0  0  0  0
  -41.7361   64.3237   72.1128 H   0  0  0  0  0  0  0  0  0  0  0  0
  -41.9197   66.5767   70.1814 H   0  0  0  0  0  0  0  0  0  0  0  0
  -40.6216   66.2882   71.3608 H   0  0  0  0  0  0  0  0  0  0  0  0
  -43.4814   66.8085   72.0266 H   0  0  0  0  0  0  0  0  0  0  0  0
  -42.1329   67.9634   72.1387 H   0  0  0  0  0  0  0  0  0  0  0  0
  -42.3975   65.4486   73.7038 H   0  0  0  0  0  0  0  0  0  0  0  0
  -42.7027   67.1206   74.2695 H   0  0  0  0  0  0  0  0  0  0  0  0
  -40.0677   66.0510   73.4090 H   0  0  0  0  0  0  0  0  0  0  0  0
  -40.6162   66.2910   75.0763 H   0  0  0  0  0  0  0  0  0  0  0  0
  -40.2662   68.4239   73.0307 H   0  0  0  0  0  0  0  0  0  0  0  0
  -39.1988   68.0989   74.3753 H   0  0  0  0  0  0  0  0  0  0  0  0
  -40.8313   68.6482   74.6688 H   0  0  0  0  0  0  0  0  0  0  0  0
  1  9  1  0  0  0  0
  1 11  1  0  0  0  0
  1 13  1  0  0  0  0
  1 15  1  0  0  0  0
  2  3  1  0  0  0  0
  2  5  1  0  0  0  0
  2 17  1  0  0  0  0
  2 36  1  1  0  0  0
  3 37  1  0  0  0  0
  4  6  1  0  0  0  0
  4  8  2  1  0  0  0
  4 10  1  0  0  0  0
  4 12  1  0  0  0  0
  5  6  1  0  0  0  0
  5 38  1  0  0  0  0
  5 39  1  0  0  0  0
  7  9  1  0  0  0  0
  7 10  1  0  0  0  0
  7 40  1  0  0  0  0
  7 41  1  0  0  0  0
  9 42  1  0  0  0  0
  9 43  1  0  0  0  0
 11 44  1  0  0  0  0
 11 45  1  0  0  0  0
 11 46  1  0  0  0  0
 12 47  1  0  0  0  0
 13 48  1  0  0  0  0
 13 49  1  0  0  0  0
 13 50  1  0  0  0  0
 14 17  1  0  0  0  0
 14 18  1  0  0  0  0
 15 51  1  0  0  0  0
 15 52  1  0  0  0  0
 15 53  1  0  0  0  0
 16 18  2  0  0  0  0
 17 54  1  0  0  0  0
 17 55  1  0  0  0  0
 18 19  1  0  0  0  0
 19 20  1  0  0  0  0
 19 56  1  0  0  0  0
 19 57  1  0  0  0  0
 20 21  1  0  0  0  0
 20 58  1  0  0  0  0
 20 59  1  0  0  0  0
 21 22  1  0  0  0  0
 21 60  1  0  0  0  0
 21 61  1  0  0  0  0
 22 23  1  0  0  0  0
 22 62  1  0  0  0  0
 22 63  1  0  0  0  0
 23 24  1  0  0  0  0
 23 64  1  0  0  0  0
 23 65  1  0  0  0  0
 24 25  1  0  0  0  0
 24 66  1  0  0  0  0
 24 67  1  0  0  0  0
 25 26  1  0  0  0  0
 25 68  1  0  0  0  0
 25 69  1  0  0  0  0
 26 27  2  0  0  0  0
 26 70  1  0  0  0  0
 27 28  1  0  0  0  0
 27 71  1  0  0  0  0
 28 29  1  0  0  0  0
 28 72  1  0  0  0  0
 28 73  1  0  0  0  0
 29 30  1  0  0  0  0
 29 74  1  0  0  0  0
 29 75  1  0  0  0  0
 30 31  1  0  0  0  0
 30 76  1  0  0  0  0
 30 77  1  0  0  0  0
 31 32  1  0  0  0  0
 31 78  1  0  0  0  0
 31 79  1  0  0  0  0
 32 33  1  0  0  0  0
 32 80  1  0  0  0  0
 32 81  1  0  0  0  0
 33 34  1  0  0  0  0
 33 82  1  0  0  0  0
 33 83  1  0  0  0  0
 34 35  1  0  0  0  0
 34 84  1  0  0  0  0
 34 85  1  0  0  0  0
 35 86  1  0  0  0  0
 35 87  1  0  0  0  0
 35 88  1  0  0  0  0
M  CHG  1   8  -1
M  END
$$$$
/media/chris/experiments/cd1a-new-docking/inputs/ligands/4x6e_ligand.pdb
 OpenBabel07012320273D

 88 87  0  0  1  0  0  0  0  0999 V2000
  -37.0153   67.0709   62.0213 N   0  0  0  0  0  4  0  0  0  0  0  0
  -38.1715   60.6085   65.6008 C   0  0  1  0  0  0  0  0  0  0  0  0
  -37.6710   59.5059   66.3690 O   0  0  0  0  0  0  0  0  0  0  0  0
  -38.2483   62.7907   63.0599 P   0  0  1  0  0  0  0  0  0  0  0  0
  -37.0274   61.5221   65.2284 C   0  0  0  0  0  0  0  0  0  0  0  0
  -37.4789   62.6656   64.4629 O   0  0  0  0  0  0  0  0  0  0  0  0
  -36.5136   64.5541   61.8334 C   0  0  0  0  0  0  0  0  0  0  0  0
  -39.7505   62.7994   63.3384 O   0  5  0  0  0  0  0  0  0  0  0  0
  -36.5462   65.9075   61.1675 C   0  0  0  0  0  0  0  0  0  0  0  0
  -37.8468   64.1791   62.2749 O   0  0  0  0  0  0  0  0  0  0  0  0
  -37.0116   68.3380   61.2278 C   0  0  0  0  0  0  0  0  0  0  0  0
  -37.9292   61.6037   62.2369 O   0  0  0  0  0  0  0  0  0  0  0  0
  -36.0832   67.2201   63.1786 C   0  0  0  0  0  0  0  0  0  0  0  0
  -40.0862   59.3247   64.7759 O   0  0  0  0  0  0  0  0  0  0  0  0
  -38.4062   66.8225   62.5315 C   0  0  0  0  0  0  0  0  0  0  0  0
  -41.8149   60.7290   64.4724 O   0  0  0  0  0  0  0  0  0  0  0  0
  -38.9452   60.1237   64.3931 C   0  0  0  0  0  0  0  0  0  0  0  0
  -41.1924   59.9644   65.1670 C   0  0  0  0  0  0  0  0  0  0  0  0
  -41.5470   59.5850   66.5720 C   0  0  0  0  0  0  0  0  0  0  0  0
  -42.4780   58.3810   66.6510 C   0  0  0  0  0  0  0  0  0  0  0  0
  -43.8050   58.5690   65.9360 C   0  0  0  0  0  0  0  0  0  0  0  0
  -44.6170   59.7376   66.4663 C   0  0  0  0  0  0  0  0  0  0  0  0
  -43.9014   61.0697   66.3219 C   0  0  0  0  0  0  0  0  0  0  0  0
  -44.7168   62.2195   66.8702 C   0  0  0  0  0  0  0  0  0  0  0  0
  -45.0441   62.1185   68.3462 C   0  0  0  0  0  0  0  0  0  0  0  0
  -45.8565   63.2436   68.8623 C   0  0  0  0  0  0  0  0  0  0  0  0
  -45.3921   64.3656   69.3726 C   0  0  0  0  0  0  0  0  0  0  0  0
  -43.9606   64.7716   69.5080 C   0  0  0  0  0  0  0  0  0  0  0  0
  -43.4078   64.3108   70.8577 C   0  0  0  0  0  0  0  0  0  0  0  0
  -41.9563   64.6789   71.1278 C   0  0  0  0  0  0  0  0  0  0  0  0
  -41.6621   66.1741   71.1387 C   0  0  0  0  0  0  0  0  0  0  0  0
  -42.4350   66.9392   72.2079 C   0  0  0  0  0  0  0  0  0  0  0  0
  -42.1332   66.4826   73.6264 C   0  0  0  0  0  0  0  0  0  0  0  0
  -40.6838   66.6309   74.0640 C   0  0  0  0  0  0  0  0  0  0  0  0
  -40.2113   68.0520   74.0325 C   0  0  0  0  0  0  0  0  0  0  0  0
  -38.8634   61.1715   66.1918 H   0  0  0  0  0  0  0  0  0  0  0  0
  -37.0439   58.9962   65.8324 H   0  0  0  0  0  0  0  0  0  0  0  0
  -36.3206   60.9712   64.6437 H   0  0  0  0  0  0  0  0  0  0  0  0
  -36.5817   61.8821   66.1321 H   0  0  0  0  0  0  0  0  0  0  0  0
  -35.8589   64.5919   62.6789 H   0  0  0  0  0  0  0  0  0  0  0  0
  -36.1616   63.8279   61.1307 H   0  0  0  0  0  0  0  0  0  0  0  0
  -35.5544   66.1291   60.8327 H   0  0  0  0  0  0  0  0  0  0  0  0
  -37.2704   65.8206   60.3847 H   0  0  0  0  0  0  0  0  0  0  0  0
  -36.0247   68.5250   60.8591 H   0  0  0  0  0  0  0  0  0  0  0  0
  -37.3190   69.1507   61.8521 H   0  0  0  0  0  0  0  0  0  0  0  0
  -37.6883   68.2451   60.4042 H   0  0  0  0  0  0  0  0  0  0  0  0
  -38.1746   60.7995   62.7206 H   0  0  0  0  0  0  0  0  0  0  0  0
  -35.0917   67.3972   62.8175 H   0  0  0  0  0  0  0  0  0  0  0  0
  -36.0950   66.3244   63.7638 H   0  0  0  0  0  0  0  0  0  0  0  0
  -36.3952   68.0456   63.7837 H   0  0  0  0  0  0  0  0  0  0  0  0
  -39.0758   66.7152   61.7039 H   0  0  0  0  0  0  0  0  0  0  0  0
  -38.7168   67.6482   63.1370 H   0  0  0  0  0  0  0  0  0  0  0  0
  -38.4166   65.9270   63.1171 H   0  0  0  0  0  0  0  0  0  0  0  0
  -38.2973   59.5321   63.7806 H   0  0  0  0  0  0  0  0  0  0  0  0
  -39.3012   60.9798   63.8589 H   0  0  0  0  0  0  0  0  0  0  0  0
  -42.0288   60.4189   67.0383 H   0  0  0  0  0  0  0  0  0  0  0  0
  -40.6378   59.3175   67.0687 H   0  0  0  0  0  0  0  0  0  0  0  0
  -42.6787   58.1797   67.6825 H   0  0  0  0  0  0  0  0  0  0  0  0
  -41.9769   57.5734   66.1596 H   0  0  0  0  0  0  0  0  0  0  0  0
  -44.3819   57.6753   66.0516 H   0  0  0  0  0  0  0  0  0  0  0  0
  -43.5836   58.7785   64.9103 H   0  0  0  0  0  0  0  0  0  0  0  0
  -44.8195   59.5696   67.5034 H   0  0  0  0  0  0  0  0  0  0  0  0
  -45.5158   59.7920   65.8883 H   0  0  0  0  0  0  0  0  0  0  0  0
  -43.7100   61.2472   65.2842 H   0  0  0  0  0  0  0  0  0  0  0  0
  -42.9915   61.0159   66.8824 H   0  0  0  0  0  0  0  0  0  0  0  0
  -45.6377   62.2634   66.3272 H   0  0  0  0  0  0  0  0  0  0  0  0
  -44.1162   63.0973   66.7540 H   0  0  0  0  0  0  0  0  0  0  0  0
  -44.1250   62.0887   68.8932 H   0  0  0  0  0  0  0  0  0  0  0  0
  -45.6288   61.2314   68.4732 H   0  0  0  0  0  0  0  0  0  0  0  0
  -46.8822   63.1391   68.8180 H   0  0  0  0  0  0  0  0  0  0  0  0
  -46.0947   65.0385   69.7170 H   0  0  0  0  0  0  0  0  0  0  0  0
  -43.8872   65.8370   69.4408 H   0  0  0  0  0  0  0  0  0  0  0  0
  -43.3923   64.3169   68.7236 H   0  0  0  0  0  0  0  0  0  0  0  0
  -43.4922   63.2451   70.9026 H   0  0  0  0  0  0  0  0  0  0  0  0
  -43.9846   64.8192   71.6019 H   0  0  0  0  0  0  0  0  0  0  0  0
  -41.3526   64.2274   70.3685 H   0  0  0  0  0  0  0  0  0  0  0  0
  -41.7361   64.3237   72.1128 H   0  0  0  0  0  0  0  0  0  0  0  0
  -41.9197   66.5767   70.1814 H   0  0  0  0  0  0  0  0  0  0  0  0
  -40.6216   66.2882   71.3608 H   0  0  0  0  0  0  0  0  0  0  0  0
  -43.4814   66.8085   72.0266 H   0  0  0  0  0  0  0  0  0  0  0  0
  -42.1329   67.9634   72.1387 H   0  0  0  0  0  0  0  0  0  0  0  0
  -42.3975   65.4486   73.7038 H   0  0  0  0  0  0  0  0  0  0  0  0
  -42.7027   67.1206   74.2695 H   0  0  0  0  0  0  0  0  0  0  0  0
  -40.0677   66.0510   73.4090 H   0  0  0  0  0  0  0  0  0  0  0  0
  -40.6162   66.2910   75.0763 H   0  0  0  0  0  0  0  0  0  0  0  0
  -40.2662   68.4239   73.0307 H   0  0  0  0  0  0  0  0  0  0  0  0
  -39.1988   68.0989   74.3753 H   0  0  0  0  0  0  0  0  0  0  0  0
  -40.8313   68.6482   74.6688 H   0  0  0  0  0  0  0  0  0  0  0  0
  1  9  1  0  0  0  0
  1 11  1  0  0  0  0
  1 13  1  0  0  0  0
  1 15  1  0  0  0  0
  2  3  1  0  0  0  0
  2  5  1  0  0  0  0
  2 17  1  0  0  0  0
  2 36  1  1  0  0  0
  3 37  1  0  0  0  0
  4  6  1  0  0  0  0
  4  8  2  1  0  0  0
  4 10  1  0  0  0  0
  4 12  1  0  0  0  0
  5  6  1  0  0  0  0
  5 38  1  0  0  0  0
  5 39  1  0  0  0  0
  7  9  1  0  0  0  0
  7 10  1  0  0  0  0
  7 40  1  0  0  0  0
  7 41  1  0  0  0  0
  9 42  1  0  0  0  0
  9 43  1  0  0  0  0
 11 44  1  0  0  0  0
 11 45  1  0  0  0  0
 11 46  1  0  0  0  0
 12 47  1  0  0  0  0
 13 48  1  0  0  0  0
 13 49  1  0  0  0  0
 13 50  1  0  0  0  0
 14 17  1  0  0  0  0
 14 18  1  0  0  0  0
 15 51  1  0  0  0  0
 15 52  1  0  0  0  0
 15 53  1  0  0  0  0
 16 18  2  0  0  0  0
 17 54  1  0  0  0  0
 17 55  1  0  0  0  0
 18 19  1  0  0  0  0
 19 20  1  0  0  0  0
 19 56  1  0  0  0  0
 19 57  1  0  0  0  0
 20 21  1  0  0  0  0
 20 58  1  0  0  0  0
 20 59  1  0  0  0  0
 21 22  1  0  0  0  0
 21 60  1  0  0  0  0
 21 61  1  0  0  0  0
 22 23  1  0  0  0  0
 22 62  1  0  0  0  0
 22 63  1  0  0  0  0
 23 24  1  0  0  0  0
 23 64  1  0  0  0  0
 23 65  1  0  0  0  0
 24 25  1  0  0  0  0
 24 66  1  0  0  0  0
 24 67  1  0  0  0  0
 25 26  1  0  0  0  0
 25 68  1  0  0  0  0
 25 69  1  0  0  0  0
 26 27  2  0  0  0  0
 26 70  1  0  0  0  0
 27 28  1  0  0  0  0
 27 71  1  0  0  0  0
 28 29  1  0  0  0  0
 28 72  1  0  0  0  0
 28 73  1  0  0  0  0
 29 30  1  0  0  0  0
 29 74  1  0  0  0  0
 29 75  1  0  0  0  0
 30 31  1  0  0  0  0
 30 76  1  0  0  0  0
 30 77  1  0  0  0  0
 31 32  1  0  0  0  0
 31 78  1  0  0  0  0
 31 79  1  0  0  0  0
 32 33  1  0  0  0  0
 32 80  1  0  0  0  0
 32 81  1  0  0  0  0
 33 34  1  0  0  0  0
 33 82  1  0  0  0  0
 33 83  1  0  0  0  0
 34 35  1  0  0  0  0
 34 84  1  0  0  0  0
 34 85  1  0  0  0  0
 35 86  1  0  0  0  0
 35 87  1  0  0  0  0
 35 88  1  0  0  0  0
M  CHG  1   8  -1
M  END
$$$$
/media/chris/experiments/cd1a-new-docking/inputs/ligands/4x6e_ligand.pdb
 OpenBabel07012320273D

 88 87  0  0  1  0  0  0  0  0999 V2000
  -44.9036   53.4386   71.9501 N   0  0  0  0  0  4  0  0  0  0  0  0
  -41.2663   58.9284   70.5413 C   0  0  1  0  0  0  0  0  0  0  0  0
  -42.3490   59.7223   70.0375 O   0  0  0  0  0  0  0  0  0  0  0  0
  -40.6560   55.1168   71.7043 P   0  0  1  0  0  0  0  0  0  0  0  0
  -41.7455   57.5148   70.7745 C   0  0  0  0  0  0  0  0  0  0  0  0
  -40.6937   56.6697   71.3008 O   0  0  0  0  0  0  0  0  0  0  0  0
  -42.4422   53.2492   72.6762 C   0  0  0  0  0  0  0  0  0  0  0  0
  -39.6449   54.9422   72.8364 O   0  5  0  0  0  0  0  0  0  0  0  0
  -43.9001   53.1545   73.0524 C   0  0  0  0  0  0  0  0  0  0  0  0
  -42.1268   54.5934   72.2219 O   0  0  0  0  0  0  0  0  0  0  0  0
  -44.7375   52.4658   70.8270 C   0  0  0  0  0  0  0  0  0  0  0  0
  -40.1945   54.3349   70.5365 O   0  0  0  0  0  0  0  0  0  0  0  0
  -44.6678   54.8202   71.4344 C   0  0  0  0  0  0  0  0  0  0  0  0
  -40.3930   58.5172   68.2912 O   0  0  0  0  0  0  0  0  0  0  0  0
  -46.3068   53.3367   72.4763 C   0  0  0  0  0  0  0  0  0  0  0  0
  -39.1895   59.8699   66.9591 O   0  0  0  0  0  0  0  0  0  0  0  0
  -40.0690   58.9914   69.6167 C   0  0  0  0  0  0  0  0  0  0  0  0
  -40.2402   59.3661   67.2706 C   0  0  0  0  0  0  0  0  0  0  0  0
  -41.5470   59.5850   66.5720 C   0  0  0  0  0  0  0  0  0  0  0  0
  -42.4780   58.3810   66.6510 C   0  0  0  0  0  0  0  0  0  0  0  0
  -43.8050   58.5690   65.9360 C   0  0  0  0  0  0  0  0  0  0  0  0
  -44.6170   59.7376   66.4663 C   0  0  0  0  0  0  0  0  0  0  0  0
  -43.9014   61.0697   66.3219 C   0  0  0  0  0  0  0  0  0  0  0  0
  -43.6005   61.4039   64.8778 C   0  0  0  0  0  0  0  0  0  0  0  0
  -44.8202   61.5257   63.9870 C   0  0  0  0  0  0  0  0  0  0  0  0
  -45.6454   60.2981   63.9229 C   0  0  0  0  0  0  0  0  0  0  0  0
  -45.2418   59.1125   63.5149 C   0  0  0  0  0  0  0  0  0  0  0  0
  -43.8679   58.7305   63.0688 C   0  0  0  0  0  0  0  0  0  0  0  0
  -43.8372   57.2564   62.6619 C   0  0  0  0  0  0  0  0  0  0  0  0
  -44.2299   56.2706   63.7526 C   0  0  0  0  0  0  0  0  0  0  0  0
  -45.6444   56.4388   64.2941 C   0  0  0  0  0  0  0  0  0  0  0  0
  -45.9967   55.4455   65.3966 C   0  0  0  0  0  0  0  0  0  0  0  0
  -47.4129   55.5981   65.9286 C   0  0  0  0  0  0  0  0  0  0  0  0
  -47.7422   56.9590   66.5234 C   0  0  0  0  0  0  0  0  0  0  0  0
  -46.8534   57.3192   67.6740 C   0  0  0  0  0  0  0  0  0  0  0  0
  -40.9391   59.3242   71.4801 H   0  0  0  0  0  0  0  0  0  0  0  0
  -42.6448   59.3628   69.1865 H   0  0  0  0  0  0  0  0  0  0  0  0
  -42.0853   57.1067   69.8455 H   0  0  0  0  0  0  0  0  0  0  0  0
  -42.5374   57.5466   71.4934 H   0  0  0  0  0  0  0  0  0  0  0  0
  -42.2339   52.5528   71.8909 H   0  0  0  0  0  0  0  0  0  0  0  0
  -41.8449   53.0217   73.5344 H   0  0  0  0  0  0  0  0  0  0  0  0
  -44.0803   52.1616   73.4080 H   0  0  0  0  0  0  0  0  0  0  0  0
  -44.0550   53.9225   73.7811 H   0  0  0  0  0  0  0  0  0  0  0  0
  -43.7404   52.5299   70.4441 H   0  0  0  0  0  0  0  0  0  0  0  0
  -45.4341   52.6974   70.0486 H   0  0  0  0  0  0  0  0  0  0  0  0
  -44.9192   51.4738   71.1847 H   0  0  0  0  0  0  0  0  0  0  0  0
  -39.3271   54.6618   70.2507 H   0  0  0  0  0  0  0  0  0  0  0  0
  -43.6686   54.8951   71.0589 H   0  0  0  0  0  0  0  0  0  0  0  0
  -44.8045   55.5252   72.2276 H   0  0  0  0  0  0  0  0  0  0  0  0
  -45.3613   55.0303   70.6471 H   0  0  0  0  0  0  0  0  0  0  0  0
  -46.4780   52.3474   72.8464 H   0  0  0  0  0  0  0  0  0  0  0  0
  -46.9994   53.5476   71.6885 H   0  0  0  0  0  0  0  0  0  0  0  0
  -46.4426   54.0425   73.2690 H   0  0  0  0  0  0  0  0  0  0  0  0
  -39.2863   58.3839   70.0208 H   0  0  0  0  0  0  0  0  0  0  0  0
  -39.7600   60.0129   69.5397 H   0  0  0  0  0  0  0  0  0  0  0  0
  -41.3508   59.7963   65.5416 H   0  0  0  0  0  0  0  0  0  0  0  0
  -42.0377   60.3996   67.0625 H   0  0  0  0  0  0  0  0  0  0  0  0
  -42.6787   58.1797   67.6825 H   0  0  0  0  0  0  0  0  0  0  0  0
  -41.9769   57.5734   66.1596 H   0  0  0  0  0  0  0  0  0  0  0  0
  -44.3819   57.6753   66.0516 H   0  0  0  0  0  0  0  0  0  0  0  0
  -43.5836   58.7785   64.9103 H   0  0  0  0  0  0  0  0  0  0  0  0
  -44.8195   59.5696   67.5034 H   0  0  0  0  0  0  0  0  0  0  0  0
  -45.5158   59.7920   65.8883 H   0  0  0  0  0  0  0  0  0  0  0  0
  -42.9802   61.0264   66.8645 H   0  0  0  0  0  0  0  0  0  0  0  0
  -44.5457   61.8318   66.7077 H   0  0  0  0  0  0  0  0  0  0  0  0
  -42.9741   60.6324   64.4810 H   0  0  0  0  0  0  0  0  0  0  0  0
  -43.1331   62.3663   64.8822 H   0  0  0  0  0  0  0  0  0  0  0  0
  -44.4910   61.7617   62.9966 H   0  0  0  0  0  0  0  0  0  0  0  0
  -45.4368   62.2909   64.4101 H   0  0  0  0  0  0  0  0  0  0  0  0
  -46.6285   60.3788   64.2261 H   0  0  0  0  0  0  0  0  0  0  0  0
  -45.9531   58.3649   63.5020 H   0  0  0  0  0  0  0  0  0  0  0  0
  -43.1782   58.8905   63.8711 H   0  0  0  0  0  0  0  0  0  0  0  0
  -43.5937   59.3315   62.2271 H   0  0  0  0  0  0  0  0  0  0  0  0
  -42.8419   57.0214   62.3471 H   0  0  0  0  0  0  0  0  0  0  0  0
  -44.5691   57.1483   61.8890 H   0  0  0  0  0  0  0  0  0  0  0  0
  -43.5464   56.3877   64.5675 H   0  0  0  0  0  0  0  0  0  0  0  0
  -44.1947   55.2995   63.3047 H   0  0  0  0  0  0  0  0  0  0  0  0
  -46.3339   56.3069   63.4866 H   0  0  0  0  0  0  0  0  0  0  0  0
  -45.7027   57.4176   64.7224 H   0  0  0  0  0  0  0  0  0  0  0  0
  -45.3141   55.5862   66.2085 H   0  0  0  0  0  0  0  0  0  0  0  0
  -45.9275   54.4671   64.9691 H   0  0  0  0  0  0  0  0  0  0  0  0
  -47.5612   54.8604   66.6893 H   0  0  0  0  0  0  0  0  0  0  0  0
  -48.0597   55.4804   65.0844 H   0  0  0  0  0  0  0  0  0  0  0  0
  -48.7561   56.9465   66.8653 H   0  0  0  0  0  0  0  0  0  0  0  0
  -47.5909   57.6909   65.7577 H   0  0  0  0  0  0  0  0  0  0  0  0
  -46.9807   56.6046   68.4603 H   0  0  0  0  0  0  0  0  0  0  0  0
  -47.1115   58.2937   68.0326 H   0  0  0  0  0  0  0  0  0  0  0  0
  -45.8333   57.3164   67.3512 H   0  0  0  0  0  0  0  0  0  0  0  0
  1  9  1  0  0  0  0
  1 11  1  0  0  0  0
  1 13  1  0  0  0  0
  1 15  1  0  0  0  0
  2  3  1  0  0  0  0
  2  5  1  0  0  0  0
  2 17  1  0  0  0  0
  2 36  1  1  0  0  0
  3 37  1  0  0  0  0
  4  6  1  0  0  0  0
  4  8  2  1  0  0  0
  4 10  1  0  0  0  0
  4 12  1  0  0  0  0
  5  6  1  0  0  0  0
  5 38  1  0  0  0  0
  5 39  1  0  0  0  0
  7  9  1  0  0  0  0
  7 10  1  0  0  0  0
  7 40  1  0  0  0  0
  7 41  1  0  0  0  0
  9 42  1  0  0  0  0
  9 43  1  0  0  0  0
 11 44  1  0  0  0  0
 11 45  1  0  0  0  0
 11 46  1  0  0  0  0
 12 47  1  0  0  0  0
 13 48  1  0  0  0  0
 13 49  1  0  0  0  0
 13 50  1  0  0  0  0
 14 17  1  0  0  0  0
 14 18  1  0  0  0  0
 15 51  1  0  0  0  0
 15 52  1  0  0  0  0
 15 53  1  0  0  0  0
 16 18  2  0  0  0  0
 17 54  1  0  0  0  0
 17 55  1  0  0  0  0
 18 19  1  0  0  0  0
 19 20  1  0  0  0  0
 19 56  1  0  0  0  0
 19 57  1  0  0  0  0
 20 21  1  0  0  0  0
 20 58  1  0  0  0  0
 20 59  1  0  0  0  0
 21 22  1  0  0  0  0
 21 60  1  0  0  0  0
 21 61  1  0  0  0  0
 22 23  1  0  0  0  0
 22 62  1  0  0  0  0
 22 63  1  0  0  0  0
 23 24  1  0  0  0  0
 23 64  1  0  0  0  0
 23 65  1  0  0  0  0
 24 25  1  0  0  0  0
 24 66  1  0  0  0  0
 24 67  1  0  0  0  0
 25 26  1  0  0  0  0
 25 68  1  0  0  0  0
 25 69  1  0  0  0  0
 26 27  2  0  0  0  0
 26 70  1  0  0  0  0
 27 28  1  0  0  0  0
 27 71  1  0  0  0  0
 28 29  1  0  0  0  0
 28 72  1  0  0  0  0
 28 73  1  0  0  0  0
 29 30  1  0  0  0  0
 29 74  1  0  0  0  0
 29 75  1  0  0  0  0
 30 31  1  0  0  0  0
 30 76  1  0  0  0  0
 30 77  1  0  0  0  0
 31 32  1  0  0  0  0
 31 78  1  0  0  0  0
 31 79  1  0  0  0  0
 32 33  1  0  0  0  0
 32 80  1  0  0  0  0
 32 81  1  0  0  0  0
 33 34  1  0  0  0  0
 33 82  1  0  0  0  0
 33 83  1  0  0  0  0
 34 35  1  0  0  0  0
 34 84  1  0  0  0  0
 34 85  1  0  0  0  0
 35 86  1  0  0  0  0
 35 87  1  0  0  0  0
 35 88  1  0  0  0  0
M  CHG  1   8  -1
M  END
$$$$
/media/chris/experiments/cd1a-new-docking/inputs/ligands/4x6e_ligand.pdb
 OpenBabel07012320273D

 88 87  0  0  1  0  0  0  0  0999 V2000
  -39.7630   60.7282   59.1781 N   0  0  0  0  0  4  0  0  0  0  0  0
  -39.1270   57.1462   65.6942 C   0  0  1  0  0  0  0  0  0  0  0  0
  -40.1770   56.7678   66.5946 O   0  0  0  0  0  0  0  0  0  0  0  0
  -38.7493   58.1314   61.8032 P   0  0  1  0  0  0  0  0  0  0  0  0
  -39.7060   57.3877   64.3199 C   0  0  0  0  0  0  0  0  0  0  0  0
  -38.6842   57.7582   63.3628 O   0  0  0  0  0  0  0  0  0  0  0  0
  -37.5368   60.1151   60.3139 C   0  0  0  0  0  0  0  0  0  0  0  0
  -40.2067   58.0475   61.3526 O   0  5  0  0  0  0  0  0  0  0  0  0
  -38.4566   59.9579   59.1284 C   0  0  0  0  0  0  0  0  0  0  0  0
  -38.1954   59.6549   61.5252 O   0  0  0  0  0  0  0  0  0  0  0  0
  -40.5744   60.4633   57.9507 C   0  0  0  0  0  0  0  0  0  0  0  0
  -37.9639   57.1338   61.0441 O   0  0  0  0  0  0  0  0  0  0  0  0
  -39.4542   62.1876   59.2503 C   0  0  0  0  0  0  0  0  0  0  0  0
  -39.2251   59.4857   66.4098 O   0  0  0  0  0  0  0  0  0  0  0  0
  -40.5641   60.3289   60.3845 C   0  0  0  0  0  0  0  0  0  0  0  0
  -40.1085   59.1264   68.4453 O   0  0  0  0  0  0  0  0  0  0  0  0
  -38.3627   58.3421   66.2215 C   0  0  0  0  0  0  0  0  0  0  0  0
  -40.2402   59.3661   67.2706 C   0  0  0  0  0  0  0  0  0  0  0  0
  -41.5470   59.5850   66.5720 C   0  0  0  0  0  0  0  0  0  0  0  0
  -42.4780   58.3810   66.6510 C   0  0  0  0  0  0  0  0  0  0  0  0
  -43.8050   58.5690   65.9360 C   0  0  0  0  0  0  0  0  0  0  0  0
  -44.7241   57.3648   66.0412 C   0  0  0  0  0  0  0  0  0  0  0  0
  -46.0403   57.5587   65.3081 C   0  0  0  0  0  0  0  0  0  0  0  0
  -46.9497   56.3572   65.4376 C   0  0  0  0  0  0  0  0  0  0  0  0
  -48.2743   56.4824   64.7125 C   0  0  0  0  0  0  0  0  0  0  0  0
  -49.1006   57.6269   65.1592 C   0  0  0  0  0  0  0  0  0  0  0  0
  -48.7633   58.8985   65.0961 C   0  0  0  0  0  0  0  0  0  0  0  0
  -47.5051   59.4720   64.5299 C   0  0  0  0  0  0  0  0  0  0  0  0
  -47.6907   59.7846   63.0442 C   0  0  0  0  0  0  0  0  0  0  0  0
  -48.0589   58.5956   62.1688 C   0  0  0  0  0  0  0  0  0  0  0  0
  -47.0491   57.4544   62.1744 C   0  0  0  0  0  0  0  0  0  0  0  0
  -45.6588   57.8689   61.7037 C   0  0  0  0  0  0  0  0  0  0  0  0
  -44.6517   56.7299   61.6912 C   0  0  0  0  0  0  0  0  0  0  0  0
  -43.2475   57.1068   61.2434 C   0  0  0  0  0  0  0  0  0  0  0  0
  -43.2134   57.6716   59.8565 C   0  0  0  0  0  0  0  0  0  0  0  0
  -38.4172   56.3492   65.6171 H   0  0  0  0  0  0  0  0  0  0  0  0
  -40.8198   57.4909   66.6638 H   0  0  0  0  0  0  0  0  0  0  0  0
  -40.4257   58.1771   64.3811 H   0  0  0  0  0  0  0  0  0  0  0  0
  -40.1600   56.4781   63.9860 H   0  0  0  0  0  0  0  0  0  0  0  0
  -37.2755   61.1468   60.4239 H   0  0  0  0  0  0  0  0  0  0  0  0
  -36.6557   59.5301   60.1520 H   0  0  0  0  0  0  0  0  0  0  0  0
  -37.9230   60.2786   58.2581 H   0  0  0  0  0  0  0  0  0  0  0  0
  -38.7368   58.9252   59.1223 H   0  0  0  0  0  0  0  0  0  0  0  0
  -40.0129   60.7443   57.0844 H   0  0  0  0  0  0  0  0  0  0  0  0
  -41.4784   61.0344   57.9906 H   0  0  0  0  0  0  0  0  0  0  0  0
  -40.8128   59.4215   57.8987 H   0  0  0  0  0  0  0  0  0  0  0  0
  -38.3091   56.2454   61.2244 H   0  0  0  0  0  0  0  0  0  0  0  0
  -38.8835   62.4743   58.3918 H   0  0  0  0  0  0  0  0  0  0  0  0
  -38.8903   62.3894   60.1370 H   0  0  0  0  0  0  0  0  0  0  0  0
  -40.3674   62.7447   59.2738 H   0  0  0  0  0  0  0  0  0  0  0  0
  -40.7865   59.2835   60.3349 H   0  0  0  0  0  0  0  0  0  0  0  0
  -41.4767   60.8870   60.4073 H   0  0  0  0  0  0  0  0  0  0  0  0
  -39.9996   60.5318   61.2706 H   0  0  0  0  0  0  0  0  0  0  0  0
  -37.5944   58.5985   65.5223 H   0  0  0  0  0  0  0  0  0  0  0  0
  -37.9447   58.0792   67.1707 H   0  0  0  0  0  0  0  0  0  0  0  0
  -41.3508   59.7963   65.5416 H   0  0  0  0  0  0  0  0  0  0  0  0
  -42.0377   60.3996   67.0625 H   0  0  0  0  0  0  0  0  0  0  0  0
  -42.6787   58.1797   67.6825 H   0  0  0  0  0  0  0  0  0  0  0  0
  -41.9769   57.5734   66.1596 H   0  0  0  0  0  0  0  0  0  0  0  0
  -43.6088   58.7562   64.9009 H   0  0  0  0  0  0  0  0  0  0  0  0
  -44.3043   59.3890   66.4084 H   0  0  0  0  0  0  0  0  0  0  0  0
  -44.9328   57.1840   67.0750 H   0  0  0  0  0  0  0  0  0  0  0  0
  -44.2219   56.5372   65.5852 H   0  0  0  0  0  0  0  0  0  0  0  0
  -45.8357   57.7257   64.2712 H   0  0  0  0  0  0  0  0  0  0  0  0
  -46.5398   58.3972   65.7467 H   0  0  0  0  0  0  0  0  0  0  0  0
  -47.1523   56.2034   66.4769 H   0  0  0  0  0  0  0  0  0  0  0  0
  -46.4333   55.5379   64.9826 H   0  0  0  0  0  0  0  0  0  0  0  0
  -48.8314   55.5829   64.8721 H   0  0  0  0  0  0  0  0  0  0  0  0
  -48.0472   56.6494   63.6803 H   0  0  0  0  0  0  0  0  0  0  0  0
  -50.0273   57.4079   65.5570 H   0  0  0  0  0  0  0  0  0  0  0  0
  -49.4431   59.5733   65.4802 H   0  0  0  0  0  0  0  0  0  0  0  0
  -46.7105   58.7649   64.6460 H   0  0  0  0  0  0  0  0  0  0  0  0
  -47.2675   60.3761   65.0506 H   0  0  0  0  0  0  0  0  0  0  0  0
  -46.7736   60.1944   62.6758 H   0  0  0  0  0  0  0  0  0  0  0  0
  -48.5177   60.4611   62.9861 H   0  0  0  0  0  0  0  0  0  0  0  0
  -48.1610   58.9436   61.1622 H   0  0  0  0  0  0  0  0  0  0  0  0
  -48.9647   58.1952   62.5739 H   0  0  0  0  0  0  0  0  0  0  0  0
  -47.4086   56.6810   61.5282 H   0  0  0  0  0  0  0  0  0  0  0  0
  -46.9526   57.1248   63.1878 H   0  0  0  0  0  0  0  0  0  0  0  0
  -45.2952   58.6338   62.3576 H   0  0  0  0  0  0  0  0  0  0  0  0
  -45.7592   58.2079   60.6938 H   0  0  0  0  0  0  0  0  0  0  0  0
  -45.0174   55.9728   61.0294 H   0  0  0  0  0  0  0  0  0  0  0  0
  -44.5606   56.4051   62.7067 H   0  0  0  0  0  0  0  0  0  0  0  0
  -42.6330   56.2313   61.2713 H   0  0  0  0  0  0  0  0  0  0  0  0
  -42.8891   57.8642   61.9089 H   0  0  0  0  0  0  0  0  0  0  0  0
  -43.5668   56.9370   59.1635 H   0  0  0  0  0  0  0  0  0  0  0  0
  -42.2091   57.9435   59.6067 H   0  0  0  0  0  0  0  0  0  0  0  0
  -43.8398   58.5377   59.8086 H   0  0  0  0  0  0  0  0  0  0  0  0
  1  9  1  0  0  0  0
  1 11  1  0  0  0  0
  1 13  1  0  0  0  0
  1 15  1  0  0  0  0
  2  3  1  0  0  0  0
  2  5  1  0  0  0  0
  2 17  1  0  0  0  0
  2 36  1  6  0  0  0
  3 37  1  0  0  0  0
  4  6  1  0  0  0  0
  4  8  2  6  0  0  0
  4 10  1  0  0  0  0
  4 12  1  0  0  0  0
  5  6  1  0  0  0  0
  5 38  1  0  0  0  0
  5 39  1  0  0  0  0
  7  9  1  0  0  0  0
  7 10  1  0  0  0  0
  7 40  1  0  0  0  0
  7 41  1  0  0  0  0
  9 42  1  0  0  0  0
  9 43  1  0  0  0  0
 11 44  1  0  0  0  0
 11 45  1  0  0  0  0
 11 46  1  0  0  0  0
 12 47  1  0  0  0  0
 13 48  1  0  0  0  0
 13 49  1  0  0  0  0
 13 50  1  0  0  0  0
 14 17  1  0  0  0  0
 14 18  1  0  0  0  0
 15 51  1  0  0  0  0
 15 52  1  0  0  0  0
 15 53  1  0  0  0  0
 16 18  2  0  0  0  0
 17 54  1  0  0  0  0
 17 55  1  0  0  0  0
 18 19  1  0  0  0  0
 19 20  1  0  0  0  0
 19 56  1  0  0  0  0
 19 57  1  0  0  0  0
 20 21  1  0  0  0  0
 20 58  1  0  0  0  0
 20 59  1  0  0  0  0
 21 22  1  0  0  0  0
 21 60  1  0  0  0  0
 21 61  1  0  0  0  0
 22 23  1  0  0  0  0
 22 62  1  0  0  0  0
 22 63  1  0  0  0  0
 23 24  1  0  0  0  0
 23 64  1  0  0  0  0
 23 65  1  0  0  0  0
 24 25  1  0  0  0  0
 24 66  1  0  0  0  0
 24 67  1  0  0  0  0
 25 26  1  0  0  0  0
 25 68  1  0  0  0  0
 25 69  1  0  0  0  0
 26 27  2  0  0  0  0
 26 70  1  0  0  0  0
 27 28  1  0  0  0  0
 27 71  1  0  0  0  0
 28 29  1  0  0  0  0
 28 72  1  0  0  0  0
 28 73  1  0  0  0  0
 29 30  1  0  0  0  0
 29 74  1  0  0  0  0
 29 75  1  0  0  0  0
 30 31  1  0  0  0  0
 30 76  1  0  0  0  0
 30 77  1  0  0  0  0
 31 32  1  0  0  0  0
 31 78  1  0  0  0  0
 31 79  1  0  0  0  0
 32 33  1  0  0  0  0
 32 80  1  0  0  0  0
 32 81  1  0  0  0  0
 33 34  1  0  0  0  0
 33 82  1  0  0  0  0
 33 83  1  0  0  0  0
 34 35  1  0  0  0  0
 34 84  1  0  0  0  0
 34 85  1  0  0  0  0
 35 86  1  0  0  0  0
 35 87  1  0  0  0  0
 35 88  1  0  0  0  0
M  CHG  1   8  -1
M  END
$$$$
/media/chris/experiments/cd1a-new-docking/inputs/ligands/4x6e_ligand.pdb
 OpenBabel07012320273D

 88 87  0  0  1  0  0  0  0  0999 V2000
  -46.3534   64.3499   71.1620 N   0  0  0  0  0  4  0  0  0  0  0  0
  -42.5787   64.1828   66.5255 C   0  0  1  0  0  0  0  0  0  0  0  0
  -41.2863   64.7769   66.3431 O   0  0  0  0  0  0  0  0  0  0  0  0
  -45.8177   64.1640   67.4219 P   0  0  1  0  0  0  0  0  0  0  0  0
  -43.6363   65.0918   65.9445 C   0  0  0  0  0  0  0  0  0  0  0  0
  -44.9673   64.5474   66.1159 O   0  0  0  0  0  0  0  0  0  0  0  0
  -45.1915   65.9041   69.4720 C   0  0  0  0  0  0  0  0  0  0  0  0
  -45.0387   63.1095   68.2063 O   0  5  0  0  0  0  0  0  0  0  0  0
  -45.0657   64.8125   70.5057 C   0  0  0  0  0  0  0  0  0  0  0  0
  -46.0591   65.4726   68.3885 O   0  0  0  0  0  0  0  0  0  0  0  0
  -46.0731   63.2829   72.1709 C   0  0  0  0  0  0  0  0  0  0  0  0
  -47.1053   63.5754   66.9929 O   0  0  0  0  0  0  0  0  0  0  0  0
  -47.2545   63.7964   70.1075 C   0  0  0  0  0  0  0  0  0  0  0  0
  -41.6650   61.9117   66.5697 O   0  0  0  0  0  0  0  0  0  0  0  0
  -47.0368   65.4984   71.8479 C   0  0  0  0  0  0  0  0  0  0  0  0
  -42.9138   60.8418   68.1021 O   0  0  0  0  0  0  0  0  0  0  0  0
  -42.6243   62.7881   65.9383 C   0  0  0  0  0  0  0  0  0  0  0  0
  -42.1287   60.8209   67.1868 C   0  0  0  0  0  0  0  0  0  0  0  0
  -41.5470   59.5850   66.5720 C   0  0  0  0  0  0  0  0  0  0  0  0
  -42.4780   58.3810   66.6510 C   0  0  0  0  0  0  0  0  0  0  0  0
  -43.8050   58.5690   65.9360 C   0  0  0  0  0  0  0  0  0  0  0  0
  -44.7241   57.3648   66.0412 C   0  0  0  0  0  0  0  0  0  0  0  0
  -45.0954   57.0268   67.4749 C   0  0  0  0  0  0  0  0  0  0  0  0
  -45.9968   55.8154   67.5620 C   0  0  0  0  0  0  0  0  0  0  0  0
  -47.3103   55.9467   66.8181 C   0  0  0  0  0  0  0  0  0  0  0  0
  -47.1595   56.1641   65.3614 C   0  0  0  0  0  0  0  0  0  0  0  0
  -47.5966   57.2051   64.6831 C   0  0  0  0  0  0  0  0  0  0  0  0
  -48.2984   58.4071   65.2266 C   0  0  0  0  0  0  0  0  0  0  0  0
  -47.2814   59.4876   65.5978 C   0  0  0  0  0  0  0  0  0  0  0  0
  -47.8698   60.7636   66.1820 C   0  0  0  0  0  0  0  0  0  0  0  0
  -48.8560   61.4916   65.2766 C   0  0  0  0  0  0  0  0  0  0  0  0
  -50.0820   60.6587   64.9169 C   0  0  0  0  0  0  0  0  0  0  0  0
  -50.9107   60.2376   66.1201 C   0  0  0  0  0  0  0  0  0  0  0  0
  -52.1341   59.3904   65.8042 C   0  0  0  0  0  0  0  0  0  0  0  0
  -52.9164   59.0229   67.0276 C   0  0  0  0  0  0  0  0  0  0  0  0
  -42.7775   64.0727   67.5711 H   0  0  0  0  0  0  0  0  0  0  0  0
  -41.1070   64.8762   65.3950 H   0  0  0  0  0  0  0  0  0  0  0  0
  -43.4465   65.2200   64.8993 H   0  0  0  0  0  0  0  0  0  0  0  0
  -43.5908   66.0276   66.4614 H   0  0  0  0  0  0  0  0  0  0  0  0
  -44.2227   66.1323   69.0793 H   0  0  0  0  0  0  0  0  0  0  0  0
  -45.6135   66.7732   69.9319 H   0  0  0  0  0  0  0  0  0  0  0  0
  -44.6203   63.9639   70.0298 H   0  0  0  0  0  0  0  0  0  0  0  0
  -44.4817   65.2364   71.2956 H   0  0  0  0  0  0  0  0  0  0  0  0
  -45.5858   62.4590   71.6928 H   0  0  0  0  0  0  0  0  0  0  0  0
  -46.9936   62.9505   72.6036 H   0  0  0  0  0  0  0  0  0  0  0  0
  -45.4394   63.6754   72.9386 H   0  0  0  0  0  0  0  0  0  0  0  0
  -46.9365   62.8071   66.4253 H   0  0  0  0  0  0  0  0  0  0  0  0
  -46.7696   62.9781   69.6175 H   0  0  0  0  0  0  0  0  0  0  0  0
  -47.4767   64.5598   69.3915 H   0  0  0  0  0  0  0  0  0  0  0  0
  -48.1629   63.4547   70.5580 H   0  0  0  0  0  0  0  0  0  0  0  0
  -46.3928   65.8966   72.6040 H   0  0  0  0  0  0  0  0  0  0  0  0
  -47.9453   65.1557   72.2975 H   0  0  0  0  0  0  0  0  0  0  0  0
  -47.2591   66.2608   71.1309 H   0  0  0  0  0  0  0  0  0  0  0  0
  -42.4064   62.8448   64.8923 H   0  0  0  0  0  0  0  0  0  0  0  0
  -43.6025   62.3876   66.1047 H   0  0  0  0  0  0  0  0  0  0  0  0
  -40.6379   59.3462   67.0832 H   0  0  0  0  0  0  0  0  0  0  0  0
  -41.3821   59.7924   65.5353 H   0  0  0  0  0  0  0  0  0  0  0  0
  -42.6787   58.1797   67.6825 H   0  0  0  0  0  0  0  0  0  0  0  0
  -41.9769   57.5734   66.1596 H   0  0  0  0  0  0  0  0  0  0  0  0
  -43.6088   58.7562   64.9009 H   0  0  0  0  0  0  0  0  0  0  0  0
  -44.3043   59.3890   66.4084 H   0  0  0  0  0  0  0  0  0  0  0  0
  -44.2305   56.5199   65.6083 H   0  0  0  0  0  0  0  0  0  0  0  0
  -45.6292   57.6059   65.5239 H   0  0  0  0  0  0  0  0  0  0  0  0
  -45.6019   57.8648   67.9062 H   0  0  0  0  0  0  0  0  0  0  0  0
  -44.1925   56.8028   68.0036 H   0  0  0  0  0  0  0  0  0  0  0  0
  -46.2151   55.6364   68.5941 H   0  0  0  0  0  0  0  0  0  0  0  0
  -45.4662   55.0108   67.0972 H   0  0  0  0  0  0  0  0  0  0  0  0
  -47.8475   56.7763   67.2281 H   0  0  0  0  0  0  0  0  0  0  0  0
  -47.8287   55.0186   66.9401 H   0  0  0  0  0  0  0  0  0  0  0  0
  -46.6658   55.4317   64.8276 H   0  0  0  0  0  0  0  0  0  0  0  0
  -47.4367   57.1888   63.6637 H   0  0  0  0  0  0  0  0  0  0  0  0
  -48.8530   58.1288   66.0983 H   0  0  0  0  0  0  0  0  0  0  0  0
  -48.9613   58.7923   64.4803 H   0  0  0  0  0  0  0  0  0  0  0  0
  -46.7393   59.7488   64.7131 H   0  0  0  0  0  0  0  0  0  0  0  0
  -46.6698   59.0653   66.3676 H   0  0  0  0  0  0  0  0  0  0  0  0
  -47.0630   61.4320   66.3992 H   0  0  0  0  0  0  0  0  0  0  0  0
  -48.4222   60.4683   67.0495 H   0  0  0  0  0  0  0  0  0  0  0  0
  -48.3511   61.7590   64.3719 H   0  0  0  0  0  0  0  0  0  0  0  0
  -49.2046   62.3477   65.8156 H   0  0  0  0  0  0  0  0  0  0  0  0
  -49.7534   59.7767   64.4080 H   0  0  0  0  0  0  0  0  0  0  0  0
  -50.7090   61.2738   64.3058 H   0  0  0  0  0  0  0  0  0  0  0  0
  -51.2426   61.1240   66.6191 H   0  0  0  0  0  0  0  0  0  0  0  0
  -50.2716   59.6220   66.7181 H   0  0  0  0  0  0  0  0  0  0  0  0
  -51.8122   58.4915   65.3213 H   0  0  0  0  0  0  0  0  0  0  0  0
  -52.7748   59.9714   65.1742 H   0  0  0  0  0  0  0  0  0  0  0  0
  -52.3026   58.4391   67.6813 H   0  0  0  0  0  0  0  0  0  0  0  0
  -53.7766   58.4537   66.7432 H   0  0  0  0  0  0  0  0  0  0  0  0
  -53.2286   59.9133   67.5320 H   0  0  0  0  0  0  0  0  0  0  0  0
  1  9  1  0  0  0  0
  1 11  1  0  0  0  0
  1 13  1  0  0  0  0
  1 15  1  0  0  0  0
  2  3  1  0  0  0  0
  2  5  1  0  0  0  0
  2 17  1  0  0  0  0
  2 36  1  1  0  0  0
  3 37  1  0  0  0  0
  4  6  1  0  0  0  0
  4  8  2  1  0  0  0
  4 10  1  0  0  0  0
  4 12  1  0  0  0  0
  5  6  1  0  0  0  0
  5 38  1  0  0  0  0
  5 39  1  0  0  0  0
  7  9  1  0  0  0  0
  7 10  1  0  0  0  0
  7 40  1  0  0  0  0
  7 41  1  0  0  0  0
  9 42  1  0  0  0  0
  9 43  1  0  0  0  0
 11 44  1  0  0  0  0
 11 45  1  0  0  0  0
 11 46  1  0  0  0  0
 12 47  1  0  0  0  0
 13 48  1  0  0  0  0
 13 49  1  0  0  0  0
 13 50  1  0  0  0  0
 14 17  1  0  0  0  0
 14 18  1  0  0  0  0
 15 51  1  0  0  0  0
 15 52  1  0  0  0  0
 15 53  1  0  0  0  0
 16 18  2  0  0  0  0
 17 54  1  0  0  0  0
 17 55  1  0  0  0  0
 18 19  1  0  0  0  0
 19 20  1  0  0  0  0
 19 56  1  0  0  0  0
 19 57  1  0  0  0  0
 20 21  1  0  0  0  0
 20 58  1  0  0  0  0
 20 59  1  0  0  0  0
 21 22  1  0  0  0  0
 21 60  1  0  0  0  0
 21 61  1  0  0  0  0
 22 23  1  0  0  0  0
 22 62  1  0  0  0  0
 22 63  1  0  0  0  0
 23 24  1  0  0  0  0
 23 64  1  0  0  0  0
 23 65  1  0  0  0  0
 24 25  1  0  0  0  0
 24 66  1  0  0  0  0
 24 67  1  0  0  0  0
 25 26  1  0  0  0  0
 25 68  1  0  0  0  0
 25 69  1  0  0  0  0
 26 27  2  0  0  0  0
 26 70  1  0  0  0  0
 27 28  1  0  0  0  0
 27 71  1  0  0  0  0
 28 29  1  0  0  0  0
 28 72  1  0  0  0  0
 28 73  1  0  0  0  0
 29 30  1  0  0  0  0
 29 74  1  0  0  0  0
 29 75  1  0  0  0  0
 30 31  1  0  0  0  0
 30 76  1  0  0  0  0
 30 77  1  0  0  0  0
 31 32  1  0  0  0  0
 31 78  1  0  0  0  0
 31 79  1  0  0  0  0
 32 33  1  0  0  0  0
 32 80  1  0  0  0  0
 32 81  1  0  0  0  0
 33 34  1  0  0  0  0
 33 82  1  0  0  0  0
 33 83  1  0  0  0  0
 34 35  1  0  0  0  0
 34 84  1  0  0  0  0
 34 85  1  0  0  0  0
 35 86  1  0  0  0  0
 35 87  1  0  0  0  0
 35 88  1  0  0  0  0
M  CHG  1   8  -1
M  END
$$$$
/media/chris/experiments/cd1a-new-docking/inputs/ligands/4x6e_ligand.pdb
 OpenBabel07012320273D

 88 87  0  0  1  0  0  0  0  0999 V2000
  -35.8238   59.6830   63.3400 N   0  0  0  0  0  4  0  0  0  0  0  0
  -38.2780   58.4696   69.5233 C   0  0  1  0  0  0  0  0  0  0  0  0
  -38.7527   57.1666   69.8883 O   0  0  0  0  0  0  0  0  0  0  0  0
  -35.3261   57.0408   67.1784 P   0  0  1  0  0  0  0  0  0  0  0  0
  -37.5488   58.3872   68.2028 C   0  0  0  0  0  0  0  0  0  0  0  0
  -36.4225   57.4790   68.2656 O   0  0  0  0  0  0  0  0  0  0  0  0
  -34.3741   58.7973   65.2727 C   0  0  0  0  0  0  0  0  0  0  0  0
  -36.0553   56.4159   65.9901 O   0  5  0  0  0  0  0  0  0  0  0  0
  -35.7424   59.1890   64.7725 C   0  0  0  0  0  0  0  0  0  0  0  0
  -34.4559   58.3315   66.6472 O   0  0  0  0  0  0  0  0  0  0  0  0
  -34.9619   60.8901   63.1524 C   0  0  0  0  0  0  0  0  0  0  0  0
  -34.4444   56.0171   67.7807 O   0  0  0  0  0  0  0  0  0  0  0  0
  -37.2409   60.0470   63.0404 C   0  0  0  0  0  0  0  0  0  0  0  0
  -40.4418   59.0951   68.5635 O   0  0  0  0  0  0  0  0  0  0  0  0
  -35.3730   58.6125   62.3874 C   0  0  0  0  0  0  0  0  0  0  0  0
  -39.1537   59.4138   66.7492 O   0  0  0  0  0  0  0  0  0  0  0  0
  -39.4100   59.4746   69.5007 C   0  0  0  0  0  0  0  0  0  0  0  0
  -40.2402   59.3661   67.2706 C   0  0  0  0  0  0  0  0  0  0  0  0
  -41.5470   59.5850   66.5720 C   0  0  0  0  0  0  0  0  0  0  0  0
  -42.4780   58.3810   66.6510 C   0  0  0  0  0  0  0  0  0  0  0  0
  -43.8050   58.5690   65.9360 C   0  0  0  0  0  0  0  0  0  0  0  0
  -44.7241   57.3648   66.0412 C   0  0  0  0  0  0  0  0  0  0  0  0
  -44.1117   56.1003   65.4637 C   0  0  0  0  0  0  0  0  0  0  0  0
  -45.0468   54.9156   65.5614 C   0  0  0  0  0  0  0  0  0  0  0  0
  -44.4861   53.6177   65.0163 C   0  0  0  0  0  0  0  0  0  0  0  0
  -44.1065   53.6779   63.5864 C   0  0  0  0  0  0  0  0  0  0  0  0
  -43.1448   52.9873   63.0095 C   0  0  0  0  0  0  0  0  0  0  0  0
  -42.2563   51.9694   63.6475 C   0  0  0  0  0  0  0  0  0  0  0  0
  -40.7936   52.4024   63.5349 C   0  0  0  0  0  0  0  0  0  0  0  0
  -40.4507   53.7224   64.2098 C   0  0  0  0  0  0  0  0  0  0  0  0
  -38.9951   54.1541   64.0782 C   0  0  0  0  0  0  0  0  0  0  0  0
  -38.0067   53.1499   64.6617 C   0  0  0  0  0  0  0  0  0  0  0  0
  -36.5539   53.5838   64.5481 C   0  0  0  0  0  0  0  0  0  0  0  0
  -35.5349   52.6005   65.1041 C   0  0  0  0  0  0  0  0  0  0  0  0
  -35.5720   51.2732   64.4110 C   0  0  0  0  0  0  0  0  0  0  0  0
  -37.5851   58.8175   70.2608 H   0  0  0  0  0  0  0  0  0  0  0  0
  -39.3807   56.8521   69.2192 H   0  0  0  0  0  0  0  0  0  0  0  0
  -37.1933   59.3622   67.9421 H   0  0  0  0  0  0  0  0  0  0  0  0
  -38.2330   58.0178   67.4677 H   0  0  0  0  0  0  0  0  0  0  0  0
  -33.7242   59.6460   65.2253 H   0  0  0  0  0  0  0  0  0  0  0  0
  -33.9908   58.0088   64.6593 H   0  0  0  0  0  0  0  0  0  0  0  0
  -36.3772   58.3318   64.8573 H   0  0  0  0  0  0  0  0  0  0  0  0
  -36.0371   60.0217   65.3764 H   0  0  0  0  0  0  0  0  0  0  0  0
  -35.2744   61.6598   63.8267 H   0  0  0  0  0  0  0  0  0  0  0  0
  -35.0523   61.2399   62.1453 H   0  0  0  0  0  0  0  0  0  0  0  0
  -33.9420   60.6344   63.3510 H   0  0  0  0  0  0  0  0  0  0  0  0
  -34.9799   55.2680   68.0855 H   0  0  0  0  0  0  0  0  0  0  0  0
  -37.5641   60.8096   63.7179 H   0  0  0  0  0  0  0  0  0  0  0  0
  -37.8624   59.1833   63.1527 H   0  0  0  0  0  0  0  0  0  0  0  0
  -37.3114   60.4091   62.0360 H   0  0  0  0  0  0  0  0  0  0  0  0
  -34.3578   58.3501   62.6003 H   0  0  0  0  0  0  0  0  0  0  0  0
  -35.4446   58.9754   61.3834 H   0  0  0  0  0  0  0  0  0  0  0  0
  -35.9956   57.7496   62.5001 H   0  0  0  0  0  0  0  0  0  0  0  0
  -39.0199   60.4303   69.2189 H   0  0  0  0  0  0  0  0  0  0  0  0
  -39.8438   59.5110   70.4781 H   0  0  0  0  0  0  0  0  0  0  0  0
  -41.3508   59.7963   65.5416 H   0  0  0  0  0  0  0  0  0  0  0  0
  -42.0377   60.3996   67.0625 H   0  0  0  0  0  0  0  0  0  0  0  0
  -42.6787   58.1797   67.6825 H   0  0  0  0  0  0  0  0  0  0  0  0
  -41.9769   57.5734   66.1596 H   0  0  0  0  0  0  0  0  0  0  0  0
  -43.6088   58.7562   64.9009 H   0  0  0  0  0  0  0  0  0  0  0  0
  -44.3043   59.3890   66.4084 H   0  0  0  0  0  0  0  0  0  0  0  0
  -45.6287   57.5786   65.5112 H   0  0  0  0  0  0  0  0  0  0  0  0
  -44.9036   57.1882   67.0812 H   0  0  0  0  0  0  0  0  0  0  0  0
  -43.2140   55.8759   66.0011 H   0  0  0  0  0  0  0  0  0  0  0  0
  -43.9119   56.2761   64.4273 H   0  0  0  0  0  0  0  0  0  0  0  0
  -45.9374   55.1485   65.0161 H   0  0  0  0  0  0  0  0  0  0  0  0
  -45.2208   54.7541   66.6047 H   0  0  0  0  0  0  0  0  0  0  0  0
  -45.2270   52.8549   65.1357 H   0  0  0  0  0  0  0  0  0  0  0  0
  -43.5909   53.4129   65.5654 H   0  0  0  0  0  0  0  0  0  0  0  0
  -44.6459   54.3209   62.9859 H   0  0  0  0  0  0  0  0  0  0  0  0
  -42.9874   53.1694   62.0059 H   0  0  0  0  0  0  0  0  0  0  0  0
  -42.3855   51.0285   63.1546 H   0  0  0  0  0  0  0  0  0  0  0  0
  -42.5154   51.8779   64.6816 H   0  0  0  0  0  0  0  0  0  0  0  0
  -40.5545   52.4910   62.4957 H   0  0  0  0  0  0  0  0  0  0  0  0
  -40.2241   51.6536   64.0445 H   0  0  0  0  0  0  0  0  0  0  0  0
  -40.6768   53.6310   65.2517 H   0  0  0  0  0  0  0  0  0  0  0  0
  -41.0309   54.4718   63.7132 H   0  0  0  0  0  0  0  0  0  0  0  0
  -38.8712   55.0866   64.5882 H   0  0  0  0  0  0  0  0  0  0  0  0
  -38.7837   54.2320   63.0322 H   0  0  0  0  0  0  0  0  0  0  0  0
  -38.1231   52.2212   64.1431 H   0  0  0  0  0  0  0  0  0  0  0  0
  -38.2266   53.0657   65.7055 H   0  0  0  0  0  0  0  0  0  0  0  0
  -36.4430   54.5081   65.0757 H   0  0  0  0  0  0  0  0  0  0  0  0
  -36.3495   53.6601   63.5006 H   0  0  0  0  0  0  0  0  0  0  0  0
  -35.7377   52.4491   66.1438 H   0  0  0  0  0  0  0  0  0  0  0  0
  -34.5631   53.0196   64.9466 H   0  0  0  0  0  0  0  0  0  0  0  0
  -36.5339   50.8254   64.5493 H   0  0  0  0  0  0  0  0  0  0  0  0
  -34.8187   50.6346   64.8227 H   0  0  0  0  0  0  0  0  0  0  0  0
  -35.3899   51.4116   63.3657 H   0  0  0  0  0  0  0  0  0  0  0  0
  1  9  1  0  0  0  0
  1 11  1  0  0  0  0
  1 13  1  0  0  0  0
  1 15  1  0  0  0  0
  2  3  1  0  0  0  0
  2  5  1  0  0  0  0
  2 17  1  0  0  0  0
  2 36  1  1  0  0  0
  3 37  1  0  0  0  0
  4  6  1  0  0  0  0
  4  8  2  6  0  0  0
  4 10  1  0  0  0  0
  4 12  1  0  0  0  0
  5  6  1  0  0  0  0
  5 38  1  0  0  0  0
  5 39  1  0  0  0  0
  7  9  1  0  0  0  0
  7 10  1  0  0  0  0
  7 40  1  0  0  0  0
  7 41  1  0  0  0  0
  9 42  1  0  0  0  0
  9 43  1  0  0  0  0
 11 44  1  0  0  0  0
 11 45  1  0  0  0  0
 11 46  1  0  0  0  0
 12 47  1  0  0  0  0
 13 48  1  0  0  0  0
 13 49  1  0  0  0  0
 13 50  1  0  0  0  0
 14 17  1  0  0  0  0
 14 18  1  0  0  0  0
 15 51  1  0  0  0  0
 15 52  1  0  0  0  0
 15 53  1  0  0  0  0
 16 18  2  0  0  0  0
 17 54  1  0  0  0  0
 17 55  1  0  0  0  0
 18 19  1  0  0  0  0
 19 20  1  0  0  0  0
 19 56  1  0  0  0  0
 19 57  1  0  0  0  0
 20 21  1  0  0  0  0
 20 58  1  0  0  0  0
 20 59  1  0  0  0  0
 21 22  1  0  0  0  0
 21 60  1  0  0  0  0
 21 61  1  0  0  0  0
 22 23  1  0  0  0  0
 22 62  1  0  0  0  0
 22 63  1  0  0  0  0
 23 24  1  0  0  0  0
 23 64  1  0  0  0  0
 23 65  1  0  0  0  0
 24 25  1  0  0  0  0
 24 66  1  0  0  0  0
 24 67  1  0  0  0  0
 25 26  1  0  0  0  0
 25 68  1  0  0  0  0
 25 69  1  0  0  0  0
 26 27  2  0  0  0  0
 26 70  1  0  0  0  0
 27 28  1  0  0  0  0
 27 71  1  0  0  0  0
 28 29  1  0  0  0  0
 28 72  1  0  0  0  0
 28 73  1  0  0  0  0
 29 30  1  0  0  0  0
 29 74  1  0  0  0  0
 29 75  1  0  0  0  0
 30 31  1  0  0  0  0
 30 76  1  0  0  0  0
 30 77  1  0  0  0  0
 31 32  1  0  0  0  0
 31 78  1  0  0  0  0
 31 79  1  0  0  0  0
 32 33  1  0  0  0  0
 32 80  1  0  0  0  0
 32 81  1  0  0  0  0
 33 34  1  0  0  0  0
 33 82  1  0  0  0  0
 33 83  1  0  0  0  0
 34 35  1  0  0  0  0
 34 84  1  0  0  0  0
 34 85  1  0  0  0  0
 35 86  1  0  0  0  0
 35 87  1  0  0  0  0
 35 88  1  0  0  0  0
M  CHG  1   8  -1
M  END
$$$$
/media/chris/experiments/cd1a-new-docking/inputs/ligands/4x6e_ligand.pdb
 OpenBabel07012320273D

 88 87  0  0  1  0  0  0  0  0999 V2000
  -45.2436   65.6324   74.2016 N   0  0  0  0  0  4  0  0  0  0  0  0
  -42.7720   62.5830   69.6788 C   0  0  1  0  0  0  0  0  0  0  0  0
  -43.8525   62.6209   68.7368 O   0  0  0  0  0  0  0  0  0  0  0  0
  -45.3476   64.5694   70.5245 P   0  0  1  0  0  0  0  0  0  0  0  0
  -43.3203   62.7296   71.0788 C   0  0  0  0  0  0  0  0  0  0  0  0
  -44.0440   63.9728   71.2461 O   0  0  0  0  0  0  0  0  0  0  0  0
  -46.7917   64.1009   72.8306 C   0  0  0  0  0  0  0  0  0  0  0  0
  -45.8275   63.5532   69.4895 O   0  5  0  0  0  0  0  0  0  0  0  0
  -45.6014   64.2290   73.7488 C   0  0  0  0  0  0  0  0  0  0  0  0
  -46.5603   64.8418   71.6017 O   0  0  0  0  0  0  0  0  0  0  0  0
  -44.9433   66.5024   73.0234 C   0  0  0  0  0  0  0  0  0  0  0  0
  -44.9716   65.8154   69.8214 O   0  0  0  0  0  0  0  0  0  0  0  0
  -44.0323   65.5588   75.0721 C   0  0  0  0  0  0  0  0  0  0  0  0
  -41.3570   61.2510   68.1894 O   0  0  0  0  0  0  0  0  0  0  0  0
  -46.3774   66.2406   74.9770 C   0  0  0  0  0  0  0  0  0  0  0  0
  -43.1430   61.3669   66.8296 O   0  0  0  0  0  0  0  0  0  0  0  0
  -41.9441   61.3270   69.5071 C   0  0  0  0  0  0  0  0  0  0  0  0
  -42.1287   60.8209   67.1868 C   0  0  0  0  0  0  0  0  0  0  0  0
  -41.5470   59.5850   66.5720 C   0  0  0  0  0  0  0  0  0  0  0  0
  -42.4780   58.3810   66.6510 C   0  0  0  0  0  0  0  0  0  0  0  0
  -43.8050   58.5690   65.9360 C   0  0  0  0  0  0  0  0  0  0  0  0
  -43.6578   58.8291   64.4471 C   0  0  0  0  0  0  0  0  0  0  0  0
  -42.8367   60.0699   64.1412 C   0  0  0  0  0  0  0  0  0  0  0  0
  -42.7147   60.3231   62.6551 C   0  0  0  0  0  0  0  0  0  0  0  0
  -41.8915   61.5399   62.2839 C   0  0  0  0  0  0  0  0  0  0  0  0
  -42.4097   62.8110   62.8387 C   0  0  0  0  0  0  0  0  0  0  0  0
  -42.5527   63.0987   64.1160 C   0  0  0  0  0  0  0  0  0  0  0  0
  -42.1914   62.2366   65.2818 C   0  0  0  0  0  0  0  0  0  0  0  0
  -40.7513   62.5143   65.7159 C   0  0  0  0  0  0  0  0  0  0  0  0
  -39.6913   62.2724   64.6513 C   0  0  0  0  0  0  0  0  0  0  0  0
  -39.6368   60.8496   64.1081 C   0  0  0  0  0  0  0  0  0  0  0  0
  -39.3606   59.7990   65.1787 C   0  0  0  0  0  0  0  0  0  0  0  0
  -39.2884   58.3793   64.6392 C   0  0  0  0  0  0  0  0  0  0  0  0
  -39.0309   57.2994   65.6794 C   0  0  0  0  0  0  0  0  0  0  0  0
  -38.9542   55.9273   65.0837 C   0  0  0  0  0  0  0  0  0  0  0  0
  -42.1099   63.4037   69.4969 H   0  0  0  0  0  0  0  0  0  0  0  0
  -44.4521   61.8766   68.9024 H   0  0  0  0  0  0  0  0  0  0  0  0
  -42.5068   62.7064   71.7735 H   0  0  0  0  0  0  0  0  0  0  0  0
  -44.0004   61.9227   71.2556 H   0  0  0  0  0  0  0  0  0  0  0  0
  -47.6593   64.4909   73.3204 H   0  0  0  0  0  0  0  0  0  0  0  0
  -46.9394   63.0681   72.5929 H   0  0  0  0  0  0  0  0  0  0  0  0
  -45.8014   63.6462   74.6236 H   0  0  0  0  0  0  0  0  0  0  0  0
  -44.7631   63.8945   73.1740 H   0  0  0  0  0  0  0  0  0  0  0  0
  -44.1363   66.0782   72.4633 H   0  0  0  0  0  0  0  0  0  0  0  0
  -44.6675   67.4791   73.3623 H   0  0  0  0  0  0  0  0  0  0  0  0
  -45.8111   66.5725   72.4014 H   0  0  0  0  0  0  0  0  0  0  0  0
  -44.2563   65.6290   69.1932 H   0  0  0  0  0  0  0  0  0  0  0  0
  -43.2233   65.1258   74.5217 H   0  0  0  0  0  0  0  0  0  0  0  0
  -44.2449   64.9540   75.9288 H   0  0  0  0  0  0  0  0  0  0  0  0
  -43.7608   66.5440   75.3895 H   0  0  0  0  0  0  0  0  0  0  0  0
  -47.2464   66.2943   74.3551 H   0  0  0  0  0  0  0  0  0  0  0  0
  -46.1046   67.2253   75.2944 H   0  0  0  0  0  0  0  0  0  0  0  0
  -46.5887   65.6354   75.8337 H   0  0  0  0  0  0  0  0  0  0  0  0
  -42.5727   60.4741   69.6566 H   0  0  0  0  0  0  0  0  0  0  0  0
  -41.1512   61.3491   70.2252 H   0  0  0  0  0  0  0  0  0  0  0  0
  -40.6379   59.3462   67.0832 H   0  0  0  0  0  0  0  0  0  0  0  0
  -41.3821   59.7924   65.5353 H   0  0  0  0  0  0  0  0  0  0  0  0
  -42.6787   58.1797   67.6825 H   0  0  0  0  0  0  0  0  0  0  0  0
  -41.9769   57.5734   66.1596 H   0  0  0  0  0  0  0  0  0  0  0  0
  -44.3126   59.4014   66.3769 H   0  0  0  0  0  0  0  0  0  0  0  0
  -44.3534   57.6566   66.0440 H   0  0  0  0  0  0  0  0  0  0  0  0
  -44.6329   58.9523   64.0242 H   0  0  0  0  0  0  0  0  0  0  0  0
  -43.1429   57.9916   64.0247 H   0  0  0  0  0  0  0  0  0  0  0  0
  -41.8563   59.9438   64.5508 H   0  0  0  0  0  0  0  0  0  0  0  0
  -43.3362   60.9097   64.5773 H   0  0  0  0  0  0  0  0  0  0  0  0
  -43.6996   60.4535   62.2576 H   0  0  0  0  0  0  0  0  0  0  0  0
  -42.2033   59.4769   62.2461 H   0  0  0  0  0  0  0  0  0  0  0  0
  -41.8737   61.6211   61.2171 H   0  0  0  0  0  0  0  0  0  0  0  0
  -40.9178   61.3939   62.7028 H   0  0  0  0  0  0  0  0  0  0  0  0
  -42.6846   63.5396   62.1614 H   0  0  0  0  0  0  0  0  0  0  0  0
  -42.9591   64.0214   64.3360 H   0  0  0  0  0  0  0  0  0  0  0  0
  -42.2848   61.2077   65.0032 H   0  0  0  0  0  0  0  0  0  0  0  0
  -42.8505   62.4551   66.0959 H   0  0  0  0  0  0  0  0  0  0  0  0
  -40.5306   61.8831   66.5511 H   0  0  0  0  0  0  0  0  0  0  0  0
  -40.7079   63.5589   65.9435 H   0  0  0  0  0  0  0  0  0  0  0  0
  -38.7363   62.5025   65.0755 H   0  0  0  0  0  0  0  0  0  0  0  0
  -39.9506   62.8987   63.8234 H   0  0  0  0  0  0  0  0  0  0  0  0
  -38.8602   60.7970   63.3739 H   0  0  0  0  0  0  0  0  0  0  0  0
  -40.6004   60.6331   63.6964 H   0  0  0  0  0  0  0  0  0  0  0  0
  -40.1440   59.8442   65.9061 H   0  0  0  0  0  0  0  0  0  0  0  0
  -38.4014   60.0234   65.5963 H   0  0  0  0  0  0  0  0  0  0  0  0
  -38.4980   58.3394   63.9191 H   0  0  0  0  0  0  0  0  0  0  0  0
  -40.2542   58.1698   64.2289 H   0  0  0  0  0  0  0  0  0  0  0  0
  -39.8260   57.3176   66.3953 H   0  0  0  0  0  0  0  0  0  0  0  0
  -38.0843   57.5075   66.1328 H   0  0  0  0  0  0  0  0  0  0  0  0
  -39.8882   55.6868   64.6204 H   0  0  0  0  0  0  0  0  0  0  0  0
  -38.7446   55.2151   65.8543 H   0  0  0  0  0  0  0  0  0  0  0  0
  -38.1750   55.8996   64.3510 H   0  0  0  0  0  0  0  0  0  0  0  0
  1  9  1  0  0  0  0
  1 11  1  0  0  0  0
  1 13  1  0  0  0  0
  1 15  1  0  0  0  0
  2  3  1  0  0  0  0
  2  5  1  0  0  0  0
  2 17  1  0  0  0  0
  2 36  1  6  0  0  0
  3 37  1  0  0  0  0
  4  6  1  0  0  0  0
  4  8  2  6  0  0  0
  4 10  1  0  0  0  0
  4 12  1  0  0  0  0
  5  6  1  0  0  0  0
  5 38  1  0  0  0  0
  5 39  1  0  0  0  0
  7  9  1  0  0  0  0
  7 10  1  0  0  0  0
  7 40  1  0  0  0  0
  7 41  1  0  0  0  0
  9 42  1  0  0  0  0
  9 43  1  0  0  0  0
 11 44  1  0  0  0  0
 11 45  1  0  0  0  0
 11 46  1  0  0  0  0
 12 47  1  0  0  0  0
 13 48  1  0  0  0  0
 13 49  1  0  0  0  0
 13 50  1  0  0  0  0
 14 17  1  0  0  0  0
 14 18  1  0  0  0  0
 15 51  1  0  0  0  0
 15 52  1  0  0  0  0
 15 53  1  0  0  0  0
 16 18  2  0  0  0  0
 17 54  1  0  0  0  0
 17 55  1  0  0  0  0
 18 19  1  0  0  0  0
 19 20  1  0  0  0  0
 19 56  1  0  0  0  0
 19 57  1  0  0  0  0
 20 21  1  0  0  0  0
 20 58  1  0  0  0  0
 20 59  1  0  0  0  0
 21 22  1  0  0  0  0
 21 60  1  0  0  0  0
 21 61  1  0  0  0  0
 22 23  1  0  0  0  0
 22 62  1  0  0  0  0
 22 63  1  0  0  0  0
 23 24  1  0  0  0  0
 23 64  1  0  0  0  0
 23 65  1  0  0  0  0
 24 25  1  0  0  0  0
 24 66  1  0  0  0  0
 24 67  1  0  0  0  0
 25 26  1  0  0  0  0
 25 68  1  0  0  0  0
 25 69  1  0  0  0  0
 26 27  2  0  0  0  0
 26 70  1  0  0  0  0
 27 28  1  0  0  0  0
 27 71  1  0  0  0  0
 28 29  1  0  0  0  0
 28 72  1  0  0  0  0
 28 73  1  0  0  0  0
 29 30  1  0  0  0  0
 29 74  1  0  0  0  0
 29 75  1  0  0  0  0
 30 31  1  0  0  0  0
 30 76  1  0  0  0  0
 30 77  1  0  0  0  0
 31 32  1  0  0  0  0
 31 78  1  0  0  0  0
 31 79  1  0  0  0  0
 32 33  1  0  0  0  0
 32 80  1  0  0  0  0
 32 81  1  0  0  0  0
 33 34  1  0  0  0  0
 33 82  1  0  0  0  0
 33 83  1  0  0  0  0
 34 35  1  0  0  0  0
 34 84  1  0  0  0  0
 34 85  1  0  0  0  0
 35 86  1  0  0  0  0
 35 87  1  0  0  0  0
 35 88  1  0  0  0  0
M  CHG  1   8  -1
M  END
$$$$
/media/chris/experiments/cd1a-new-docking/inputs/ligands/4x6e_ligand.pdb
 OpenBabel07012320273D

 88 87  0  0  1  0  0  0  0  0999 V2000
  -44.0358   58.6288   60.2059 N   0  0  0  0  0  4  0  0  0  0  0  0
  -39.4975   56.5952   66.0461 C   0  0  1  0  0  0  0  0  0  0  0  0
  -40.7146   55.8433   66.1450 O   0  0  0  0  0  0  0  0  0  0  0  0
  -40.0571   57.5160   62.1611 P   0  0  1  0  0  0  0  0  0  0  0  0
  -39.6136   57.5933   64.9179 C   0  0  0  0  0  0  0  0  0  0  0  0
  -39.8673   56.9437   63.6486 O   0  0  0  0  0  0  0  0  0  0  0  0
  -42.3187   59.0968   62.0644 C   0  0  0  0  0  0  0  0  0  0  0  0
  -39.5533   56.4622   61.1763 O   0  5  0  0  0  0  0  0  0  0  0  0
  -43.7668   58.9905   61.6549 C   0  0  0  0  0  0  0  0  0  0  0  0
  -41.6377   57.8332   61.8354 O   0  0  0  0  0  0  0  0  0  0  0  0
  -43.4509   57.2915   59.8826 C   0  0  0  0  0  0  0  0  0  0  0  0
  -39.2293   58.7329   62.0125 O   0  0  0  0  0  0  0  0  0  0  0  0
  -43.4024   59.6601   59.3309 C   0  0  0  0  0  0  0  0  0  0  0  0
  -40.1976   58.1437   67.8087 O   0  0  0  0  0  0  0  0  0  0  0  0
  -45.5135   58.5891   59.9387 C   0  0  0  0  0  0  0  0  0  0  0  0
  -39.3411   60.1674   67.3359 O   0  0  0  0  0  0  0  0  0  0  0  0
  -39.1529   57.2490   67.3675 C   0  0  0  0  0  0  0  0  0  0  0  0
  -40.2402   59.3661   67.2706 C   0  0  0  0  0  0  0  0  0  0  0  0
  -41.5470   59.5850   66.5720 C   0  0  0  0  0  0  0  0  0  0  0  0
  -42.4780   58.3810   66.6510 C   0  0  0  0  0  0  0  0  0  0  0  0
  -43.8050   58.5690   65.9360 C   0  0  0  0  0  0  0  0  0  0  0  0
  -44.7241   57.3648   66.0412 C   0  0  0  0  0  0  0  0  0  0  0  0
  -45.0954   57.0268   67.4749 C   0  0  0  0  0  0  0  0  0  0  0  0
  -45.9968   55.8154   67.5620 C   0  0  0  0  0  0  0  0  0  0  0  0
  -46.4170   55.4365   68.9676 C   0  0  0  0  0  0  0  0  0  0  0  0
  -45.2866   55.1276   69.8726 C   0  0  0  0  0  0  0  0  0  0  0  0
  -44.7460   53.9415   70.0616 C   0  0  0  0  0  0  0  0  0  0  0  0
  -45.1171   52.6619   69.3853 C   0  0  0  0  0  0  0  0  0  0  0  0
  -44.9083   52.7846   67.8750 C   0  0  0  0  0  0  0  0  0  0  0  0
  -45.2677   51.5479   67.0645 C   0  0  0  0  0  0  0  0  0  0  0  0
  -45.0406   51.6734   65.5628 C   0  0  0  0  0  0  0  0  0  0  0  0
  -45.4274   50.4220   64.7815 C   0  0  0  0  0  0  0  0  0  0  0  0
  -44.6664   49.1758   65.2054 C   0  0  0  0  0  0  0  0  0  0  0  0
  -45.0120   47.9088   64.4375 C   0  0  0  0  0  0  0  0  0  0  0  0
  -44.2423   46.7149   64.9126 C   0  0  0  0  0  0  0  0  0  0  0  0
  -38.6865   55.9351   65.8195 H   0  0  0  0  0  0  0  0  0  0  0  0
  -41.4491   56.4425   66.3504 H   0  0  0  0  0  0  0  0  0  0  0  0
  -38.6994   58.1448   64.8480 H   0  0  0  0  0  0  0  0  0  0  0  0
  -40.4384   58.2409   65.1305 H   0  0  0  0  0  0  0  0  0  0  0  0
  -42.2627   59.3451   63.1037 H   0  0  0  0  0  0  0  0  0  0  0  0
  -41.8459   59.8588   61.4806 H   0  0  0  0  0  0  0  0  0  0  0  0
  -44.2236   58.2413   62.2672 H   0  0  0  0  0  0  0  0  0  0  0  0
  -44.1696   59.9738   61.7807 H   0  0  0  0  0  0  0  0  0  0  0  0
  -42.3974   57.3083   60.0694 H   0  0  0  0  0  0  0  0  0  0  0  0
  -43.6266   57.0651   58.8517 H   0  0  0  0  0  0  0  0  0  0  0  0
  -43.9099   56.5439   60.4952 H   0  0  0  0  0  0  0  0  0  0  0  0
  -38.3036   58.5204   62.2094 H   0  0  0  0  0  0  0  0  0  0  0  0
  -42.3496   59.6901   59.5196 H   0  0  0  0  0  0  0  0  0  0  0  0
  -43.8299   60.6181   59.5417 H   0  0  0  0  0  0  0  0  0  0  0  0
  -43.5738   59.4111   58.3045 H   0  0  0  0  0  0  0  0  0  0  0  0
  -45.9694   57.8508   60.5646 H   0  0  0  0  0  0  0  0  0  0  0  0
  -45.6837   58.3407   58.9119 H   0  0  0  0  0  0  0  0  0  0  0  0
  -45.9398   59.5477   60.1492 H   0  0  0  0  0  0  0  0  0  0  0  0
  -38.2456   57.8045   67.2534 H   0  0  0  0  0  0  0  0  0  0  0  0
  -39.0407   56.4788   68.1018 H   0  0  0  0  0  0  0  0  0  0  0  0
  -41.3508   59.7963   65.5416 H   0  0  0  0  0  0  0  0  0  0  0  0
  -42.0377   60.3996   67.0625 H   0  0  0  0  0  0  0  0  0  0  0  0
  -42.6787   58.1797   67.6825 H   0  0  0  0  0  0  0  0  0  0  0  0
  -41.9769   57.5734   66.1596 H   0  0  0  0  0  0  0  0  0  0  0  0
  -43.6088   58.7562   64.9009 H   0  0  0  0  0  0  0  0  0  0  0  0
  -44.3043   59.3890   66.4084 H   0  0  0  0  0  0  0  0  0  0  0  0
  -44.2305   56.5199   65.6083 H   0  0  0  0  0  0  0  0  0  0  0  0
  -45.6292   57.6059   65.5239 H   0  0  0  0  0  0  0  0  0  0  0  0
  -45.6019   57.8648   67.9062 H   0  0  0  0  0  0  0  0  0  0  0  0
  -44.1925   56.8028   68.0036 H   0  0  0  0  0  0  0  0  0  0  0  0
  -45.4784   54.9831   67.1337 H   0  0  0  0  0  0  0  0  0  0  0  0
  -46.8941   56.0690   67.0372 H   0  0  0  0  0  0  0  0  0  0  0  0
  -47.0465   54.5733   68.9092 H   0  0  0  0  0  0  0  0  0  0  0  0
  -46.9195   56.2866   69.3798 H   0  0  0  0  0  0  0  0  0  0  0  0
  -44.8847   55.9151   70.4049 H   0  0  0  0  0  0  0  0  0  0  0  0
  -43.9817   53.8903   70.7532 H   0  0  0  0  0  0  0  0  0  0  0  0
  -46.1454   52.4423   69.5835 H   0  0  0  0  0  0  0  0  0  0  0  0
  -44.4972   51.8749   69.7613 H   0  0  0  0  0  0  0  0  0  0  0  0
  -43.8757   53.0048   67.7012 H   0  0  0  0  0  0  0  0  0  0  0  0
  -45.5732   53.5560   67.5469 H   0  0  0  0  0  0  0  0  0  0  0  0
  -46.3035   51.3342   67.2268 H   0  0  0  0  0  0  0  0  0  0  0  0
  -44.6153   50.7696   67.4015 H   0  0  0  0  0  0  0  0  0  0  0  0
  -44.0029   51.8714   65.3928 H   0  0  0  0  0  0  0  0  0  0  0  0
  -45.6680   52.4675   65.2153 H   0  0  0  0  0  0  0  0  0  0  0  0
  -45.2346   50.5988   63.7440 H   0  0  0  0  0  0  0  0  0  0  0  0
  -46.4628   50.2380   64.9794 H   0  0  0  0  0  0  0  0  0  0  0  0
  -44.8704   49.0005   66.2410 H   0  0  0  0  0  0  0  0  0  0  0  0
  -43.6356   49.3747   64.9984 H   0  0  0  0  0  0  0  0  0  0  0  0
  -44.7941   48.0663   63.4019 H   0  0  0  0  0  0  0  0  0  0  0  0
  -46.0506   47.7076   64.5980 H   0  0  0  0  0  0  0  0  0  0  0  0
  -43.1960   46.8837   64.7659 H   0  0  0  0  0  0  0  0  0  0  0  0
  -44.5455   45.8514   64.3582 H   0  0  0  0  0  0  0  0  0  0  0  0
  -44.4357   46.5568   65.9530 H   0  0  0  0  0  0  0  0  0  0  0  0
  1  9  1  0  0  0  0
  1 11  1  0  0  0  0
  1 13  1  0  0  0  0
  1 15  1  0  0  0  0
  2  3  1  0  0  0  0
  2  5  1  0  0  0  0
  2 17  1  0  0  0  0
  2 36  1  6  0  0  0
  3 37  1  0  0  0  0
  4  6  1  0  0  0  0
  4  8  2  6  0  0  0
  4 10  1  0  0  0  0
  4 12  1  0  0  0  0
  5  6  1  0  0  0  0
  5 38  1  0  0  0  0
  5 39  1  0  0  0  0
  7  9  1  0  0  0  0
  7 10  1  0  0  0  0
  7 40  1  0  0  0  0
  7 41  1  0  0  0  0
  9 42  1  0  0  0  0
  9 43  1  0  0  0  0
 11 44  1  0  0  0  0
 11 45  1  0  0  0  0
 11 46  1  0  0  0  0
 12 47  1  0  0  0  0
 13 48  1  0  0  0  0
 13 49  1  0  0  0  0
 13 50  1  0  0  0  0
 14 17  1  0  0  0  0
 14 18  1  0  0  0  0
 15 51  1  0  0  0  0
 15 52  1  0  0  0  0
 15 53  1  0  0  0  0
 16 18  2  0  0  0  0
 17 54  1  0  0  0  0
 17 55  1  0  0  0  0
 18 19  1  0  0  0  0
 19 20  1  0  0  0  0
 19 56  1  0  0  0  0
 19 57  1  0  0  0  0
 20 21  1  0  0  0  0
 20 58  1  0  0  0  0
 20 59  1  0  0  0  0
 21 22  1  0  0  0  0
 21 60  1  0  0  0  0
 21 61  1  0  0  0  0
 22 23  1  0  0  0  0
 22 62  1  0  0  0  0
 22 63  1  0  0  0  0
 23 24  1  0  0  0  0
 23 64  1  0  0  0  0
 23 65  1  0  0  0  0
 24 25  1  0  0  0  0
 24 66  1  0  0  0  0
 24 67  1  0  0  0  0
 25 26  1  0  0  0  0
 25 68  1  0  0  0  0
 25 69  1  0  0  0  0
 26 27  2  0  0  0  0
 26 70  1  0  0  0  0
 27 28  1  0  0  0  0
 27 71  1  0  0  0  0
 28 29  1  0  0  0  0
 28 72  1  0  0  0  0
 28 73  1  0  0  0  0
 29 30  1  0  0  0  0
 29 74  1  0  0  0  0
 29 75  1  0  0  0  0
 30 31  1  0  0  0  0
 30 76  1  0  0  0  0
 30 77  1  0  0  0  0
 31 32  1  0  0  0  0
 31 78  1  0  0  0  0
 31 79  1  0  0  0  0
 32 33  1  0  0  0  0
 32 80  1  0  0  0  0
 32 81  1  0  0  0  0
 33 34  1  0  0  0  0
 33 82  1  0  0  0  0
 33 83  1  0  0  0  0
 34 35  1  0  0  0  0
 34 84  1  0  0  0  0
 34 85  1  0  0  0  0
 35 86  1  0  0  0  0
 35 87  1  0  0  0  0
 35 88  1  0  0  0  0
M  CHG  1   8  -1
M  END
$$$$
/media/chris/experiments/cd1a-new-docking/inputs/ligands/4x6e_ligand.pdb
 OpenBabel07012320273D

 88 87  0  0  1  0  0  0  0  0999 V2000
  -41.9840   52.4327   72.7613 N   0  0  0  0  0  4  0  0  0  0  0  0
  -40.7031   56.2281   68.6419 C   0  0  1  0  0  0  0  0  0  0  0  0
  -42.0642   56.6699   68.5484 O   0  0  0  0  0  0  0  0  0  0  0  0
  -41.5469   53.0115   69.0487 P   0  0  1  0  0  0  0  0  0  0  0  0
  -40.4542   55.1465   67.6169 C   0  0  0  0  0  0  0  0  0  0  0  0
  -41.3301   54.0095   67.8106 O   0  0  0  0  0  0  0  0  0  0  0  0
  -42.4913   54.4304   71.2207 C   0  0  0  0  0  0  0  0  0  0  0  0
  -40.2279   52.9044   69.8122 O   0  5  0  0  0  0  0  0  0  0  0  0
  -41.5485   53.7726   72.1977 C   0  0  0  0  0  0  0  0  0  0  0  0
  -42.7085   53.5659   70.0725 O   0  0  0  0  0  0  0  0  0  0  0  0
  -43.2873   52.5660   73.4816 C   0  0  0  0  0  0  0  0  0  0  0  0
  -41.8963   51.6736   68.5231 O   0  0  0  0  0  0  0  0  0  0  0  0
  -40.9442   51.9586   73.7228 C   0  0  0  0  0  0  0  0  0  0  0  0
  -39.9068   58.0724   67.2423 O   0  0  0  0  0  0  0  0  0  0  0  0
  -42.1399   51.4236   71.6595 C   0  0  0  0  0  0  0  0  0  0  0  0
  -39.5686   60.2284   67.7807 O   0  0  0  0  0  0  0  0  0  0  0  0
  -39.7430   57.3907   68.5053 C   0  0  0  0  0  0  0  0  0  0  0  0
  -40.2402   59.3661   67.2706 C   0  0  0  0  0  0  0  0  0  0  0  0
  -41.5470   59.5850   66.5720 C   0  0  0  0  0  0  0  0  0  0  0  0
  -42.4780   58.3810   66.6510 C   0  0  0  0  0  0  0  0  0  0  0  0
  -43.8050   58.5690   65.9360 C   0  0  0  0  0  0  0  0  0  0  0  0
  -44.7241   57.3648   66.0412 C   0  0  0  0  0  0  0  0  0  0  0  0
  -45.0954   57.0268   67.4749 C   0  0  0  0  0  0  0  0  0  0  0  0
  -45.9968   55.8154   67.5620 C   0  0  0  0  0  0  0  0  0  0  0  0
  -45.3981   54.5376   67.0099 C   0  0  0  0  0  0  0  0  0  0  0  0
  -44.1629   54.1026   67.7007 C   0  0  0  0  0  0  0  0  0  0  0  0
  -43.9888   52.9601   68.3324 C   0  0  0  0  0  0  0  0  0  0  0  0
  -44.9695   51.8401   68.4600 C   0  0  0  0  0  0  0  0  0  0  0  0
  -45.8240   52.0286   69.7145 C   0  0  0  0  0  0  0  0  0  0  0  0
  -46.8565   50.9403   69.9698 C   0  0  0  0  0  0  0  0  0  0  0  0
  -47.7144   51.1451   71.2125 C   0  0  0  0  0  0  0  0  0  0  0  0
  -46.9068   51.2263   72.5037 C   0  0  0  0  0  0  0  0  0  0  0  0
  -47.7595   51.4136   73.7486 C   0  0  0  0  0  0  0  0  0  0  0  0
  -46.9892   51.5161   75.0564 C   0  0  0  0  0  0  0  0  0  0  0  0
  -46.0467   52.6799   75.0843 C   0  0  0  0  0  0  0  0  0  0  0  0
  -40.5286   55.8096   69.6111 H   0  0  0  0  0  0  0  0  0  0  0  0
  -42.2214   57.0491   67.6695 H   0  0  0  0  0  0  0  0  0  0  0  0
  -39.4388   54.8193   67.6985 H   0  0  0  0  0  0  0  0  0  0  0  0
  -40.6500   55.5556   66.6478 H   0  0  0  0  0  0  0  0  0  0  0  0
  -42.0689   55.3565   70.8909 H   0  0  0  0  0  0  0  0  0  0  0  0
  -43.4283   54.6082   71.7058 H   0  0  0  0  0  0  0  0  0  0  0  0
  -40.6131   53.6270   71.6990 H   0  0  0  0  0  0  0  0  0  0  0  0
  -41.5058   54.4331   73.0385 H   0  0  0  0  0  0  0  0  0  0  0  0
  -43.1877   53.2831   74.2694 H   0  0  0  0  0  0  0  0  0  0  0  0
  -43.5651   51.6187   73.8945 H   0  0  0  0  0  0  0  0  0  0  0  0
  -44.0418   52.8915   72.7963 H   0  0  0  0  0  0  0  0  0  0  0  0
  -41.1974   51.3691   67.9233 H   0  0  0  0  0  0  0  0  0  0  0  0
  -40.8315   52.6760   74.5086 H   0  0  0  0  0  0  0  0  0  0  0  0
  -40.0120   51.8410   73.2108 H   0  0  0  0  0  0  0  0  0  0  0  0
  -41.2441   51.0191   74.1379 H   0  0  0  0  0  0  0  0  0  0  0  0
  -42.8845   51.7613   70.9693 H   0  0  0  0  0  0  0  0  0  0  0  0
  -42.4391   50.4844   72.0758 H   0  0  0  0  0  0  0  0  0  0  0  0
  -41.2070   51.3063   71.1487 H   0  0  0  0  0  0  0  0  0  0  0  0
  -38.7406   57.0226   68.5734 H   0  0  0  0  0  0  0  0  0  0  0  0
  -39.9491   58.0880   69.2903 H   0  0  0  0  0  0  0  0  0  0  0  0
  -41.3508   59.7963   65.5416 H   0  0  0  0  0  0  0  0  0  0  0  0
  -42.0377   60.3996   67.0625 H   0  0  0  0  0  0  0  0  0  0  0  0
  -42.6787   58.1797   67.6825 H   0  0  0  0  0  0  0  0  0  0  0  0
  -41.9769   57.5734   66.1596 H   0  0  0  0  0  0  0  0  0  0  0  0
  -43.6088   58.7562   64.9009 H   0  0  0  0  0  0  0  0  0  0  0  0
  -44.3043   59.3890   66.4084 H   0  0  0  0  0  0  0  0  0  0  0  0
  -44.2305   56.5199   65.6083 H   0  0  0  0  0  0  0  0  0  0  0  0
  -45.6292   57.6059   65.5239 H   0  0  0  0  0  0  0  0  0  0  0  0
  -45.6019   57.8648   67.9062 H   0  0  0  0  0  0  0  0  0  0  0  0
  -44.1925   56.8028   68.0036 H   0  0  0  0  0  0  0  0  0  0  0  0
  -46.8922   56.0267   67.0158 H   0  0  0  0  0  0  0  0  0  0  0  0
  -46.1690   55.6421   68.6037 H   0  0  0  0  0  0  0  0  0  0  0  0
  -45.1686   54.6929   65.9765 H   0  0  0  0  0  0  0  0  0  0  0  0
  -46.1242   53.7661   67.1599 H   0  0  0  0  0  0  0  0  0  0  0  0
  -43.3638   54.7555   67.6857 H   0  0  0  0  0  0  0  0  0  0  0  0
  -43.0739   52.8234   68.7899 H   0  0  0  0  0  0  0  0  0  0  0  0
  -44.4404   50.9126   68.5284 H   0  0  0  0  0  0  0  0  0  0  0  0
  -45.6068   51.8336   67.6005 H   0  0  0  0  0  0  0  0  0  0  0  0
  -46.3419   52.9606   69.6244 H   0  0  0  0  0  0  0  0  0  0  0  0
  -45.1460   51.9920   70.5415 H   0  0  0  0  0  0  0  0  0  0  0  0
  -46.3390   50.0096   70.0734 H   0  0  0  0  0  0  0  0  0  0  0  0
  -47.5272   50.9632   69.1364 H   0  0  0  0  0  0  0  0  0  0  0  0
  -48.3972   50.3250   71.2913 H   0  0  0  0  0  0  0  0  0  0  0  0
  -48.2171   52.0825   71.0965 H   0  0  0  0  0  0  0  0  0  0  0  0
  -46.2327   52.0538   72.4287 H   0  0  0  0  0  0  0  0  0  0  0  0
  -46.3968   50.2920   72.6123 H   0  0  0  0  0  0  0  0  0  0  0  0
  -48.4249   50.5789   73.8217 H   0  0  0  0  0  0  0  0  0  0  0  0
  -48.2592   52.3517   73.6258 H   0  0  0  0  0  0  0  0  0  0  0  0
  -46.4261   50.6166   75.1932 H   0  0  0  0  0  0  0  0  0  0  0  0
  -47.7028   51.6603   75.8406 H   0  0  0  0  0  0  0  0  0  0  0  0
  -45.3172   52.5668   74.3097 H   0  0  0  0  0  0  0  0  0  0  0  0
  -45.5553   52.7183   76.0341 H   0  0  0  0  0  0  0  0  0  0  0  0
  -46.5941   53.5861   74.9291 H   0  0  0  0  0  0  0  0  0  0  0  0
  1  9  1  0  0  0  0
  1 11  1  0  0  0  0
  1 13  1  0  0  0  0
  1 15  1  0  0  0  0
  2  3  1  0  0  0  0
  2  5  1  0  0  0  0
  2 17  1  0  0  0  0
  2 36  1  1  0  0  0
  3 37  1  0  0  0  0
  4  6  1  0  0  0  0
  4  8  2  1  0  0  0
  4 10  1  0  0  0  0
  4 12  1  0  0  0  0
  5  6  1  0  0  0  0
  5 38  1  0  0  0  0
  5 39  1  0  0  0  0
  7  9  1  0  0  0  0
  7 10  1  0  0  0  0
  7 40  1  0  0  0  0
  7 41  1  0  0  0  0
  9 42  1  0  0  0  0
  9 43  1  0  0  0  0
 11 44  1  0  0  0  0
 11 45  1  0  0  0  0
 11 46  1  0  0  0  0
 12 47  1  0  0  0  0
 13 48  1  0  0  0  0
 13 49  1  0  0  0  0
 13 50  1  0  0  0  0
 14 17  1  0  0  0  0
 14 18  1  0  0  0  0
 15 51  1  0  0  0  0
 15 52  1  0  0  0  0
 15 53  1  0  0  0  0
 16 18  2  0  0  0  0
 17 54  1  0  0  0  0
 17 55  1  0  0  0  0
 18 19  1  0  0  0  0
 19 20  1  0  0  0  0
 19 56  1  0  0  0  0
 19 57  1  0  0  0  0
 20 21  1  0  0  0  0
 20 58  1  0  0  0  0
 20 59  1  0  0  0  0
 21 22  1  0  0  0  0
 21 60  1  0  0  0  0
 21 61  1  0  0  0  0
 22 23  1  0  0  0  0
 22 62  1  0  0  0  0
 22 63  1  0  0  0  0
 23 24  1  0  0  0  0
 23 64  1  0  0  0  0
 23 65  1  0  0  0  0
 24 25  1  0  0  0  0
 24 66  1  0  0  0  0
 24 67  1  0  0  0  0
 25 26  1  0  0  0  0
 25 68  1  0  0  0  0
 25 69  1  0  0  0  0
 26 27  2  0  0  0  0
 26 70  1  0  0  0  0
 27 28  1  0  0  0  0
 27 71  1  0  0  0  0
 28 29  1  0  0  0  0
 28 72  1  0  0  0  0
 28 73  1  0  0  0  0
 29 30  1  0  0  0  0
 29 74  1  0  0  0  0
 29 75  1  0  0  0  0
 30 31  1  0  0  0  0
 30 76  1  0  0  0  0
 30 77  1  0  0  0  0
 31 32  1  0  0  0  0
 31 78  1  0  0  0  0
 31 79  1  0  0  0  0
 32 33  1  0  0  0  0
 32 80  1  0  0  0  0
 32 81  1  0  0  0  0
 33 34  1  0  0  0  0
 33 82  1  0  0  0  0
 33 83  1  0  0  0  0
 34 35  1  0  0  0  0
 34 84  1  0  0  0  0
 34 85  1  0  0  0  0
 35 86  1  0  0  0  0
 35 87  1  0  0  0  0
 35 88  1  0  0  0  0
M  CHG  1   8  -1
M  END
$$$$
/media/chris/experiments/cd1a-new-docking/inputs/ligands/4x6e_ligand.pdb
 OpenBabel07012320273D

 88 87  0  0  1  0  0  0  0  0999 V2000
  -39.8861   61.5079   63.2064 N   0  0  0  0  0  4  0  0  0  0  0  0
  -39.1270   57.1462   65.6942 C   0  0  1  0  0  0  0  0  0  0  0  0
  -40.1770   56.7678   66.5946 O   0  0  0  0  0  0  0  0  0  0  0  0
  -38.7493   58.1314   61.8032 P   0  0  1  0  0  0  0  0  0  0  0  0
  -39.7060   57.3877   64.3199 C   0  0  0  0  0  0  0  0  0  0  0  0
  -38.6842   57.7582   63.3628 O   0  0  0  0  0  0  0  0  0  0  0  0
  -38.9549   60.7435   60.9326 C   0  0  0  0  0  0  0  0  0  0  0  0
  -40.2067   58.0475   61.3526 O   0  5  0  0  0  0  0  0  0  0  0  0
  -40.1603   61.0614   61.7822 C   0  0  0  0  0  0  0  0  0  0  0  0
  -38.1954   59.6549   61.5252 O   0  0  0  0  0  0  0  0  0  0  0  0
  -39.0743   62.7633   63.2147 C   0  0  0  0  0  0  0  0  0  0  0  0
  -37.9639   57.1338   61.0441 O   0  0  0  0  0  0  0  0  0  0  0  0
  -39.1227   60.4314   63.9055 C   0  0  0  0  0  0  0  0  0  0  0  0
  -39.2251   59.4857   66.4098 O   0  0  0  0  0  0  0  0  0  0  0  0
  -41.1746   61.7588   63.9368 C   0  0  0  0  0  0  0  0  0  0  0  0
  -40.1085   59.1264   68.4453 O   0  0  0  0  0  0  0  0  0  0  0  0
  -38.3627   58.3421   66.2215 C   0  0  0  0  0  0  0  0  0  0  0  0
  -40.2402   59.3661   67.2706 C   0  0  0  0  0  0  0  0  0  0  0  0
  -41.5470   59.5850   66.5720 C   0  0  0  0  0  0  0  0  0  0  0  0
  -42.4780   58.3810   66.6510 C   0  0  0  0  0  0  0  0  0  0  0  0
  -43.8050   58.5690   65.9360 C   0  0  0  0  0  0  0  0  0  0  0  0
  -43.6578   58.8291   64.4471 C   0  0  0  0  0  0  0  0  0  0  0  0
  -44.9905   59.0322   63.7470 C   0  0  0  0  0  0  0  0  0  0  0  0
  -45.9012   57.8334   63.8917 C   0  0  0  0  0  0  0  0  0  0  0  0
  -45.3401   56.5393   63.3382 C   0  0  0  0  0  0  0  0  0  0  0  0
  -45.0161   56.5910   61.8944 C   0  0  0  0  0  0  0  0  0  0  0  0
  -44.0655   55.9103   61.2879 C   0  0  0  0  0  0  0  0  0  0  0  0
  -43.1365   54.9137   61.9013 C   0  0  0  0  0  0  0  0  0  0  0  0
  -43.7413   53.5111   61.8210 C   0  0  0  0  0  0  0  0  0  0  0  0
  -45.0839   53.3391   62.5162 C   0  0  0  0  0  0  0  0  0  0  0  0
  -45.0805   53.6460   64.0088 C   0  0  0  0  0  0  0  0  0  0  0  0
  -44.1143   52.7769   64.8072 C   0  0  0  0  0  0  0  0  0  0  0  0
  -44.1194   53.0675   66.2996 C   0  0  0  0  0  0  0  0  0  0  0  0
  -43.1560   52.2321   67.1293 C   0  0  0  0  0  0  0  0  0  0  0  0
  -43.2206   52.5535   68.5908 C   0  0  0  0  0  0  0  0  0  0  0  0
  -38.4172   56.3492   65.6171 H   0  0  0  0  0  0  0  0  0  0  0  0
  -40.8198   57.4909   66.6638 H   0  0  0  0  0  0  0  0  0  0  0  0
  -40.4257   58.1771   64.3811 H   0  0  0  0  0  0  0  0  0  0  0  0
  -40.1600   56.4781   63.9860 H   0  0  0  0  0  0  0  0  0  0  0  0
  -38.3329   61.6113   60.8629 H   0  0  0  0  0  0  0  0  0  0  0  0
  -39.2829   60.4497   59.9574 H   0  0  0  0  0  0  0  0  0  0  0  0
  -40.7041   61.8438   61.2953 H   0  0  0  0  0  0  0  0  0  0  0  0
  -40.6944   60.1386   61.8726 H   0  0  0  0  0  0  0  0  0  0  0  0
  -38.1533   62.5958   62.6965 H   0  0  0  0  0  0  0  0  0  0  0  0
  -38.8683   63.0481   64.2253 H   0  0  0  0  0  0  0  0  0  0  0  0
  -39.6204   63.5444   62.7282 H   0  0  0  0  0  0  0  0  0  0  0  0
  -38.3091   56.2454   61.2244 H   0  0  0  0  0  0  0  0  0  0  0  0
  -38.2044   60.2510   63.3868 H   0  0  0  0  0  0  0  0  0  0  0  0
  -39.7053   59.5341   63.9219 H   0  0  0  0  0  0  0  0  0  0  0  0
  -38.9114   60.7379   64.9086 H   0  0  0  0  0  0  0  0  0  0  0  0
  -41.7233   62.5298   63.4376 H   0  0  0  0  0  0  0  0  0  0  0  0
  -40.9621   62.0645   64.9400 H   0  0  0  0  0  0  0  0  0  0  0  0
  -41.7560   60.8607   63.9532 H   0  0  0  0  0  0  0  0  0  0  0  0
  -37.5944   58.5985   65.5223 H   0  0  0  0  0  0  0  0  0  0  0  0
  -37.9447   58.0792   67.1707 H   0  0  0  0  0  0  0  0  0  0  0  0
  -41.3508   59.7963   65.5416 H   0  0  0  0  0  0  0  0  0  0  0  0
  -42.0377   60.3996   67.0625 H   0  0  0  0  0  0  0  0  0  0  0  0
  -42.6787   58.1797   67.6825 H   0  0  0  0  0  0  0  0  0  0  0  0
  -41.9769   57.5734   66.1596 H   0  0  0  0  0  0  0  0  0  0  0  0
  -44.3126   59.4014   66.3769 H   0  0  0  0  0  0  0  0  0  0  0  0
  -44.3534   57.6566   66.0440 H   0  0  0  0  0  0  0  0  0  0  0  0
  -43.1625   57.9917   64.0018 H   0  0  0  0  0  0  0  0  0  0  0  0
  -43.0949   59.7319   64.3334 H   0  0  0  0  0  0  0  0  0  0  0  0
  -44.8102   59.2042   62.7064 H   0  0  0  0  0  0  0  0  0  0  0  0
  -45.4760   59.8700   64.2022 H   0  0  0  0  0  0  0  0  0  0  0  0
  -46.8157   58.0461   63.3786 H   0  0  0  0  0  0  0  0  0  0  0  0
  -46.0328   57.6799   64.9424 H   0  0  0  0  0  0  0  0  0  0  0  0
  -46.0630   55.7658   63.4931 H   0  0  0  0  0  0  0  0  0  0  0  0
  -44.4214   56.3548   63.8547 H   0  0  0  0  0  0  0  0  0  0  0  0
  -45.5885   57.2189   61.3086 H   0  0  0  0  0  0  0  0  0  0  0  0
  -43.9495   56.0847   60.2773 H   0  0  0  0  0  0  0  0  0  0  0  0
  -42.9708   55.1692   62.9270 H   0  0  0  0  0  0  0  0  0  0  0  0
  -42.2089   54.9257   61.3681 H   0  0  0  0  0  0  0  0  0  0  0  0
  -43.0491   52.8270   62.2658 H   0  0  0  0  0  0  0  0  0  0  0  0
  -43.9209   53.3261   60.7825 H   0  0  0  0  0  0  0  0  0  0  0  0
  -45.3972   52.3242   62.3867 H   0  0  0  0  0  0  0  0  0  0  0  0
  -45.7465   54.0490   62.0666 H   0  0  0  0  0  0  0  0  0  0  0  0
  -46.0686   53.4905   64.3887 H   0  0  0  0  0  0  0  0  0  0  0  0
  -44.7571   54.6598   64.1206 H   0  0  0  0  0  0  0  0  0  0  0  0
  -43.1250   52.9419   64.4345 H   0  0  0  0  0  0  0  0  0  0  0  0
  -44.4332   51.7628   64.6855 H   0  0  0  0  0  0  0  0  0  0  0  0
  -45.1091   52.8924   66.6668 H   0  0  0  0  0  0  0  0  0  0  0  0
  -43.7959   54.0820   66.4040 H   0  0  0  0  0  0  0  0  0  0  0  0
  -42.1601   52.4137   66.7828 H   0  0  0  0  0  0  0  0  0  0  0  0
  -43.4357   51.2059   67.0121 H   0  0  0  0  0  0  0  0  0  0  0  0
  -42.9457   53.5762   68.7435 H   0  0  0  0  0  0  0  0  0  0  0  0
  -42.5452   51.9189   69.1257 H   0  0  0  0  0  0  0  0  0  0  0  0
  -44.2169   52.3949   68.9472 H   0  0  0  0  0  0  0  0  0  0  0  0
  1  9  1  0  0  0  0
  1 11  1  0  0  0  0
  1 13  1  0  0  0  0
  1 15  1  0  0  0  0
  2  3  1  0  0  0  0
  2  5  1  0  0  0  0
  2 17  1  0  0  0  0
  2 36  1  6  0  0  0
  3 37  1  0  0  0  0
  4  6  1  0  0  0  0
  4  8  2  6  0  0  0
  4 10  1  0  0  0  0
  4 12  1  0  0  0  0
  5  6  1  0  0  0  0
  5 38  1  0  0  0  0
  5 39  1  0  0  0  0
  7  9  1  0  0  0  0
  7 10  1  0  0  0  0
  7 40  1  0  0  0  0
  7 41  1  0  0  0  0
  9 42  1  0  0  0  0
  9 43  1  0  0  0  0
 11 44  1  0  0  0  0
 11 45  1  0  0  0  0
 11 46  1  0  0  0  0
 12 47  1  0  0  0  0
 13 48  1  0  0  0  0
 13 49  1  0  0  0  0
 13 50  1  0  0  0  0
 14 17  1  0  0  0  0
 14 18  1  0  0  0  0
 15 51  1  0  0  0  0
 15 52  1  0  0  0  0
 15 53  1  0  0  0  0
 16 18  2  0  0  0  0
 17 54  1  0  0  0  0
 17 55  1  0  0  0  0
 18 19  1  0  0  0  0
 19 20  1  0  0  0  0
 19 56  1  0  0  0  0
 19 57  1  0  0  0  0
 20 21  1  0  0  0  0
 20 58  1  0  0  0  0
 20 59  1  0  0  0  0
 21 22  1  0  0  0  0
 21 60  1  0  0  0  0
 21 61  1  0  0  0  0
 22 23  1  0  0  0  0
 22 62  1  0  0  0  0
 22 63  1  0  0  0  0
 23 24  1  0  0  0  0
 23 64  1  0  0  0  0
 23 65  1  0  0  0  0
 24 25  1  0  0  0  0
 24 66  1  0  0  0  0
 24 67  1  0  0  0  0
 25 26  1  0  0  0  0
 25 68  1  0  0  0  0
 25 69  1  0  0  0  0
 26 27  2  0  0  0  0
 26 70  1  0  0  0  0
 27 28  1  0  0  0  0
 27 71  1  0  0  0  0
 28 29  1  0  0  0  0
 28 72  1  0  0  0  0
 28 73  1  0  0  0  0
 29 30  1  0  0  0  0
 29 74  1  0  0  0  0
 29 75  1  0  0  0  0
 30 31  1  0  0  0  0
 30 76  1  0  0  0  0
 30 77  1  0  0  0  0
 31 32  1  0  0  0  0
 31 78  1  0  0  0  0
 31 79  1  0  0  0  0
 32 33  1  0  0  0  0
 32 80  1  0  0  0  0
 32 81  1  0  0  0  0
 33 34  1  0  0  0  0
 33 82  1  0  0  0  0
 33 83  1  0  0  0  0
 34 35  1  0  0  0  0
 34 84  1  0  0  0  0
 34 85  1  0  0  0  0
 35 86  1  0  0  0  0
 35 87  1  0  0  0  0
 35 88  1  0  0  0  0
M  CHG  1   8  -1
M  END
$$$$
/media/chris/experiments/cd1a-new-docking/inputs/ligands/4x6e_ligand.pdb
 OpenBabel07012320273D

 88 87  0  0  1  0  0  0  0  0999 V2000
  -40.5985   68.2840   70.2976 N   0  0  0  0  0  4  0  0  0  0  0  0
  -42.7041   62.2580   70.2764 C   0  0  1  0  0  0  0  0  0  0  0  0
  -42.0275   63.1112   71.2095 O   0  0  0  0  0  0  0  0  0  0  0  0
  -44.5059   64.8555   71.4172 P   0  0  1  0  0  0  0  0  0  0  0  0
  -43.6499   63.0829   69.4354 C   0  0  0  0  0  0  0  0  0  0  0  0
  -44.6366   63.7648   70.2471 O   0  0  0  0  0  0  0  0  0  0  0  0
  -42.3411   66.4931   70.9119 C   0  0  0  0  0  0  0  0  0  0  0  0
  -43.6660   64.2514   72.5413 O   0  5  0  0  0  0  0  0  0  0  0  0
  -42.0557   67.8639   70.3502 C   0  0  0  0  0  0  0  0  0  0  0  0
  -43.7697   66.2259   70.8832 O   0  0  0  0  0  0  0  0  0  0  0  0
  -40.4711   69.6641   69.7371 C   0  0  0  0  0  0  0  0  0  0  0  0
  -45.8565   65.1489   71.9445 O   0  0  0  0  0  0  0  0  0  0  0  0
  -39.8587   67.3319   69.4164 C   0  0  0  0  0  0  0  0  0  0  0  0
  -42.3828   60.6219   68.4835 O   0  0  0  0  0  0  0  0  0  0  0  0
  -39.9940   68.2615   71.6726 C   0  0  0  0  0  0  0  0  0  0  0  0
  -42.3332   61.8587   66.6072 O   0  0  0  0  0  0  0  0  0  0  0  0
  -41.7151   61.4742   69.4398 C   0  0  0  0  0  0  0  0  0  0  0  0
  -42.1287   60.8209   67.1868 C   0  0  0  0  0  0  0  0  0  0  0  0
  -41.5470   59.5850   66.5720 C   0  0  0  0  0  0  0  0  0  0  0  0
  -42.4780   58.3810   66.6510 C   0  0  0  0  0  0  0  0  0  0  0  0
  -43.8050   58.5690   65.9360 C   0  0  0  0  0  0  0  0  0  0  0  0
  -43.6578   58.8291   64.4471 C   0  0  0  0  0  0  0  0  0  0  0  0
  -44.9905   59.0322   63.7470 C   0  0  0  0  0  0  0  0  0  0  0  0
  -44.8261   59.2729   62.2629 C   0  0  0  0  0  0  0  0  0  0  0  0
  -43.9862   60.4821   61.9050 C   0  0  0  0  0  0  0  0  0  0  0  0
  -43.8495   60.7121   60.4488 C   0  0  0  0  0  0  0  0  0  0  0  0
  -43.6989   61.8799   59.8586 C   0  0  0  0  0  0  0  0  0  0  0  0
  -43.5917   63.2171   60.5167 C   0  0  0  0  0  0  0  0  0  0  0  0
  -42.1265   63.5435   60.8105 C   0  0  0  0  0  0  0  0  0  0  0  0
  -41.8812   64.8781   61.4990 C   0  0  0  0  0  0  0  0  0  0  0  0
  -42.3766   66.0988   60.7331 C   0  0  0  0  0  0  0  0  0  0  0  0
  -43.8810   66.0914   60.4823 C   0  0  0  0  0  0  0  0  0  0  0  0
  -44.7138   66.0777   61.7543 C   0  0  0  0  0  0  0  0  0  0  0  0
  -44.5151   67.2716   62.6760 C   0  0  0  0  0  0  0  0  0  0  0  0
  -45.3494   67.1908   63.9173 C   0  0  0  0  0  0  0  0  0  0  0  0
  -43.2838   61.5336   70.8093 H   0  0  0  0  0  0  0  0  0  0  0  0
  -41.5022   63.7675   70.7255 H   0  0  0  0  0  0  0  0  0  0  0  0
  -44.1541   62.4372   68.7471 H   0  0  0  0  0  0  0  0  0  0  0  0
  -43.0756   63.8232   68.9186 H   0  0  0  0  0  0  0  0  0  0  0  0
  -41.9930   66.4457   71.9225 H   0  0  0  0  0  0  0  0  0  0  0  0
  -41.8371   65.7603   70.3169 H   0  0  0  0  0  0  0  0  0  0  0  0
  -42.4384   67.8922   69.3514 H   0  0  0  0  0  0  0  0  0  0  0  0
  -42.5239   68.5496   71.0252 H   0  0  0  0  0  0  0  0  0  0  0  0
  -40.8989   69.6918   68.7567 H   0  0  0  0  0  0  0  0  0  0  0  0
  -39.4368   69.9329   69.6826 H   0  0  0  0  0  0  0  0  0  0  0  0
  -40.9864   70.3554   70.3707 H   0  0  0  0  0  0  0  0  0  0  0  0
  -46.2690   64.3267   72.2525 H   0  0  0  0  0  0  0  0  0  0  0  0
  -40.2877   67.3463   68.4362 H   0  0  0  0  0  0  0  0  0  0  0  0
  -39.9278   66.3439   69.8214 H   0  0  0  0  0  0  0  0  0  0  0  0
  -38.8307   67.6233   69.3601 H   0  0  0  0  0  0  0  0  0  0  0  0
  -40.5226   68.9430   72.3059 H   0  0  0  0  0  0  0  0  0  0  0  0
  -38.9659   68.5523   71.6151 H   0  0  0  0  0  0  0  0  0  0  0  0
  -40.0630   67.2730   72.0764 H   0  0  0  0  0  0  0  0  0  0  0  0
  -41.1173   60.8673   70.0873 H   0  0  0  0  0  0  0  0  0  0  0  0
  -41.1086   62.1709   68.8998 H   0  0  0  0  0  0  0  0  0  0  0  0
  -40.6379   59.3462   67.0832 H   0  0  0  0  0  0  0  0  0  0  0  0
  -41.3821   59.7924   65.5353 H   0  0  0  0  0  0  0  0  0  0  0  0
  -42.6787   58.1797   67.6825 H   0  0  0  0  0  0  0  0  0  0  0  0
  -41.9769   57.5734   66.1596 H   0  0  0  0  0  0  0  0  0  0  0  0
  -44.3126   59.4014   66.3769 H   0  0  0  0  0  0  0  0  0  0  0  0
  -44.3534   57.6566   66.0440 H   0  0  0  0  0  0  0  0  0  0  0  0
  -43.1625   57.9917   64.0018 H   0  0  0  0  0  0  0  0  0  0  0  0
  -43.0949   59.7319   64.3334 H   0  0  0  0  0  0  0  0  0  0  0  0
  -45.4820   59.8778   64.1807 H   0  0  0  0  0  0  0  0  0  0  0  0
  -45.5667   58.1394   63.8729 H   0  0  0  0  0  0  0  0  0  0  0  0
  -45.7989   59.4053   61.8373 H   0  0  0  0  0  0  0  0  0  0  0  0
  -44.3083   58.4207   61.8748 H   0  0  0  0  0  0  0  0  0  0  0  0
  -43.0082   60.3462   62.3172 H   0  0  0  0  0  0  0  0  0  0  0  0
  -44.4882   61.3372   62.3072 H   0  0  0  0  0  0  0  0  0  0  0  0
  -43.8746   59.8797   59.8393 H   0  0  0  0  0  0  0  0  0  0  0  0
  -43.6495   61.8704   58.8279 H   0  0  0  0  0  0  0  0  0  0  0  0
  -44.1422   63.2050   61.4342 H   0  0  0  0  0  0  0  0  0  0  0  0
  -43.9915   63.9625   59.8615 H   0  0  0  0  0  0  0  0  0  0  0  0
  -41.5966   63.5492   59.8809 H   0  0  0  0  0  0  0  0  0  0  0  0
  -41.7880   62.7925   61.4934 H   0  0  0  0  0  0  0  0  0  0  0  0
  -40.8272   64.9855   61.6488 H   0  0  0  0  0  0  0  0  0  0  0  0
  -42.4395   64.8509   62.4114 H   0  0  0  0  0  0  0  0  0  0  0  0
  -41.8760   66.1316   59.7879 H   0  0  0  0  0  0  0  0  0  0  0  0
  -42.1626   66.9565   61.3360 H   0  0  0  0  0  0  0  0  0  0  0  0
  -44.1236   65.2202   59.9104 H   0  0  0  0  0  0  0  0  0  0  0  0
  -44.1158   66.9983   59.9652 H   0  0  0  0  0  0  0  0  0  0  0  0
  -44.4656   65.1926   62.3020 H   0  0  0  0  0  0  0  0  0  0  0  0
  -45.7355   66.1150   61.4387 H   0  0  0  0  0  0  0  0  0  0  0  0
  -44.7786   68.1618   62.1441 H   0  0  0  0  0  0  0  0  0  0  0  0
  -43.4884   67.2790   62.9774 H   0  0  0  0  0  0  0  0  0  0  0  0
  -46.3856   67.1815   63.6506 H   0  0  0  0  0  0  0  0  0  0  0  0
  -45.1485   68.0389   64.5379 H   0  0  0  0  0  0  0  0  0  0  0  0
  -45.1102   66.2943   64.4501 H   0  0  0  0  0  0  0  0  0  0  0  0
  1  9  1  0  0  0  0
  1 11  1  0  0  0  0
  1 13  1  0  0  0  0
  1 15  1  0  0  0  0
  2  3  1  0  0  0  0
  2  5  1  0  0  0  0
  2 17  1  0  0  0  0
  2 36  1  1  0  0  0
  3 37  1  0  0  0  0
  4  6  1  0  0  0  0
  4  8  2  1  0  0  0
  4 10  1  0  0  0  0
  4 12  1  0  0  0  0
  5  6  1  0  0  0  0
  5 38  1  0  0  0  0
  5 39  1  0  0  0  0
  7  9  1  0  0  0  0
  7 10  1  0  0  0  0
  7 40  1  0  0  0  0
  7 41  1  0  0  0  0
  9 42  1  0  0  0  0
  9 43  1  0  0  0  0
 11 44  1  0  0  0  0
 11 45  1  0  0  0  0
 11 46  1  0  0  0  0
 12 47  1  0  0  0  0
 13 48  1  0  0  0  0
 13 49  1  0  0  0  0
 13 50  1  0  0  0  0
 14 17  1  0  0  0  0
 14 18  1  0  0  0  0
 15 51  1  0  0  0  0
 15 52  1  0  0  0  0
 15 53  1  0  0  0  0
 16 18  2  0  0  0  0
 17 54  1  0  0  0  0
 17 55  1  0  0  0  0
 18 19  1  0  0  0  0
 19 20  1  0  0  0  0
 19 56  1  0  0  0  0
 19 57  1  0  0  0  0
 20 21  1  0  0  0  0
 20 58  1  0  0  0  0
 20 59  1  0  0  0  0
 21 22  1  0  0  0  0
 21 60  1  0  0  0  0
 21 61  1  0  0  0  0
 22 23  1  0  0  0  0
 22 62  1  0  0  0  0
 22 63  1  0  0  0  0
 23 24  1  0  0  0  0
 23 64  1  0  0  0  0
 23 65  1  0  0  0  0
 24 25  1  0  0  0  0
 24 66  1  0  0  0  0
 24 67  1  0  0  0  0
 25 26  1  0  0  0  0
 25 68  1  0  0  0  0
 25 69  1  0  0  0  0
 26 27  2  0  0  0  0
 26 70  1  0  0  0  0
 27 28  1  0  0  0  0
 27 71  1  0  0  0  0
 28 29  1  0  0  0  0
 28 72  1  0  0  0  0
 28 73  1  0  0  0  0
 29 30  1  0  0  0  0
 29 74  1  0  0  0  0
 29 75  1  0  0  0  0
 30 31  1  0  0  0  0
 30 76  1  0  0  0  0
 30 77  1  0  0  0  0
 31 32  1  0  0  0  0
 31 78  1  0  0  0  0
 31 79  1  0  0  0  0
 32 33  1  0  0  0  0
 32 80  1  0  0  0  0
 32 81  1  0  0  0  0
 33 34  1  0  0  0  0
 33 82  1  0  0  0  0
 33 83  1  0  0  0  0
 34 35  1  0  0  0  0
 34 84  1  0  0  0  0
 34 85  1  0  0  0  0
 35 86  1  0  0  0  0
 35 87  1  0  0  0  0
 35 88  1  0  0  0  0
M  CHG  1   8  -1
M  END
$$$$
/media/chris/experiments/cd1a-new-docking/inputs/ligands/4x6e_ligand.pdb
 OpenBabel07012320273D

 88 87  0  0  1  0  0  0  0  0999 V2000
  -47.0623   67.0305   60.2192 N   0  0  0  0  0  4  0  0  0  0  0  0
  -43.4244   62.0674   64.8741 C   0  0  1  0  0  0  0  0  0  0  0  0
  -44.1633   60.9745   65.4364 O   0  0  0  0  0  0  0  0  0  0  0  0
  -46.1517   62.7916   61.9947 P   0  0  1  0  0  0  0  0  0  0  0  0
  -44.3697   62.9867   64.1369 C   0  0  0  0  0  0  0  0  0  0  0  0
  -45.0699   62.2979   63.0726 O   0  0  0  0  0  0  0  0  0  0  0  0
  -47.6663   65.0919   61.7999 C   0  0  0  0  0  0  0  0  0  0  0  0
  -47.0648   61.6132   61.6605 O   0  5  0  0  0  0  0  0  0  0  0  0
  -46.5950   65.8653   61.0716 C   0  0  0  0  0  0  0  0  0  0  0  0
  -47.0694   64.0230   62.5835 O   0  0  0  0  0  0  0  0  0  0  0  0
  -45.8993   67.6881   59.5482 C   0  0  0  0  0  0  0  0  0  0  0  0
  -45.4411   63.2003   60.7633 O   0  0  0  0  0  0  0  0  0  0  0  0
  -47.7401   68.0262   61.1021 C   0  0  0  0  0  0  0  0  0  0  0  0
  -41.6650   61.9117   66.5697 O   0  0  0  0  0  0  0  0  0  0  0  0
  -48.0264   66.5602   59.1676 C   0  0  0  0  0  0  0  0  0  0  0  0
  -42.9138   60.8418   68.1021 O   0  0  0  0  0  0  0  0  0  0  0  0
  -42.6243   62.7881   65.9383 C   0  0  0  0  0  0  0  0  0  0  0  0
  -42.1287   60.8209   67.1868 C   0  0  0  0  0  0  0  0  0  0  0  0
  -41.5470   59.5850   66.5720 C   0  0  0  0  0  0  0  0  0  0  0  0
  -42.4780   58.3810   66.6510 C   0  0  0  0  0  0  0  0  0  0  0  0
  -43.8050   58.5690   65.9360 C   0  0  0  0  0  0  0  0  0  0  0  0
  -43.6578   58.8291   64.4471 C   0  0  0  0  0  0  0  0  0  0  0  0
  -42.9740   57.6892   63.7118 C   0  0  0  0  0  0  0  0  0  0  0  0
  -43.7434   56.3921   63.8252 C   0  0  0  0  0  0  0  0  0  0  0  0
  -43.1029   55.2107   63.1254 C   0  0  0  0  0  0  0  0  0  0  0  0
  -41.7577   54.8632   63.6372 C   0  0  0  0  0  0  0  0  0  0  0  0
  -41.4671   54.4961   64.8683 C   0  0  0  0  0  0  0  0  0  0  0  0
  -42.4203   54.3092   66.0036 C   0  0  0  0  0  0  0  0  0  0  0  0
  -41.6617   53.8943   67.2653 C   0  0  0  0  0  0  0  0  0  0  0  0
  -40.8630   52.6041   67.1513 C   0  0  0  0  0  0  0  0  0  0  0  0
  -40.1241   52.1897   68.4181 C   0  0  0  0  0  0  0  0  0  0  0  0
  -39.1187   53.2285   68.9042 C   0  0  0  0  0  0  0  0  0  0  0  0
  -38.3665   52.8125   70.1584 C   0  0  0  0  0  0  0  0  0  0  0  0
  -37.3655   53.8298   70.6851 C   0  0  0  0  0  0  0  0  0  0  0  0
  -36.3010   54.1662   69.6865 C   0  0  0  0  0  0  0  0  0  0  0  0
  -42.7126   61.6925   64.1686 H   0  0  0  0  0  0  0  0  0  0  0  0
  -44.8083   61.3153   66.0758 H   0  0  0  0  0  0  0  0  0  0  0  0
  -43.8089   63.7949   63.7160 H   0  0  0  0  0  0  0  0  0  0  0  0
  -45.0967   63.3454   64.8352 H   0  0  0  0  0  0  0  0  0  0  0  0
  -48.3447   64.6713   61.0874 H   0  0  0  0  0  0  0  0  0  0  0  0
  -48.1902   65.7550   62.4562 H   0  0  0  0  0  0  0  0  0  0  0  0
  -45.9167   66.2499   61.8043 H   0  0  0  0  0  0  0  0  0  0  0  0
  -46.1600   65.1689   60.3855 H   0  0  0  0  0  0  0  0  0  0  0  0
  -45.2054   68.0273   60.2887 H   0  0  0  0  0  0  0  0  0  0  0  0
  -46.2441   68.5224   58.9737 H   0  0  0  0  0  0  0  0  0  0  0  0
  -45.4162   66.9854   58.9020 H   0  0  0  0  0  0  0  0  0  0  0  0
  -44.9081   62.4588   60.4363 H   0  0  0  0  0  0  0  0  0  0  0  0
  -47.0550   68.3626   61.8520 H   0  0  0  0  0  0  0  0  0  0  0  0
  -48.5863   67.5692   61.5711 H   0  0  0  0  0  0  0  0  0  0  0  0
  -48.0646   68.8602   60.5156 H   0  0  0  0  0  0  0  0  0  0  0  0
  -47.5428   65.8466   58.5338 H   0  0  0  0  0  0  0  0  0  0  0  0
  -48.3508   67.3951   58.5822 H   0  0  0  0  0  0  0  0  0  0  0  0
  -48.8725   66.1041   59.6378 H   0  0  0  0  0  0  0  0  0  0  0  0
  -43.2953   63.1620   66.6832 H   0  0  0  0  0  0  0  0  0  0  0  0
  -42.0887   63.5870   65.4695 H   0  0  0  0  0  0  0  0  0  0  0  0
  -40.6379   59.3462   67.0832 H   0  0  0  0  0  0  0  0  0  0  0  0
  -41.3821   59.7924   65.5353 H   0  0  0  0  0  0  0  0  0  0  0  0
  -42.6787   58.1797   67.6825 H   0  0  0  0  0  0  0  0  0  0  0  0
  -41.9769   57.5734   66.1596 H   0  0  0  0  0  0  0  0  0  0  0  0
  -44.3126   59.4014   66.3769 H   0  0  0  0  0  0  0  0  0  0  0  0
  -44.3534   57.6566   66.0440 H   0  0  0  0  0  0  0  0  0  0  0  0
  -43.0787   59.7186   64.3117 H   0  0  0  0  0  0  0  0  0  0  0  0
  -44.6423   58.9284   64.0400 H   0  0  0  0  0  0  0  0  0  0  0  0
  -41.9978   57.5481   64.1268 H   0  0  0  0  0  0  0  0  0  0  0  0
  -42.9229   57.9510   62.6756 H   0  0  0  0  0  0  0  0  0  0  0  0
  -44.7147   56.5430   63.4024 H   0  0  0  0  0  0  0  0  0  0  0  0
  -43.7700   56.1474   64.8666 H   0  0  0  0  0  0  0  0  0  0  0  0
  -43.0170   55.4426   62.0844 H   0  0  0  0  0  0  0  0  0  0  0  0
  -43.7315   54.3645   63.3091 H   0  0  0  0  0  0  0  0  0  0  0  0
  -40.9747   54.9132   62.9668 H   0  0  0  0  0  0  0  0  0  0  0  0
  -40.4710   54.3180   65.0712 H   0  0  0  0  0  0  0  0  0  0  0  0
  -43.1278   53.5476   65.7498 H   0  0  0  0  0  0  0  0  0  0  0  0
  -42.9290   55.2321   66.1889 H   0  0  0  0  0  0  0  0  0  0  0  0
  -42.3742   53.7730   68.0543 H   0  0  0  0  0  0  0  0  0  0  0  0
  -40.9464   54.6689   67.4477 H   0  0  0  0  0  0  0  0  0  0  0  0
  -40.1410   52.7285   66.3716 H   0  0  0  0  0  0  0  0  0  0  0  0
  -41.5737   51.8292   66.9527 H   0  0  0  0  0  0  0  0  0  0  0  0
  -39.6003   51.2777   68.2214 H   0  0  0  0  0  0  0  0  0  0  0  0
  -40.8585   52.0785   69.1882 H   0  0  0  0  0  0  0  0  0  0  0  0
  -39.6452   54.1365   69.1119 H   0  0  0  0  0  0  0  0  0  0  0  0
  -38.3913   53.3459   68.1284 H   0  0  0  0  0  0  0  0  0  0  0  0
  -37.8361   51.9091   69.9410 H   0  0  0  0  0  0  0  0  0  0  0  0
  -39.1063   52.7027   70.9236 H   0  0  0  0  0  0  0  0  0  0  0  0
  -36.8988   53.4288   71.5605 H   0  0  0  0  0  0  0  0  0  0  0  0
  -37.9028   54.7300   70.8993 H   0  0  0  0  0  0  0  0  0  0  0  0
  -35.7428   53.2847   69.4496 H   0  0  0  0  0  0  0  0  0  0  0  0
  -35.6448   54.9036   70.0995 H   0  0  0  0  0  0  0  0  0  0  0  0
  -36.7549   54.5507   68.7971 H   0  0  0  0  0  0  0  0  0  0  0  0
  1  9  1  0  0  0  0
  1 11  1  0  0  0  0
  1 13  1  0  0  0  0
  1 15  1  0  0  0  0
  2  3  1  0  0  0  0
  2  5  1  0  0  0  0
  2 17  1  0  0  0  0
  2 36  1  6  0  0  0
  3 37  1  0  0  0  0
  4  6  1  0  0  0  0
  4  8  2  6  0  0  0
  4 10  1  0  0  0  0
  4 12  1  0  0  0  0
  5  6  1  0  0  0  0
  5 38  1  0  0  0  0
  5 39  1  0  0  0  0
  7  9  1  0  0  0  0
  7 10  1  0  0  0  0
  7 40  1  0  0  0  0
  7 41  1  0  0  0  0
  9 42  1  0  0  0  0
  9 43  1  0  0  0  0
 11 44  1  0  0  0  0
 11 45  1  0  0  0  0
 11 46  1  0  0  0  0
 12 47  1  0  0  0  0
 13 48  1  0  0  0  0
 13 49  1  0  0  0  0
 13 50  1  0  0  0  0
 14 17  1  0  0  0  0
 14 18  1  0  0  0  0
 15 51  1  0  0  0  0
 15 52  1  0  0  0  0
 15 53  1  0  0  0  0
 16 18  2  0  0  0  0
 17 54  1  0  0  0  0
 17 55  1  0  0  0  0
 18 19  1  0  0  0  0
 19 20  1  0  0  0  0
 19 56  1  0  0  0  0
 19 57  1  0  0  0  0
 20 21  1  0  0  0  0
 20 58  1  0  0  0  0
 20 59  1  0  0  0  0
 21 22  1  0  0  0  0
 21 60  1  0  0  0  0
 21 61  1  0  0  0  0
 22 23  1  0  0  0  0
 22 62  1  0  0  0  0
 22 63  1  0  0  0  0
 23 24  1  0  0  0  0
 23 64  1  0  0  0  0
 23 65  1  0  0  0  0
 24 25  1  0  0  0  0
 24 66  1  0  0  0  0
 24 67  1  0  0  0  0
 25 26  1  0  0  0  0
 25 68  1  0  0  0  0
 25 69  1  0  0  0  0
 26 27  2  0  0  0  0
 26 70  1  0  0  0  0
 27 28  1  0  0  0  0
 27 71  1  0  0  0  0
 28 29  1  0  0  0  0
 28 72  1  0  0  0  0
 28 73  1  0  0  0  0
 29 30  1  0  0  0  0
 29 74  1  0  0  0  0
 29 75  1  0  0  0  0
 30 31  1  0  0  0  0
 30 76  1  0  0  0  0
 30 77  1  0  0  0  0
 31 32  1  0  0  0  0
 31 78  1  0  0  0  0
 31 79  1  0  0  0  0
 32 33  1  0  0  0  0
 32 80  1  0  0  0  0
 32 81  1  0  0  0  0
 33 34  1  0  0  0  0
 33 82  1  0  0  0  0
 33 83  1  0  0  0  0
 34 35  1  0  0  0  0
 34 84  1  0  0  0  0
 34 85  1  0  0  0  0
 35 86  1  0  0  0  0
 35 87  1  0  0  0  0
 35 88  1  0  0  0  0
M  CHG  1   8  -1
M  END
$$$$
/media/chris/experiments/cd1a-new-docking/inputs/ligands/4x6e_ligand.pdb
 OpenBabel07012320273D

 88 87  0  0  1  0  0  0  0  0999 V2000
  -41.4256   69.6744   67.1165 N   0  0  0  0  0  4  0  0  0  0  0  0
  -41.9390   63.2524   69.1312 C   0  0  1  0  0  0  0  0  0  0  0  0
  -42.9291   62.9931   70.1357 O   0  0  0  0  0  0  0  0  0  0  0  0
  -39.0621   65.9853   68.4186 P   0  0  1  0  0  0  0  0  0  0  0  0
  -41.1589   64.4917   69.5025 C   0  0  0  0  0  0  0  0  0  0  0  0
  -40.1525   64.8112   68.5114 O   0  0  0  0  0  0  0  0  0  0  0  0
  -40.6645   67.2760   66.5776 C   0  0  0  0  0  0  0  0  0  0  0  0
  -37.8515   65.4532   67.6534 O   0  5  0  0  0  0  0  0  0  0  0  0
  -40.9339   68.6762   66.0847 C   0  0  0  0  0  0  0  0  0  0  0  0
  -39.6563   67.2973   67.6246 O   0  0  0  0  0  0  0  0  0  0  0  0
  -40.4149   69.8433   68.2051 C   0  0  0  0  0  0  0  0  0  0  0  0
  -38.6330   66.3426   69.7885 O   0  0  0  0  0  0  0  0  0  0  0  0
  -42.6966   69.1611   67.7094 C   0  0  0  0  0  0  0  0  0  0  0  0
  -41.8036   60.8958   68.4808 O   0  0  0  0  0  0  0  0  0  0  0  0
  -41.6784   71.0104   66.4780 C   0  0  0  0  0  0  0  0  0  0  0  0
  -42.7891   61.6453   66.6047 O   0  0  0  0  0  0  0  0  0  0  0  0
  -41.0486   62.0461   68.9207 C   0  0  0  0  0  0  0  0  0  0  0  0
  -42.1287   60.8209   67.1868 C   0  0  0  0  0  0  0  0  0  0  0  0
  -41.5470   59.5850   66.5720 C   0  0  0  0  0  0  0  0  0  0  0  0
  -42.4780   58.3810   66.6510 C   0  0  0  0  0  0  0  0  0  0  0  0
  -43.8050   58.5690   65.9360 C   0  0  0  0  0  0  0  0  0  0  0  0
  -43.6578   58.8291   64.4471 C   0  0  0  0  0  0  0  0  0  0  0  0
  -44.9905   59.0322   63.7470 C   0  0  0  0  0  0  0  0  0  0  0  0
  -45.7496   60.2198   64.2955 C   0  0  0  0  0  0  0  0  0  0  0  0
  -45.0364   61.5492   64.1547 C   0  0  0  0  0  0  0  0  0  0  0  0
  -45.7864   62.6981   64.7114 C   0  0  0  0  0  0  0  0  0  0  0  0
  -45.7351   63.9410   64.2787 C   0  0  0  0  0  0  0  0  0  0  0  0
  -44.9514   64.4614   63.1178 C   0  0  0  0  0  0  0  0  0  0  0  0
  -45.1625   65.9694   62.9735 C   0  0  0  0  0  0  0  0  0  0  0  0
  -44.7260   66.8061   64.1672 C   0  0  0  0  0  0  0  0  0  0  0  0
  -43.2460   66.7074   64.5163 C   0  0  0  0  0  0  0  0  0  0  0  0
  -42.3230   67.1690   63.3933 C   0  0  0  0  0  0  0  0  0  0  0  0
  -40.8447   67.0566   63.7304 C   0  0  0  0  0  0  0  0  0  0  0  0
  -39.8908   67.5234   62.6410 C   0  0  0  0  0  0  0  0  0  0  0  0
  -38.4515   67.3717   63.0269 C   0  0  0  0  0  0  0  0  0  0  0  0
  -42.4203   63.4350   68.1932 H   0  0  0  0  0  0  0  0  0  0  0  0
  -42.4918   62.8276   70.9856 H   0  0  0  0  0  0  0  0  0  0  0  0
  -40.6779   64.3288   70.4444 H   0  0  0  0  0  0  0  0  0  0  0  0
  -41.8440   65.3118   69.5570 H   0  0  0  0  0  0  0  0  0  0  0  0
  -40.3158   66.6757   65.7634 H   0  0  0  0  0  0  0  0  0  0  0  0
  -41.5698   66.8651   66.9732 H   0  0  0  0  0  0  0  0  0  0  0  0
  -40.0227   69.0568   65.6726 H   0  0  0  0  0  0  0  0  0  0  0  0
  -41.7338   68.5795   65.3805 H   0  0  0  0  0  0  0  0  0  0  0  0
  -40.2270   68.8967   68.6673 H   0  0  0  0  0  0  0  0  0  0  0  0
  -40.7893   70.5291   68.9361 H   0  0  0  0  0  0  0  0  0  0  0  0
  -39.5051   70.2249   67.7910 H   0  0  0  0  0  0  0  0  0  0  0  0
  -38.2872   65.5540   70.2351 H   0  0  0  0  0  0  0  0  0  0  0  0
  -42.5188   68.2093   68.1648 H   0  0  0  0  0  0  0  0  0  0  0  0
  -43.4324   69.0563   66.9397 H   0  0  0  0  0  0  0  0  0  0  0  0
  -43.0491   69.8499   68.4484 H   0  0  0  0  0  0  0  0  0  0  0  0
  -40.7689   71.3801   66.0524 H   0  0  0  0  0  0  0  0  0  0  0  0
  -42.0314   71.6981   67.2177 H   0  0  0  0  0  0  0  0  0  0  0  0
  -42.4148   70.9046   65.7090 H   0  0  0  0  0  0  0  0  0  0  0  0
  -40.5615   61.8092   69.8434 H   0  0  0  0  0  0  0  0  0  0  0  0
  -40.3343   62.2870   68.1613 H   0  0  0  0  0  0  0  0  0  0  0  0
  -40.6379   59.3462   67.0832 H   0  0  0  0  0  0  0  0  0  0  0  0
  -41.3821   59.7924   65.5353 H   0  0  0  0  0  0  0  0  0  0  0  0
  -42.6787   58.1797   67.6825 H   0  0  0  0  0  0  0  0  0  0  0  0
  -41.9769   57.5734   66.1596 H   0  0  0  0  0  0  0  0  0  0  0  0
  -44.3126   59.4014   66.3769 H   0  0  0  0  0  0  0  0  0  0  0  0
  -44.3534   57.6566   66.0440 H   0  0  0  0  0  0  0  0  0  0  0  0
  -43.1625   57.9917   64.0018 H   0  0  0  0  0  0  0  0  0  0  0  0
  -43.0949   59.7319   64.3334 H   0  0  0  0  0  0  0  0  0  0  0  0
  -45.5857   58.1527   63.8776 H   0  0  0  0  0  0  0  0  0  0  0  0
  -44.7924   59.2187   62.7122 H   0  0  0  0  0  0  0  0  0  0  0  0
  -45.9307   60.0476   65.3359 H   0  0  0  0  0  0  0  0  0  0  0  0
  -46.6472   60.2966   63.7181 H   0  0  0  0  0  0  0  0  0  0  0  0
  -44.8665   61.7311   63.1140 H   0  0  0  0  0  0  0  0  0  0  0  0
  -44.1274   61.4732   64.7141 H   0  0  0  0  0  0  0  0  0  0  0  0
  -46.4072   62.5071   65.5134 H   0  0  0  0  0  0  0  0  0  0  0  0
  -46.2983   64.6318   64.7989 H   0  0  0  0  0  0  0  0  0  0  0  0
  -45.2762   63.9715   62.2237 H   0  0  0  0  0  0  0  0  0  0  0  0
  -43.9120   64.2679   63.2825 H   0  0  0  0  0  0  0  0  0  0  0  0
  -46.2060   66.1429   62.8125 H   0  0  0  0  0  0  0  0  0  0  0  0
  -44.5447   66.2770   62.1558 H   0  0  0  0  0  0  0  0  0  0  0  0
  -45.2900   66.4883   65.0192 H   0  0  0  0  0  0  0  0  0  0  0  0
  -44.9022   67.8265   63.8975 H   0  0  0  0  0  0  0  0  0  0  0  0
  -43.0190   65.6867   64.7431 H   0  0  0  0  0  0  0  0  0  0  0  0
  -43.0757   67.3563   65.3499 H   0  0  0  0  0  0  0  0  0  0  0  0
  -42.5426   68.1933   63.1753 H   0  0  0  0  0  0  0  0  0  0  0  0
  -42.5024   66.5255   62.5574 H   0  0  0  0  0  0  0  0  0  0  0  0
  -40.6306   66.0292   63.9388 H   0  0  0  0  0  0  0  0  0  0  0  0
  -40.6817   67.7070   64.5642 H   0  0  0  0  0  0  0  0  0  0  0  0
  -40.0833   68.5560   62.4373 H   0  0  0  0  0  0  0  0  0  0  0  0
  -40.0601   66.9111   61.7800 H   0  0  0  0  0  0  0  0  0  0  0  0
  -38.2478   67.9734   63.8880 H   0  0  0  0  0  0  0  0  0  0  0  0
  -37.8295   67.6879   62.2156 H   0  0  0  0  0  0  0  0  0  0  0  0
  -38.2489   66.3456   63.2527 H   0  0  0  0  0  0  0  0  0  0  0  0
  1  9  1  0  0  0  0
  1 11  1  0  0  0  0
  1 13  1  0  0  0  0
  1 15  1  0  0  0  0
  2  3  1  0  0  0  0
  2  5  1  0  0  0  0
  2 17  1  0  0  0  0
  2 36  1  6  0  0  0
  3 37  1  0  0  0  0
  4  6  1  0  0  0  0
  4  8  2  6  0  0  0
  4 10  1  0  0  0  0
  4 12  1  0  0  0  0
  5  6  1  0  0  0  0
  5 38  1  0  0  0  0
  5 39  1  0  0  0  0
  7  9  1  0  0  0  0
  7 10  1  0  0  0  0
  7 40  1  0  0  0  0
  7 41  1  0  0  0  0
  9 42  1  0  0  0  0
  9 43  1  0  0  0  0
 11 44  1  0  0  0  0
 11 45  1  0  0  0  0
 11 46  1  0  0  0  0
 12 47  1  0  0  0  0
 13 48  1  0  0  0  0
 13 49  1  0  0  0  0
 13 50  1  0  0  0  0
 14 17  1  0  0  0  0
 14 18  1  0  0  0  0
 15 51  1  0  0  0  0
 15 52  1  0  0  0  0
 15 53  1  0  0  0  0
 16 18  2  0  0  0  0
 17 54  1  0  0  0  0
 17 55  1  0  0  0  0
 18 19  1  0  0  0  0
 19 20  1  0  0  0  0
 19 56  1  0  0  0  0
 19 57  1  0  0  0  0
 20 21  1  0  0  0  0
 20 58  1  0  0  0  0
 20 59  1  0  0  0  0
 21 22  1  0  0  0  0
 21 60  1  0  0  0  0
 21 61  1  0  0  0  0
 22 23  1  0  0  0  0
 22 62  1  0  0  0  0
 22 63  1  0  0  0  0
 23 24  1  0  0  0  0
 23 64  1  0  0  0  0
 23 65  1  0  0  0  0
 24 25  1  0  0  0  0
 24 66  1  0  0  0  0
 24 67  1  0  0  0  0
 25 26  1  0  0  0  0
 25 68  1  0  0  0  0
 25 69  1  0  0  0  0
 26 27  2  0  0  0  0
 26 70  1  0  0  0  0
 27 28  1  0  0  0  0
 27 71  1  0  0  0  0
 28 29  1  0  0  0  0
 28 72  1  0  0  0  0
 28 73  1  0  0  0  0
 29 30  1  0  0  0  0
 29 74  1  0  0  0  0
 29 75  1  0  0  0  0
 30 31  1  0  0  0  0
 30 76  1  0  0  0  0
 30 77  1  0  0  0  0
 31 32  1  0  0  0  0
 31 78  1  0  0  0  0
 31 79  1  0  0  0  0
 32 33  1  0  0  0  0
 32 80  1  0  0  0  0
 32 81  1  0  0  0  0
 33 34  1  0  0  0  0
 33 82  1  0  0  0  0
 33 83  1  0  0  0  0
 34 35  1  0  0  0  0
 34 84  1  0  0  0  0
 34 85  1  0  0  0  0
 35 86  1  0  0  0  0
 35 87  1  0  0  0  0
 35 88  1  0  0  0  0
M  CHG  1   8  -1
M  END
$$$$
/media/chris/experiments/cd1a-new-docking/inputs/ligands/4x6e_ligand.pdb
 OpenBabel07012320273D

 88 87  0  0  1  0  0  0  0  0999 V2000
  -44.1628   56.8982   59.5441 N   0  0  0  0  0  4  0  0  0  0  0  0
  -38.3791   59.2082   64.7725 C   0  0  1  0  0  0  0  0  0  0  0  0
  -37.0781   59.4461   64.2184 O   0  0  0  0  0  0  0  0  0  0  0  0
  -40.0874   58.5301   61.1843 P   0  0  1  0  0  0  0  0  0  0  0  0
  -39.1821   58.3527   63.8208 C   0  0  0  0  0  0  0  0  0  0  0  0
  -39.3327   58.9839   62.5261 O   0  0  0  0  0  0  0  0  0  0  0  0
  -42.2211   56.7783   61.2284 C   0  0  0  0  0  0  0  0  0  0  0  0
  -39.0547   58.4429   60.0618 O   0  5  0  0  0  0  0  0  0  0  0  0
  -42.6907   57.1221   59.8365 C   0  0  0  0  0  0  0  0  0  0  0  0
  -40.8013   57.0593   61.3633 O   0  0  0  0  0  0  0  0  0  0  0  0
  -45.0096   57.7356   60.4480 C   0  0  0  0  0  0  0  0  0  0  0  0
  -41.0834   59.5643   60.8280 O   0  0  0  0  0  0  0  0  0  0  0  0
  -44.4820   55.4579   59.7765 C   0  0  0  0  0  0  0  0  0  0  0  0
  -39.5828   58.3411   66.7204 O   0  0  0  0  0  0  0  0  0  0  0  0
  -44.4765   57.2538   58.1188 C   0  0  0  0  0  0  0  0  0  0  0  0
  -39.8236   60.0222   68.1929 O   0  0  0  0  0  0  0  0  0  0  0  0
  -38.2787   58.6015   66.1561 C   0  0  0  0  0  0  0  0  0  0  0  0
  -40.2402   59.3661   67.2706 C   0  0  0  0  0  0  0  0  0  0  0  0
  -41.5470   59.5850   66.5720 C   0  0  0  0  0  0  0  0  0  0  0  0
  -42.4780   58.3810   66.6510 C   0  0  0  0  0  0  0  0  0  0  0  0
  -43.8050   58.5690   65.9360 C   0  0  0  0  0  0  0  0  0  0  0  0
  -44.6170   59.7376   66.4663 C   0  0  0  0  0  0  0  0  0  0  0  0
  -45.9487   59.9044   65.7548 C   0  0  0  0  0  0  0  0  0  0  0  0
  -46.7362   61.0824   66.2837 C   0  0  0  0  0  0  0  0  0  0  0  0
  -48.0843   61.2923   65.6245 C   0  0  0  0  0  0  0  0  0  0  0  0
  -48.8341   62.4591   66.1428 C   0  0  0  0  0  0  0  0  0  0  0  0
  -49.2302   63.5007   65.4407 C   0  0  0  0  0  0  0  0  0  0  0  0
  -49.0524   63.7214   63.9737 C   0  0  0  0  0  0  0  0  0  0  0  0
  -49.6459   65.0716   63.5685 C   0  0  0  0  0  0  0  0  0  0  0  0
  -51.1298   65.2446   63.8574 C   0  0  0  0  0  0  0  0  0  0  0  0
  -51.5168   65.1367   65.3273 C   0  0  0  0  0  0  0  0  0  0  0  0
  -50.8507   66.1860   66.2113 C   0  0  0  0  0  0  0  0  0  0  0  0
  -51.1980   67.6166   65.8313 C   0  0  0  0  0  0  0  0  0  0  0  0
  -52.6750   67.9721   65.9128 C   0  0  0  0  0  0  0  0  0  0  0  0
  -53.5269   67.1163   65.0265 C   0  0  0  0  0  0  0  0  0  0  0  0
  -38.8929   60.1391   64.8918 H   0  0  0  0  0  0  0  0  0  0  0  0
  -36.6131   58.6016   64.1107 H   0  0  0  0  0  0  0  0  0  0  0  0
  -40.1524   58.1859   64.2397 H   0  0  0  0  0  0  0  0  0  0  0  0
  -38.6591   57.4296   63.6817 H   0  0  0  0  0  0  0  0  0  0  0  0
  -42.3947   55.7388   61.4133 H   0  0  0  0  0  0  0  0  0  0  0  0
  -42.7628   57.3709   61.9358 H   0  0  0  0  0  0  0  0  0  0  0  0
  -42.4797   58.1575   59.6687 H   0  0  0  0  0  0  0  0  0  0  0  0
  -42.1679   56.4511   59.1875 H   0  0  0  0  0  0  0  0  0  0  0  0
  -44.7942   57.4904   61.4670 H   0  0  0  0  0  0  0  0  0  0  0  0
  -46.0430   57.5452   60.2461 H   0  0  0  0  0  0  0  0  0  0  0  0
  -44.7978   58.7705   60.2776 H   0  0  0  0  0  0  0  0  0  0  0  0
  -40.6388   60.4206   60.7283 H   0  0  0  0  0  0  0  0  0  0  0  0
  -44.2593   55.2024   60.7913 H   0  0  0  0  0  0  0  0  0  0  0  0
  -43.8945   54.8518   59.1189 H   0  0  0  0  0  0  0  0  0  0  0  0
  -45.5210   55.2875   59.5856 H   0  0  0  0  0  0  0  0  0  0  0  0
  -44.2486   58.2855   57.9500 H   0  0  0  0  0  0  0  0  0  0  0  0
  -45.5155   57.0824   57.9288 H   0  0  0  0  0  0  0  0  0  0  0  0
  -43.8890   56.6467   57.4621 H   0  0  0  0  0  0  0  0  0  0  0  0
  -37.7534   59.2801   66.7951 H   0  0  0  0  0  0  0  0  0  0  0  0
  -37.7579   57.6703   66.0753 H   0  0  0  0  0  0  0  0  0  0  0  0
  -41.3508   59.7963   65.5416 H   0  0  0  0  0  0  0  0  0  0  0  0
  -42.0377   60.3996   67.0625 H   0  0  0  0  0  0  0  0  0  0  0  0
  -42.6787   58.1797   67.6825 H   0  0  0  0  0  0  0  0  0  0  0  0
  -41.9769   57.5734   66.1596 H   0  0  0  0  0  0  0  0  0  0  0  0
  -44.3819   57.6753   66.0516 H   0  0  0  0  0  0  0  0  0  0  0  0
  -43.5836   58.7785   64.9103 H   0  0  0  0  0  0  0  0  0  0  0  0
  -44.0475   60.6344   66.3391 H   0  0  0  0  0  0  0  0  0  0  0  0
  -44.8265   59.5410   67.4970 H   0  0  0  0  0  0  0  0  0  0  0  0
  -46.5264   59.0143   65.8920 H   0  0  0  0  0  0  0  0  0  0  0  0
  -45.7474   60.0826   64.7191 H   0  0  0  0  0  0  0  0  0  0  0  0
  -46.1521   61.9667   66.1360 H   0  0  0  0  0  0  0  0  0  0  0  0
  -46.9337   60.8746   67.3145 H   0  0  0  0  0  0  0  0  0  0  0  0
  -48.6761   60.4150   65.7826 H   0  0  0  0  0  0  0  0  0  0  0  0
  -47.8957   61.4815   64.5884 H   0  0  0  0  0  0  0  0  0  0  0  0
  -49.0682   62.4559   67.1479 H   0  0  0  0  0  0  0  0  0  0  0  0
  -49.7171   64.2469   65.9614 H   0  0  0  0  0  0  0  0  0  0  0  0
  -49.5490   62.9410   63.4358 H   0  0  0  0  0  0  0  0  0  0  0  0
  -48.0075   63.7152   63.7431 H   0  0  0  0  0  0  0  0  0  0  0  0
  -49.4977   65.1950   62.5160 H   0  0  0  0  0  0  0  0  0  0  0  0
  -49.1421   65.8055   64.1622 H   0  0  0  0  0  0  0  0  0  0  0  0
  -51.6632   64.4903   63.3175 H   0  0  0  0  0  0  0  0  0  0  0  0
  -51.3792   66.2402   63.5549 H   0  0  0  0  0  0  0  0  0  0  0  0
  -51.2346   64.1672   65.6814 H   0  0  0  0  0  0  0  0  0  0  0  0
  -52.5727   65.2996   65.3872 H   0  0  0  0  0  0  0  0  0  0  0  0
  -49.7901   66.0652   66.1379 H   0  0  0  0  0  0  0  0  0  0  0  0
  -51.2120   66.0308   67.2064 H   0  0  0  0  0  0  0  0  0  0  0  0
  -50.8743   67.7788   64.8244 H   0  0  0  0  0  0  0  0  0  0  0  0
  -50.7043   68.2404   66.5469 H   0  0  0  0  0  0  0  0  0  0  0  0
  -52.7973   68.9943   65.6214 H   0  0  0  0  0  0  0  0  0  0  0  0
  -52.9913   67.8067   66.9215 H   0  0  0  0  0  0  0  0  0  0  0  0
  -53.2356   67.2583   64.0067 H   0  0  0  0  0  0  0  0  0  0  0  0
  -54.5541   67.3913   65.1455 H   0  0  0  0  0  0  0  0  0  0  0  0
  -53.3995   66.0882   65.2940 H   0  0  0  0  0  0  0  0  0  0  0  0
  1  9  1  0  0  0  0
  1 11  1  0  0  0  0
  1 13  1  0  0  0  0
  1 15  1  0  0  0  0
  2  3  1  0  0  0  0
  2  5  1  0  0  0  0
  2 17  1  0  0  0  0
  2 36  1  1  0  0  0
  3 37  1  0  0  0  0
  4  6  1  0  0  0  0
  4  8  2  6  0  0  0
  4 10  1  0  0  0  0
  4 12  1  0  0  0  0
  5  6  1  0  0  0  0
  5 38  1  0  0  0  0
  5 39  1  0  0  0  0
  7  9  1  0  0  0  0
  7 10  1  0  0  0  0
  7 40  1  0  0  0  0
  7 41  1  0  0  0  0
  9 42  1  0  0  0  0
  9 43  1  0  0  0  0
 11 44  1  0  0  0  0
 11 45  1  0  0  0  0
 11 46  1  0  0  0  0
 12 47  1  0  0  0  0
 13 48  1  0  0  0  0
 13 49  1  0  0  0  0
 13 50  1  0  0  0  0
 14 17  1  0  0  0  0
 14 18  1  0  0  0  0
 15 51  1  0  0  0  0
 15 52  1  0  0  0  0
 15 53  1  0  0  0  0
 16 18  2  0  0  0  0
 17 54  1  0  0  0  0
 17 55  1  0  0  0  0
 18 19  1  0  0  0  0
 19 20  1  0  0  0  0
 19 56  1  0  0  0  0
 19 57  1  0  0  0  0
 20 21  1  0  0  0  0
 20 58  1  0  0  0  0
 20 59  1  0  0  0  0
 21 22  1  0  0  0  0
 21 60  1  0  0  0  0
 21 61  1  0  0  0  0
 22 23  1  0  0  0  0
 22 62  1  0  0  0  0
 22 63  1  0  0  0  0
 23 24  1  0  0  0  0
 23 64  1  0  0  0  0
 23 65  1  0  0  0  0
 24 25  1  0  0  0  0
 24 66  1  0  0  0  0
 24 67  1  0  0  0  0
 25 26  1  0  0  0  0
 25 68  1  0  0  0  0
 25 69  1  0  0  0  0
 26 27  2  0  0  0  0
 26 70  1  0  0  0  0
 27 28  1  0  0  0  0
 27 71  1  0  0  0  0
 28 29  1  0  0  0  0
 28 72  1  0  0  0  0
 28 73  1  0  0  0  0
 29 30  1  0  0  0  0
 29 74  1  0  0  0  0
 29 75  1  0  0  0  0
 30 31  1  0  0  0  0
 30 76  1  0  0  0  0
 30 77  1  0  0  0  0
 31 32  1  0  0  0  0
 31 78  1  0  0  0  0
 31 79  1  0  0  0  0
 32 33  1  0  0  0  0
 32 80  1  0  0  0  0
 32 81  1  0  0  0  0
 33 34  1  0  0  0  0
 33 82  1  0  0  0  0
 33 83  1  0  0  0  0
 34 35  1  0  0  0  0
 34 84  1  0  0  0  0
 34 85  1  0  0  0  0
 35 86  1  0  0  0  0
 35 87  1  0  0  0  0
 35 88  1  0  0  0  0
M  CHG  1   8  -1
M  END
$$$$
/media/chris/experiments/cd1a-new-docking/inputs/ligands/4x6e_ligand.pdb
 OpenBabel07012320273D

 88 87  0  0  1  0  0  0  0  0999 V2000
  -39.9679   56.7495   69.3834 N   0  0  0  0  0  4  0  0  0  0  0  0
  -40.2814   62.9435   65.8410 C   0  0  1  0  0  0  0  0  0  0  0  0
  -40.1429   64.2792   65.3380 O   0  0  0  0  0  0  0  0  0  0  0  0
  -37.8788   59.8310   66.7316 P   0  0  1  0  0  0  0  0  0  0  0  0
  -38.9182   62.3000   65.9406 C   0  0  0  0  0  0  0  0  0  0  0  0
  -38.9997   60.9392   66.4294 O   0  0  0  0  0  0  0  0  0  0  0  0
  -39.2014   59.1856   69.0678 C   0  0  0  0  0  0  0  0  0  0  0  0
  -36.5933   60.5503   67.1368 O   0  5  0  0  0  0  0  0  0  0  0  0
  -39.3721   58.0054   69.9920 C   0  0  0  0  0  0  0  0  0  0  0  0
  -38.3352   58.8314   67.9555 O   0  0  0  0  0  0  0  0  0  0  0  0
  -39.1011   56.2420   68.2760 C   0  0  0  0  0  0  0  0  0  0  0  0
  -37.6201   59.0681   65.4909 O   0  0  0  0  0  0  0  0  0  0  0  0
  -41.3162   57.0795   68.8322 C   0  0  0  0  0  0  0  0  0  0  0  0
  -41.1598   61.5943   67.6857 O   0  0  0  0  0  0  0  0  0  0  0  0
  -40.1051   55.6744   70.4234 C   0  0  0  0  0  0  0  0  0  0  0  0
  -43.3023   61.0962   67.2230 O   0  0  0  0  0  0  0  0  0  0  0  0
  -41.0271   62.9327   67.1586 C   0  0  0  0  0  0  0  0  0  0  0  0
  -42.1287   60.8209   67.1868 C   0  0  0  0  0  0  0  0  0  0  0  0
  -41.5470   59.5850   66.5720 C   0  0  0  0  0  0  0  0  0  0  0  0
  -42.4780   58.3810   66.6510 C   0  0  0  0  0  0  0  0  0  0  0  0
  -43.8050   58.5690   65.9360 C   0  0  0  0  0  0  0  0  0  0  0  0
  -43.6578   58.8291   64.4471 C   0  0  0  0  0  0  0  0  0  0  0  0
  -44.9905   59.0322   63.7470 C   0  0  0  0  0  0  0  0  0  0  0  0
  -45.7496   60.2198   64.2955 C   0  0  0  0  0  0  0  0  0  0  0  0
  -45.0364   61.5492   64.1547 C   0  0  0  0  0  0  0  0  0  0  0  0
  -45.7864   62.6981   64.7114 C   0  0  0  0  0  0  0  0  0  0  0  0
  -45.7351   63.9410   64.2787 C   0  0  0  0  0  0  0  0  0  0  0  0
  -44.9514   64.4614   63.1178 C   0  0  0  0  0  0  0  0  0  0  0  0
  -43.9599   65.5273   63.5871 C   0  0  0  0  0  0  0  0  0  0  0  0
  -42.9251   65.0553   64.5980 C   0  0  0  0  0  0  0  0  0  0  0  0
  -42.0099   63.9390   64.1097 C   0  0  0  0  0  0  0  0  0  0  0  0
  -41.1772   64.3232   62.8911 C   0  0  0  0  0  0  0  0  0  0  0  0
  -40.2747   63.2070   62.3895 C   0  0  0  0  0  0  0  0  0  0  0  0
  -39.4146   63.5566   61.1843 C   0  0  0  0  0  0  0  0  0  0  0  0
  -38.5622   62.4123   60.7290 C   0  0  0  0  0  0  0  0  0  0  0  0
  -40.8700   62.3642   65.1606 H   0  0  0  0  0  0  0  0  0  0  0  0
  -39.6093   64.8035   65.9555 H   0  0  0  0  0  0  0  0  0  0  0  0
  -38.3129   62.8732   66.6114 H   0  0  0  0  0  0  0  0  0  0  0  0
  -38.4895   62.2761   64.9605 H   0  0  0  0  0  0  0  0  0  0  0  0
  -38.7657   59.9988   69.6098 H   0  0  0  0  0  0  0  0  0  0  0  0
  -40.1593   59.4719   68.6867 H   0  0  0  0  0  0  0  0  0  0  0  0
  -38.4069   57.7530   70.3786 H   0  0  0  0  0  0  0  0  0  0  0  0
  -40.0774   58.3241   70.7308 H   0  0  0  0  0  0  0  0  0  0  0  0
  -38.9964   57.0006   67.5287 H   0  0  0  0  0  0  0  0  0  0  0  0
  -39.5495   55.3730   67.8418 H   0  0  0  0  0  0  0  0  0  0  0  0
  -38.1369   55.9892   68.6651 H   0  0  0  0  0  0  0  0  0  0  0  0
  -37.3532   59.6784   64.7858 H   0  0  0  0  0  0  0  0  0  0  0  0
  -41.2208   57.8453   68.0910 H   0  0  0  0  0  0  0  0  0  0  0  0
  -41.9498   57.4247   69.6222 H   0  0  0  0  0  0  0  0  0  0  0  0
  -41.7439   56.2048   68.3883 H   0  0  0  0  0  0  0  0  0  0  0  0
  -39.1401   55.4364   70.8198 H   0  0  0  0  0  0  0  0  0  0  0  0
  -40.5335   54.8005   69.9787 H   0  0  0  0  0  0  0  0  0  0  0  0
  -40.7394   56.0204   71.2126 H   0  0  0  0  0  0  0  0  0  0  0  0
  -42.0031   63.3447   67.0082 H   0  0  0  0  0  0  0  0  0  0  0  0
  -40.4698   63.5150   67.8624 H   0  0  0  0  0  0  0  0  0  0  0  0
  -40.6379   59.3462   67.0832 H   0  0  0  0  0  0  0  0  0  0  0  0
  -41.3821   59.7924   65.5353 H   0  0  0  0  0  0  0  0  0  0  0  0
  -42.6787   58.1797   67.6825 H   0  0  0  0  0  0  0  0  0  0  0  0
  -41.9769   57.5734   66.1596 H   0  0  0  0  0  0  0  0  0  0  0  0
  -44.3126   59.4014   66.3769 H   0  0  0  0  0  0  0  0  0  0  0  0
  -44.3534   57.6566   66.0440 H   0  0  0  0  0  0  0  0  0  0  0  0
  -43.1625   57.9917   64.0018 H   0  0  0  0  0  0  0  0  0  0  0  0
  -43.0949   59.7319   64.3334 H   0  0  0  0  0  0  0  0  0  0  0  0
  -45.5857   58.1527   63.8776 H   0  0  0  0  0  0  0  0  0  0  0  0
  -44.7924   59.2187   62.7122 H   0  0  0  0  0  0  0  0  0  0  0  0
  -45.9307   60.0476   65.3359 H   0  0  0  0  0  0  0  0  0  0  0  0
  -46.6472   60.2966   63.7181 H   0  0  0  0  0  0  0  0  0  0  0  0
  -44.8665   61.7311   63.1140 H   0  0  0  0  0  0  0  0  0  0  0  0
  -44.1274   61.4732   64.7141 H   0  0  0  0  0  0  0  0  0  0  0  0
  -46.4072   62.5071   65.5134 H   0  0  0  0  0  0  0  0  0  0  0  0
  -46.2983   64.6318   64.7989 H   0  0  0  0  0  0  0  0  0  0  0  0
  -45.6214   64.8917   62.4031 H   0  0  0  0  0  0  0  0  0  0  0  0
  -44.4108   63.6536   62.6704 H   0  0  0  0  0  0  0  0  0  0  0  0
  -44.5179   66.3239   64.0332 H   0  0  0  0  0  0  0  0  0  0  0  0
  -43.4101   65.8221   62.7178 H   0  0  0  0  0  0  0  0  0  0  0  0
  -43.4444   64.7034   65.4649 H   0  0  0  0  0  0  0  0  0  0  0  0
  -42.2930   65.8961   64.7936 H   0  0  0  0  0  0  0  0  0  0  0  0
  -42.6139   63.0935   63.8541 H   0  0  0  0  0  0  0  0  0  0  0  0
  -41.3252   63.7240   64.9033 H   0  0  0  0  0  0  0  0  0  0  0  0
  -40.5649   65.1612   63.1512 H   0  0  0  0  0  0  0  0  0  0  0  0
  -41.8639   64.5478   62.1019 H   0  0  0  0  0  0  0  0  0  0  0  0
  -40.8939   62.3759   62.1235 H   0  0  0  0  0  0  0  0  0  0  0  0
  -39.5935   62.9970   63.1875 H   0  0  0  0  0  0  0  0  0  0  0  0
  -38.7771   64.3755   61.4451 H   0  0  0  0  0  0  0  0  0  0  0  0
  -40.0737   63.8079   60.3798 H   0  0  0  0  0  0  0  0  0  0  0  0
  -37.8889   62.1350   61.5131 H   0  0  0  0  0  0  0  0  0  0  0  0
  -38.0025   62.7059   59.8656 H   0  0  0  0  0  0  0  0  0  0  0  0
  -39.1861   61.5785   60.4831 H   0  0  0  0  0  0  0  0  0  0  0  0
  1  9  1  0  0  0  0
  1 11  1  0  0  0  0
  1 13  1  0  0  0  0
  1 15  1  0  0  0  0
  2  3  1  0  0  0  0
  2  5  1  0  0  0  0
  2 17  1  0  0  0  0
  2 36  1  6  0  0  0
  3 37  1  0  0  0  0
  4  6  1  0  0  0  0
  4  8  2  1  0  0  0
  4 10  1  0  0  0  0
  4 12  1  0  0  0  0
  5  6  1  0  0  0  0
  5 38  1  0  0  0  0
  5 39  1  0  0  0  0
  7  9  1  0  0  0  0
  7 10  1  0  0  0  0
  7 40  1  0  0  0  0
  7 41  1  0  0  0  0
  9 42  1  0  0  0  0
  9 43  1  0  0  0  0
 11 44  1  0  0  0  0
 11 45  1  0  0  0  0
 11 46  1  0  0  0  0
 12 47  1  0  0  0  0
 13 48  1  0  0  0  0
 13 49  1  0  0  0  0
 13 50  1  0  0  0  0
 14 17  1  0  0  0  0
 14 18  1  0  0  0  0
 15 51  1  0  0  0  0
 15 52  1  0  0  0  0
 15 53  1  0  0  0  0
 16 18  2  0  0  0  0
 17 54  1  0  0  0  0
 17 55  1  0  0  0  0
 18 19  1  0  0  0  0
 19 20  1  0  0  0  0
 19 56  1  0  0  0  0
 19 57  1  0  0  0  0
 20 21  1  0  0  0  0
 20 58  1  0  0  0  0
 20 59  1  0  0  0  0
 21 22  1  0  0  0  0
 21 60  1  0  0  0  0
 21 61  1  0  0  0  0
 22 23  1  0  0  0  0
 22 62  1  0  0  0  0
 22 63  1  0  0  0  0
 23 24  1  0  0  0  0
 23 64  1  0  0  0  0
 23 65  1  0  0  0  0
 24 25  1  0  0  0  0
 24 66  1  0  0  0  0
 24 67  1  0  0  0  0
 25 26  1  0  0  0  0
 25 68  1  0  0  0  0
 25 69  1  0  0  0  0
 26 27  2  0  0  0  0
 26 70  1  0  0  0  0
 27 28  1  0  0  0  0
 27 71  1  0  0  0  0
 28 29  1  0  0  0  0
 28 72  1  0  0  0  0
 28 73  1  0  0  0  0
 29 30  1  0  0  0  0
 29 74  1  0  0  0  0
 29 75  1  0  0  0  0
 30 31  1  0  0  0  0
 30 76  1  0  0  0  0
 30 77  1  0  0  0  0
 31 32  1  0  0  0  0
 31 78  1  0  0  0  0
 31 79  1  0  0  0  0
 32 33  1  0  0  0  0
 32 80  1  0  0  0  0
 32 81  1  0  0  0  0
 33 34  1  0  0  0  0
 33 82  1  0  0  0  0
 33 83  1  0  0  0  0
 34 35  1  0  0  0  0
 34 84  1  0  0  0  0
 34 85  1  0  0  0  0
 35 86  1  0  0  0  0
 35 87  1  0  0  0  0
 35 88  1  0  0  0  0
M  CHG  1   8  -1
M  END
$$$$
