/media/chris/experiments/cd1a-new-docking/inputs/ligands/4x6e_ligand.pdb
 OpenBabel07012320273D

 88 87  0  0  1  0  0  0  0  0999 V2000
  -38.3367   61.6347   70.7057 N   0  0  0  0  0  4  0  0  0  0  0  0
  -40.4045   63.4005   67.5060 C   0  0  1  0  0  0  0  0  0  0  0  0
  -40.3738   64.8050   67.7938 O   0  0  0  0  0  0  0  0  0  0  0  0
  -37.7642   60.3765   67.1348 P   0  0  1  0  0  0  0  0  0  0  0  0
  -38.9971   62.8518   67.5287 C   0  0  0  0  0  0  0  0  0  0  0  0
  -38.9666   61.4356   67.2273 O   0  0  0  0  0  0  0  0  0  0  0  0
  -36.5581   60.1346   69.6066 C   0  0  0  0  0  0  0  0  0  0  0  0
  -36.5040   61.1219   66.6984 O   0  5  0  0  0  0  0  0  0  0  0  0
  -36.9619   61.5106   70.0753 C   0  0  0  0  0  0  0  0  0  0  0  0
  -37.4799   59.6602   68.5878 O   0  0  0  0  0  0  0  0  0  0  0  0
  -38.4334   60.7749   71.9250 C   0  0  0  0  0  0  0  0  0  0  0  0
  -38.0973   59.3706   66.1026 O   0  0  0  0  0  0  0  0  0  0  0  0
  -39.3590   61.1867   69.7134 C   0  0  0  0  0  0  0  0  0  0  0  0
  -41.3570   61.2510   68.1894 O   0  0  0  0  0  0  0  0  0  0  0  0
  -38.6112   63.0596   71.0941 C   0  0  0  0  0  0  0  0  0  0  0  0
  -43.1430   61.3669   66.8296 O   0  0  0  0  0  0  0  0  0  0  0  0
  -41.3287   62.6702   68.4573 C   0  0  0  0  0  0  0  0  0  0  0  0
  -42.1287   60.8209   67.1868 C   0  0  0  0  0  0  0  0  0  0  0  0
  -41.5470   59.5850   66.5720 C   0  0  0  0  0  0  0  0  0  0  0  0
  -42.4780   58.3810   66.6510 C   0  0  0  0  0  0  0  0  0  0  0  0
  -43.8050   58.5690   65.9360 C   0  0  0  0  0  0  0  0  0  0  0  0
  -44.7241   57.3648   66.0412 C   0  0  0  0  0  0  0  0  0  0  0  0
  -46.0403   57.5587   65.3081 C   0  0  0  0  0  0  0  0  0  0  0  0
  -46.9497   56.3572   65.4376 C   0  0  0  0  0  0  0  0  0  0  0  0
  -47.3495   56.0137   66.8582 C   0  0  0  0  0  0  0  0  0  0  0  0
  -48.0933   57.0895   67.5523 C   0  0  0  0  0  0  0  0  0  0  0  0
  -49.4012   57.2446   67.5652 C   0  0  0  0  0  0  0  0  0  0  0  0
  -50.4217   56.3600   66.9259 C   0  0  0  0  0  0  0  0  0  0  0  0
  -50.8683   55.2758   67.9081 C   0  0  0  0  0  0  0  0  0  0  0  0
  -51.8993   54.2940   67.3709 C   0  0  0  0  0  0  0  0  0  0  0  0
  -52.3507   53.2276   68.3616 C   0  0  0  0  0  0  0  0  0  0  0  0
  -51.2119   52.3536   68.8769 C   0  0  0  0  0  0  0  0  0  0  0  0
  -50.1330   53.1276   69.6175 C   0  0  0  0  0  0  0  0  0  0  0  0
  -50.6003   53.8685   70.8613 C   0  0  0  0  0  0  0  0  0  0  0  0
  -49.4962   54.6238   71.5352 C   0  0  0  0  0  0  0  0  0  0  0  0
  -40.8028   63.2449   66.5252 H   0  0  0  0  0  0  0  0  0  0  0  0
  -40.0126   64.9450   68.6831 H   0  0  0  0  0  0  0  0  0  0  0  0
  -38.5802   63.0079   68.5017 H   0  0  0  0  0  0  0  0  0  0  0  0
  -38.4289   63.3633   66.7800 H   0  0  0  0  0  0  0  0  0  0  0  0
  -36.5718   59.4602   70.4372 H   0  0  0  0  0  0  0  0  0  0  0  0
  -35.5732   60.1827   69.1910 H   0  0  0  0  0  0  0  0  0  0  0  0
  -36.2423   61.8318   70.7990 H   0  0  0  0  0  0  0  0  0  0  0  0
  -37.0009   62.1111   69.1905 H   0  0  0  0  0  0  0  0  0  0  0  0
  -38.2394   59.7567   71.6597 H   0  0  0  0  0  0  0  0  0  0  0  0
  -39.4163   60.8543   72.3403 H   0  0  0  0  0  0  0  0  0  0  0  0
  -37.7137   61.0985   72.6476 H   0  0  0  0  0  0  0  0  0  0  0  0
  -38.2602   59.8169   65.2569 H   0  0  0  0  0  0  0  0  0  0  0  0
  -39.1654   60.1718   69.4353 H   0  0  0  0  0  0  0  0  0  0  0  0
  -39.3104   61.8100   68.8451 H   0  0  0  0  0  0  0  0  0  0  0  0
  -40.3338   61.2574   70.1490 H   0  0  0  0  0  0  0  0  0  0  0  0
  -37.8798   63.3827   71.8051 H   0  0  0  0  0  0  0  0  0  0  0  0
  -39.5864   63.1292   71.5289 H   0  0  0  0  0  0  0  0  0  0  0  0
  -38.5629   63.6818   70.2250 H   0  0  0  0  0  0  0  0  0  0  0  0
  -42.3180   63.0633   68.3500 H   0  0  0  0  0  0  0  0  0  0  0  0
  -40.9649   62.8148   69.4531 H   0  0  0  0  0  0  0  0  0  0  0  0
  -40.6379   59.3462   67.0832 H   0  0  0  0  0  0  0  0  0  0  0  0
  -41.3821   59.7924   65.5353 H   0  0  0  0  0  0  0  0  0  0  0  0
  -42.6787   58.1797   67.6825 H   0  0  0  0  0  0  0  0  0  0  0  0
  -41.9769   57.5734   66.1596 H   0  0  0  0  0  0  0  0  0  0  0  0
  -43.6088   58.7562   64.9009 H   0  0  0  0  0  0  0  0  0  0  0  0
  -44.3043   59.3890   66.4084 H   0  0  0  0  0  0  0  0  0  0  0  0
  -44.9328   57.1840   67.0750 H   0  0  0  0  0  0  0  0  0  0  0  0
  -44.2219   56.5372   65.5852 H   0  0  0  0  0  0  0  0  0  0  0  0
  -45.8357   57.7257   64.2712 H   0  0  0  0  0  0  0  0  0  0  0  0
  -46.5398   58.3972   65.7467 H   0  0  0  0  0  0  0  0  0  0  0  0
  -46.4451   55.5111   65.0199 H   0  0  0  0  0  0  0  0  0  0  0  0
  -47.8536   56.6062   64.9218 H   0  0  0  0  0  0  0  0  0  0  0  0
  -46.4609   55.8050   67.4165 H   0  0  0  0  0  0  0  0  0  0  0  0
  -48.0071   55.1717   66.7992 H   0  0  0  0  0  0  0  0  0  0  0  0
  -47.5348   57.7824   68.0748 H   0  0  0  0  0  0  0  0  0  0  0  0
  -49.7608   58.0680   68.0728 H   0  0  0  0  0  0  0  0  0  0  0  0
  -49.9968   55.8987   66.0590 H   0  0  0  0  0  0  0  0  0  0  0  0
  -51.2698   56.9496   66.6464 H   0  0  0  0  0  0  0  0  0  0  0  0
  -51.2880   55.7594   68.7653 H   0  0  0  0  0  0  0  0  0  0  0  0
  -49.9950   54.6971   68.1258 H   0  0  0  0  0  0  0  0  0  0  0  0
  -51.4760   53.7999   66.5214 H   0  0  0  0  0  0  0  0  0  0  0  0
  -52.7688   54.8718   67.1368 H   0  0  0  0  0  0  0  0  0  0  0  0
  -53.0683   52.5983   67.8779 H   0  0  0  0  0  0  0  0  0  0  0  0
  -52.7625   53.7381   69.2070 H   0  0  0  0  0  0  0  0  0  0  0  0
  -50.7604   51.8604   68.0416 H   0  0  0  0  0  0  0  0  0  0  0  0
  -51.6385   51.6655   69.5764 H   0  0  0  0  0  0  0  0  0  0  0  0
  -49.7185   53.8458   68.9413 H   0  0  0  0  0  0  0  0  0  0  0  0
  -49.4264   52.3988   69.9560 H   0  0  0  0  0  0  0  0  0  0  0  0
  -51.0000   53.1570   71.5533 H   0  0  0  0  0  0  0  0  0  0  0  0
  -51.3376   54.5807   70.5545 H   0  0  0  0  0  0  0  0  0  0  0  0
  -48.7393   53.9387   71.8556 H   0  0  0  0  0  0  0  0  0  0  0  0
  -49.8872   55.1457   72.3836 H   0  0  0  0  0  0  0  0  0  0  0  0
  -49.0735   55.3265   70.8479 H   0  0  0  0  0  0  0  0  0  0  0  0
  1  9  1  0  0  0  0
  1 11  1  0  0  0  0
  1 13  1  0  0  0  0
  1 15  1  0  0  0  0
  2  3  1  0  0  0  0
  2  5  1  0  0  0  0
  2 17  1  0  0  0  0
  2 36  1  6  0  0  0
  3 37  1  0  0  0  0
  4  6  1  0  0  0  0
  4  8  2  6  0  0  0
  4 10  1  0  0  0  0
  4 12  1  0  0  0  0
  5  6  1  0  0  0  0
  5 38  1  0  0  0  0
  5 39  1  0  0  0  0
  7  9  1  0  0  0  0
  7 10  1  0  0  0  0
  7 40  1  0  0  0  0
  7 41  1  0  0  0  0
  9 42  1  0  0  0  0
  9 43  1  0  0  0  0
 11 44  1  0  0  0  0
 11 45  1  0  0  0  0
 11 46  1  0  0  0  0
 12 47  1  0  0  0  0
 13 48  1  0  0  0  0
 13 49  1  0  0  0  0
 13 50  1  0  0  0  0
 14 17  1  0  0  0  0
 14 18  1  0  0  0  0
 15 51  1  0  0  0  0
 15 52  1  0  0  0  0
 15 53  1  0  0  0  0
 16 18  2  0  0  0  0
 17 54  1  0  0  0  0
 17 55  1  0  0  0  0
 18 19  1  0  0  0  0
 19 20  1  0  0  0  0
 19 56  1  0  0  0  0
 19 57  1  0  0  0  0
 20 21  1  0  0  0  0
 20 58  1  0  0  0  0
 20 59  1  0  0  0  0
 21 22  1  0  0  0  0
 21 60  1  0  0  0  0
 21 61  1  0  0  0  0
 22 23  1  0  0  0  0
 22 62  1  0  0  0  0
 22 63  1  0  0  0  0
 23 24  1  0  0  0  0
 23 64  1  0  0  0  0
 23 65  1  0  0  0  0
 24 25  1  0  0  0  0
 24 66  1  0  0  0  0
 24 67  1  0  0  0  0
 25 26  1  0  0  0  0
 25 68  1  0  0  0  0
 25 69  1  0  0  0  0
 26 27  2  0  0  0  0
 26 70  1  0  0  0  0
 27 28  1  0  0  0  0
 27 71  1  0  0  0  0
 28 29  1  0  0  0  0
 28 72  1  0  0  0  0
 28 73  1  0  0  0  0
 29 30  1  0  0  0  0
 29 74  1  0  0  0  0
 29 75  1  0  0  0  0
 30 31  1  0  0  0  0
 30 76  1  0  0  0  0
 30 77  1  0  0  0  0
 31 32  1  0  0  0  0
 31 78  1  0  0  0  0
 31 79  1  0  0  0  0
 32 33  1  0  0  0  0
 32 80  1  0  0  0  0
 32 81  1  0  0  0  0
 33 34  1  0  0  0  0
 33 82  1  0  0  0  0
 33 83  1  0  0  0  0
 34 35  1  0  0  0  0
 34 84  1  0  0  0  0
 34 85  1  0  0  0  0
 35 86  1  0  0  0  0
 35 87  1  0  0  0  0
 35 88  1  0  0  0  0
M  CHG  1   8  -1
M  END
$$$$