/media/chris/experiments/cd1a-new-docking/inputs/ligands/4x6e_ligand.pdb
 OpenBabel07012320273D

 88 87  0  0  1  0  0  0  0  0999 V2000
  -50.2297   62.1744   62.4774 N   0  0  0  0  0  4  0  0  0  0  0  0
  -42.7276   62.2162   63.6499 C   0  0  1  0  0  0  0  0  0  0  0  0
  -43.2019   63.0919   64.6817 O   0  0  0  0  0  0  0  0  0  0  0  0
  -45.3478   63.5786   60.9055 P   0  0  1  0  0  0  0  0  0  0  0  0
  -43.0525   62.8089   62.2989 C   0  0  0  0  0  0  0  0  0  0  0  0
  -44.4766   63.0074   62.1265 O   0  0  0  0  0  0  0  0  0  0  0  0
  -47.8469   62.9559   61.9005 C   0  0  0  0  0  0  0  0  0  0  0  0
  -44.6130   63.2597   59.6046 O   0  5  0  0  0  0  0  0  0  0  0  0
  -49.0762   62.1828   61.4916 C   0  0  0  0  0  0  0  0  0  0  0  0
  -46.8393   62.8872   60.8551 O   0  0  0  0  0  0  0  0  0  0  0  0
  -49.7981   61.5897   63.7839 C   0  0  0  0  0  0  0  0  0  0  0  0
  -45.4477   65.0482   61.0415 O   0  0  0  0  0  0  0  0  0  0  0  0
  -51.3335   61.3411   61.9136 C   0  0  0  0  0  0  0  0  0  0  0  0
  -40.9743   61.2799   65.0797 O   0  0  0  0  0  0  0  0  0  0  0  0
  -50.7311   63.5707   62.7131 C   0  0  0  0  0  0  0  0  0  0  0  0
  -41.1021   59.1991   64.2392 O   0  0  0  0  0  0  0  0  0  0  0  0
  -41.2510   61.9268   63.8181 C   0  0  0  0  0  0  0  0  0  0  0  0
  -41.1924   59.9644   65.1670 C   0  0  0  0  0  0  0  0  0  0  0  0
  -41.5470   59.5850   66.5720 C   0  0  0  0  0  0  0  0  0  0  0  0
  -42.4780   58.3810   66.6510 C   0  0  0  0  0  0  0  0  0  0  0  0
  -43.8050   58.5690   65.9360 C   0  0  0  0  0  0  0  0  0  0  0  0
  -43.6578   58.8291   64.4471 C   0  0  0  0  0  0  0  0  0  0  0  0
  -42.9740   57.6892   63.7118 C   0  0  0  0  0  0  0  0  0  0  0  0
  -43.7434   56.3921   63.8252 C   0  0  0  0  0  0  0  0  0  0  0  0
  -45.1447   56.4328   63.2503 C   0  0  0  0  0  0  0  0  0  0  0  0
  -45.8891   55.1600   63.3846 C   0  0  0  0  0  0  0  0  0  0  0  0
  -46.6617   54.8160   64.3943 C   0  0  0  0  0  0  0  0  0  0  0  0
  -46.9920   55.6362   65.5989 C   0  0  0  0  0  0  0  0  0  0  0  0
  -45.9755   55.3719   66.7108 C   0  0  0  0  0  0  0  0  0  0  0  0
  -45.8836   53.9274   67.1804 C   0  0  0  0  0  0  0  0  0  0  0  0
  -45.4735   52.9260   66.1073 C   0  0  0  0  0  0  0  0  0  0  0  0
  -45.4084   51.4874   66.6095 C   0  0  0  0  0  0  0  0  0  0  0  0
  -44.9832   50.4865   65.5469 C   0  0  0  0  0  0  0  0  0  0  0  0
  -43.6021   50.7157   64.9515 C   0  0  0  0  0  0  0  0  0  0  0  0
  -43.4676   52.0570   64.2987 C   0  0  0  0  0  0  0  0  0  0  0  0
  -43.2267   61.2726   63.7241 H   0  0  0  0  0  0  0  0  0  0  0  0
  -42.7489   63.9469   64.6136 H   0  0  0  0  0  0  0  0  0  0  0  0
  -42.7005   62.1461   61.5362 H   0  0  0  0  0  0  0  0  0  0  0  0
  -42.5732   63.7632   62.2306 H   0  0  0  0  0  0  0  0  0  0  0  0
  -47.4500   62.5377   62.8019 H   0  0  0  0  0  0  0  0  0  0  0  0
  -48.1153   63.9794   62.0597 H   0  0  0  0  0  0  0  0  0  0  0  0
  -49.4347   62.6031   60.5753 H   0  0  0  0  0  0  0  0  0  0  0  0
  -48.7585   61.1636   61.4188 H   0  0  0  0  0  0  0  0  0  0  0  0
  -49.4387   60.5940   63.6277 H   0  0  0  0  0  0  0  0  0  0  0  0
  -50.6297   61.5673   64.4568 H   0  0  0  0  0  0  0  0  0  0  0  0
  -49.0169   62.1893   64.2023 H   0  0  0  0  0  0  0  0  0  0  0  0
  -44.5571   65.4317   61.0689 H   0  0  0  0  0  0  0  0  0  0  0  0
  -50.9785   60.3459   61.7449 H   0  0  0  0  0  0  0  0  0  0  0  0
  -51.6625   61.7643   60.9875 H   0  0  0  0  0  0  0  0  0  0  0  0
  -52.1502   61.3162   62.6045 H   0  0  0  0  0  0  0  0  0  0  0  0
  -49.9418   64.1696   63.1172 H   0  0  0  0  0  0  0  0  0  0  0  0
  -51.5481   63.5445   63.4035 H   0  0  0  0  0  0  0  0  0  0  0  0
  -51.0604   63.9926   61.7866 H   0  0  0  0  0  0  0  0  0  0  0  0
  -40.7097   62.8488   63.7749 H   0  0  0  0  0  0  0  0  0  0  0  0
  -40.9483   61.2677   63.0314 H   0  0  0  0  0  0  0  0  0  0  0  0
  -42.0288   60.4189   67.0383 H   0  0  0  0  0  0  0  0  0  0  0  0
  -40.6378   59.3175   67.0687 H   0  0  0  0  0  0  0  0  0  0  0  0
  -42.6787   58.1797   67.6825 H   0  0  0  0  0  0  0  0  0  0  0  0
  -41.9769   57.5734   66.1596 H   0  0  0  0  0  0  0  0  0  0  0  0
  -44.3126   59.4014   66.3769 H   0  0  0  0  0  0  0  0  0  0  0  0
  -44.3534   57.6566   66.0440 H   0  0  0  0  0  0  0  0  0  0  0  0
  -43.0787   59.7186   64.3117 H   0  0  0  0  0  0  0  0  0  0  0  0
  -44.6423   58.9284   64.0400 H   0  0  0  0  0  0  0  0  0  0  0  0
  -41.9978   57.5481   64.1268 H   0  0  0  0  0  0  0  0  0  0  0  0
  -42.9229   57.9510   62.6756 H   0  0  0  0  0  0  0  0  0  0  0  0
  -43.8162   56.1377   64.8620 H   0  0  0  0  0  0  0  0  0  0  0  0
  -43.2026   55.6695   63.2505 H   0  0  0  0  0  0  0  0  0  0  0  0
  -45.0745   56.6731   62.2100 H   0  0  0  0  0  0  0  0  0  0  0  0
  -45.6864   57.1680   63.8079 H   0  0  0  0  0  0  0  0  0  0  0  0
  -45.7938   54.4788   62.6152 H   0  0  0  0  0  0  0  0  0  0  0  0
  -47.0857   53.8763   64.3485 H   0  0  0  0  0  0  0  0  0  0  0  0
  -47.9706   55.3774   65.9455 H   0  0  0  0  0  0  0  0  0  0  0  0
  -46.9607   56.6728   65.3356 H   0  0  0  0  0  0  0  0  0  0  0  0
  -46.2421   55.9764   67.5525 H   0  0  0  0  0  0  0  0  0  0  0  0
  -45.0175   55.6093   66.2975 H   0  0  0  0  0  0  0  0  0  0  0  0
  -46.8434   53.6383   67.5546 H   0  0  0  0  0  0  0  0  0  0  0  0
  -45.1131   53.9027   67.9224 H   0  0  0  0  0  0  0  0  0  0  0  0
  -44.5067   53.2004   65.7400 H   0  0  0  0  0  0  0  0  0  0  0  0
  -46.2225   52.9590   65.3439 H   0  0  0  0  0  0  0  0  0  0  0  0
  -46.3785   51.2100   66.9657 H   0  0  0  0  0  0  0  0  0  0  0  0
  -44.6665   51.4589   67.3799 H   0  0  0  0  0  0  0  0  0  0  0  0
  -45.6969   50.5268   64.7507 H   0  0  0  0  0  0  0  0  0  0  0  0
  -44.9396   49.5363   66.0369 H   0  0  0  0  0  0  0  0  0  0  0  0
  -43.4155   49.9585   64.2189 H   0  0  0  0  0  0  0  0  0  0  0  0
  -42.8945   50.6748   65.7531 H   0  0  0  0  0  0  0  0  0  0  0  0
  -44.1639   52.1313   63.4896 H   0  0  0  0  0  0  0  0  0  0  0  0
  -42.4720   52.1733   63.9243 H   0  0  0  0  0  0  0  0  0  0  0  0
  -43.6709   52.8247   65.0157 H   0  0  0  0  0  0  0  0  0  0  0  0
  1  9  1  0  0  0  0
  1 11  1  0  0  0  0
  1 13  1  0  0  0  0
  1 15  1  0  0  0  0
  2  3  1  0  0  0  0
  2  5  1  0  0  0  0
  2 17  1  0  0  0  0
  2 36  1  1  0  0  0
  3 37  1  0  0  0  0
  4  6  1  0  0  0  0
  4  8  2  6  0  0  0
  4 10  1  0  0  0  0
  4 12  1  0  0  0  0
  5  6  1  0  0  0  0
  5 38  1  0  0  0  0
  5 39  1  0  0  0  0
  7  9  1  0  0  0  0
  7 10  1  0  0  0  0
  7 40  1  0  0  0  0
  7 41  1  0  0  0  0
  9 42  1  0  0  0  0
  9 43  1  0  0  0  0
 11 44  1  0  0  0  0
 11 45  1  0  0  0  0
 11 46  1  0  0  0  0
 12 47  1  0  0  0  0
 13 48  1  0  0  0  0
 13 49  1  0  0  0  0
 13 50  1  0  0  0  0
 14 17  1  0  0  0  0
 14 18  1  0  0  0  0
 15 51  1  0  0  0  0
 15 52  1  0  0  0  0
 15 53  1  0  0  0  0
 16 18  2  0  0  0  0
 17 54  1  0  0  0  0
 17 55  1  0  0  0  0
 18 19  1  0  0  0  0
 19 20  1  0  0  0  0
 19 56  1  0  0  0  0
 19 57  1  0  0  0  0
 20 21  1  0  0  0  0
 20 58  1  0  0  0  0
 20 59  1  0  0  0  0
 21 22  1  0  0  0  0
 21 60  1  0  0  0  0
 21 61  1  0  0  0  0
 22 23  1  0  0  0  0
 22 62  1  0  0  0  0
 22 63  1  0  0  0  0
 23 24  1  0  0  0  0
 23 64  1  0  0  0  0
 23 65  1  0  0  0  0
 24 25  1  0  0  0  0
 24 66  1  0  0  0  0
 24 67  1  0  0  0  0
 25 26  1  0  0  0  0
 25 68  1  0  0  0  0
 25 69  1  0  0  0  0
 26 27  2  0  0  0  0
 26 70  1  0  0  0  0
 27 28  1  0  0  0  0
 27 71  1  0  0  0  0
 28 29  1  0  0  0  0
 28 72  1  0  0  0  0
 28 73  1  0  0  0  0
 29 30  1  0  0  0  0
 29 74  1  0  0  0  0
 29 75  1  0  0  0  0
 30 31  1  0  0  0  0
 30 76  1  0  0  0  0
 30 77  1  0  0  0  0
 31 32  1  0  0  0  0
 31 78  1  0  0  0  0
 31 79  1  0  0  0  0
 32 33  1  0  0  0  0
 32 80  1  0  0  0  0
 32 81  1  0  0  0  0
 33 34  1  0  0  0  0
 33 82  1  0  0  0  0
 33 83  1  0  0  0  0
 34 35  1  0  0  0  0
 34 84  1  0  0  0  0
 34 85  1  0  0  0  0
 35 86  1  0  0  0  0
 35 87  1  0  0  0  0
 35 88  1  0  0  0  0
M  CHG  1   8  -1
M  END
$$$$