/media/chris/experiments/cd1a-new-docking/inputs/ligands/4x6e_ligand.pdb
 OpenBabel07012320273D

 88 87  0  0  1  0  0  0  0  0999 V2000
  -39.7630   60.7282   59.1781 N   0  0  0  0  0  4  0  0  0  0  0  0
  -39.1270   57.1462   65.6942 C   0  0  1  0  0  0  0  0  0  0  0  0
  -40.1770   56.7678   66.5946 O   0  0  0  0  0  0  0  0  0  0  0  0
  -38.7493   58.1314   61.8032 P   0  0  1  0  0  0  0  0  0  0  0  0
  -39.7060   57.3877   64.3199 C   0  0  0  0  0  0  0  0  0  0  0  0
  -38.6842   57.7582   63.3628 O   0  0  0  0  0  0  0  0  0  0  0  0
  -37.5368   60.1151   60.3139 C   0  0  0  0  0  0  0  0  0  0  0  0
  -40.2067   58.0475   61.3526 O   0  5  0  0  0  0  0  0  0  0  0  0
  -38.4566   59.9579   59.1284 C   0  0  0  0  0  0  0  0  0  0  0  0
  -38.1954   59.6549   61.5252 O   0  0  0  0  0  0  0  0  0  0  0  0
  -40.5744   60.4633   57.9507 C   0  0  0  0  0  0  0  0  0  0  0  0
  -37.9639   57.1338   61.0441 O   0  0  0  0  0  0  0  0  0  0  0  0
  -39.4542   62.1876   59.2503 C   0  0  0  0  0  0  0  0  0  0  0  0
  -39.2251   59.4857   66.4098 O   0  0  0  0  0  0  0  0  0  0  0  0
  -40.5641   60.3289   60.3845 C   0  0  0  0  0  0  0  0  0  0  0  0
  -40.1085   59.1264   68.4453 O   0  0  0  0  0  0  0  0  0  0  0  0
  -38.3627   58.3421   66.2215 C   0  0  0  0  0  0  0  0  0  0  0  0
  -40.2402   59.3661   67.2706 C   0  0  0  0  0  0  0  0  0  0  0  0
  -41.5470   59.5850   66.5720 C   0  0  0  0  0  0  0  0  0  0  0  0
  -42.4780   58.3810   66.6510 C   0  0  0  0  0  0  0  0  0  0  0  0
  -43.8050   58.5690   65.9360 C   0  0  0  0  0  0  0  0  0  0  0  0
  -44.7241   57.3648   66.0412 C   0  0  0  0  0  0  0  0  0  0  0  0
  -46.0403   57.5587   65.3081 C   0  0  0  0  0  0  0  0  0  0  0  0
  -46.9497   56.3572   65.4376 C   0  0  0  0  0  0  0  0  0  0  0  0
  -48.2743   56.4824   64.7125 C   0  0  0  0  0  0  0  0  0  0  0  0
  -49.1006   57.6269   65.1592 C   0  0  0  0  0  0  0  0  0  0  0  0
  -48.7633   58.8985   65.0961 C   0  0  0  0  0  0  0  0  0  0  0  0
  -47.5051   59.4720   64.5299 C   0  0  0  0  0  0  0  0  0  0  0  0
  -47.6907   59.7846   63.0442 C   0  0  0  0  0  0  0  0  0  0  0  0
  -48.0589   58.5956   62.1688 C   0  0  0  0  0  0  0  0  0  0  0  0
  -47.0491   57.4544   62.1744 C   0  0  0  0  0  0  0  0  0  0  0  0
  -45.6588   57.8689   61.7037 C   0  0  0  0  0  0  0  0  0  0  0  0
  -44.6517   56.7299   61.6912 C   0  0  0  0  0  0  0  0  0  0  0  0
  -43.2475   57.1068   61.2434 C   0  0  0  0  0  0  0  0  0  0  0  0
  -43.2134   57.6716   59.8565 C   0  0  0  0  0  0  0  0  0  0  0  0
  -38.4172   56.3492   65.6171 H   0  0  0  0  0  0  0  0  0  0  0  0
  -40.8198   57.4909   66.6638 H   0  0  0  0  0  0  0  0  0  0  0  0
  -40.4257   58.1771   64.3811 H   0  0  0  0  0  0  0  0  0  0  0  0
  -40.1600   56.4781   63.9860 H   0  0  0  0  0  0  0  0  0  0  0  0
  -37.2755   61.1468   60.4239 H   0  0  0  0  0  0  0  0  0  0  0  0
  -36.6557   59.5301   60.1520 H   0  0  0  0  0  0  0  0  0  0  0  0
  -37.9230   60.2786   58.2581 H   0  0  0  0  0  0  0  0  0  0  0  0
  -38.7368   58.9252   59.1223 H   0  0  0  0  0  0  0  0  0  0  0  0
  -40.0129   60.7443   57.0844 H   0  0  0  0  0  0  0  0  0  0  0  0
  -41.4784   61.0344   57.9906 H   0  0  0  0  0  0  0  0  0  0  0  0
  -40.8128   59.4215   57.8987 H   0  0  0  0  0  0  0  0  0  0  0  0
  -38.3091   56.2454   61.2244 H   0  0  0  0  0  0  0  0  0  0  0  0
  -38.8835   62.4743   58.3918 H   0  0  0  0  0  0  0  0  0  0  0  0
  -38.8903   62.3894   60.1370 H   0  0  0  0  0  0  0  0  0  0  0  0
  -40.3674   62.7447   59.2738 H   0  0  0  0  0  0  0  0  0  0  0  0
  -40.7865   59.2835   60.3349 H   0  0  0  0  0  0  0  0  0  0  0  0
  -41.4767   60.8870   60.4073 H   0  0  0  0  0  0  0  0  0  0  0  0
  -39.9996   60.5318   61.2706 H   0  0  0  0  0  0  0  0  0  0  0  0
  -37.5944   58.5985   65.5223 H   0  0  0  0  0  0  0  0  0  0  0  0
  -37.9447   58.0792   67.1707 H   0  0  0  0  0  0  0  0  0  0  0  0
  -41.3508   59.7963   65.5416 H   0  0  0  0  0  0  0  0  0  0  0  0
  -42.0377   60.3996   67.0625 H   0  0  0  0  0  0  0  0  0  0  0  0
  -42.6787   58.1797   67.6825 H   0  0  0  0  0  0  0  0  0  0  0  0
  -41.9769   57.5734   66.1596 H   0  0  0  0  0  0  0  0  0  0  0  0
  -43.6088   58.7562   64.9009 H   0  0  0  0  0  0  0  0  0  0  0  0
  -44.3043   59.3890   66.4084 H   0  0  0  0  0  0  0  0  0  0  0  0
  -44.9328   57.1840   67.0750 H   0  0  0  0  0  0  0  0  0  0  0  0
  -44.2219   56.5372   65.5852 H   0  0  0  0  0  0  0  0  0  0  0  0
  -45.8357   57.7257   64.2712 H   0  0  0  0  0  0  0  0  0  0  0  0
  -46.5398   58.3972   65.7467 H   0  0  0  0  0  0  0  0  0  0  0  0
  -47.1523   56.2034   66.4769 H   0  0  0  0  0  0  0  0  0  0  0  0
  -46.4333   55.5379   64.9826 H   0  0  0  0  0  0  0  0  0  0  0  0
  -48.8314   55.5829   64.8721 H   0  0  0  0  0  0  0  0  0  0  0  0
  -48.0472   56.6494   63.6803 H   0  0  0  0  0  0  0  0  0  0  0  0
  -50.0273   57.4079   65.5570 H   0  0  0  0  0  0  0  0  0  0  0  0
  -49.4431   59.5733   65.4802 H   0  0  0  0  0  0  0  0  0  0  0  0
  -46.7105   58.7649   64.6460 H   0  0  0  0  0  0  0  0  0  0  0  0
  -47.2675   60.3761   65.0506 H   0  0  0  0  0  0  0  0  0  0  0  0
  -46.7736   60.1944   62.6758 H   0  0  0  0  0  0  0  0  0  0  0  0
  -48.5177   60.4611   62.9861 H   0  0  0  0  0  0  0  0  0  0  0  0
  -48.1610   58.9436   61.1622 H   0  0  0  0  0  0  0  0  0  0  0  0
  -48.9647   58.1952   62.5739 H   0  0  0  0  0  0  0  0  0  0  0  0
  -47.4086   56.6810   61.5282 H   0  0  0  0  0  0  0  0  0  0  0  0
  -46.9526   57.1248   63.1878 H   0  0  0  0  0  0  0  0  0  0  0  0
  -45.2952   58.6338   62.3576 H   0  0  0  0  0  0  0  0  0  0  0  0
  -45.7592   58.2079   60.6938 H   0  0  0  0  0  0  0  0  0  0  0  0
  -45.0174   55.9728   61.0294 H   0  0  0  0  0  0  0  0  0  0  0  0
  -44.5606   56.4051   62.7067 H   0  0  0  0  0  0  0  0  0  0  0  0
  -42.6330   56.2313   61.2713 H   0  0  0  0  0  0  0  0  0  0  0  0
  -42.8891   57.8642   61.9089 H   0  0  0  0  0  0  0  0  0  0  0  0
  -43.5668   56.9370   59.1635 H   0  0  0  0  0  0  0  0  0  0  0  0
  -42.2091   57.9435   59.6067 H   0  0  0  0  0  0  0  0  0  0  0  0
  -43.8398   58.5377   59.8086 H   0  0  0  0  0  0  0  0  0  0  0  0
  1  9  1  0  0  0  0
  1 11  1  0  0  0  0
  1 13  1  0  0  0  0
  1 15  1  0  0  0  0
  2  3  1  0  0  0  0
  2  5  1  0  0  0  0
  2 17  1  0  0  0  0
  2 36  1  6  0  0  0
  3 37  1  0  0  0  0
  4  6  1  0  0  0  0
  4  8  2  6  0  0  0
  4 10  1  0  0  0  0
  4 12  1  0  0  0  0
  5  6  1  0  0  0  0
  5 38  1  0  0  0  0
  5 39  1  0  0  0  0
  7  9  1  0  0  0  0
  7 10  1  0  0  0  0
  7 40  1  0  0  0  0
  7 41  1  0  0  0  0
  9 42  1  0  0  0  0
  9 43  1  0  0  0  0
 11 44  1  0  0  0  0
 11 45  1  0  0  0  0
 11 46  1  0  0  0  0
 12 47  1  0  0  0  0
 13 48  1  0  0  0  0
 13 49  1  0  0  0  0
 13 50  1  0  0  0  0
 14 17  1  0  0  0  0
 14 18  1  0  0  0  0
 15 51  1  0  0  0  0
 15 52  1  0  0  0  0
 15 53  1  0  0  0  0
 16 18  2  0  0  0  0
 17 54  1  0  0  0  0
 17 55  1  0  0  0  0
 18 19  1  0  0  0  0
 19 20  1  0  0  0  0
 19 56  1  0  0  0  0
 19 57  1  0  0  0  0
 20 21  1  0  0  0  0
 20 58  1  0  0  0  0
 20 59  1  0  0  0  0
 21 22  1  0  0  0  0
 21 60  1  0  0  0  0
 21 61  1  0  0  0  0
 22 23  1  0  0  0  0
 22 62  1  0  0  0  0
 22 63  1  0  0  0  0
 23 24  1  0  0  0  0
 23 64  1  0  0  0  0
 23 65  1  0  0  0  0
 24 25  1  0  0  0  0
 24 66  1  0  0  0  0
 24 67  1  0  0  0  0
 25 26  1  0  0  0  0
 25 68  1  0  0  0  0
 25 69  1  0  0  0  0
 26 27  2  0  0  0  0
 26 70  1  0  0  0  0
 27 28  1  0  0  0  0
 27 71  1  0  0  0  0
 28 29  1  0  0  0  0
 28 72  1  0  0  0  0
 28 73  1  0  0  0  0
 29 30  1  0  0  0  0
 29 74  1  0  0  0  0
 29 75  1  0  0  0  0
 30 31  1  0  0  0  0
 30 76  1  0  0  0  0
 30 77  1  0  0  0  0
 31 32  1  0  0  0  0
 31 78  1  0  0  0  0
 31 79  1  0  0  0  0
 32 33  1  0  0  0  0
 32 80  1  0  0  0  0
 32 81  1  0  0  0  0
 33 34  1  0  0  0  0
 33 82  1  0  0  0  0
 33 83  1  0  0  0  0
 34 35  1  0  0  0  0
 34 84  1  0  0  0  0
 34 85  1  0  0  0  0
 35 86  1  0  0  0  0
 35 87  1  0  0  0  0
 35 88  1  0  0  0  0
M  CHG  1   8  -1
M  END
$$$$