/media/chris/experiments/cd1a-new-docking/inputs/ligands/4x6e_ligand.pdb
 OpenBabel07012320273D

 88 87  0  0  1  0  0  0  0  0999 V2000
  -49.4471   60.7459   67.8002 N   0  0  0  0  0  4  0  0  0  0  0  0
  -42.7938   59.7489   70.4040 C   0  0  1  0  0  0  0  0  0  0  0  0
  -41.5663   59.7777   71.1449 O   0  0  0  0  0  0  0  0  0  0  0  0
  -45.8557   58.5958   69.6359 P   0  0  1  0  0  0  0  0  0  0  0  0
  -43.9593   59.7000   71.3640 C   0  0  0  0  0  0  0  0  0  0  0  0
  -45.2284   59.6528   70.6679 O   0  0  0  0  0  0  0  0  0  0  0  0
  -48.3079   59.8325   69.9190 C   0  0  0  0  0  0  0  0  0  0  0  0
  -45.9593   57.2442   70.3407 O   0  5  0  0  0  0  0  0  0  0  0  0
  -49.5802   60.0339   69.1336 C   0  0  0  0  0  0  0  0  0  0  0  0
  -47.3568   59.0533   69.1436 O   0  0  0  0  0  0  0  0  0  0  0  0
  -48.5524   59.9763   66.8824 C   0  0  0  0  0  0  0  0  0  0  0  0
  -44.9381   58.4566   68.4839 O   0  0  0  0  0  0  0  0  0  0  0  0
  -48.8541   62.0960   68.0370 C   0  0  0  0  0  0  0  0  0  0  0  0
  -41.8036   60.8958   68.4808 O   0  0  0  0  0  0  0  0  0  0  0  0
  -50.7921   60.9005   67.1493 C   0  0  0  0  0  0  0  0  0  0  0  0
  -42.7891   61.6453   66.6047 O   0  0  0  0  0  0  0  0  0  0  0  0
  -42.8785   60.9179   69.4456 C   0  0  0  0  0  0  0  0  0  0  0  0
  -42.1287   60.8209   67.1868 C   0  0  0  0  0  0  0  0  0  0  0  0
  -41.5470   59.5850   66.5720 C   0  0  0  0  0  0  0  0  0  0  0  0
  -42.4780   58.3810   66.6510 C   0  0  0  0  0  0  0  0  0  0  0  0
  -43.8050   58.5690   65.9360 C   0  0  0  0  0  0  0  0  0  0  0  0
  -44.6170   59.7376   66.4663 C   0  0  0  0  0  0  0  0  0  0  0  0
  -45.9487   59.9044   65.7548 C   0  0  0  0  0  0  0  0  0  0  0  0
  -45.7790   60.1306   64.2690 C   0  0  0  0  0  0  0  0  0  0  0  0
  -47.0730   60.3215   63.5040 C   0  0  0  0  0  0  0  0  0  0  0  0
  -46.8892   60.5251   62.0490 C   0  0  0  0  0  0  0  0  0  0  0  0
  -47.2653   61.5829   61.3603 C   0  0  0  0  0  0  0  0  0  0  0  0
  -47.9169   62.8195   61.8883 C   0  0  0  0  0  0  0  0  0  0  0  0
  -49.2850   63.0149   61.2327 C   0  0  0  0  0  0  0  0  0  0  0  0
  -50.2870   61.8942   61.4685 C   0  0  0  0  0  0  0  0  0  0  0  0
  -51.6414   62.0893   60.7978 C   0  0  0  0  0  0  0  0  0  0  0  0
  -52.6248   60.9558   61.0698 C   0  0  0  0  0  0  0  0  0  0  0  0
  -53.9721   61.1374   60.3889 C   0  0  0  0  0  0  0  0  0  0  0  0
  -54.7308   62.3991   60.7720 C   0  0  0  0  0  0  0  0  0  0  0  0
  -56.0553   62.5112   60.0815 C   0  0  0  0  0  0  0  0  0  0  0  0
  -42.8269   58.8658   69.8007 H   0  0  0  0  0  0  0  0  0  0  0  0
  -41.5372   60.5785   71.6914 H   0  0  0  0  0  0  0  0  0  0  0  0
  -43.9356   60.5732   71.9820 H   0  0  0  0  0  0  0  0  0  0  0  0
  -43.8690   58.8102   71.9514 H   0  0  0  0  0  0  0  0  0  0  0  0
  -48.5320   59.3139   70.8277 H   0  0  0  0  0  0  0  0  0  0  0  0
  -47.8790   60.7876   70.1395 H   0  0  0  0  0  0  0  0  0  0  0  0
  -50.0027   59.0689   68.9461 H   0  0  0  0  0  0  0  0  0  0  0  0
  -50.1874   60.6752   69.7377 H   0  0  0  0  0  0  0  0  0  0  0  0
  -47.5905   59.8601   67.3365 H   0  0  0  0  0  0  0  0  0  0  0  0
  -48.4489   60.5057   65.9583 H   0  0  0  0  0  0  0  0  0  0  0  0
  -48.9774   59.0123   66.6955 H   0  0  0  0  0  0  0  0  0  0  0  0
  -44.0615   58.1867   68.7995 H   0  0  0  0  0  0  0  0  0  0  0  0
  -47.8958   61.9883   68.5007 H   0  0  0  0  0  0  0  0  0  0  0  0
  -49.4986   62.6613   68.6773 H   0  0  0  0  0  0  0  0  0  0  0  0
  -48.7430   62.6056   67.1028 H   0  0  0  0  0  0  0  0  0  0  0  0
  -51.2189   59.9342   66.9786 H   0  0  0  0  0  0  0  0  0  0  0  0
  -50.6799   61.4108   66.2155 H   0  0  0  0  0  0  0  0  0  0  0  0
  -51.4355   61.4665   67.7900 H   0  0  0  0  0  0  0  0  0  0  0  0
  -42.8247   61.8289   70.0041 H   0  0  0  0  0  0  0  0  0  0  0  0
  -43.8050   60.8480   68.9149 H   0  0  0  0  0  0  0  0  0  0  0  0
  -40.6379   59.3462   67.0832 H   0  0  0  0  0  0  0  0  0  0  0  0
  -41.3821   59.7924   65.5353 H   0  0  0  0  0  0  0  0  0  0  0  0
  -42.6787   58.1797   67.6825 H   0  0  0  0  0  0  0  0  0  0  0  0
  -41.9769   57.5734   66.1596 H   0  0  0  0  0  0  0  0  0  0  0  0
  -44.3819   57.6753   66.0516 H   0  0  0  0  0  0  0  0  0  0  0  0
  -43.5836   58.7785   64.9103 H   0  0  0  0  0  0  0  0  0  0  0  0
  -44.0475   60.6344   66.3391 H   0  0  0  0  0  0  0  0  0  0  0  0
  -44.8265   59.5410   67.4970 H   0  0  0  0  0  0  0  0  0  0  0  0
  -46.4608   60.7448   66.1749 H   0  0  0  0  0  0  0  0  0  0  0  0
  -46.5071   59.0014   65.8876 H   0  0  0  0  0  0  0  0  0  0  0  0
  -45.2718   59.2825   63.8588 H   0  0  0  0  0  0  0  0  0  0  0  0
  -45.2293   61.0425   64.1637 H   0  0  0  0  0  0  0  0  0  0  0  0
  -47.5761   61.1776   63.9025 H   0  0  0  0  0  0  0  0  0  0  0  0
  -47.6372   59.4199   63.6211 H   0  0  0  0  0  0  0  0  0  0  0  0
  -46.4230   59.7676   61.5258 H   0  0  0  0  0  0  0  0  0  0  0  0
  -47.0905   61.5545   60.3436 H   0  0  0  0  0  0  0  0  0  0  0  0
  -47.2976   63.6651   61.6732 H   0  0  0  0  0  0  0  0  0  0  0  0
  -48.0466   62.7222   62.9460 H   0  0  0  0  0  0  0  0  0  0  0  0
  -49.1352   63.1073   60.1773 H   0  0  0  0  0  0  0  0  0  0  0  0
  -49.7069   63.8880   61.6849 H   0  0  0  0  0  0  0  0  0  0  0  0
  -50.4480   61.8093   62.5229 H   0  0  0  0  0  0  0  0  0  0  0  0
  -49.8609   61.0153   61.0316 H   0  0  0  0  0  0  0  0  0  0  0  0
  -51.4889   62.1589   59.7410 H   0  0  0  0  0  0  0  0  0  0  0  0
  -52.0688   62.9812   61.2061 H   0  0  0  0  0  0  0  0  0  0  0  0
  -52.7858   60.8946   62.1259 H   0  0  0  0  0  0  0  0  0  0  0  0
  -52.1908   60.0632   60.6700 H   0  0  0  0  0  0  0  0  0  0  0  0
  -54.5840   60.2956   60.6376 H   0  0  0  0  0  0  0  0  0  0  0  0
  -53.7650   61.2235   59.3427 H   0  0  0  0  0  0  0  0  0  0  0  0
  -54.1356   63.2489   60.5102 H   0  0  0  0  0  0  0  0  0  0  0  0
  -54.9185   62.3555   61.8245 H   0  0  0  0  0  0  0  0  0  0  0  0
  -55.9031   62.5572   59.0234 H   0  0  0  0  0  0  0  0  0  0  0  0
  -56.5542   63.3993   60.4090 H   0  0  0  0  0  0  0  0  0  0  0  0
  -56.6547   61.6573   60.3189 H   0  0  0  0  0  0  0  0  0  0  0  0
  1  9  1  0  0  0  0
  1 11  1  0  0  0  0
  1 13  1  0  0  0  0
  1 15  1  0  0  0  0
  2  3  1  0  0  0  0
  2  5  1  0  0  0  0
  2 17  1  0  0  0  0
  2 36  1  6  0  0  0
  3 37  1  0  0  0  0
  4  6  1  0  0  0  0
  4  8  2  1  0  0  0
  4 10  1  0  0  0  0
  4 12  1  0  0  0  0
  5  6  1  0  0  0  0
  5 38  1  0  0  0  0
  5 39  1  0  0  0  0
  7  9  1  0  0  0  0
  7 10  1  0  0  0  0
  7 40  1  0  0  0  0
  7 41  1  0  0  0  0
  9 42  1  0  0  0  0
  9 43  1  0  0  0  0
 11 44  1  0  0  0  0
 11 45  1  0  0  0  0
 11 46  1  0  0  0  0
 12 47  1  0  0  0  0
 13 48  1  0  0  0  0
 13 49  1  0  0  0  0
 13 50  1  0  0  0  0
 14 17  1  0  0  0  0
 14 18  1  0  0  0  0
 15 51  1  0  0  0  0
 15 52  1  0  0  0  0
 15 53  1  0  0  0  0
 16 18  2  0  0  0  0
 17 54  1  0  0  0  0
 17 55  1  0  0  0  0
 18 19  1  0  0  0  0
 19 20  1  0  0  0  0
 19 56  1  0  0  0  0
 19 57  1  0  0  0  0
 20 21  1  0  0  0  0
 20 58  1  0  0  0  0
 20 59  1  0  0  0  0
 21 22  1  0  0  0  0
 21 60  1  0  0  0  0
 21 61  1  0  0  0  0
 22 23  1  0  0  0  0
 22 62  1  0  0  0  0
 22 63  1  0  0  0  0
 23 24  1  0  0  0  0
 23 64  1  0  0  0  0
 23 65  1  0  0  0  0
 24 25  1  0  0  0  0
 24 66  1  0  0  0  0
 24 67  1  0  0  0  0
 25 26  1  0  0  0  0
 25 68  1  0  0  0  0
 25 69  1  0  0  0  0
 26 27  2  0  0  0  0
 26 70  1  0  0  0  0
 27 28  1  0  0  0  0
 27 71  1  0  0  0  0
 28 29  1  0  0  0  0
 28 72  1  0  0  0  0
 28 73  1  0  0  0  0
 29 30  1  0  0  0  0
 29 74  1  0  0  0  0
 29 75  1  0  0  0  0
 30 31  1  0  0  0  0
 30 76  1  0  0  0  0
 30 77  1  0  0  0  0
 31 32  1  0  0  0  0
 31 78  1  0  0  0  0
 31 79  1  0  0  0  0
 32 33  1  0  0  0  0
 32 80  1  0  0  0  0
 32 81  1  0  0  0  0
 33 34  1  0  0  0  0
 33 82  1  0  0  0  0
 33 83  1  0  0  0  0
 34 35  1  0  0  0  0
 34 84  1  0  0  0  0
 34 85  1  0  0  0  0
 35 86  1  0  0  0  0
 35 87  1  0  0  0  0
 35 88  1  0  0  0  0
M  CHG  1   8  -1
M  END
$$$$