/media/chris/experiments/cd1a-new-docking/inputs/ligands/4x6e_ligand.pdb
 OpenBabel07012320273D

 88 87  0  0  1  0  0  0  0  0999 V2000
  -45.5765   61.1338   69.6708 N   0  0  0  0  0  4  0  0  0  0  0  0
  -41.5607   62.8807   64.1239 C   0  0  1  0  0  0  0  0  0  0  0  0
  -41.6032   63.7453   62.9806 O   0  0  0  0  0  0  0  0  0  0  0  0
  -45.5537   62.9564   64.6754 P   0  0  1  0  0  0  0  0  0  0  0  0
  -42.8959   62.1920   64.2831 C   0  0  0  0  0  0  0  0  0  0  0  0
  -43.9749   63.1426   64.4546 O   0  0  0  0  0  0  0  0  0  0  0  0
  -45.4308   61.8600   67.2064 C   0  0  0  0  0  0  0  0  0  0  0  0
  -45.9828   61.6621   63.9865 O   0  5  0  0  0  0  0  0  0  0  0  0
  -46.0177   62.0889   68.5773 C   0  0  0  0  0  0  0  0  0  0  0  0
  -45.9303   62.8564   66.2733 O   0  0  0  0  0  0  0  0  0  0  0  0
  -46.2489   61.4703   70.9630 C   0  0  0  0  0  0  0  0  0  0  0  0
  -46.2585   64.0874   64.0332 O   0  0  0  0  0  0  0  0  0  0  0  0
  -44.0986   61.2584   69.8457 C   0  0  0  0  0  0  0  0  0  0  0  0
  -40.3646   61.0134   65.1616 O   0  0  0  0  0  0  0  0  0  0  0  0
  -45.9162   59.7178   69.3017 C   0  0  0  0  0  0  0  0  0  0  0  0
  -41.5829   59.4037   64.1731 O   0  0  0  0  0  0  0  0  0  0  0  0
  -40.4099   61.9021   64.0237 C   0  0  0  0  0  0  0  0  0  0  0  0
  -41.1924   59.9644   65.1670 C   0  0  0  0  0  0  0  0  0  0  0  0
  -41.5470   59.5850   66.5720 C   0  0  0  0  0  0  0  0  0  0  0  0
  -42.4780   58.3810   66.6510 C   0  0  0  0  0  0  0  0  0  0  0  0
  -43.8050   58.5690   65.9360 C   0  0  0  0  0  0  0  0  0  0  0  0
  -43.6578   58.8291   64.4471 C   0  0  0  0  0  0  0  0  0  0  0  0
  -42.9740   57.6892   63.7118 C   0  0  0  0  0  0  0  0  0  0  0  0
  -42.8204   57.9723   62.2340 C   0  0  0  0  0  0  0  0  0  0  0  0
  -41.9877   59.1947   61.9049 C   0  0  0  0  0  0  0  0  0  0  0  0
  -40.5915   59.1225   62.3923 C   0  0  0  0  0  0  0  0  0  0  0  0
  -39.6952   58.2212   62.0474 C   0  0  0  0  0  0  0  0  0  0  0  0
  -39.8667   57.1056   61.0683 C   0  0  0  0  0  0  0  0  0  0  0  0
  -38.5812   56.2817   60.9781 C   0  0  0  0  0  0  0  0  0  0  0  0
  -38.6195   55.1189   59.9974 C   0  0  0  0  0  0  0  0  0  0  0  0
  -39.6971   54.0776   60.2746 C   0  0  0  0  0  0  0  0  0  0  0  0
  -39.5749   53.4252   61.6477 C   0  0  0  0  0  0  0  0  0  0  0  0
  -40.6377   52.3733   61.9227 C   0  0  0  0  0  0  0  0  0  0  0  0
  -40.6441   51.1887   60.9680 C   0  0  0  0  0  0  0  0  0  0  0  0
  -40.8580   51.5945   59.5422 C   0  0  0  0  0  0  0  0  0  0  0  0
  -41.3826   63.4612   65.0050 H   0  0  0  0  0  0  0  0  0  0  0  0
  -41.7647   63.2182   62.1825 H   0  0  0  0  0  0  0  0  0  0  0  0
  -42.8564   61.5544   65.1415 H   0  0  0  0  0  0  0  0  0  0  0  0
  -43.0874   61.6286   63.3938 H   0  0  0  0  0  0  0  0  0  0  0  0
  -45.7058   60.8848   66.8627 H   0  0  0  0  0  0  0  0  0  0  0  0
  -44.3654   61.9400   67.2652 H   0  0  0  0  0  0  0  0  0  0  0  0
  -45.7517   63.0790   68.8837 H   0  0  0  0  0  0  0  0  0  0  0  0
  -47.0693   61.9256   68.4660 H   0  0  0  0  0  0  0  0  0  0  0  0
  -46.0136   62.4778   71.2357 H   0  0  0  0  0  0  0  0  0  0  0  0
  -45.9062   60.8045   71.7273 H   0  0  0  0  0  0  0  0  0  0  0  0
  -47.3082   61.3693   70.8507 H   0  0  0  0  0  0  0  0  0  0  0  0
  -46.0205   64.1250   63.0936 H   0  0  0  0  0  0  0  0  0  0  0  0
  -43.8543   62.2664   70.1086 H   0  0  0  0  0  0  0  0  0  0  0  0
  -43.6080   60.9996   68.9307 H   0  0  0  0  0  0  0  0  0  0  0  0
  -43.7745   60.5985   70.6231 H   0  0  0  0  0  0  0  0  0  0  0  0
  -46.9748   59.6262   69.1759 H   0  0  0  0  0  0  0  0  0  0  0  0
  -45.5911   59.0588   70.0795 H   0  0  0  0  0  0  0  0  0  0  0  0
  -45.4246   59.4599   68.3870 H   0  0  0  0  0  0  0  0  0  0  0  0
  -39.4920   62.4498   63.9745 H   0  0  0  0  0  0  0  0  0  0  0  0
  -40.5505   61.3104   63.1433 H   0  0  0  0  0  0  0  0  0  0  0  0
  -42.0288   60.4189   67.0383 H   0  0  0  0  0  0  0  0  0  0  0  0
  -40.6378   59.3175   67.0687 H   0  0  0  0  0  0  0  0  0  0  0  0
  -42.6787   58.1797   67.6825 H   0  0  0  0  0  0  0  0  0  0  0  0
  -41.9769   57.5734   66.1596 H   0  0  0  0  0  0  0  0  0  0  0  0
  -44.3126   59.4014   66.3769 H   0  0  0  0  0  0  0  0  0  0  0  0
  -44.3534   57.6566   66.0440 H   0  0  0  0  0  0  0  0  0  0  0  0
  -43.0787   59.7186   64.3117 H   0  0  0  0  0  0  0  0  0  0  0  0
  -44.6423   58.9284   64.0400 H   0  0  0  0  0  0  0  0  0  0  0  0
  -43.5582   56.8011   63.8335 H   0  0  0  0  0  0  0  0  0  0  0  0
  -41.9948   57.5716   64.1269 H   0  0  0  0  0  0  0  0  0  0  0  0
  -43.7965   58.1127   61.8187 H   0  0  0  0  0  0  0  0  0  0  0  0
  -42.3019   57.1336   61.8187 H   0  0  0  0  0  0  0  0  0  0  0  0
  -42.4549   60.0491   62.3483 H   0  0  0  0  0  0  0  0  0  0  0  0
  -41.9398   59.2579   60.8379 H   0  0  0  0  0  0  0  0  0  0  0  0
  -40.2928   59.8459   63.0650 H   0  0  0  0  0  0  0  0  0  0  0  0
  -38.7724   58.2935   62.5038 H   0  0  0  0  0  0  0  0  0  0  0  0
  -40.0946   57.5122   60.1051 H   0  0  0  0  0  0  0  0  0  0  0  0
  -40.6654   56.4730   61.3952 H   0  0  0  0  0  0  0  0  0  0  0  0
  -38.3731   55.8869   61.9505 H   0  0  0  0  0  0  0  0  0  0  0  0
  -37.8278   56.9492   60.6151 H   0  0  0  0  0  0  0  0  0  0  0  0
  -37.6689   54.6286   60.0266 H   0  0  0  0  0  0  0  0  0  0  0  0
  -38.8506   55.5412   59.0418 H   0  0  0  0  0  0  0  0  0  0  0  0
  -39.6287   53.3130   59.5292 H   0  0  0  0  0  0  0  0  0  0  0  0
  -40.6386   54.5854   60.2504 H   0  0  0  0  0  0  0  0  0  0  0  0
  -39.6553   54.1890   62.3927 H   0  0  0  0  0  0  0  0  0  0  0  0
  -38.6284   52.9269   61.6735 H   0  0  0  0  0  0  0  0  0  0  0  0
  -41.5949   52.8481   61.8663 H   0  0  0  0  0  0  0  0  0  0  0  0
  -40.4134   51.9724   62.8891 H   0  0  0  0  0  0  0  0  0  0  0  0
  -41.4302   50.5221   61.2555 H   0  0  0  0  0  0  0  0  0  0  0  0
  -39.6843   50.7199   61.0294 H   0  0  0  0  0  0  0  0  0  0  0  0
  -41.8125   52.0684   59.4455 H   0  0  0  0  0  0  0  0  0  0  0  0
  -40.8251   50.7276   58.9158 H   0  0  0  0  0  0  0  0  0  0  0  0
  -40.0892   52.2775   59.2465 H   0  0  0  0  0  0  0  0  0  0  0  0
  1  9  1  0  0  0  0
  1 11  1  0  0  0  0
  1 13  1  0  0  0  0
  1 15  1  0  0  0  0
  2  3  1  0  0  0  0
  2  5  1  0  0  0  0
  2 17  1  0  0  0  0
  2 36  1  1  0  0  0
  3 37  1  0  0  0  0
  4  6  1  0  0  0  0
  4  8  2  6  0  0  0
  4 10  1  0  0  0  0
  4 12  1  0  0  0  0
  5  6  1  0  0  0  0
  5 38  1  0  0  0  0
  5 39  1  0  0  0  0
  7  9  1  0  0  0  0
  7 10  1  0  0  0  0
  7 40  1  0  0  0  0
  7 41  1  0  0  0  0
  9 42  1  0  0  0  0
  9 43  1  0  0  0  0
 11 44  1  0  0  0  0
 11 45  1  0  0  0  0
 11 46  1  0  0  0  0
 12 47  1  0  0  0  0
 13 48  1  0  0  0  0
 13 49  1  0  0  0  0
 13 50  1  0  0  0  0
 14 17  1  0  0  0  0
 14 18  1  0  0  0  0
 15 51  1  0  0  0  0
 15 52  1  0  0  0  0
 15 53  1  0  0  0  0
 16 18  2  0  0  0  0
 17 54  1  0  0  0  0
 17 55  1  0  0  0  0
 18 19  1  0  0  0  0
 19 20  1  0  0  0  0
 19 56  1  0  0  0  0
 19 57  1  0  0  0  0
 20 21  1  0  0  0  0
 20 58  1  0  0  0  0
 20 59  1  0  0  0  0
 21 22  1  0  0  0  0
 21 60  1  0  0  0  0
 21 61  1  0  0  0  0
 22 23  1  0  0  0  0
 22 62  1  0  0  0  0
 22 63  1  0  0  0  0
 23 24  1  0  0  0  0
 23 64  1  0  0  0  0
 23 65  1  0  0  0  0
 24 25  1  0  0  0  0
 24 66  1  0  0  0  0
 24 67  1  0  0  0  0
 25 26  1  0  0  0  0
 25 68  1  0  0  0  0
 25 69  1  0  0  0  0
 26 27  2  0  0  0  0
 26 70  1  0  0  0  0
 27 28  1  0  0  0  0
 27 71  1  0  0  0  0
 28 29  1  0  0  0  0
 28 72  1  0  0  0  0
 28 73  1  0  0  0  0
 29 30  1  0  0  0  0
 29 74  1  0  0  0  0
 29 75  1  0  0  0  0
 30 31  1  0  0  0  0
 30 76  1  0  0  0  0
 30 77  1  0  0  0  0
 31 32  1  0  0  0  0
 31 78  1  0  0  0  0
 31 79  1  0  0  0  0
 32 33  1  0  0  0  0
 32 80  1  0  0  0  0
 32 81  1  0  0  0  0
 33 34  1  0  0  0  0
 33 82  1  0  0  0  0
 33 83  1  0  0  0  0
 34 35  1  0  0  0  0
 34 84  1  0  0  0  0
 34 85  1  0  0  0  0
 35 86  1  0  0  0  0
 35 87  1  0  0  0  0
 35 88  1  0  0  0  0
M  CHG  1   8  -1
M  END
$$$$