/media/chris/experiments/cd1a-new-docking/inputs/ligands/4x6e_ligand.pdb
 OpenBabel07012320273D

 88 87  0  0  1  0  0  0  0  0999 V2000
  -36.3468   62.7901   70.0225 N   0  0  0  0  0  4  0  0  0  0  0  0
  -42.7551   64.1652   66.5820 C   0  0  1  0  0  0  0  0  0  0  0  0
  -43.8238   65.1071   66.7466 O   0  0  0  0  0  0  0  0  0  0  0  0
  -40.1661   66.2909   68.8252 P   0  0  1  0  0  0  0  0  0  0  0  0
  -41.7885   64.2951   67.7358 C   0  0  0  0  0  0  0  0  0  0  0  0
  -41.2289   65.6281   67.8217 O   0  0  0  0  0  0  0  0  0  0  0  0
  -38.3141   64.3917   69.5909 C   0  0  0  0  0  0  0  0  0  0  0  0
  -40.7202   66.1857   70.2451 O   0  5  0  0  0  0  0  0  0  0  0  0
  -36.9061   63.9705   69.2501 C   0  0  0  0  0  0  0  0  0  0  0  0
  -38.7161   65.5171   68.7634 O   0  0  0  0  0  0  0  0  0  0  0  0
  -34.9447   62.4996   69.5925 C   0  0  0  0  0  0  0  0  0  0  0  0
  -40.0194   67.7224   68.4821 O   0  0  0  0  0  0  0  0  0  0  0  0
  -37.1969   61.5935   69.7472 C   0  0  0  0  0  0  0  0  0  0  0  0
  -42.2227   61.7949   66.2768 O   0  0  0  0  0  0  0  0  0  0  0  0
  -36.3523   63.0757   71.4973 C   0  0  0  0  0  0  0  0  0  0  0  0
  -42.4772   60.9308   68.3362 O   0  0  0  0  0  0  0  0  0  0  0  0
  -43.2896   62.7572   66.4271 C   0  0  0  0  0  0  0  0  0  0  0  0
  -42.1287   60.8209   67.1868 C   0  0  0  0  0  0  0  0  0  0  0  0
  -41.5470   59.5850   66.5720 C   0  0  0  0  0  0  0  0  0  0  0  0
  -42.4780   58.3810   66.6510 C   0  0  0  0  0  0  0  0  0  0  0  0
  -43.8050   58.5690   65.9360 C   0  0  0  0  0  0  0  0  0  0  0  0
  -43.6578   58.8291   64.4471 C   0  0  0  0  0  0  0  0  0  0  0  0
  -44.9905   59.0322   63.7470 C   0  0  0  0  0  0  0  0  0  0  0  0
  -44.8261   59.2729   62.2629 C   0  0  0  0  0  0  0  0  0  0  0  0
  -43.9862   60.4821   61.9050 C   0  0  0  0  0  0  0  0  0  0  0  0
  -44.5124   61.7604   62.4353 C   0  0  0  0  0  0  0  0  0  0  0  0
  -43.7964   62.8115   62.7778 C   0  0  0  0  0  0  0  0  0  0  0  0
  -42.3141   62.9677   62.6725 C   0  0  0  0  0  0  0  0  0  0  0  0
  -41.9427   63.5649   61.3142 C   0  0  0  0  0  0  0  0  0  0  0  0
  -40.4530   63.7601   61.0731 C   0  0  0  0  0  0  0  0  0  0  0  0
  -39.6208   62.4842   61.1165 C   0  0  0  0  0  0  0  0  0  0  0  0
  -40.0264   61.4563   60.0653 C   0  0  0  0  0  0  0  0  0  0  0  0
  -39.8845   61.9538   58.6356 C   0  0  0  0  0  0  0  0  0  0  0  0
  -38.4750   62.3472   58.2196 C   0  0  0  0  0  0  0  0  0  0  0  0
  -38.4045   62.8438   56.8083 C   0  0  0  0  0  0  0  0  0  0  0  0
  -42.2222   64.3827   65.6800 H   0  0  0  0  0  0  0  0  0  0  0  0
  -44.3062   64.9091   67.5645 H   0  0  0  0  0  0  0  0  0  0  0  0
  -40.9921   63.5933   67.6011 H   0  0  0  0  0  0  0  0  0  0  0  0
  -42.3239   64.1004   68.6415 H   0  0  0  0  0  0  0  0  0  0  0  0
  -38.3580   64.6772   70.6212 H   0  0  0  0  0  0  0  0  0  0  0  0
  -38.9771   63.5714   69.4104 H   0  0  0  0  0  0  0  0  0  0  0  0
  -36.8848   63.7182   68.2105 H   0  0  0  0  0  0  0  0  0  0  0  0
  -36.2889   64.8024   69.5182 H   0  0  0  0  0  0  0  0  0  0  0  0
  -34.9290   62.2945   68.5425 H   0  0  0  0  0  0  0  0  0  0  0  0
  -34.5765   61.6493   70.1275 H   0  0  0  0  0  0  0  0  0  0  0  0
  -34.3252   63.3471   69.7998 H   0  0  0  0  0  0  0  0  0  0  0  0
  -40.8862   68.1557   68.5256 H   0  0  0  0  0  0  0  0  0  0  0  0
  -37.1944   61.3882   68.6971 H   0  0  0  0  0  0  0  0  0  0  0  0
  -38.1986   61.7855   70.0707 H   0  0  0  0  0  0  0  0  0  0  0  0
  -36.8067   60.7494   70.2765 H   0  0  0  0  0  0  0  0  0  0  0  0
  -35.7438   63.9328   71.6969 H   0  0  0  0  0  0  0  0  0  0  0  0
  -35.9627   62.2307   72.0257 H   0  0  0  0  0  0  0  0  0  0  0  0
  -37.3545   63.2668   71.8198 H   0  0  0  0  0  0  0  0  0  0  0  0
  -43.9170   62.7176   65.5613 H   0  0  0  0  0  0  0  0  0  0  0  0
  -43.8402   62.5100   67.3107 H   0  0  0  0  0  0  0  0  0  0  0  0
  -40.6379   59.3462   67.0832 H   0  0  0  0  0  0  0  0  0  0  0  0
  -41.3821   59.7924   65.5353 H   0  0  0  0  0  0  0  0  0  0  0  0
  -42.6787   58.1797   67.6825 H   0  0  0  0  0  0  0  0  0  0  0  0
  -41.9769   57.5734   66.1596 H   0  0  0  0  0  0  0  0  0  0  0  0
  -44.3126   59.4014   66.3769 H   0  0  0  0  0  0  0  0  0  0  0  0
  -44.3534   57.6566   66.0440 H   0  0  0  0  0  0  0  0  0  0  0  0
  -43.1625   57.9917   64.0018 H   0  0  0  0  0  0  0  0  0  0  0  0
  -43.0949   59.7319   64.3334 H   0  0  0  0  0  0  0  0  0  0  0  0
  -45.4820   59.8778   64.1807 H   0  0  0  0  0  0  0  0  0  0  0  0
  -45.5667   58.1394   63.8729 H   0  0  0  0  0  0  0  0  0  0  0  0
  -45.7989   59.4053   61.8373 H   0  0  0  0  0  0  0  0  0  0  0  0
  -44.3083   58.4207   61.8748 H   0  0  0  0  0  0  0  0  0  0  0  0
  -43.9385   60.5547   60.8385 H   0  0  0  0  0  0  0  0  0  0  0  0
  -43.0253   60.3343   62.3518 H   0  0  0  0  0  0  0  0  0  0  0  0
  -45.5356   61.8348   62.5471 H   0  0  0  0  0  0  0  0  0  0  0  0
  -44.3166   63.6161   63.1612 H   0  0  0  0  0  0  0  0  0  0  0  0
  -41.8492   62.0097   62.7767 H   0  0  0  0  0  0  0  0  0  0  0  0
  -41.9756   63.6235   63.4472 H   0  0  0  0  0  0  0  0  0  0  0  0
  -42.4184   64.5198   61.2320 H   0  0  0  0  0  0  0  0  0  0  0  0
  -42.2700   62.8573   60.5813 H   0  0  0  0  0  0  0  0  0  0  0  0
  -40.0798   64.4254   61.8234 H   0  0  0  0  0  0  0  0  0  0  0  0
  -40.3588   64.1448   60.0791 H   0  0  0  0  0  0  0  0  0  0  0  0
  -39.7312   62.0407   62.0840 H   0  0  0  0  0  0  0  0  0  0  0  0
  -38.6083   62.7621   60.9102 H   0  0  0  0  0  0  0  0  0  0  0  0
  -41.0497   61.1905   60.2303 H   0  0  0  0  0  0  0  0  0  0  0  0
  -39.3649   60.6222   60.1727 H   0  0  0  0  0  0  0  0  0  0  0  0
  -40.5144   62.8110   58.5201 H   0  0  0  0  0  0  0  0  0  0  0  0
  -40.1589   61.1315   58.0082 H   0  0  0  0  0  0  0  0  0  0  0  0
  -37.8394   61.4915   58.3133 H   0  0  0  0  0  0  0  0  0  0  0  0
  -38.1613   63.1460   58.8586 H   0  0  0  0  0  0  0  0  0  0  0  0
  -38.7129   62.0664   56.1408 H   0  0  0  0  0  0  0  0  0  0  0  0
  -37.3991   63.1310   56.5810 H   0  0  0  0  0  0  0  0  0  0  0  0
  -39.0511   63.6887   56.6947 H   0  0  0  0  0  0  0  0  0  0  0  0
  1  9  1  0  0  0  0
  1 11  1  0  0  0  0
  1 13  1  0  0  0  0
  1 15  1  0  0  0  0
  2  3  1  0  0  0  0
  2  5  1  0  0  0  0
  2 17  1  0  0  0  0
  2 36  1  6  0  0  0
  3 37  1  0  0  0  0
  4  6  1  0  0  0  0
  4  8  2  1  0  0  0
  4 10  1  0  0  0  0
  4 12  1  0  0  0  0
  5  6  1  0  0  0  0
  5 38  1  0  0  0  0
  5 39  1  0  0  0  0
  7  9  1  0  0  0  0
  7 10  1  0  0  0  0
  7 40  1  0  0  0  0
  7 41  1  0  0  0  0
  9 42  1  0  0  0  0
  9 43  1  0  0  0  0
 11 44  1  0  0  0  0
 11 45  1  0  0  0  0
 11 46  1  0  0  0  0
 12 47  1  0  0  0  0
 13 48  1  0  0  0  0
 13 49  1  0  0  0  0
 13 50  1  0  0  0  0
 14 17  1  0  0  0  0
 14 18  1  0  0  0  0
 15 51  1  0  0  0  0
 15 52  1  0  0  0  0
 15 53  1  0  0  0  0
 16 18  2  0  0  0  0
 17 54  1  0  0  0  0
 17 55  1  0  0  0  0
 18 19  1  0  0  0  0
 19 20  1  0  0  0  0
 19 56  1  0  0  0  0
 19 57  1  0  0  0  0
 20 21  1  0  0  0  0
 20 58  1  0  0  0  0
 20 59  1  0  0  0  0
 21 22  1  0  0  0  0
 21 60  1  0  0  0  0
 21 61  1  0  0  0  0
 22 23  1  0  0  0  0
 22 62  1  0  0  0  0
 22 63  1  0  0  0  0
 23 24  1  0  0  0  0
 23 64  1  0  0  0  0
 23 65  1  0  0  0  0
 24 25  1  0  0  0  0
 24 66  1  0  0  0  0
 24 67  1  0  0  0  0
 25 26  1  0  0  0  0
 25 68  1  0  0  0  0
 25 69  1  0  0  0  0
 26 27  2  0  0  0  0
 26 70  1  0  0  0  0
 27 28  1  0  0  0  0
 27 71  1  0  0  0  0
 28 29  1  0  0  0  0
 28 72  1  0  0  0  0
 28 73  1  0  0  0  0
 29 30  1  0  0  0  0
 29 74  1  0  0  0  0
 29 75  1  0  0  0  0
 30 31  1  0  0  0  0
 30 76  1  0  0  0  0
 30 77  1  0  0  0  0
 31 32  1  0  0  0  0
 31 78  1  0  0  0  0
 31 79  1  0  0  0  0
 32 33  1  0  0  0  0
 32 80  1  0  0  0  0
 32 81  1  0  0  0  0
 33 34  1  0  0  0  0
 33 82  1  0  0  0  0
 33 83  1  0  0  0  0
 34 35  1  0  0  0  0
 34 84  1  0  0  0  0
 34 85  1  0  0  0  0
 35 86  1  0  0  0  0
 35 87  1  0  0  0  0
 35 88  1  0  0  0  0
M  CHG  1   8  -1
M  END
$$$$