/media/chris/experiments/cd1a-new-docking/inputs/ligands/4x6e_ligand.pdb
 OpenBabel07012320273D

 88 87  0  0  1  0  0  0  0  0999 V2000
  -33.7524   55.4488   68.6009 N   0  0  0  0  0  4  0  0  0  0  0  0
  -39.4975   56.5952   66.0461 C   0  0  1  0  0  0  0  0  0  0  0  0
  -39.6704   57.5768   65.0150 O   0  0  0  0  0  0  0  0  0  0  0  0
  -37.2851   53.2824   66.6654 P   0  0  1  0  0  0  0  0  0  0  0  0
  -38.4614   55.5858   65.6104 C   0  0  0  0  0  0  0  0  0  0  0  0
  -38.2576   54.5580   66.6102 O   0  0  0  0  0  0  0  0  0  0  0  0
  -35.5053   53.5713   68.7564 C   0  0  0  0  0  0  0  0  0  0  0  0
  -37.0491   52.7997   65.2352 O   0  5  0  0  0  0  0  0  0  0  0  0
  -34.0838   54.0198   68.9893 C   0  0  0  0  0  0  0  0  0  0  0  0
  -35.8350   53.6600   67.3434 O   0  0  0  0  0  0  0  0  0  0  0  0
  -34.5870   56.4113   69.3834 C   0  0  0  0  0  0  0  0  0  0  0  0
  -37.9601   52.2043   67.4206 O   0  0  0  0  0  0  0  0  0  0  0  0
  -34.0407   55.6273   67.1464 C   0  0  0  0  0  0  0  0  0  0  0  0
  -40.1976   58.1437   67.8087 O   0  0  0  0  0  0  0  0  0  0  0  0
  -32.3022   55.7422   68.8604 C   0  0  0  0  0  0  0  0  0  0  0  0
  -39.3411   60.1674   67.3359 O   0  0  0  0  0  0  0  0  0  0  0  0
  -39.1529   57.2490   67.3675 C   0  0  0  0  0  0  0  0  0  0  0  0
  -40.2402   59.3661   67.2706 C   0  0  0  0  0  0  0  0  0  0  0  0
  -41.5470   59.5850   66.5720 C   0  0  0  0  0  0  0  0  0  0  0  0
  -42.4780   58.3810   66.6510 C   0  0  0  0  0  0  0  0  0  0  0  0
  -43.8050   58.5690   65.9360 C   0  0  0  0  0  0  0  0  0  0  0  0
  -44.6170   59.7376   66.4663 C   0  0  0  0  0  0  0  0  0  0  0  0
  -44.9506   59.6053   67.9423 C   0  0  0  0  0  0  0  0  0  0  0  0
  -45.7735   60.7686   68.4492 C   0  0  0  0  0  0  0  0  0  0  0  0
  -46.1253   60.7036   69.9216 C   0  0  0  0  0  0  0  0  0  0  0  0
  -46.9009   59.5018   70.3040 C   0  0  0  0  0  0  0  0  0  0  0  0
  -48.2139   59.3977   70.3172 C   0  0  0  0  0  0  0  0  0  0  0  0
  -49.2064   60.4399   69.9156 C   0  0  0  0  0  0  0  0  0  0  0  0
  -49.0087   60.8172   68.4466 C   0  0  0  0  0  0  0  0  0  0  0  0
  -49.1875   59.6800   67.4516 C   0  0  0  0  0  0  0  0  0  0  0  0
  -48.9722   60.0612   65.9919 C   0  0  0  0  0  0  0  0  0  0  0  0
  -49.1762   58.9013   65.0228 C   0  0  0  0  0  0  0  0  0  0  0  0
  -48.2509   57.7218   65.2760 C   0  0  0  0  0  0  0  0  0  0  0  0
  -48.4120   56.5502   64.3190 C   0  0  0  0  0  0  0  0  0  0  0  0
  -47.4856   55.4153   64.6309 C   0  0  0  0  0  0  0  0  0  0  0  0
  -40.4191   56.0745   66.2025 H   0  0  0  0  0  0  0  0  0  0  0  0
  -38.8345   58.0483   64.8740 H   0  0  0  0  0  0  0  0  0  0  0  0
  -37.5343   56.0924   65.4407 H   0  0  0  0  0  0  0  0  0  0  0  0
  -38.8119   55.1146   64.7160 H   0  0  0  0  0  0  0  0  0  0  0  0
  -36.1694   54.1980   69.3142 H   0  0  0  0  0  0  0  0  0  0  0  0
  -35.6073   52.5551   69.0754 H   0  0  0  0  0  0  0  0  0  0  0  0
  -33.8751   53.9099   70.0330 H   0  0  0  0  0  0  0  0  0  0  0  0
  -33.4848   53.4063   68.3493 H   0  0  0  0  0  0  0  0  0  0  0  0
  -35.6231   56.2112   69.2059 H   0  0  0  0  0  0  0  0  0  0  0  0
  -34.3594   57.4111   69.0779 H   0  0  0  0  0  0  0  0  0  0  0  0
  -34.3759   56.3003   70.4265 H   0  0  0  0  0  0  0  0  0  0  0  0
  -38.8110   52.0002   67.0020 H   0  0  0  0  0  0  0  0  0  0  0  0
  -35.0734   55.4187   66.9593 H   0  0  0  0  0  0  0  0  0  0  0  0
  -33.4324   54.9558   66.5773 H   0  0  0  0  0  0  0  0  0  0  0  0
  -33.8229   56.6351   66.8607 H   0  0  0  0  0  0  0  0  0  0  0  0
  -32.0934   55.6150   69.9021 H   0  0  0  0  0  0  0  0  0  0  0  0
  -32.0854   56.7500   68.5737 H   0  0  0  0  0  0  0  0  0  0  0  0
  -31.6949   55.0707   68.2902 H   0  0  0  0  0  0  0  0  0  0  0  0
  -38.2456   57.8045   67.2534 H   0  0  0  0  0  0  0  0  0  0  0  0
  -39.0407   56.4788   68.1018 H   0  0  0  0  0  0  0  0  0  0  0  0
  -41.3508   59.7963   65.5416 H   0  0  0  0  0  0  0  0  0  0  0  0
  -42.0377   60.3996   67.0625 H   0  0  0  0  0  0  0  0  0  0  0  0
  -42.6787   58.1797   67.6825 H   0  0  0  0  0  0  0  0  0  0  0  0
  -41.9769   57.5734   66.1596 H   0  0  0  0  0  0  0  0  0  0  0  0
  -44.3819   57.6753   66.0516 H   0  0  0  0  0  0  0  0  0  0  0  0
  -43.5836   58.7785   64.9103 H   0  0  0  0  0  0  0  0  0  0  0  0
  -45.5314   59.7964   65.9137 H   0  0  0  0  0  0  0  0  0  0  0  0
  -44.0231   60.6199   66.3495 H   0  0  0  0  0  0  0  0  0  0  0  0
  -44.0379   59.5605   68.4990 H   0  0  0  0  0  0  0  0  0  0  0  0
  -45.5289   58.7141   68.0695 H   0  0  0  0  0  0  0  0  0  0  0  0
  -46.6853   60.8002   67.8902 H   0  0  0  0  0  0  0  0  0  0  0  0
  -45.1701   61.6430   68.3218 H   0  0  0  0  0  0  0  0  0  0  0  0
  -46.7037   61.5695   70.1677 H   0  0  0  0  0  0  0  0  0  0  0  0
  -45.2009   60.6587   70.4586 H   0  0  0  0  0  0  0  0  0  0  0  0
  -46.3626   58.6679   70.5866 H   0  0  0  0  0  0  0  0  0  0  0  0
  -48.5997   58.4968   70.6405 H   0  0  0  0  0  0  0  0  0  0  0  0
  -49.0728   61.3091   70.5252 H   0  0  0  0  0  0  0  0  0  0  0  0
  -50.1945   60.0510   70.0470 H   0  0  0  0  0  0  0  0  0  0  0  0
  -48.0161   61.2008   68.3349 H   0  0  0  0  0  0  0  0  0  0  0  0
  -49.7731   61.5308   68.2197 H   0  0  0  0  0  0  0  0  0  0  0  0
  -50.1842   59.3040   67.5528 H   0  0  0  0  0  0  0  0  0  0  0  0
  -48.4346   58.9566   67.6858 H   0  0  0  0  0  0  0  0  0  0  0  0
  -47.9714   60.4232   65.8807 H   0  0  0  0  0  0  0  0  0  0  0  0
  -49.7024   60.8050   65.7502 H   0  0  0  0  0  0  0  0  0  0  0  0
  -49.0045   59.2578   64.0287 H   0  0  0  0  0  0  0  0  0  0  0  0
  -50.1767   58.5491   65.1637 H   0  0  0  0  0  0  0  0  0  0  0  0
  -48.4339   57.3654   66.2682 H   0  0  0  0  0  0  0  0  0  0  0  0
  -47.2569   58.0892   65.1283 H   0  0  0  0  0  0  0  0  0  0  0  0
  -48.2126   56.8910   63.3245 H   0  0  0  0  0  0  0  0  0  0  0  0
  -49.4132   56.1864   64.4203 H   0  0  0  0  0  0  0  0  0  0  0  0
  -46.4723   55.7463   64.5386 H   0  0  0  0  0  0  0  0  0  0  0  0
  -47.6622   54.6123   63.9462 H   0  0  0  0  0  0  0  0  0  0  0  0
  -47.6606   55.0765   65.6307 H   0  0  0  0  0  0  0  0  0  0  0  0
  1  9  1  0  0  0  0
  1 11  1  0  0  0  0
  1 13  1  0  0  0  0
  1 15  1  0  0  0  0
  2  3  1  0  0  0  0
  2  5  1  0  0  0  0
  2 17  1  0  0  0  0
  2 36  1  1  0  0  0
  3 37  1  0  0  0  0
  4  6  1  0  0  0  0
  4  8  2  6  0  0  0
  4 10  1  0  0  0  0
  4 12  1  0  0  0  0
  5  6  1  0  0  0  0
  5 38  1  0  0  0  0
  5 39  1  0  0  0  0
  7  9  1  0  0  0  0
  7 10  1  0  0  0  0
  7 40  1  0  0  0  0
  7 41  1  0  0  0  0
  9 42  1  0  0  0  0
  9 43  1  0  0  0  0
 11 44  1  0  0  0  0
 11 45  1  0  0  0  0
 11 46  1  0  0  0  0
 12 47  1  0  0  0  0
 13 48  1  0  0  0  0
 13 49  1  0  0  0  0
 13 50  1  0  0  0  0
 14 17  1  0  0  0  0
 14 18  1  0  0  0  0
 15 51  1  0  0  0  0
 15 52  1  0  0  0  0
 15 53  1  0  0  0  0
 16 18  2  0  0  0  0
 17 54  1  0  0  0  0
 17 55  1  0  0  0  0
 18 19  1  0  0  0  0
 19 20  1  0  0  0  0
 19 56  1  0  0  0  0
 19 57  1  0  0  0  0
 20 21  1  0  0  0  0
 20 58  1  0  0  0  0
 20 59  1  0  0  0  0
 21 22  1  0  0  0  0
 21 60  1  0  0  0  0
 21 61  1  0  0  0  0
 22 23  1  0  0  0  0
 22 62  1  0  0  0  0
 22 63  1  0  0  0  0
 23 24  1  0  0  0  0
 23 64  1  0  0  0  0
 23 65  1  0  0  0  0
 24 25  1  0  0  0  0
 24 66  1  0  0  0  0
 24 67  1  0  0  0  0
 25 26  1  0  0  0  0
 25 68  1  0  0  0  0
 25 69  1  0  0  0  0
 26 27  2  0  0  0  0
 26 70  1  0  0  0  0
 27 28  1  0  0  0  0
 27 71  1  0  0  0  0
 28 29  1  0  0  0  0
 28 72  1  0  0  0  0
 28 73  1  0  0  0  0
 29 30  1  0  0  0  0
 29 74  1  0  0  0  0
 29 75  1  0  0  0  0
 30 31  1  0  0  0  0
 30 76  1  0  0  0  0
 30 77  1  0  0  0  0
 31 32  1  0  0  0  0
 31 78  1  0  0  0  0
 31 79  1  0  0  0  0
 32 33  1  0  0  0  0
 32 80  1  0  0  0  0
 32 81  1  0  0  0  0
 33 34  1  0  0  0  0
 33 82  1  0  0  0  0
 33 83  1  0  0  0  0
 34 35  1  0  0  0  0
 34 84  1  0  0  0  0
 34 85  1  0  0  0  0
 35 86  1  0  0  0  0
 35 87  1  0  0  0  0
 35 88  1  0  0  0  0
M  CHG  1   8  -1
M  END
$$$$