/media/chris/experiments/cd1a-new-docking/inputs/ligands/4x6e_ligand.pdb
 OpenBabel07012320273D

 88 87  0  0  1  0  0  0  0  0999 V2000
  -34.2639   59.9964   62.1298 N   0  0  0  0  0  4  0  0  0  0  0  0
  -38.0882   61.2386   65.3200 C   0  0  1  0  0  0  0  0  0  0  0  0
  -39.1097   60.9393   64.3592 O   0  0  0  0  0  0  0  0  0  0  0  0
  -36.7776   63.7124   63.4796 P   0  0  1  0  0  0  0  0  0  0  0  0
  -38.1577   62.7022   65.6881 C   0  0  0  0  0  0  0  0  0  0  0  0
  -37.9788   63.5569   64.5327 O   0  0  0  0  0  0  0  0  0  0  0  0
  -36.4548   61.3455   62.0951 C   0  0  0  0  0  0  0  0  0  0  0  0
  -35.4711   63.3642   64.1909 O   0  5  0  0  0  0  0  0  0  0  0  0
  -34.9523   61.3449   62.2309 C   0  0  0  0  0  0  0  0  0  0  0  0
  -36.9679   62.7018   62.1960 O   0  0  0  0  0  0  0  0  0  0  0  0
  -34.7679   59.0701   63.1896 C   0  0  0  0  0  0  0  0  0  0  0  0
  -36.7126   65.1233   63.0400 O   0  0  0  0  0  0  0  0  0  0  0  0
  -32.7955   60.1948   62.3167 C   0  0  0  0  0  0  0  0  0  0  0  0
  -39.4745   60.4576   67.1809 O   0  0  0  0  0  0  0  0  0  0  0  0
  -34.5149   59.3766   60.7847 C   0  0  0  0  0  0  0  0  0  0  0  0
  -39.9170   58.3566   67.8459 O   0  0  0  0  0  0  0  0  0  0  0  0
  -38.1929   60.3301   66.5266 C   0  0  0  0  0  0  0  0  0  0  0  0
  -40.2402   59.3661   67.2706 C   0  0  0  0  0  0  0  0  0  0  0  0
  -41.5470   59.5850   66.5720 C   0  0  0  0  0  0  0  0  0  0  0  0
  -42.4780   58.3810   66.6510 C   0  0  0  0  0  0  0  0  0  0  0  0
  -43.8050   58.5690   65.9360 C   0  0  0  0  0  0  0  0  0  0  0  0
  -44.7241   57.3648   66.0412 C   0  0  0  0  0  0  0  0  0  0  0  0
  -45.0954   57.0268   67.4749 C   0  0  0  0  0  0  0  0  0  0  0  0
  -45.8277   58.1599   68.1584 C   0  0  0  0  0  0  0  0  0  0  0  0
  -47.1374   58.5542   67.5064 C   0  0  0  0  0  0  0  0  0  0  0  0
  -48.1413   57.4668   67.4634 C   0  0  0  0  0  0  0  0  0  0  0  0
  -49.3367   57.4924   68.0159 C   0  0  0  0  0  0  0  0  0  0  0  0
  -49.9605   58.6237   68.7666 C   0  0  0  0  0  0  0  0  0  0  0  0
  -49.6328   58.5115   70.2564 C   0  0  0  0  0  0  0  0  0  0  0  0
  -50.2264   59.6001   71.1384 C   0  0  0  0  0  0  0  0  0  0  0  0
  -49.8809   59.4898   72.6185 C   0  0  0  0  0  0  0  0  0  0  0  0
  -50.3372   58.1809   73.2548 C   0  0  0  0  0  0  0  0  0  0  0  0
  -50.0099   58.0730   74.7356 C   0  0  0  0  0  0  0  0  0  0  0  0
  -50.4343   56.7738   75.4037 C   0  0  0  0  0  0  0  0  0  0  0  0
  -49.7793   55.5701   74.7990 C   0  0  0  0  0  0  0  0  0  0  0  0
  -37.1264   61.0528   64.8895 H   0  0  0  0  0  0  0  0  0  0  0  0
  -39.9811   61.1081   64.7504 H   0  0  0  0  0  0  0  0  0  0  0  0
  -37.3885   62.9171   66.4002 H   0  0  0  0  0  0  0  0  0  0  0  0
  -39.1268   62.8962   66.0982 H   0  0  0  0  0  0  0  0  0  0  0  0
  -36.8803   60.7479   62.8740 H   0  0  0  0  0  0  0  0  0  0  0  0
  -36.7190   60.9427   61.1396 H   0  0  0  0  0  0  0  0  0  0  0  0
  -34.5558   61.9710   61.4591 H   0  0  0  0  0  0  0  0  0  0  0  0
  -34.7577   61.6883   63.2255 H   0  0  0  0  0  0  0  0  0  0  0  0
  -34.5940   59.5021   64.1530 H   0  0  0  0  0  0  0  0  0  0  0  0
  -34.2531   58.1347   63.1200 H   0  0  0  0  0  0  0  0  0  0  0  0
  -35.8173   58.9107   63.0543 H   0  0  0  0  0  0  0  0  0  0  0  0
  -36.6005   65.6981   63.8133 H   0  0  0  0  0  0  0  0  0  0  0  0
  -32.6143   60.6363   63.2744 H   0  0  0  0  0  0  0  0  0  0  0  0
  -32.4224   60.8410   61.5498 H   0  0  0  0  0  0  0  0  0  0  0  0
  -32.2977   59.2493   62.2599 H   0  0  0  0  0  0  0  0  0  0  0  0
  -35.5666   59.2335   60.6486 H   0  0  0  0  0  0  0  0  0  0  0  0
  -34.0162   58.4316   60.7287 H   0  0  0  0  0  0  0  0  0  0  0  0
  -34.1409   60.0232   60.0186 H   0  0  0  0  0  0  0  0  0  0  0  0
  -37.4213   60.5867   67.2221 H   0  0  0  0  0  0  0  0  0  0  0  0
  -38.0874   59.3188   66.1932 H   0  0  0  0  0  0  0  0  0  0  0  0
  -41.3508   59.7963   65.5416 H   0  0  0  0  0  0  0  0  0  0  0  0
  -42.0377   60.3996   67.0625 H   0  0  0  0  0  0  0  0  0  0  0  0
  -42.6787   58.1797   67.6825 H   0  0  0  0  0  0  0  0  0  0  0  0
  -41.9769   57.5734   66.1596 H   0  0  0  0  0  0  0  0  0  0  0  0
  -43.6088   58.7562   64.9009 H   0  0  0  0  0  0  0  0  0  0  0  0
  -44.3043   59.3890   66.4084 H   0  0  0  0  0  0  0  0  0  0  0  0
  -44.2305   56.5199   65.6083 H   0  0  0  0  0  0  0  0  0  0  0  0
  -45.6292   57.6059   65.5239 H   0  0  0  0  0  0  0  0  0  0  0  0
  -44.2003   56.8156   68.0218 H   0  0  0  0  0  0  0  0  0  0  0  0
  -45.7484   56.1795   67.4537 H   0  0  0  0  0  0  0  0  0  0  0  0
  -45.1865   59.0165   68.1622 H   0  0  0  0  0  0  0  0  0  0  0  0
  -46.0726   57.8118   69.1402 H   0  0  0  0  0  0  0  0  0  0  0  0
  -46.9336   58.8635   66.5025 H   0  0  0  0  0  0  0  0  0  0  0  0
  -47.5560   59.3380   68.1026 H   0  0  0  0  0  0  0  0  0  0  0  0
  -47.8801   56.6087   66.9530 H   0  0  0  0  0  0  0  0  0  0  0  0
  -49.9052   56.6365   67.9198 H   0  0  0  0  0  0  0  0  0  0  0  0
  -51.0219   58.5932   68.6346 H   0  0  0  0  0  0  0  0  0  0  0  0
  -49.5730   59.5480   68.3919 H   0  0  0  0  0  0  0  0  0  0  0  0
  -48.5687   58.5432   70.3637 H   0  0  0  0  0  0  0  0  0  0  0  0
  -50.0707   57.5927   70.5865 H   0  0  0  0  0  0  0  0  0  0  0  0
  -51.2914   59.5610   71.0424 H   0  0  0  0  0  0  0  0  0  0  0  0
  -49.8029   60.5227   70.8005 H   0  0  0  0  0  0  0  0  0  0  0  0
  -50.3499   60.2998   73.1370 H   0  0  0  0  0  0  0  0  0  0  0  0
  -48.8141   59.5216   72.6955 H   0  0  0  0  0  0  0  0  0  0  0  0
  -49.8585   57.3721   72.7434 H   0  0  0  0  0  0  0  0  0  0  0  0
  -51.4031   58.1463   73.1673 H   0  0  0  0  0  0  0  0  0  0  0  0
  -50.4983   58.8795   75.2415 H   0  0  0  0  0  0  0  0  0  0  0  0
  -48.9427   58.1060   74.8053 H   0  0  0  0  0  0  0  0  0  0  0  0
  -51.4950   56.6705   75.3076 H   0  0  0  0  0  0  0  0  0  0  0  0
  -50.1321   56.8246   76.4288 H   0  0  0  0  0  0  0  0  0  0  0  0
  -50.0616   55.4895   73.7701 H   0  0  0  0  0  0  0  0  0  0  0  0
  -50.0921   54.6921   75.3245 H   0  0  0  0  0  0  0  0  0  0  0  0
  -48.7163   55.6689   74.8705 H   0  0  0  0  0  0  0  0  0  0  0  0
  1  9  1  0  0  0  0
  1 11  1  0  0  0  0
  1 13  1  0  0  0  0
  1 15  1  0  0  0  0
  2  3  1  0  0  0  0
  2  5  1  0  0  0  0
  2 17  1  0  0  0  0
  2 36  1  6  0  0  0
  3 37  1  0  0  0  0
  4  6  1  0  0  0  0
  4  8  2  1  0  0  0
  4 10  1  0  0  0  0
  4 12  1  0  0  0  0
  5  6  1  0  0  0  0
  5 38  1  0  0  0  0
  5 39  1  0  0  0  0
  7  9  1  0  0  0  0
  7 10  1  0  0  0  0
  7 40  1  0  0  0  0
  7 41  1  0  0  0  0
  9 42  1  0  0  0  0
  9 43  1  0  0  0  0
 11 44  1  0  0  0  0
 11 45  1  0  0  0  0
 11 46  1  0  0  0  0
 12 47  1  0  0  0  0
 13 48  1  0  0  0  0
 13 49  1  0  0  0  0
 13 50  1  0  0  0  0
 14 17  1  0  0  0  0
 14 18  1  0  0  0  0
 15 51  1  0  0  0  0
 15 52  1  0  0  0  0
 15 53  1  0  0  0  0
 16 18  2  0  0  0  0
 17 54  1  0  0  0  0
 17 55  1  0  0  0  0
 18 19  1  0  0  0  0
 19 20  1  0  0  0  0
 19 56  1  0  0  0  0
 19 57  1  0  0  0  0
 20 21  1  0  0  0  0
 20 58  1  0  0  0  0
 20 59  1  0  0  0  0
 21 22  1  0  0  0  0
 21 60  1  0  0  0  0
 21 61  1  0  0  0  0
 22 23  1  0  0  0  0
 22 62  1  0  0  0  0
 22 63  1  0  0  0  0
 23 24  1  0  0  0  0
 23 64  1  0  0  0  0
 23 65  1  0  0  0  0
 24 25  1  0  0  0  0
 24 66  1  0  0  0  0
 24 67  1  0  0  0  0
 25 26  1  0  0  0  0
 25 68  1  0  0  0  0
 25 69  1  0  0  0  0
 26 27  2  0  0  0  0
 26 70  1  0  0  0  0
 27 28  1  0  0  0  0
 27 71  1  0  0  0  0
 28 29  1  0  0  0  0
 28 72  1  0  0  0  0
 28 73  1  0  0  0  0
 29 30  1  0  0  0  0
 29 74  1  0  0  0  0
 29 75  1  0  0  0  0
 30 31  1  0  0  0  0
 30 76  1  0  0  0  0
 30 77  1  0  0  0  0
 31 32  1  0  0  0  0
 31 78  1  0  0  0  0
 31 79  1  0  0  0  0
 32 33  1  0  0  0  0
 32 80  1  0  0  0  0
 32 81  1  0  0  0  0
 33 34  1  0  0  0  0
 33 82  1  0  0  0  0
 33 83  1  0  0  0  0
 34 35  1  0  0  0  0
 34 84  1  0  0  0  0
 34 85  1  0  0  0  0
 35 86  1  0  0  0  0
 35 87  1  0  0  0  0
 35 88  1  0  0  0  0
M  CHG  1   8  -1
M  END
$$$$