/media/chris/experiments/cd1a-new-docking/inputs/ligands/4x6e_ligand.pdb
 OpenBabel07012320273D

 88 87  0  0  1  0  0  0  0  0999 V2000
  -40.0338   59.3409   60.2171 N   0  0  0  0  0  4  0  0  0  0  0  0
  -38.3648   57.8711   64.7826 C   0  0  1  0  0  0  0  0  0  0  0  0
  -39.6861   57.5057   64.3618 O   0  0  0  0  0  0  0  0  0  0  0  0
  -38.4750   61.4783   62.9854 P   0  0  1  0  0  0  0  0  0  0  0  0
  -37.8025   58.9032   63.8334 C   0  0  0  0  0  0  0  0  0  0  0  0
  -38.6068   60.1073   63.8095 O   0  0  0  0  0  0  0  0  0  0  0  0
  -39.7875   61.8752   60.5890 C   0  0  0  0  0  0  0  0  0  0  0  0
  -37.2375   61.3827   62.0946 O   0  5  0  0  0  0  0  0  0  0  0  0
  -39.2569   60.6165   59.9486 C   0  0  0  0  0  0  0  0  0  0  0  0
  -39.7926   61.7390   62.0361 O   0  0  0  0  0  0  0  0  0  0  0  0
  -39.3847   58.1790   59.5361 C   0  0  0  0  0  0  0  0  0  0  0  0
  -38.2812   62.5896   63.9424 O   0  0  0  0  0  0  0  0  0  0  0  0
  -41.4191   59.5045   59.6834 C   0  0  0  0  0  0  0  0  0  0  0  0
  -39.2251   59.4857   66.4098 O   0  0  0  0  0  0  0  0  0  0  0  0
  -40.0983   59.0643   61.6921 C   0  0  0  0  0  0  0  0  0  0  0  0
  -40.1085   59.1264   68.4453 O   0  0  0  0  0  0  0  0  0  0  0  0
  -38.3627   58.3421   66.2215 C   0  0  0  0  0  0  0  0  0  0  0  0
  -40.2402   59.3661   67.2706 C   0  0  0  0  0  0  0  0  0  0  0  0
  -41.5470   59.5850   66.5720 C   0  0  0  0  0  0  0  0  0  0  0  0
  -42.4780   58.3810   66.6510 C   0  0  0  0  0  0  0  0  0  0  0  0
  -43.8050   58.5690   65.9360 C   0  0  0  0  0  0  0  0  0  0  0  0
  -43.6578   58.8291   64.4471 C   0  0  0  0  0  0  0  0  0  0  0  0
  -44.9905   59.0322   63.7470 C   0  0  0  0  0  0  0  0  0  0  0  0
  -45.9012   57.8334   63.8917 C   0  0  0  0  0  0  0  0  0  0  0  0
  -45.3401   56.5393   63.3382 C   0  0  0  0  0  0  0  0  0  0  0  0
  -45.0161   56.5910   61.8944 C   0  0  0  0  0  0  0  0  0  0  0  0
  -44.0655   55.9103   61.2879 C   0  0  0  0  0  0  0  0  0  0  0  0
  -43.1365   54.9137   61.9013 C   0  0  0  0  0  0  0  0  0  0  0  0
  -42.7440   53.8550   60.8694 C   0  0  0  0  0  0  0  0  0  0  0  0
  -42.0212   54.3811   59.6381 C   0  0  0  0  0  0  0  0  0  0  0  0
  -42.7993   55.4079   58.8240 C   0  0  0  0  0  0  0  0  0  0  0  0
  -44.1328   54.8856   58.2995 C   0  0  0  0  0  0  0  0  0  0  0  0
  -44.9054   55.9008   57.4722 C   0  0  0  0  0  0  0  0  0  0  0  0
  -45.2599   57.1933   58.1921 C   0  0  0  0  0  0  0  0  0  0  0  0
  -46.0337   58.1432   57.3304 C   0  0  0  0  0  0  0  0  0  0  0  0
  -37.7283   57.0117   64.7492 H   0  0  0  0  0  0  0  0  0  0  0  0
  -40.2624   58.2854   64.3923 H   0  0  0  0  0  0  0  0  0  0  0  0
  -37.7722   58.4874   62.8480 H   0  0  0  0  0  0  0  0  0  0  0  0
  -36.8215   59.1654   64.1707 H   0  0  0  0  0  0  0  0  0  0  0  0
  -40.7859   62.0518   60.2472 H   0  0  0  0  0  0  0  0  0  0  0  0
  -39.1578   62.6968   60.3180 H   0  0  0  0  0  0  0  0  0  0  0  0
  -39.2423   60.7715   58.8900 H   0  0  0  0  0  0  0  0  0  0  0  0
  -38.2940   60.4594   60.3880 H   0  0  0  0  0  0  0  0  0  0  0  0
  -39.3334   58.3655   58.4837 H   0  0  0  0  0  0  0  0  0  0  0  0
  -39.9599   57.2945   59.7140 H   0  0  0  0  0  0  0  0  0  0  0  0
  -38.3962   58.0455   59.9232 H   0  0  0  0  0  0  0  0  0  0  0  0
  -37.4999   62.4127   64.4894 H   0  0  0  0  0  0  0  0  0  0  0  0
  -41.3755   59.7017   58.6326 H   0  0  0  0  0  0  0  0  0  0  0  0
  -41.8984   60.3220   60.1801 H   0  0  0  0  0  0  0  0  0  0  0  0
  -41.9757   58.6069   59.8551 H   0  0  0  0  0  0  0  0  0  0  0  0
  -39.1068   58.9468   62.0767 H   0  0  0  0  0  0  0  0  0  0  0  0
  -40.6557   58.1670   61.8627 H   0  0  0  0  0  0  0  0  0  0  0  0
  -40.5785   59.8821   62.1877 H   0  0  0  0  0  0  0  0  0  0  0  0
  -37.3645   58.6113   66.4969 H   0  0  0  0  0  0  0  0  0  0  0  0
  -38.7273   57.5445   66.8344 H   0  0  0  0  0  0  0  0  0  0  0  0
  -41.3508   59.7963   65.5416 H   0  0  0  0  0  0  0  0  0  0  0  0
  -42.0377   60.3996   67.0625 H   0  0  0  0  0  0  0  0  0  0  0  0
  -42.6787   58.1797   67.6825 H   0  0  0  0  0  0  0  0  0  0  0  0
  -41.9769   57.5734   66.1596 H   0  0  0  0  0  0  0  0  0  0  0  0
  -44.3126   59.4014   66.3769 H   0  0  0  0  0  0  0  0  0  0  0  0
  -44.3534   57.6566   66.0440 H   0  0  0  0  0  0  0  0  0  0  0  0
  -43.1625   57.9917   64.0018 H   0  0  0  0  0  0  0  0  0  0  0  0
  -43.0949   59.7319   64.3334 H   0  0  0  0  0  0  0  0  0  0  0  0
  -44.8102   59.2042   62.7064 H   0  0  0  0  0  0  0  0  0  0  0  0
  -45.4760   59.8700   64.2022 H   0  0  0  0  0  0  0  0  0  0  0  0
  -46.8157   58.0461   63.3786 H   0  0  0  0  0  0  0  0  0  0  0  0
  -46.0328   57.6799   64.9424 H   0  0  0  0  0  0  0  0  0  0  0  0
  -46.0630   55.7658   63.4931 H   0  0  0  0  0  0  0  0  0  0  0  0
  -44.4214   56.3548   63.8547 H   0  0  0  0  0  0  0  0  0  0  0  0
  -45.5885   57.2189   61.3086 H   0  0  0  0  0  0  0  0  0  0  0  0
  -43.9495   56.0847   60.2773 H   0  0  0  0  0  0  0  0  0  0  0  0
  -43.6227   54.4389   62.7278 H   0  0  0  0  0  0  0  0  0  0  0  0
  -42.2549   55.4181   62.2377 H   0  0  0  0  0  0  0  0  0  0  0  0
  -43.6372   53.3643   60.5436 H   0  0  0  0  0  0  0  0  0  0  0  0
  -42.0519   53.2047   61.3625 H   0  0  0  0  0  0  0  0  0  0  0  0
  -41.8021   53.5497   59.0013 H   0  0  0  0  0  0  0  0  0  0  0  0
  -41.1473   54.8838   59.9964 H   0  0  0  0  0  0  0  0  0  0  0  0
  -42.1991   55.7029   57.9887 H   0  0  0  0  0  0  0  0  0  0  0  0
  -43.0174   56.2270   59.4770 H   0  0  0  0  0  0  0  0  0  0  0  0
  -44.7368   54.6019   59.1359 H   0  0  0  0  0  0  0  0  0  0  0  0
  -43.9131   54.0601   57.6551 H   0  0  0  0  0  0  0  0  0  0  0  0
  -45.8166   55.4406   57.1515 H   0  0  0  0  0  0  0  0  0  0  0  0
  -44.2583   56.1792   56.6669 H   0  0  0  0  0  0  0  0  0  0  0  0
  -44.3543   57.6720   58.5012 H   0  0  0  0  0  0  0  0  0  0  0  0
  -45.8786   56.9381   59.0270 H   0  0  0  0  0  0  0  0  0  0  0  0
  -45.4414   58.4194   56.4832 H   0  0  0  0  0  0  0  0  0  0  0  0
  -46.2784   59.0185   57.8952 H   0  0  0  0  0  0  0  0  0  0  0  0
  -46.9339   57.6703   56.9975 H   0  0  0  0  0  0  0  0  0  0  0  0
  1  9  1  0  0  0  0
  1 11  1  0  0  0  0
  1 13  1  0  0  0  0
  1 15  1  0  0  0  0
  2  3  1  0  0  0  0
  2  5  1  0  0  0  0
  2 17  1  0  0  0  0
  2 36  1  6  0  0  0
  3 37  1  0  0  0  0
  4  6  1  0  0  0  0
  4  8  2  6  0  0  0
  4 10  1  0  0  0  0
  4 12  1  0  0  0  0
  5  6  1  0  0  0  0
  5 38  1  0  0  0  0
  5 39  1  0  0  0  0
  7  9  1  0  0  0  0
  7 10  1  0  0  0  0
  7 40  1  0  0  0  0
  7 41  1  0  0  0  0
  9 42  1  0  0  0  0
  9 43  1  0  0  0  0
 11 44  1  0  0  0  0
 11 45  1  0  0  0  0
 11 46  1  0  0  0  0
 12 47  1  0  0  0  0
 13 48  1  0  0  0  0
 13 49  1  0  0  0  0
 13 50  1  0  0  0  0
 14 17  1  0  0  0  0
 14 18  1  0  0  0  0
 15 51  1  0  0  0  0
 15 52  1  0  0  0  0
 15 53  1  0  0  0  0
 16 18  2  0  0  0  0
 17 54  1  0  0  0  0
 17 55  1  0  0  0  0
 18 19  1  0  0  0  0
 19 20  1  0  0  0  0
 19 56  1  0  0  0  0
 19 57  1  0  0  0  0
 20 21  1  0  0  0  0
 20 58  1  0  0  0  0
 20 59  1  0  0  0  0
 21 22  1  0  0  0  0
 21 60  1  0  0  0  0
 21 61  1  0  0  0  0
 22 23  1  0  0  0  0
 22 62  1  0  0  0  0
 22 63  1  0  0  0  0
 23 24  1  0  0  0  0
 23 64  1  0  0  0  0
 23 65  1  0  0  0  0
 24 25  1  0  0  0  0
 24 66  1  0  0  0  0
 24 67  1  0  0  0  0
 25 26  1  0  0  0  0
 25 68  1  0  0  0  0
 25 69  1  0  0  0  0
 26 27  2  0  0  0  0
 26 70  1  0  0  0  0
 27 28  1  0  0  0  0
 27 71  1  0  0  0  0
 28 29  1  0  0  0  0
 28 72  1  0  0  0  0
 28 73  1  0  0  0  0
 29 30  1  0  0  0  0
 29 74  1  0  0  0  0
 29 75  1  0  0  0  0
 30 31  1  0  0  0  0
 30 76  1  0  0  0  0
 30 77  1  0  0  0  0
 31 32  1  0  0  0  0
 31 78  1  0  0  0  0
 31 79  1  0  0  0  0
 32 33  1  0  0  0  0
 32 80  1  0  0  0  0
 32 81  1  0  0  0  0
 33 34  1  0  0  0  0
 33 82  1  0  0  0  0
 33 83  1  0  0  0  0
 34 35  1  0  0  0  0
 34 84  1  0  0  0  0
 34 85  1  0  0  0  0
 35 86  1  0  0  0  0
 35 87  1  0  0  0  0
 35 88  1  0  0  0  0
M  CHG  1   8  -1
M  END
$$$$