/media/chris/experiments/cd1a-new-docking/inputs/ligands/4x6e_ligand.pdb
 OpenBabel07012320273D

 88 87  0  0  1  0  0  0  0  0999 V2000
  -44.0358   58.6288   60.2059 N   0  0  0  0  0  4  0  0  0  0  0  0
  -39.4975   56.5952   66.0461 C   0  0  1  0  0  0  0  0  0  0  0  0
  -40.7146   55.8433   66.1450 O   0  0  0  0  0  0  0  0  0  0  0  0
  -40.0571   57.5160   62.1611 P   0  0  1  0  0  0  0  0  0  0  0  0
  -39.6136   57.5933   64.9179 C   0  0  0  0  0  0  0  0  0  0  0  0
  -39.8673   56.9437   63.6486 O   0  0  0  0  0  0  0  0  0  0  0  0
  -42.3187   59.0968   62.0644 C   0  0  0  0  0  0  0  0  0  0  0  0
  -39.5533   56.4622   61.1763 O   0  5  0  0  0  0  0  0  0  0  0  0
  -43.7668   58.9905   61.6549 C   0  0  0  0  0  0  0  0  0  0  0  0
  -41.6377   57.8332   61.8354 O   0  0  0  0  0  0  0  0  0  0  0  0
  -43.4509   57.2915   59.8826 C   0  0  0  0  0  0  0  0  0  0  0  0
  -39.2293   58.7329   62.0125 O   0  0  0  0  0  0  0  0  0  0  0  0
  -43.4024   59.6601   59.3309 C   0  0  0  0  0  0  0  0  0  0  0  0
  -40.1976   58.1437   67.8087 O   0  0  0  0  0  0  0  0  0  0  0  0
  -45.5135   58.5891   59.9387 C   0  0  0  0  0  0  0  0  0  0  0  0
  -39.3411   60.1674   67.3359 O   0  0  0  0  0  0  0  0  0  0  0  0
  -39.1529   57.2490   67.3675 C   0  0  0  0  0  0  0  0  0  0  0  0
  -40.2402   59.3661   67.2706 C   0  0  0  0  0  0  0  0  0  0  0  0
  -41.5470   59.5850   66.5720 C   0  0  0  0  0  0  0  0  0  0  0  0
  -42.4780   58.3810   66.6510 C   0  0  0  0  0  0  0  0  0  0  0  0
  -43.8050   58.5690   65.9360 C   0  0  0  0  0  0  0  0  0  0  0  0
  -44.7241   57.3648   66.0412 C   0  0  0  0  0  0  0  0  0  0  0  0
  -45.0954   57.0268   67.4749 C   0  0  0  0  0  0  0  0  0  0  0  0
  -45.9968   55.8154   67.5620 C   0  0  0  0  0  0  0  0  0  0  0  0
  -46.4170   55.4365   68.9676 C   0  0  0  0  0  0  0  0  0  0  0  0
  -45.2866   55.1276   69.8726 C   0  0  0  0  0  0  0  0  0  0  0  0
  -44.7460   53.9415   70.0616 C   0  0  0  0  0  0  0  0  0  0  0  0
  -45.1171   52.6619   69.3853 C   0  0  0  0  0  0  0  0  0  0  0  0
  -44.9083   52.7846   67.8750 C   0  0  0  0  0  0  0  0  0  0  0  0
  -45.2677   51.5479   67.0645 C   0  0  0  0  0  0  0  0  0  0  0  0
  -45.0406   51.6734   65.5628 C   0  0  0  0  0  0  0  0  0  0  0  0
  -45.4274   50.4220   64.7815 C   0  0  0  0  0  0  0  0  0  0  0  0
  -44.6664   49.1758   65.2054 C   0  0  0  0  0  0  0  0  0  0  0  0
  -45.0120   47.9088   64.4375 C   0  0  0  0  0  0  0  0  0  0  0  0
  -44.2423   46.7149   64.9126 C   0  0  0  0  0  0  0  0  0  0  0  0
  -38.6865   55.9351   65.8195 H   0  0  0  0  0  0  0  0  0  0  0  0
  -41.4491   56.4425   66.3504 H   0  0  0  0  0  0  0  0  0  0  0  0
  -38.6994   58.1448   64.8480 H   0  0  0  0  0  0  0  0  0  0  0  0
  -40.4384   58.2409   65.1305 H   0  0  0  0  0  0  0  0  0  0  0  0
  -42.2627   59.3451   63.1037 H   0  0  0  0  0  0  0  0  0  0  0  0
  -41.8459   59.8588   61.4806 H   0  0  0  0  0  0  0  0  0  0  0  0
  -44.2236   58.2413   62.2672 H   0  0  0  0  0  0  0  0  0  0  0  0
  -44.1696   59.9738   61.7807 H   0  0  0  0  0  0  0  0  0  0  0  0
  -42.3974   57.3083   60.0694 H   0  0  0  0  0  0  0  0  0  0  0  0
  -43.6266   57.0651   58.8517 H   0  0  0  0  0  0  0  0  0  0  0  0
  -43.9099   56.5439   60.4952 H   0  0  0  0  0  0  0  0  0  0  0  0
  -38.3036   58.5204   62.2094 H   0  0  0  0  0  0  0  0  0  0  0  0
  -42.3496   59.6901   59.5196 H   0  0  0  0  0  0  0  0  0  0  0  0
  -43.8299   60.6181   59.5417 H   0  0  0  0  0  0  0  0  0  0  0  0
  -43.5738   59.4111   58.3045 H   0  0  0  0  0  0  0  0  0  0  0  0
  -45.9694   57.8508   60.5646 H   0  0  0  0  0  0  0  0  0  0  0  0
  -45.6837   58.3407   58.9119 H   0  0  0  0  0  0  0  0  0  0  0  0
  -45.9398   59.5477   60.1492 H   0  0  0  0  0  0  0  0  0  0  0  0
  -38.2456   57.8045   67.2534 H   0  0  0  0  0  0  0  0  0  0  0  0
  -39.0407   56.4788   68.1018 H   0  0  0  0  0  0  0  0  0  0  0  0
  -41.3508   59.7963   65.5416 H   0  0  0  0  0  0  0  0  0  0  0  0
  -42.0377   60.3996   67.0625 H   0  0  0  0  0  0  0  0  0  0  0  0
  -42.6787   58.1797   67.6825 H   0  0  0  0  0  0  0  0  0  0  0  0
  -41.9769   57.5734   66.1596 H   0  0  0  0  0  0  0  0  0  0  0  0
  -43.6088   58.7562   64.9009 H   0  0  0  0  0  0  0  0  0  0  0  0
  -44.3043   59.3890   66.4084 H   0  0  0  0  0  0  0  0  0  0  0  0
  -44.2305   56.5199   65.6083 H   0  0  0  0  0  0  0  0  0  0  0  0
  -45.6292   57.6059   65.5239 H   0  0  0  0  0  0  0  0  0  0  0  0
  -45.6019   57.8648   67.9062 H   0  0  0  0  0  0  0  0  0  0  0  0
  -44.1925   56.8028   68.0036 H   0  0  0  0  0  0  0  0  0  0  0  0
  -45.4784   54.9831   67.1337 H   0  0  0  0  0  0  0  0  0  0  0  0
  -46.8941   56.0690   67.0372 H   0  0  0  0  0  0  0  0  0  0  0  0
  -47.0465   54.5733   68.9092 H   0  0  0  0  0  0  0  0  0  0  0  0
  -46.9195   56.2866   69.3798 H   0  0  0  0  0  0  0  0  0  0  0  0
  -44.8847   55.9151   70.4049 H   0  0  0  0  0  0  0  0  0  0  0  0
  -43.9817   53.8903   70.7532 H   0  0  0  0  0  0  0  0  0  0  0  0
  -46.1454   52.4423   69.5835 H   0  0  0  0  0  0  0  0  0  0  0  0
  -44.4972   51.8749   69.7613 H   0  0  0  0  0  0  0  0  0  0  0  0
  -43.8757   53.0048   67.7012 H   0  0  0  0  0  0  0  0  0  0  0  0
  -45.5732   53.5560   67.5469 H   0  0  0  0  0  0  0  0  0  0  0  0
  -46.3035   51.3342   67.2268 H   0  0  0  0  0  0  0  0  0  0  0  0
  -44.6153   50.7696   67.4015 H   0  0  0  0  0  0  0  0  0  0  0  0
  -44.0029   51.8714   65.3928 H   0  0  0  0  0  0  0  0  0  0  0  0
  -45.6680   52.4675   65.2153 H   0  0  0  0  0  0  0  0  0  0  0  0
  -45.2346   50.5988   63.7440 H   0  0  0  0  0  0  0  0  0  0  0  0
  -46.4628   50.2380   64.9794 H   0  0  0  0  0  0  0  0  0  0  0  0
  -44.8704   49.0005   66.2410 H   0  0  0  0  0  0  0  0  0  0  0  0
  -43.6356   49.3747   64.9984 H   0  0  0  0  0  0  0  0  0  0  0  0
  -44.7941   48.0663   63.4019 H   0  0  0  0  0  0  0  0  0  0  0  0
  -46.0506   47.7076   64.5980 H   0  0  0  0  0  0  0  0  0  0  0  0
  -43.1960   46.8837   64.7659 H   0  0  0  0  0  0  0  0  0  0  0  0
  -44.5455   45.8514   64.3582 H   0  0  0  0  0  0  0  0  0  0  0  0
  -44.4357   46.5568   65.9530 H   0  0  0  0  0  0  0  0  0  0  0  0
  1  9  1  0  0  0  0
  1 11  1  0  0  0  0
  1 13  1  0  0  0  0
  1 15  1  0  0  0  0
  2  3  1  0  0  0  0
  2  5  1  0  0  0  0
  2 17  1  0  0  0  0
  2 36  1  6  0  0  0
  3 37  1  0  0  0  0
  4  6  1  0  0  0  0
  4  8  2  6  0  0  0
  4 10  1  0  0  0  0
  4 12  1  0  0  0  0
  5  6  1  0  0  0  0
  5 38  1  0  0  0  0
  5 39  1  0  0  0  0
  7  9  1  0  0  0  0
  7 10  1  0  0  0  0
  7 40  1  0  0  0  0
  7 41  1  0  0  0  0
  9 42  1  0  0  0  0
  9 43  1  0  0  0  0
 11 44  1  0  0  0  0
 11 45  1  0  0  0  0
 11 46  1  0  0  0  0
 12 47  1  0  0  0  0
 13 48  1  0  0  0  0
 13 49  1  0  0  0  0
 13 50  1  0  0  0  0
 14 17  1  0  0  0  0
 14 18  1  0  0  0  0
 15 51  1  0  0  0  0
 15 52  1  0  0  0  0
 15 53  1  0  0  0  0
 16 18  2  0  0  0  0
 17 54  1  0  0  0  0
 17 55  1  0  0  0  0
 18 19  1  0  0  0  0
 19 20  1  0  0  0  0
 19 56  1  0  0  0  0
 19 57  1  0  0  0  0
 20 21  1  0  0  0  0
 20 58  1  0  0  0  0
 20 59  1  0  0  0  0
 21 22  1  0  0  0  0
 21 60  1  0  0  0  0
 21 61  1  0  0  0  0
 22 23  1  0  0  0  0
 22 62  1  0  0  0  0
 22 63  1  0  0  0  0
 23 24  1  0  0  0  0
 23 64  1  0  0  0  0
 23 65  1  0  0  0  0
 24 25  1  0  0  0  0
 24 66  1  0  0  0  0
 24 67  1  0  0  0  0
 25 26  1  0  0  0  0
 25 68  1  0  0  0  0
 25 69  1  0  0  0  0
 26 27  2  0  0  0  0
 26 70  1  0  0  0  0
 27 28  1  0  0  0  0
 27 71  1  0  0  0  0
 28 29  1  0  0  0  0
 28 72  1  0  0  0  0
 28 73  1  0  0  0  0
 29 30  1  0  0  0  0
 29 74  1  0  0  0  0
 29 75  1  0  0  0  0
 30 31  1  0  0  0  0
 30 76  1  0  0  0  0
 30 77  1  0  0  0  0
 31 32  1  0  0  0  0
 31 78  1  0  0  0  0
 31 79  1  0  0  0  0
 32 33  1  0  0  0  0
 32 80  1  0  0  0  0
 32 81  1  0  0  0  0
 33 34  1  0  0  0  0
 33 82  1  0  0  0  0
 33 83  1  0  0  0  0
 34 35  1  0  0  0  0
 34 84  1  0  0  0  0
 34 85  1  0  0  0  0
 35 86  1  0  0  0  0
 35 87  1  0  0  0  0
 35 88  1  0  0  0  0
M  CHG  1   8  -1
M  END
$$$$