/media/chris/experiments/cd1a-new-docking/inputs/ligands/4x6e_ligand.pdb
 OpenBabel07012320273D

 88 87  0  0  1  0  0  0  0  0999 V2000
  -37.5852   62.4019   66.3665 N   0  0  0  0  0  4  0  0  0  0  0  0
  -39.0345   57.7798   64.6191 C   0  0  1  0  0  0  0  0  0  0  0  0
  -39.6285   56.5583   65.0789 O   0  0  0  0  0  0  0  0  0  0  0  0
  -36.1767   57.2748   66.2930 P   0  0  1  0  0  0  0  0  0  0  0  0
  -37.7067   57.4780   63.9648 C   0  0  0  0  0  0  0  0  0  0  0  0
  -36.7915   56.8275   64.8795 O   0  0  0  0  0  0  0  0  0  0  0  0
  -37.1078   59.8741   66.3045 C   0  0  0  0  0  0  0  0  0  0  0  0
  -34.7935   56.6416   66.4339 O   0  5  0  0  0  0  0  0  0  0  0  0
  -36.5676   61.2777   66.4237 C   0  0  0  0  0  0  0  0  0  0  0  0
  -36.0241   58.9094   66.3927 O   0  0  0  0  0  0  0  0  0  0  0  0
  -38.3356   62.3640   65.0740 C   0  0  0  0  0  0  0  0  0  0  0  0
  -37.0443   56.7553   67.3727 O   0  0  0  0  0  0  0  0  0  0  0  0
  -36.8631   63.7051   66.4706 C   0  0  0  0  0  0  0  0  0  0  0  0
  -41.2044   58.8877   64.3757 O   0  0  0  0  0  0  0  0  0  0  0  0
  -38.5646   62.2838   67.4994 C   0  0  0  0  0  0  0  0  0  0  0  0
  -40.9406   61.0815   64.7883 O   0  0  0  0  0  0  0  0  0  0  0  0
  -39.9765   58.5318   63.7029 C   0  0  0  0  0  0  0  0  0  0  0  0
  -41.1924   59.9644   65.1670 C   0  0  0  0  0  0  0  0  0  0  0  0
  -41.5470   59.5850   66.5720 C   0  0  0  0  0  0  0  0  0  0  0  0
  -42.4780   58.3810   66.6510 C   0  0  0  0  0  0  0  0  0  0  0  0
  -43.8050   58.5690   65.9360 C   0  0  0  0  0  0  0  0  0  0  0  0
  -43.6578   58.8291   64.4471 C   0  0  0  0  0  0  0  0  0  0  0  0
  -42.9740   57.6892   63.7118 C   0  0  0  0  0  0  0  0  0  0  0  0
  -43.7434   56.3921   63.8252 C   0  0  0  0  0  0  0  0  0  0  0  0
  -45.1447   56.4328   63.2503 C   0  0  0  0  0  0  0  0  0  0  0  0
  -45.8891   55.1600   63.3846 C   0  0  0  0  0  0  0  0  0  0  0  0
  -46.6617   54.8160   64.3943 C   0  0  0  0  0  0  0  0  0  0  0  0
  -46.9920   55.6362   65.5989 C   0  0  0  0  0  0  0  0  0  0  0  0
  -45.9755   55.3719   66.7108 C   0  0  0  0  0  0  0  0  0  0  0  0
  -46.2106   56.1375   68.0047 C   0  0  0  0  0  0  0  0  0  0  0  0
  -46.2068   57.6550   67.8651 C   0  0  0  0  0  0  0  0  0  0  0  0
  -46.4283   58.3886   69.1837 C   0  0  0  0  0  0  0  0  0  0  0  0
  -46.4423   59.9028   69.0472 C   0  0  0  0  0  0  0  0  0  0  0  0
  -47.5288   60.4654   68.1429 C   0  0  0  0  0  0  0  0  0  0  0  0
  -48.9092   60.1316   68.6187 C   0  0  0  0  0  0  0  0  0  0  0  0
  -38.8516   58.4248   65.4530 H   0  0  0  0  0  0  0  0  0  0  0  0
  -39.7940   55.9743   64.3223 H   0  0  0  0  0  0  0  0  0  0  0  0
  -37.2688   58.3953   63.6308 H   0  0  0  0  0  0  0  0  0  0  0  0
  -37.8837   56.8148   63.1440 H   0  0  0  0  0  0  0  0  0  0  0  0
  -37.6024   59.7647   65.3619 H   0  0  0  0  0  0  0  0  0  0  0  0
  -37.7984   59.6970   67.1023 H   0  0  0  0  0  0  0  0  0  0  0  0
  -36.0553   61.3503   67.3603 H   0  0  0  0  0  0  0  0  0  0  0  0
  -35.9448   61.4154   65.5646 H   0  0  0  0  0  0  0  0  0  0  0  0
  -37.6470   62.4474   64.2592 H   0  0  0  0  0  0  0  0  0  0  0  0
  -39.0287   63.1784   65.0399 H   0  0  0  0  0  0  0  0  0  0  0  0
  -38.8680   61.4390   64.9977 H   0  0  0  0  0  0  0  0  0  0  0  0
  -37.1184   55.7915   67.2924 H   0  0  0  0  0  0  0  0  0  0  0  0
  -36.1648   63.7913   65.6645 H   0  0  0  0  0  0  0  0  0  0  0  0
  -36.3392   63.7491   67.4025 H   0  0  0  0  0  0  0  0  0  0  0  0
  -37.5680   64.5084   66.4194 H   0  0  0  0  0  0  0  0  0  0  0  0
  -39.0831   61.3507   67.4268 H   0  0  0  0  0  0  0  0  0  0  0  0
  -39.2685   63.0880   67.4476 H   0  0  0  0  0  0  0  0  0  0  0  0
  -38.0397   62.3287   68.4307 H   0  0  0  0  0  0  0  0  0  0  0  0
  -40.2088   57.9136   62.8611 H   0  0  0  0  0  0  0  0  0  0  0  0
  -39.4918   59.4341   63.3934 H   0  0  0  0  0  0  0  0  0  0  0  0
  -42.0288   60.4189   67.0383 H   0  0  0  0  0  0  0  0  0  0  0  0
  -40.6378   59.3175   67.0687 H   0  0  0  0  0  0  0  0  0  0  0  0
  -42.6787   58.1797   67.6825 H   0  0  0  0  0  0  0  0  0  0  0  0
  -41.9769   57.5734   66.1596 H   0  0  0  0  0  0  0  0  0  0  0  0
  -44.3126   59.4014   66.3769 H   0  0  0  0  0  0  0  0  0  0  0  0
  -44.3534   57.6566   66.0440 H   0  0  0  0  0  0  0  0  0  0  0  0
  -43.0787   59.7186   64.3117 H   0  0  0  0  0  0  0  0  0  0  0  0
  -44.6423   58.9284   64.0400 H   0  0  0  0  0  0  0  0  0  0  0  0
  -41.9978   57.5481   64.1268 H   0  0  0  0  0  0  0  0  0  0  0  0
  -42.9229   57.9510   62.6756 H   0  0  0  0  0  0  0  0  0  0  0  0
  -43.8162   56.1377   64.8620 H   0  0  0  0  0  0  0  0  0  0  0  0
  -43.2026   55.6695   63.2505 H   0  0  0  0  0  0  0  0  0  0  0  0
  -45.0745   56.6731   62.2100 H   0  0  0  0  0  0  0  0  0  0  0  0
  -45.6864   57.1680   63.8079 H   0  0  0  0  0  0  0  0  0  0  0  0
  -45.7938   54.4788   62.6152 H   0  0  0  0  0  0  0  0  0  0  0  0
  -47.0857   53.8763   64.3485 H   0  0  0  0  0  0  0  0  0  0  0  0
  -47.9706   55.3774   65.9455 H   0  0  0  0  0  0  0  0  0  0  0  0
  -46.9607   56.6728   65.3356 H   0  0  0  0  0  0  0  0  0  0  0  0
  -45.0064   55.6363   66.3421 H   0  0  0  0  0  0  0  0  0  0  0  0
  -46.0726   54.3356   66.9593 H   0  0  0  0  0  0  0  0  0  0  0  0
  -45.4403   55.8658   68.6958 H   0  0  0  0  0  0  0  0  0  0  0  0
  -47.1923   55.8702   68.3360 H   0  0  0  0  0  0  0  0  0  0  0  0
  -46.9859   57.9345   67.1871 H   0  0  0  0  0  0  0  0  0  0  0  0
  -45.2378   57.9354   67.5082 H   0  0  0  0  0  0  0  0  0  0  0  0
  -45.6422   58.1176   69.8570 H   0  0  0  0  0  0  0  0  0  0  0  0
  -47.3933   58.0987   69.5439 H   0  0  0  0  0  0  0  0  0  0  0  0
  -45.4949   60.2078   68.6543 H   0  0  0  0  0  0  0  0  0  0  0  0
  -46.6449   60.2857   70.0256 H   0  0  0  0  0  0  0  0  0  0  0  0
  -47.3988   60.0621   67.1604 H   0  0  0  0  0  0  0  0  0  0  0  0
  -47.4342   61.5312   68.1498 H   0  0  0  0  0  0  0  0  0  0  0  0
  -49.0376   59.0694   68.6239 H   0  0  0  0  0  0  0  0  0  0  0  0
  -49.6294   60.5747   67.9629 H   0  0  0  0  0  0  0  0  0  0  0  0
  -49.0470   60.5124   69.6091 H   0  0  0  0  0  0  0  0  0  0  0  0
  1  9  1  0  0  0  0
  1 11  1  0  0  0  0
  1 13  1  0  0  0  0
  1 15  1  0  0  0  0
  2  3  1  0  0  0  0
  2  5  1  0  0  0  0
  2 17  1  0  0  0  0
  2 36  1  1  0  0  0
  3 37  1  0  0  0  0
  4  6  1  0  0  0  0
  4  8  2  1  0  0  0
  4 10  1  0  0  0  0
  4 12  1  0  0  0  0
  5  6  1  0  0  0  0
  5 38  1  0  0  0  0
  5 39  1  0  0  0  0
  7  9  1  0  0  0  0
  7 10  1  0  0  0  0
  7 40  1  0  0  0  0
  7 41  1  0  0  0  0
  9 42  1  0  0  0  0
  9 43  1  0  0  0  0
 11 44  1  0  0  0  0
 11 45  1  0  0  0  0
 11 46  1  0  0  0  0
 12 47  1  0  0  0  0
 13 48  1  0  0  0  0
 13 49  1  0  0  0  0
 13 50  1  0  0  0  0
 14 17  1  0  0  0  0
 14 18  1  0  0  0  0
 15 51  1  0  0  0  0
 15 52  1  0  0  0  0
 15 53  1  0  0  0  0
 16 18  2  0  0  0  0
 17 54  1  0  0  0  0
 17 55  1  0  0  0  0
 18 19  1  0  0  0  0
 19 20  1  0  0  0  0
 19 56  1  0  0  0  0
 19 57  1  0  0  0  0
 20 21  1  0  0  0  0
 20 58  1  0  0  0  0
 20 59  1  0  0  0  0
 21 22  1  0  0  0  0
 21 60  1  0  0  0  0
 21 61  1  0  0  0  0
 22 23  1  0  0  0  0
 22 62  1  0  0  0  0
 22 63  1  0  0  0  0
 23 24  1  0  0  0  0
 23 64  1  0  0  0  0
 23 65  1  0  0  0  0
 24 25  1  0  0  0  0
 24 66  1  0  0  0  0
 24 67  1  0  0  0  0
 25 26  1  0  0  0  0
 25 68  1  0  0  0  0
 25 69  1  0  0  0  0
 26 27  2  0  0  0  0
 26 70  1  0  0  0  0
 27 28  1  0  0  0  0
 27 71  1  0  0  0  0
 28 29  1  0  0  0  0
 28 72  1  0  0  0  0
 28 73  1  0  0  0  0
 29 30  1  0  0  0  0
 29 74  1  0  0  0  0
 29 75  1  0  0  0  0
 30 31  1  0  0  0  0
 30 76  1  0  0  0  0
 30 77  1  0  0  0  0
 31 32  1  0  0  0  0
 31 78  1  0  0  0  0
 31 79  1  0  0  0  0
 32 33  1  0  0  0  0
 32 80  1  0  0  0  0
 32 81  1  0  0  0  0
 33 34  1  0  0  0  0
 33 82  1  0  0  0  0
 33 83  1  0  0  0  0
 34 35  1  0  0  0  0
 34 84  1  0  0  0  0
 34 85  1  0  0  0  0
 35 86  1  0  0  0  0
 35 87  1  0  0  0  0
 35 88  1  0  0  0  0
M  CHG  1   8  -1
M  END
$$$$