/media/chris/experiments/cd1a-new-docking/inputs/ligands/6nux_ligand.pdb


 17 16  0  0  0  0  0  0  0  0999 V2000
  -38.4077   57.5653   61.3842 C   0  0  0  0  0  0  0  0  0  0  0  0
  -39.4333   58.2214   60.5040 C   0  0  0  0  0  0  0  0  0  0  0  0
  -38.7992   56.6348   62.2661 C   0  0  0  0  0  0  0  0  0  0  0  0
  -36.9444   57.9399   61.2797 C   0  0  0  0  0  0  0  0  0  0  0  0
  -36.1226   57.2070   62.3350 C   0  0  0  0  0  0  0  0  0  0  0  0
  -34.5157   58.7573   64.1304 C   0  0  0  0  0  0  0  0  0  0  0  0
  -33.8952   58.1205   62.9247 C   0  0  0  0  0  0  0  0  0  0  0  0
  -32.4305   58.3012   62.6619 C   0  0  0  0  0  0  0  0  0  0  0  0
  -34.6448   57.3957   62.0810 C   0  0  0  0  0  0  0  0  0  0  0  0
  -40.2576   56.2523   62.3710 C   0  0  0  0  0  0  0  0  0  0  0  0
  -40.7374   56.3999   63.8098 C   0  0  0  0  0  0  0  0  0  0  0  0
  -40.8742   57.8649   64.1636 C   0  0  0  0  0  0  0  0  0  0  0  0
  -41.7864   58.7402   63.3615 C   0  0  0  0  0  0  0  0  0  0  0  0
  -40.1923   58.3815   65.1966 C   0  0  0  0  0  0  0  0  0  0  0  0
  -39.1593   60.5634   65.1408 O   0  0  0  0  0  0  0  0  0  0  0  0
  -40.3197   59.8412   65.5680 C   0  0  0  0  0  0  0  0  0  0  0  0
  -39.2521   61.4978   65.3842 H   0  0  0  0  0  0  0  0  0  0  0  0
  6  7  1  0  0  0
 15 16  1  0  0  0
 15 17  1  0  0  0
  7  8  1  0  0  0
  7  9  2  0  0  0
  9  5  1  0  0  0
  5  4  1  0  0  0
  4  1  1  0  0  0
  1  2  1  0  0  0
  1  3  2  0  0  0
  3 10  1  0  0  0
 10 11  1  0  0  0
 11 12  1  0  0  0
 12 13  1  0  0  0
 12 14  2  0  0  0
 14 16  1  0  0  0
M  END
> <minimizedAffinity>
-6.78274

> <CNNscore>
0.6844074726

> <CNNaffinity>
5.6316146851

> <CNN_VS>
3.8543190956

> <CNNaffinity_variance>
0.0220158808

$$$$
/media/chris/experiments/cd1a-new-docking/inputs/ligands/6nux_ligand.pdb


 17 16  0  0  0  0  0  0  0  0999 V2000
  -38.1727   57.5151   62.2000 C   0  0  0  0  0  0  0  0  0  0  0  0
  -38.4784   57.5689   63.6698 C   0  0  0  0  0  0  0  0  0  0  0  0
  -39.1793   57.5856   61.3177 C   0  0  0  0  0  0  0  0  0  0  0  0
  -36.7455   57.3884   61.7103 C   0  0  0  0  0  0  0  0  0  0  0  0
  -35.7865   57.2072   62.8823 C   0  0  0  0  0  0  0  0  0  0  0  0
  -33.2156   56.5051   61.8302 C   0  0  0  0  0  0  0  0  0  0  0  0
  -33.4720   57.8961   62.3238 C   0  0  0  0  0  0  0  0  0  0  0  0
  -32.3757   58.9169   62.2666 C   0  0  0  0  0  0  0  0  0  0  0  0
  -34.6737   58.2278   62.8189 C   0  0  0  0  0  0  0  0  0  0  0  0
  -40.6055   57.7180   61.8002 C   0  0  0  0  0  0  0  0  0  0  0  0
  -41.3408   56.3933   61.6367 C   0  0  0  0  0  0  0  0  0  0  0  0
  -41.7799   55.8733   62.9884 C   0  0  0  0  0  0  0  0  0  0  0  0
  -41.4450   54.4700   63.3884 C   0  0  0  0  0  0  0  0  0  0  0  0
  -42.4572   56.6640   63.8339 C   0  0  0  0  0  0  0  0  0  0  0  0
  -44.3172   55.9594   65.2032 O   0  0  0  0  0  0  0  0  0  0  0  0
  -42.9000   56.1639   65.1899 C   0  0  0  0  0  0  0  0  0  0  0  0
  -44.5895   55.6389   66.0773 H   0  0  0  0  0  0  0  0  0  0  0  0
  6  7  1  0  0  0
 15 16  1  0  0  0
 15 17  1  0  0  0
  7  8  1  0  0  0
  7  9  2  0  0  0
  9  5  1  0  0  0
  5  4  1  0  0  0
  4  1  1  0  0  0
  1  2  1  0  0  0
  1  3  2  0  0  0
  3 10  1  0  0  0
 10 11  1  0  0  0
 11 12  1  0  0  0
 12 13  1  0  0  0
 12 14  2  0  0  0
 14 16  1  0  0  0
M  END
> <minimizedAffinity>
-6.91615

> <CNNscore>
0.6577290893

> <CNNaffinity>
5.6992149353

> <CNN_VS>
3.7485394478

> <CNNaffinity_variance>
0.0082708579

$$$$
/media/chris/experiments/cd1a-new-docking/inputs/ligands/6nux_ligand.pdb


 17 16  0  0  0  0  0  0  0  0999 V2000
  -38.5749   57.6772   61.4538 C   0  0  0  0  0  0  0  0  0  0  0  0
  -38.3911   58.6425   60.3175 C   0  0  0  0  0  0  0  0  0  0  0  0
  -37.4953   57.1854   62.0778 C   0  0  0  0  0  0  0  0  0  0  0  0
  -39.9609   57.2624   61.9007 C   0  0  0  0  0  0  0  0  0  0  0  0
  -39.9413   56.7864   63.3496 C   0  0  0  0  0  0  0  0  0  0  0  0
  -38.7559   58.6078   65.2168 C   0  0  0  0  0  0  0  0  0  0  0  0
  -40.2461   58.5311   65.0835 C   0  0  0  0  0  0  0  0  0  0  0  0
  -41.1127   59.4103   65.9340 C   0  0  0  0  0  0  0  0  0  0  0  0
  -40.8045   57.6782   64.2119 C   0  0  0  0  0  0  0  0  0  0  0  0
  -36.1093   57.6001   61.6402 C   0  0  0  0  0  0  0  0  0  0  0  0
  -35.2596   57.9565   62.8539 C   0  0  0  0  0  0  0  0  0  0  0  0
  -33.7917   57.9227   62.4876 C   0  0  0  0  0  0  0  0  0  0  0  0
  -33.1917   56.6645   61.9411 C   0  0  0  0  0  0  0  0  0  0  0  0
  -33.0277   59.0146   62.6391 C   0  0  0  0  0  0  0  0  0  0  0  0
  -31.2467   60.1269   61.4466 O   0  0  0  0  0  0  0  0  0  0  0  0
  -31.5608   59.0014   62.2743 C   0  0  0  0  0  0  0  0  0  0  0  0
  -30.3040   60.1080   61.2190 H   0  0  0  0  0  0  0  0  0  0  0  0
  6  7  1  0  0  0
 15 16  1  0  0  0
 15 17  1  0  0  0
  7  8  1  0  0  0
  7  9  2  0  0  0
  9  5  1  0  0  0
  5  4  1  0  0  0
  4  1  1  0  0  0
  1  2  1  0  0  0
  1  3  2  0  0  0
  3 10  1  0  0  0
 10 11  1  0  0  0
 11 12  1  0  0  0
 12 13  1  0  0  0
 12 14  2  0  0  0
 14 16  1  0  0  0
M  END
> <minimizedAffinity>
-6.79561

> <CNNscore>
0.6224772930

> <CNNaffinity>
5.7114896774

> <CNN_VS>
3.5552725792

> <CNNaffinity_variance>
0.0835360587

$$$$
/media/chris/experiments/cd1a-new-docking/inputs/ligands/6nux_ligand.pdb


 17 16  0  0  0  0  0  0  0  0999 V2000
  -37.9999   57.3005   62.5759 C   0  0  0  0  0  0  0  0  0  0  0  0
  -38.1880   57.7229   64.0052 C   0  0  0  0  0  0  0  0  0  0  0  0
  -38.9870   56.6435   61.9508 C   0  0  0  0  0  0  0  0  0  0  0  0
  -36.7150   57.6140   61.8387 C   0  0  0  0  0  0  0  0  0  0  0  0
  -35.5072   57.1029   62.6174 C   0  0  0  0  0  0  0  0  0  0  0  0
  -32.8262   56.4570   61.8402 C   0  0  0  0  0  0  0  0  0  0  0  0
  -33.1655   57.8456   62.2887 C   0  0  0  0  0  0  0  0  0  0  0  0
  -32.0944   58.8936   62.3309 C   0  0  0  0  0  0  0  0  0  0  0  0
  -34.4191   58.1510   62.6552 C   0  0  0  0  0  0  0  0  0  0  0  0
  -40.2742   56.3328   62.6794 C   0  0  0  0  0  0  0  0  0  0  0  0
  -41.4670   56.8437   61.8803 C   0  0  0  0  0  0  0  0  0  0  0  0
  -42.0517   58.0697   62.5474 C   0  0  0  0  0  0  0  0  0  0  0  0
  -43.3618   57.9705   63.2654 C   0  0  0  0  0  0  0  0  0  0  0  0
  -41.3996   59.2411   62.5089 C   0  0  0  0  0  0  0  0  0  0  0  0
  -41.1125   60.8961   64.2437 O   0  0  0  0  0  0  0  0  0  0  0  0
  -41.9655   60.4753   63.1734 C   0  0  0  0  0  0  0  0  0  0  0  0
  -41.4852   61.6878   64.6622 H   0  0  0  0  0  0  0  0  0  0  0  0
  6  7  1  0  0  0
 15 16  1  0  0  0
 15 17  1  0  0  0
  7  8  1  0  0  0
  7  9  2  0  0  0
  9  5  1  0  0  0
  5  4  1  0  0  0
  4  1  1  0  0  0
  1  2  1  0  0  0
  1  3  2  0  0  0
  3 10  1  0  0  0
 10 11  1  0  0  0
 11 12  1  0  0  0
 12 13  1  0  0  0
 12 14  2  0  0  0
 14 16  1  0  0  0
M  END
> <minimizedAffinity>
-6.63542

> <CNNscore>
0.6068043709

> <CNNaffinity>
5.5810790062

> <CNN_VS>
3.3866231441

> <CNNaffinity_variance>
0.0771575496

$$$$
/media/chris/experiments/cd1a-new-docking/inputs/ligands/6nux_ligand.pdb


 17 16  0  0  0  0  0  0  0  0999 V2000
  -49.7847   58.5227   61.7404 C   0  0  0  0  0  0  0  0  0  0  0  0
  -50.1118   59.8997   61.2368 C   0  0  0  0  0  0  0  0  0  0  0  0
  -49.4892   58.3514   63.0366 C   0  0  0  0  0  0  0  0  0  0  0  0
  -49.7916   57.3336   60.8030 C   0  0  0  0  0  0  0  0  0  0  0  0
  -49.6258   57.7858   59.3558 C   0  0  0  0  0  0  0  0  0  0  0  0
  -47.1453   59.2146   59.2343 C   0  0  0  0  0  0  0  0  0  0  0  0
  -47.2395   57.8234   58.6867 C   0  0  0  0  0  0  0  0  0  0  0  0
  -46.0301   57.1847   58.0729 C   0  0  0  0  0  0  0  0  0  0  0  0
  -48.3996   57.1523   58.7400 C   0  0  0  0  0  0  0  0  0  0  0  0
  -49.4863   59.5334   63.9785 C   0  0  0  0  0  0  0  0  0  0  0  0
  -48.4074   59.3569   65.0401 C   0  0  0  0  0  0  0  0  0  0  0  0
  -48.6830   58.1142   65.8585 C   0  0  0  0  0  0  0  0  0  0  0  0
  -50.0816   57.8094   66.2972 C   0  0  0  0  0  0  0  0  0  0  0  0
  -47.6852   57.2792   66.1842 C   0  0  0  0  0  0  0  0  0  0  0  0
  -47.5718   54.8679   66.2476 O   0  0  0  0  0  0  0  0  0  0  0  0
  -47.9418   56.0308   66.9969 C   0  0  0  0  0  0  0  0  0  0  0  0
  -47.7407   54.0739   66.7784 H   0  0  0  0  0  0  0  0  0  0  0  0
  6  7  1  0  0  0
 15 16  1  0  0  0
 15 17  1  0  0  0
  7  8  1  0  0  0
  7  9  2  0  0  0
  9  5  1  0  0  0
  5  4  1  0  0  0
  4  1  1  0  0  0
  1  2  1  0  0  0
  1  3  2  0  0  0
  3 10  1  0  0  0
 10 11  1  0  0  0
 11 12  1  0  0  0
 12 13  1  0  0  0
 12 14  2  0  0  0
 14 16  1  0  0  0
M  END
> <minimizedAffinity>
-7.13929

> <CNNscore>
0.5955603719

> <CNNaffinity>
5.9476914406

> <CNN_VS>
3.5422093868

> <CNNaffinity_variance>
0.1685488075

$$$$
/media/chris/experiments/cd1a-new-docking/inputs/ligands/6nux_ligand.pdb


 17 16  0  0  0  0  0  0  0  0999 V2000
  -47.2923   58.9135   62.9177 C   0  0  0  0  0  0  0  0  0  0  0  0
  -47.4667   60.3987   62.7734 C   0  0  0  0  0  0  0  0  0  0  0  0
  -48.2672   58.1909   63.4870 C   0  0  0  0  0  0  0  0  0  0  0  0
  -46.0349   58.2301   62.4232 C   0  0  0  0  0  0  0  0  0  0  0  0
  -45.9979   58.2046   60.8986 C   0  0  0  0  0  0  0  0  0  0  0  0
  -46.3831   57.9317   58.0727 C   0  0  0  0  0  0  0  0  0  0  0  0
  -47.4230   57.4271   59.0257 C   0  0  0  0  0  0  0  0  0  0  0  0
  -48.6665   56.7815   58.4925 C   0  0  0  0  0  0  0  0  0  0  0  0
  -47.2470   57.5550   60.3492 C   0  0  0  0  0  0  0  0  0  0  0  0
  -49.5271   58.8665   63.9773 C   0  0  0  0  0  0  0  0  0  0  0  0
  -50.0086   58.2096   65.2653 C   0  0  0  0  0  0  0  0  0  0  0  0
  -48.8875   58.1759   66.2812 C   0  0  0  0  0  0  0  0  0  0  0  0
  -48.2578   59.4564   66.7345 C   0  0  0  0  0  0  0  0  0  0  0  0
  -48.4619   57.0084   66.7857 C   0  0  0  0  0  0  0  0  0  0  0  0
  -46.1944   56.3159   67.2442 O   0  0  0  0  0  0  0  0  0  0  0  0
  -47.3466   56.9551   67.8047 C   0  0  0  0  0  0  0  0  0  0  0  0
  -45.4861   56.2875   67.9063 H   0  0  0  0  0  0  0  0  0  0  0  0
  6  7  1  0  0  0
 15 16  1  0  0  0
 15 17  1  0  0  0
  7  8  1  0  0  0
  7  9  2  0  0  0
  9  5  1  0  0  0
  5  4  1  0  0  0
  4  1  1  0  0  0
  1  2  1  0  0  0
  1  3  2  0  0  0
  3 10  1  0  0  0
 10 11  1  0  0  0
 11 12  1  0  0  0
 12 13  1  0  0  0
 12 14  2  0  0  0
 14 16  1  0  0  0
M  END
> <minimizedAffinity>
-6.62623

> <CNNscore>
0.5593281388

> <CNNaffinity>
5.8505392075

> <CNN_VS>
3.2723712921

> <CNNaffinity_variance>
0.1986355036

$$$$
/media/chris/experiments/cd1a-new-docking/inputs/ligands/6nux_ligand.pdb


 17 16  0  0  0  0  0  0  0  0999 V2000
  -44.2772   57.8068   62.9103 C   0  0  0  0  0  0  0  0  0  0  0  0
  -44.1305   57.4760   64.3683 C   0  0  0  0  0  0  0  0  0  0  0  0
  -43.1966   57.7725   62.1180 C   0  0  0  0  0  0  0  0  0  0  0  0
  -45.6281   58.1708   62.3312 C   0  0  0  0  0  0  0  0  0  0  0  0
  -45.6675   57.8878   60.8330 C   0  0  0  0  0  0  0  0  0  0  0  0
  -46.4313   57.9278   58.0719 C   0  0  0  0  0  0  0  0  0  0  0  0
  -47.4089   57.4830   59.1163 C   0  0  0  0  0  0  0  0  0  0  0  0
  -48.7887   57.0619   58.7089 C   0  0  0  0  0  0  0  0  0  0  0  0
  -47.0554   57.4650   60.4101 C   0  0  0  0  0  0  0  0  0  0  0  0
  -41.8465   57.4042   62.6888 C   0  0  0  0  0  0  0  0  0  0  0  0
  -41.0477   56.5984   61.6715 C   0  0  0  0  0  0  0  0  0  0  0  0
  -39.6752   57.2088   61.4884 C   0  0  0  0  0  0  0  0  0  0  0  0
  -38.5328   56.7331   62.3312 C   0  0  0  0  0  0  0  0  0  0  0  0
  -39.4731   58.1647   60.5696 C   0  0  0  0  0  0  0  0  0  0  0  0
  -38.0961   60.1265   60.8638 O   0  0  0  0  0  0  0  0  0  0  0  0
  -38.1083   58.7828   60.3690 C   0  0  0  0  0  0  0  0  0  0  0  0
  -37.2164   60.5125   60.7298 H   0  0  0  0  0  0  0  0  0  0  0  0
  6  7  1  0  0  0
 15 16  1  0  0  0
 15 17  1  0  0  0
  7  8  1  0  0  0
  7  9  2  0  0  0
  9  5  1  0  0  0
  5  4  1  0  0  0
  4  1  1  0  0  0
  1  2  1  0  0  0
  1  3  2  0  0  0
  3 10  1  0  0  0
 10 11  1  0  0  0
 11 12  1  0  0  0
 12 13  1  0  0  0
 12 14  2  0  0  0
 14 16  1  0  0  0
M  END
> <minimizedAffinity>
-7.25049

> <CNNscore>
0.5192058682

> <CNNaffinity>
5.7157225609

> <CNN_VS>
2.9676365852

> <CNNaffinity_variance>
0.3763020635

$$$$
/media/chris/experiments/cd1a-new-docking/inputs/ligands/6nux_ligand.pdb


 17 16  0  0  0  0  0  0  0  0999 V2000
  -34.7471   58.2486   63.2820 C   0  0  0  0  0  0  0  0  0  0  0  0
  -33.3874   58.7736   62.9180 C   0  0  0  0  0  0  0  0  0  0  0  0
  -35.3920   58.7715   64.3343 C   0  0  0  0  0  0  0  0  0  0  0  0
  -35.3931   57.1447   62.4716 C   0  0  0  0  0  0  0  0  0  0  0  0
  -36.6423   57.6561   61.7615 C   0  0  0  0  0  0  0  0  0  0  0  0
  -39.2181   58.1792   60.6211 C   0  0  0  0  0  0  0  0  0  0  0  0
  -39.0762   57.1887   61.7360 C   0  0  0  0  0  0  0  0  0  0  0  0
  -40.2892   56.4754   62.2529 C   0  0  0  0  0  0  0  0  0  0  0  0
  -37.8722   56.9428   62.2737 C   0  0  0  0  0  0  0  0  0  0  0  0
  -34.7550   59.8776   65.1436 C   0  0  0  0  0  0  0  0  0  0  0  0
  -35.6711   61.0948   65.1827 C   0  0  0  0  0  0  0  0  0  0  0  0
  -35.5336   61.8891   63.9020 C   0  0  0  0  0  0  0  0  0  0  0  0
  -36.7103   62.0326   62.9875 C   0  0  0  0  0  0  0  0  0  0  0  0
  -34.3685   62.4738   63.5861 C   0  0  0  0  0  0  0  0  0  0  0  0
  -33.5143   64.4959   62.5801 O   0  0  0  0  0  0  0  0  0  0  0  0
  -34.2135   63.2750   62.3137 C   0  0  0  0  0  0  0  0  0  0  0  0
  -33.4208   65.0012   61.7573 H   0  0  0  0  0  0  0  0  0  0  0  0
  6  7  1  0  0  0
 15 16  1  0  0  0
 15 17  1  0  0  0
  7  8  1  0  0  0
  7  9  2  0  0  0
  9  5  1  0  0  0
  5  4  1  0  0  0
  4  1  1  0  0  0
  1  2  1  0  0  0
  1  3  2  0  0  0
  3 10  1  0  0  0
 10 11  1  0  0  0
 11 12  1  0  0  0
 12 13  1  0  0  0
 12 14  2  0  0  0
 14 16  1  0  0  0
M  END
> <minimizedAffinity>
-6.77314

> <CNNscore>
0.5172229409

> <CNNaffinity>
5.2067537308

> <CNN_VS>
2.6930525303

> <CNNaffinity_variance>
0.0881729797

$$$$
/media/chris/experiments/cd1a-new-docking/inputs/ligands/6nux_ligand.pdb


 17 16  0  0  0  0  0  0  0  0999 V2000
  -49.7779   58.7121   64.8596 C   0  0  0  0  0  0  0  0  0  0  0  0
  -49.6920   60.1986   64.6601 C   0  0  0  0  0  0  0  0  0  0  0  0
  -49.5951   57.8979   63.8106 C   0  0  0  0  0  0  0  0  0  0  0  0
  -50.0619   58.1298   66.2282 C   0  0  0  0  0  0  0  0  0  0  0  0
  -48.8805   57.2983   66.7170 C   0  0  0  0  0  0  0  0  0  0  0  0
  -46.2690   56.9223   65.6000 C   0  0  0  0  0  0  0  0  0  0  0  0
  -46.5116   58.0170   66.5936 C   0  0  0  0  0  0  0  0  0  0  0  0
  -45.3804   58.9120   67.0016 C   0  0  0  0  0  0  0  0  0  0  0  0
  -47.7324   58.1946   67.1201 C   0  0  0  0  0  0  0  0  0  0  0  0
  -49.3056   58.4728   62.4431 C   0  0  0  0  0  0  0  0  0  0  0  0
  -49.9358   57.6022   61.3628 C   0  0  0  0  0  0  0  0  0  0  0  0
  -49.0348   57.5489   60.1481 C   0  0  0  0  0  0  0  0  0  0  0  0
  -49.6024   57.1563   58.8195 C   0  0  0  0  0  0  0  0  0  0  0  0
  -47.7345   57.8610   60.2518 C   0  0  0  0  0  0  0  0  0  0  0  0
  -45.6278   57.0884   59.3595 O   0  0  0  0  0  0  0  0  0  0  0  0
  -46.8201   57.8181   59.0489 C   0  0  0  0  0  0  0  0  0  0  0  0
  -45.0494   57.0675   58.5812 H   0  0  0  0  0  0  0  0  0  0  0  0
  6  7  1  0  0  0
 15 16  1  0  0  0
 15 17  1  0  0  0
  7  8  1  0  0  0
  7  9  2  0  0  0
  9  5  1  0  0  0
  5  4  1  0  0  0
  4  1  1  0  0  0
  1  2  1  0  0  0
  1  3  2  0  0  0
  3 10  1  0  0  0
 10 11  1  0  0  0
 11 12  1  0  0  0
 12 13  1  0  0  0
 12 14  2  0  0  0
 14 16  1  0  0  0
M  END
> <minimizedAffinity>
-6.36487

> <CNNscore>
0.5093036294

> <CNNaffinity>
5.8023176193

> <CNN_VS>
2.9551413059

> <CNNaffinity_variance>
0.1310729682

$$$$
