/media/chris/experiments/cd1a-new-docking/inputs/ligands/6nux_ligand.pdb


 17 16  0  0  0  0  0  0  0  0999 V2000
  -39.7041   57.1976   61.5758 C   0  0  0  0  0  0  0  0  0  0  0  0
  -39.5505   58.3091   60.5768 C   0  0  0  0  0  0  0  0  0  0  0  0
  -38.6158   56.7128   62.1899 C   0  0  0  0  0  0  0  0  0  0  0  0
  -41.0700   56.6282   61.8964 C   0  0  0  0  0  0  0  0  0  0  0  0
  -41.0842   56.0119   63.2914 C   0  0  0  0  0  0  0  0  0  0  0  0
  -43.4272   55.9912   64.9404 C   0  0  0  0  0  0  0  0  0  0  0  0
  -42.3965   57.0649   65.1114 C   0  0  0  0  0  0  0  0  0  0  0  0
  -42.5995   58.1291   66.1476 C   0  0  0  0  0  0  0  0  0  0  0  0
  -41.2994   57.0789   64.3398 C   0  0  0  0  0  0  0  0  0  0  0  0
  -37.2503   57.2809   61.8785 C   0  0  0  0  0  0  0  0  0  0  0  0
  -36.4279   57.4025   63.1556 C   0  0  0  0  0  0  0  0  0  0  0  0
  -35.0374   57.9041   62.8315 C   0  0  0  0  0  0  0  0  0  0  0  0
  -34.1305   57.0763   61.9749 C   0  0  0  0  0  0  0  0  0  0  0  0
  -34.6163   59.0893   63.2975 C   0  0  0  0  0  0  0  0  0  0  0  0
  -33.3014   60.9769   62.5631 O   0  0  0  0  0  0  0  0  0  0  0  0
  -33.2325   59.6089   62.9805 C   0  0  0  0  0  0  0  0  0  0  0  0
  -32.4088   61.2991   62.3628 H   0  0  0  0  0  0  0  0  0  0  0  0
  6  7  1  0  0  0
 15 16  1  0  0  0
 15 17  1  0  0  0
  7  8  1  0  0  0
  7  9  2  0  0  0
  9  5  1  0  0  0
  5  4  1  0  0  0
  4  1  1  0  0  0
  1  2  1  0  0  0
  1  3  2  0  0  0
  3 10  1  0  0  0
 10 11  1  0  0  0
 11 12  1  0  0  0
 12 13  1  0  0  0
 12 14  2  0  0  0
 14 16  1  0  0  0
M  END
> <minimizedAffinity>
-6.74958

> <CNNscore>
0.8379546404

> <CNNaffinity>
5.9245429039

> <CNN_VS>
4.9644980431

> <CNNaffinity_variance>
0.0397832394

$$$$
/media/chris/experiments/cd1a-new-docking/inputs/ligands/6nux_ligand.pdb


 17 16  0  0  0  0  0  0  0  0999 V2000
  -38.6028   57.5902   61.3911 C   0  0  0  0  0  0  0  0  0  0  0  0
  -39.5417   58.2326   60.4099 C   0  0  0  0  0  0  0  0  0  0  0  0
  -39.0728   56.6647   62.2391 C   0  0  0  0  0  0  0  0  0  0  0  0
  -37.1383   57.9732   61.4256 C   0  0  0  0  0  0  0  0  0  0  0  0
  -36.3775   57.1086   62.4256 C   0  0  0  0  0  0  0  0  0  0  0  0
  -34.8294   58.5661   64.3461 C   0  0  0  0  0  0  0  0  0  0  0  0
  -34.1647   57.9598   63.1482 C   0  0  0  0  0  0  0  0  0  0  0  0
  -32.6864   58.1224   62.9592 C   0  0  0  0  0  0  0  0  0  0  0  0
  -34.8865   57.2785   62.2460 C   0  0  0  0  0  0  0  0  0  0  0  0
  -40.5325   56.2739   62.2056 C   0  0  0  0  0  0  0  0  0  0  0  0
  -41.0080   55.8975   63.6036 C   0  0  0  0  0  0  0  0  0  0  0  0
  -42.3227   56.5830   63.9066 C   0  0  0  0  0  0  0  0  0  0  0  0
  -42.9786   57.4272   62.8585 C   0  0  0  0  0  0  0  0  0  0  0  0
  -42.9090   56.4308   65.1033 C   0  0  0  0  0  0  0  0  0  0  0  0
  -45.2499   56.1220   65.6094 O   0  0  0  0  0  0  0  0  0  0  0  0
  -44.2244   57.1038   65.4226 C   0  0  0  0  0  0  0  0  0  0  0  0
  -46.0883   56.5651   65.8136 H   0  0  0  0  0  0  0  0  0  0  0  0
  6  7  1  0  0  0
 15 16  1  0  0  0
 15 17  1  0  0  0
  7  8  1  0  0  0
  7  9  2  0  0  0
  9  5  1  0  0  0
  5  4  1  0  0  0
  4  1  1  0  0  0
  1  2  1  0  0  0
  1  3  2  0  0  0
  3 10  1  0  0  0
 10 11  1  0  0  0
 11 12  1  0  0  0
 12 13  1  0  0  0
 12 14  2  0  0  0
 14 16  1  0  0  0
M  END
> <minimizedAffinity>
-6.91947

> <CNNscore>
0.7234255075

> <CNNaffinity>
5.8130426407

> <CNN_VS>
4.2053031921

> <CNNaffinity_variance>
0.0272520036

$$$$
/media/chris/experiments/cd1a-new-docking/inputs/ligands/6nux_ligand.pdb


 17 16  0  0  0  0  0  0  0  0999 V2000
  -38.5108   57.5290   61.3911 C   0  0  0  0  0  0  0  0  0  0  0  0
  -39.5615   58.2180   60.5676 C   0  0  0  0  0  0  0  0  0  0  0  0
  -38.8809   56.5939   62.2773 C   0  0  0  0  0  0  0  0  0  0  0  0
  -37.0463   57.8759   61.2251 C   0  0  0  0  0  0  0  0  0  0  0  0
  -36.2139   57.2532   62.3411 C   0  0  0  0  0  0  0  0  0  0  0  0
  -34.5926   58.3583   64.4290 C   0  0  0  0  0  0  0  0  0  0  0  0
  -33.9869   58.0353   63.0973 C   0  0  0  0  0  0  0  0  0  0  0  0
  -32.5293   58.2961   62.8631 C   0  0  0  0  0  0  0  0  0  0  0  0
  -34.7433   57.5198   62.1169 C   0  0  0  0  0  0  0  0  0  0  0  0
  -40.3406   56.2390   62.4435 C   0  0  0  0  0  0  0  0  0  0  0  0
  -40.7579   56.3991   63.9003 C   0  0  0  0  0  0  0  0  0  0  0  0
  -40.9004   57.8666   64.2411 C   0  0  0  0  0  0  0  0  0  0  0  0
  -41.8950   58.7071   63.5023 C   0  0  0  0  0  0  0  0  0  0  0  0
  -40.1497   58.4164   65.2071 C   0  0  0  0  0  0  0  0  0  0  0  0
  -39.0819   60.3449   66.1932 O   0  0  0  0  0  0  0  0  0  0  0  0
  -40.2814   59.8793   65.5646 C   0  0  0  0  0  0  0  0  0  0  0  0
  -39.1780   61.2836   66.4176 H   0  0  0  0  0  0  0  0  0  0  0  0
  6  7  1  0  0  0
 15 16  1  0  0  0
 15 17  1  0  0  0
  7  8  1  0  0  0
  7  9  2  0  0  0
  9  5  1  0  0  0
  5  4  1  0  0  0
  4  1  1  0  0  0
  1  2  1  0  0  0
  1  3  2  0  0  0
  3 10  1  0  0  0
 10 11  1  0  0  0
 11 12  1  0  0  0
 12 13  1  0  0  0
 12 14  2  0  0  0
 14 16  1  0  0  0
M  END
> <minimizedAffinity>
-6.87451

> <CNNscore>
0.6435655951

> <CNNaffinity>
5.5959901810

> <CNN_VS>
3.6013867855

> <CNNaffinity_variance>
0.0254832767

$$$$
/media/chris/experiments/cd1a-new-docking/inputs/ligands/6nux_ligand.pdb


 17 16  0  0  0  0  0  0  0  0999 V2000
  -38.7241   57.8444   61.2110 C   0  0  0  0  0  0  0  0  0  0  0  0
  -37.9673   58.8618   60.4053 C   0  0  0  0  0  0  0  0  0  0  0  0
  -38.0595   57.0688   62.0789 C   0  0  0  0  0  0  0  0  0  0  0  0
  -40.2227   57.6931   61.0556 C   0  0  0  0  0  0  0  0  0  0  0  0
  -40.7152   56.4371   61.7670 C   0  0  0  0  0  0  0  0  0  0  0  0
  -41.5745   54.4423   63.6357 C   0  0  0  0  0  0  0  0  0  0  0  0
  -42.0079   55.8666   63.8033 C   0  0  0  0  0  0  0  0  0  0  0  0
  -42.8953   56.2411   64.9522 C   0  0  0  0  0  0  0  0  0  0  0  0
  -41.6092   56.8027   62.9293 C   0  0  0  0  0  0  0  0  0  0  0  0
  -36.5645   57.2190   62.2427 C   0  0  0  0  0  0  0  0  0  0  0  0
  -36.1885   57.1562   63.7181 C   0  0  0  0  0  0  0  0  0  0  0  0
  -36.9933   58.1697   64.5024 C   0  0  0  0  0  0  0  0  0  0  0  0
  -38.2035   57.7273   65.2648 C   0  0  0  0  0  0  0  0  0  0  0  0
  -36.6239   59.4589   64.5277 C   0  0  0  0  0  0  0  0  0  0  0  0
  -38.2956   61.1992   64.4372 O   0  0  0  0  0  0  0  0  0  0  0  0
  -37.4126   60.4848   65.3092 C   0  0  0  0  0  0  0  0  0  0  0  0
  -38.7958   61.8537   64.9492 H   0  0  0  0  0  0  0  0  0  0  0  0
  6  7  1  0  0  0
 15 16  1  0  0  0
 15 17  1  0  0  0
  7  8  1  0  0  0
  7  9  2  0  0  0
  9  5  1  0  0  0
  5  4  1  0  0  0
  4  1  1  0  0  0
  1  2  1  0  0  0
  1  3  2  0  0  0
  3 10  1  0  0  0
 10 11  1  0  0  0
 11 12  1  0  0  0
 12 13  1  0  0  0
 12 14  2  0  0  0
 14 16  1  0  0  0
M  END
> <minimizedAffinity>
-6.84544

> <CNNscore>
0.6157790422

> <CNNaffinity>
5.5414104462

> <CNN_VS>
3.4122843742

> <CNNaffinity_variance>
0.0386000052

$$$$
/media/chris/experiments/cd1a-new-docking/inputs/ligands/6nux_ligand.pdb


 17 16  0  0  0  0  0  0  0  0999 V2000
  -37.4384   57.9636   64.0253 C   0  0  0  0  0  0  0  0  0  0  0  0
  -38.5487   57.7284   65.0095 C   0  0  0  0  0  0  0  0  0  0  0  0
  -37.5699   57.5154   62.7689 C   0  0  0  0  0  0  0  0  0  0  0  0
  -36.1828   58.7030   64.4368 C   0  0  0  0  0  0  0  0  0  0  0  0
  -34.9815   57.7632   64.4470 C   0  0  0  0  0  0  0  0  0  0  0  0
  -33.8385   57.0655   61.9140 C   0  0  0  0  0  0  0  0  0  0  0  0
  -33.2183   58.1450   62.7474 C   0  0  0  0  0  0  0  0  0  0  0  0
  -31.9956   58.8554   62.2498 C   0  0  0  0  0  0  0  0  0  0  0  0
  -33.7495   58.4729   63.9346 C   0  0  0  0  0  0  0  0  0  0  0  0
  -38.8232   56.7818   62.3504 C   0  0  0  0  0  0  0  0  0  0  0  0
  -39.4455   57.4560   61.1337 C   0  0  0  0  0  0  0  0  0  0  0  0
  -39.9412   58.8374   61.5027 C   0  0  0  0  0  0  0  0  0  0  0  0
  -39.4083   60.0351   60.7795 C   0  0  0  0  0  0  0  0  0  0  0  0
  -40.8618   58.9948   62.4653 C   0  0  0  0  0  0  0  0  0  0  0  0
  -40.7636   60.8006   64.0655 O   0  0  0  0  0  0  0  0  0  0  0  0
  -41.3724   60.3662   62.8444 C   0  0  0  0  0  0  0  0  0  0  0  0
  -41.0983   61.6807   64.2984 H   0  0  0  0  0  0  0  0  0  0  0  0
  6  7  1  0  0  0
 15 16  1  0  0  0
 15 17  1  0  0  0
  7  8  1  0  0  0
  7  9  2  0  0  0
  9  5  1  0  0  0
  5  4  1  0  0  0
  4  1  1  0  0  0
  1  2  1  0  0  0
  1  3  2  0  0  0
  3 10  1  0  0  0
 10 11  1  0  0  0
 11 12  1  0  0  0
 12 13  1  0  0  0
 12 14  2  0  0  0
 14 16  1  0  0  0
M  END
> <minimizedAffinity>
-6.46788

> <CNNscore>
0.6028155088

> <CNNaffinity>
5.5370254517

> <CNN_VS>
3.3378047943

> <CNNaffinity_variance>
0.1476799846

$$$$
/media/chris/experiments/cd1a-new-docking/inputs/ligands/6nux_ligand.pdb


 17 16  0  0  0  0  0  0  0  0999 V2000
  -42.3446   57.0317   63.9637 C   0  0  0  0  0  0  0  0  0  0  0  0
  -43.3069   57.5364   62.9263 C   0  0  0  0  0  0  0  0  0  0  0  0
  -42.8221   56.4832   65.0896 C   0  0  0  0  0  0  0  0  0  0  0  0
  -40.8494   57.1320   63.7465 C   0  0  0  0  0  0  0  0  0  0  0  0
  -40.4408   56.4154   62.4636 C   0  0  0  0  0  0  0  0  0  0  0  0
  -37.6407   56.9755   62.2301 C   0  0  0  0  0  0  0  0  0  0  0  0
  -38.6231   57.6651   61.3334 C   0  0  0  0  0  0  0  0  0  0  0  0
  -38.1329   58.6509   60.3160 C   0  0  0  0  0  0  0  0  0  0  0  0
  -39.9349   57.4068   61.4413 C   0  0  0  0  0  0  0  0  0  0  0  0
  -44.3135   56.3750   65.3096 C   0  0  0  0  0  0  0  0  0  0  0  0
  -44.7474   57.3045   66.4366 C   0  0  0  0  0  0  0  0  0  0  0  0
  -46.2554   57.4283   66.4556 C   0  0  0  0  0  0  0  0  0  0  0  0
  -47.1026   56.2255   66.1784 C   0  0  0  0  0  0  0  0  0  0  0  0
  -46.8377   58.6052   66.7294 C   0  0  0  0  0  0  0  0  0  0  0  0
  -48.7089   60.0256   67.2882 O   0  0  0  0  0  0  0  0  0  0  0  0
  -48.3424   58.7471   66.7575 C   0  0  0  0  0  0  0  0  0  0  0  0
  -49.6755   60.1052   67.3013 H   0  0  0  0  0  0  0  0  0  0  0  0
  6  7  1  0  0  0
 15 16  1  0  0  0
 15 17  1  0  0  0
  7  8  1  0  0  0
  7  9  2  0  0  0
  9  5  1  0  0  0
  5  4  1  0  0  0
  4  1  1  0  0  0
  1  2  1  0  0  0
  1  3  2  0  0  0
  3 10  1  0  0  0
 10 11  1  0  0  0
 11 12  1  0  0  0
 12 13  1  0  0  0
 12 14  2  0  0  0
 14 16  1  0  0  0
M  END
> <minimizedAffinity>
-6.75263

> <CNNscore>
0.6011912823

> <CNNaffinity>
5.5936021805

> <CNN_VS>
3.3628249168

> <CNNaffinity_variance>
0.1696510613

$$$$
/media/chris/experiments/cd1a-new-docking/inputs/ligands/6nux_ligand.pdb


 17 16  0  0  0  0  0  0  0  0999 V2000
  -36.7644   58.4763   64.6402 C   0  0  0  0  0  0  0  0  0  0  0  0
  -38.1011   58.0316   65.1621 C   0  0  0  0  0  0  0  0  0  0  0  0
  -36.4159   59.7664   64.7442 C   0  0  0  0  0  0  0  0  0  0  0  0
  -35.8117   57.4844   64.0069 C   0  0  0  0  0  0  0  0  0  0  0  0
  -36.4631   56.7981   62.8107 C   0  0  0  0  0  0  0  0  0  0  0  0
  -39.0809   57.1711   61.7074 C   0  0  0  0  0  0  0  0  0  0  0  0
  -37.9229   57.9623   61.1807 C   0  0  0  0  0  0  0  0  0  0  0  0
  -38.1413   58.9475   60.0721 C   0  0  0  0  0  0  0  0  0  0  0  0
  -36.6956   57.7888   61.6934 C   0  0  0  0  0  0  0  0  0  0  0  0
  -37.3602   60.7603   65.3806 C   0  0  0  0  0  0  0  0  0  0  0  0
  -36.5934   61.6924   66.3109 C   0  0  0  0  0  0  0  0  0  0  0  0
  -35.7769   62.6766   65.5017 C   0  0  0  0  0  0  0  0  0  0  0  0
  -36.3758   63.3175   64.2884 C   0  0  0  0  0  0  0  0  0  0  0  0
  -34.5250   62.9865   65.8702 C   0  0  0  0  0  0  0  0  0  0  0  0
  -33.8305   65.2864   65.6264 O   0  0  0  0  0  0  0  0  0  0  0  0
  -33.6959   63.9709   65.0772 C   0  0  0  0  0  0  0  0  0  0  0  0
  -33.2947   65.9087   65.1101 H   0  0  0  0  0  0  0  0  0  0  0  0
  6  7  1  0  0  0
 15 16  1  0  0  0
 15 17  1  0  0  0
  7  8  1  0  0  0
  7  9  2  0  0  0
  9  5  1  0  0  0
  5  4  1  0  0  0
  4  1  1  0  0  0
  1  2  1  0  0  0
  1  3  2  0  0  0
  3 10  1  0  0  0
 10 11  1  0  0  0
 11 12  1  0  0  0
 12 13  1  0  0  0
 12 14  2  0  0  0
 14 16  1  0  0  0
M  END
> <minimizedAffinity>
-6.40483

> <CNNscore>
0.4221037328

> <CNNaffinity>
5.0235056877

> <CNN_VS>
2.1204404831

> <CNNaffinity_variance>
0.0722005516

$$$$
/media/chris/experiments/cd1a-new-docking/inputs/ligands/6nux_ligand.pdb


 17 16  0  0  0  0  0  0  0  0999 V2000
  -49.3187   59.5359   62.8339 C   0  0  0  0  0  0  0  0  0  0  0  0
  -49.3865   58.0418   62.6921 C   0  0  0  0  0  0  0  0  0  0  0  0
  -49.5205   60.0903   64.0375 C   0  0  0  0  0  0  0  0  0  0  0  0
  -49.0207   60.4143   61.6371 C   0  0  0  0  0  0  0  0  0  0  0  0
  -47.5421   60.3432   61.2699 C   0  0  0  0  0  0  0  0  0  0  0  0
  -46.2135   57.8847   60.6375 C   0  0  0  0  0  0  0  0  0  0  0  0
  -46.7528   58.7519   59.5413 C   0  0  0  0  0  0  0  0  0  0  0  0
  -46.5909   58.3274   58.1127 C   0  0  0  0  0  0  0  0  0  0  0  0
  -47.3735   59.9045   59.8335 C   0  0  0  0  0  0  0  0  0  0  0  0
  -49.8126   59.2184   65.2370 C   0  0  0  0  0  0  0  0  0  0  0  0
  -48.9196   59.6163   66.4060 C   0  0  0  0  0  0  0  0  0  0  0  0
  -47.9819   58.4804   66.7528 C   0  0  0  0  0  0  0  0  0  0  0  0
  -46.5391   58.7673   67.0309 C   0  0  0  0  0  0  0  0  0  0  0  0
  -48.4368   57.2205   66.8232 C   0  0  0  0  0  0  0  0  0  0  0  0
  -47.5452   55.0832   66.1390 O   0  0  0  0  0  0  0  0  0  0  0  0
  -47.5162   56.0736   67.1728 C   0  0  0  0  0  0  0  0  0  0  0  0
  -46.9514   54.3531   66.3740 H   0  0  0  0  0  0  0  0  0  0  0  0
  6  7  1  0  0  0
 15 16  1  0  0  0
 15 17  1  0  0  0
  7  8  1  0  0  0
  7  9  2  0  0  0
  9  5  1  0  0  0
  5  4  1  0  0  0
  4  1  1  0  0  0
  1  2  1  0  0  0
  1  3  2  0  0  0
  3 10  1  0  0  0
 10 11  1  0  0  0
 11 12  1  0  0  0
 12 13  1  0  0  0
 12 14  2  0  0  0
 14 16  1  0  0  0
M  END
> <minimizedAffinity>
-7.11586

> <CNNscore>
0.4145951569

> <CNNaffinity>
5.6299514771

> <CNN_VS>
2.3341505527

> <CNNaffinity_variance>
0.1356962323

$$$$
/media/chris/experiments/cd1a-new-docking/inputs/ligands/6nux_ligand.pdb


 17 16  0  0  0  0  0  0  0  0999 V2000
  -41.5873   59.4108   63.8800 C   0  0  0  0  0  0  0  0  0  0  0  0
  -41.5085   60.3601   62.7184 C   0  0  0  0  0  0  0  0  0  0  0  0
  -41.6955   58.0954   63.6459 C   0  0  0  0  0  0  0  0  0  0  0  0
  -41.5402   59.9240   65.3038 C   0  0  0  0  0  0  0  0  0  0  0  0
  -42.1082   58.8894   66.2698 C   0  0  0  0  0  0  0  0  0  0  0  0
  -44.3297   57.0913   66.0665 C   0  0  0  0  0  0  0  0  0  0  0  0
  -44.5197   58.4591   66.6475 C   0  0  0  0  0  0  0  0  0  0  0  0
  -45.8785   58.8820   67.1189 C   0  0  0  0  0  0  0  0  0  0  0  0
  -43.4825   59.3042   66.7423 C   0  0  0  0  0  0  0  0  0  0  0  0
  -41.7372   57.5765   62.2270 C   0  0  0  0  0  0  0  0  0  0  0  0
  -40.6475   56.5320   62.0171 C   0  0  0  0  0  0  0  0  0  0  0  0
  -39.3491   57.2070   61.6315 C   0  0  0  0  0  0  0  0  0  0  0  0
  -38.0835   56.8439   62.3442 C   0  0  0  0  0  0  0  0  0  0  0  0
  -39.3228   58.1198   60.6491 C   0  0  0  0  0  0  0  0  0  0  0  0
  -37.9477   60.0940   60.8562 O   0  0  0  0  0  0  0  0  0  0  0  0
  -38.0346   58.8011   60.2470 C   0  0  0  0  0  0  0  0  0  0  0  0
  -37.1180   60.5210   60.5913 H   0  0  0  0  0  0  0  0  0  0  0  0
  6  7  1  0  0  0
 15 16  1  0  0  0
 15 17  1  0  0  0
  7  8  1  0  0  0
  7  9  2  0  0  0
  9  5  1  0  0  0
  5  4  1  0  0  0
  4  1  1  0  0  0
  1  2  1  0  0  0
  1  3  2  0  0  0
  3 10  1  0  0  0
 10 11  1  0  0  0
 11 12  1  0  0  0
 12 13  1  0  0  0
 12 14  2  0  0  0
 14 16  1  0  0  0
M  END
> <minimizedAffinity>
-6.50867

> <CNNscore>
0.3985342979

> <CNNaffinity>
5.3682346344

> <CNN_VS>
2.1394255161

> <CNNaffinity_variance>
0.0807185695

$$$$
