/media/chris/experiments/cd1a-new-docking/inputs/ligands/6nux_ligand.pdb


 17 16  0  0  0  0  0  0  0  0999 V2000
  -38.4880   57.6347   61.2923 C   0  0  0  0  0  0  0  0  0  0  0  0
  -39.4263   58.4066   60.4088 C   0  0  0  0  0  0  0  0  0  0  0  0
  -38.9846   56.7142   62.1306 C   0  0  0  0  0  0  0  0  0  0  0  0
  -36.9952   57.8826   61.2397 C   0  0  0  0  0  0  0  0  0  0  0  0
  -36.2892   57.1735   62.3907 C   0  0  0  0  0  0  0  0  0  0  0  0
  -33.5910   56.5062   61.6954 C   0  0  0  0  0  0  0  0  0  0  0  0
  -33.8718   57.6917   62.5675 C   0  0  0  0  0  0  0  0  0  0  0  0
  -32.7336   58.5243   63.0758 C   0  0  0  0  0  0  0  0  0  0  0  0
  -35.1336   58.0058   62.8967 C   0  0  0  0  0  0  0  0  0  0  0  0
  -40.4732   56.4581   62.1836 C   0  0  0  0  0  0  0  0  0  0  0  0
  -40.8190   55.6196   63.4081 C   0  0  0  0  0  0  0  0  0  0  0  0
  -41.8166   56.3554   64.2761 C   0  0  0  0  0  0  0  0  0  0  0  0
  -41.4934   57.7286   64.7778 C   0  0  0  0  0  0  0  0  0  0  0  0
  -42.9919   55.7904   64.5898 C   0  0  0  0  0  0  0  0  0  0  0  0
  -45.0036   57.1256   64.6318 O   0  0  0  0  0  0  0  0  0  0  0  0
  -44.0028   56.5119   65.4516 C   0  0  0  0  0  0  0  0  0  0  0  0
  -45.6460   57.5849   65.1950 H   0  0  0  0  0  0  0  0  0  0  0  0
  6  7  1  0  0  0
 15 16  1  0  0  0
 15 17  1  0  0  0
  7  8  1  0  0  0
  7  9  2  0  0  0
  9  5  1  0  0  0
  5  4  1  0  0  0
  4  1  1  0  0  0
  1  2  1  0  0  0
  1  3  2  0  0  0
  3 10  1  0  0  0
 10 11  1  0  0  0
 11 12  1  0  0  0
 12 13  1  0  0  0
 12 14  2  0  0  0
 14 16  1  0  0  0
M  END
> <minimizedAffinity>
-6.83153

> <CNNscore>
0.7947782278

> <CNNaffinity>
5.7747068405

> <CNN_VS>
4.5896110535

> <CNNaffinity_variance>
0.0243400577

$$$$
/media/chris/experiments/cd1a-new-docking/inputs/ligands/6nux_ligand.pdb


 17 16  0  0  0  0  0  0  0  0999 V2000
  -38.4334   57.5659   61.3775 C   0  0  0  0  0  0  0  0  0  0  0  0
  -39.4555   58.2297   60.4992 C   0  0  0  0  0  0  0  0  0  0  0  0
  -38.8306   56.6409   62.2625 C   0  0  0  0  0  0  0  0  0  0  0  0
  -36.9670   57.9270   61.2678 C   0  0  0  0  0  0  0  0  0  0  0  0
  -36.1554   57.2246   62.3514 C   0  0  0  0  0  0  0  0  0  0  0  0
  -34.5813   58.8139   64.1417 C   0  0  0  0  0  0  0  0  0  0  0  0
  -33.9412   58.1606   62.9551 C   0  0  0  0  0  0  0  0  0  0  0  0
  -32.4740   58.3455   62.7088 C   0  0  0  0  0  0  0  0  0  0  0  0
  -34.6754   57.4176   62.1136 C   0  0  0  0  0  0  0  0  0  0  0  0
  -40.2921   56.2720   62.3727 C   0  0  0  0  0  0  0  0  0  0  0  0
  -40.7617   56.4103   63.8158 C   0  0  0  0  0  0  0  0  0  0  0  0
  -40.9145   57.8726   64.1740 C   0  0  0  0  0  0  0  0  0  0  0  0
  -41.8120   58.7477   63.3552 C   0  0  0  0  0  0  0  0  0  0  0  0
  -40.2599   58.3870   65.2256 C   0  0  0  0  0  0  0  0  0  0  0  0
  -39.1592   60.3530   66.0945 O   0  0  0  0  0  0  0  0  0  0  0  0
  -40.4036   59.8442   65.6015 C   0  0  0  0  0  0  0  0  0  0  0  0
  -39.2635   61.2876   66.3323 H   0  0  0  0  0  0  0  0  0  0  0  0
  6  7  1  0  0  0
 15 16  1  0  0  0
 15 17  1  0  0  0
  7  8  1  0  0  0
  7  9  2  0  0  0
  9  5  1  0  0  0
  5  4  1  0  0  0
  4  1  1  0  0  0
  1  2  1  0  0  0
  1  3  2  0  0  0
  3 10  1  0  0  0
 10 11  1  0  0  0
 11 12  1  0  0  0
 12 13  1  0  0  0
 12 14  2  0  0  0
 14 16  1  0  0  0
M  END
> <minimizedAffinity>
-6.85587

> <CNNscore>
0.6394076943

> <CNNaffinity>
5.6072716713

> <CNN_VS>
3.5853326321

> <CNNaffinity_variance>
0.0178194437

$$$$
/media/chris/experiments/cd1a-new-docking/inputs/ligands/6nux_ligand.pdb


 17 16  0  0  0  0  0  0  0  0999 V2000
  -38.1256   57.2551   62.6372 C   0  0  0  0  0  0  0  0  0  0  0  0
  -38.3347   57.6431   64.0734 C   0  0  0  0  0  0  0  0  0  0  0  0
  -39.0888   56.5814   61.9929 C   0  0  0  0  0  0  0  0  0  0  0  0
  -36.8464   57.6215   61.9147 C   0  0  0  0  0  0  0  0  0  0  0  0
  -35.6481   56.9258   62.5519 C   0  0  0  0  0  0  0  0  0  0  0  0
  -34.0059   58.3857   64.3907 C   0  0  0  0  0  0  0  0  0  0  0  0
  -33.5908   58.2473   62.9578 C   0  0  0  0  0  0  0  0  0  0  0  0
  -32.3137   58.8790   62.4916 C   0  0  0  0  0  0  0  0  0  0  0  0
  -34.3582   57.5663   62.0937 C   0  0  0  0  0  0  0  0  0  0  0  0
  -40.3704   56.2179   62.7069 C   0  0  0  0  0  0  0  0  0  0  0  0
  -41.5469   56.9614   62.0863 C   0  0  0  0  0  0  0  0  0  0  0  0
  -41.9240   58.1473   62.9474 C   0  0  0  0  0  0  0  0  0  0  0  0
  -42.7568   57.9390   64.1741 C   0  0  0  0  0  0  0  0  0  0  0  0
  -41.5085   59.3811   62.6251 C   0  0  0  0  0  0  0  0  0  0  0  0
  -40.8207   60.8585   64.4072 O   0  0  0  0  0  0  0  0  0  0  0  0
  -41.8711   60.5771   63.4757 C   0  0  0  0  0  0  0  0  0  0  0  0
  -41.0643   61.6269   64.9468 H   0  0  0  0  0  0  0  0  0  0  0  0
  6  7  1  0  0  0
 15 16  1  0  0  0
 15 17  1  0  0  0
  7  8  1  0  0  0
  7  9  2  0  0  0
  9  5  1  0  0  0
  5  4  1  0  0  0
  4  1  1  0  0  0
  1  2  1  0  0  0
  1  3  2  0  0  0
  3 10  1  0  0  0
 10 11  1  0  0  0
 11 12  1  0  0  0
 12 13  1  0  0  0
 12 14  2  0  0  0
 14 16  1  0  0  0
M  END
> <minimizedAffinity>
-6.37228

> <CNNscore>
0.5716584325

> <CNNaffinity>
5.5560622215

> <CNN_VS>
3.1761698723

> <CNNaffinity_variance>
0.1372081786

$$$$
/media/chris/experiments/cd1a-new-docking/inputs/ligands/6nux_ligand.pdb


 17 16  0  0  0  0  0  0  0  0999 V2000
  -38.8111   57.7520   61.2695 C   0  0  0  0  0  0  0  0  0  0  0  0
  -38.2984   58.9151   60.4687 C   0  0  0  0  0  0  0  0  0  0  0  0
  -37.9493   57.0217   61.9911 C   0  0  0  0  0  0  0  0  0  0  0  0
  -40.2847   57.4038   61.2726 C   0  0  0  0  0  0  0  0  0  0  0  0
  -40.6993   56.8222   62.6201 C   0  0  0  0  0  0  0  0  0  0  0  0
  -39.3522   57.8389   64.9354 C   0  0  0  0  0  0  0  0  0  0  0  0
  -40.7064   58.3607   64.5633 C   0  0  0  0  0  0  0  0  0  0  0  0
  -41.3530   59.4151   65.4104 C   0  0  0  0  0  0  0  0  0  0  0  0
  -41.3409   57.8856   63.4813 C   0  0  0  0  0  0  0  0  0  0  0  0
  -36.4780   57.3678   61.9967 C   0  0  0  0  0  0  0  0  0  0  0  0
  -35.8960   57.1662   63.3906 C   0  0  0  0  0  0  0  0  0  0  0  0
  -34.6317   57.9828   63.5481 C   0  0  0  0  0  0  0  0  0  0  0  0
  -34.1951   58.4194   64.9121 C   0  0  0  0  0  0  0  0  0  0  0  0
  -33.8947   58.3086   62.4760 C   0  0  0  0  0  0  0  0  0  0  0  0
  -32.9013   60.5083   62.3989 O   0  0  0  0  0  0  0  0  0  0  0  0
  -32.6264   59.1196   62.6142 C   0  0  0  0  0  0  0  0  0  0  0  0
  -32.0811   61.0182   62.4900 H   0  0  0  0  0  0  0  0  0  0  0  0
  6  7  1  0  0  0
 15 16  1  0  0  0
 15 17  1  0  0  0
  7  8  1  0  0  0
  7  9  2  0  0  0
  9  5  1  0  0  0
  5  4  1  0  0  0
  4  1  1  0  0  0
  1  2  1  0  0  0
  1  3  2  0  0  0
  3 10  1  0  0  0
 10 11  1  0  0  0
 11 12  1  0  0  0
 12 13  1  0  0  0
 12 14  2  0  0  0
 14 16  1  0  0  0
M  END
> <minimizedAffinity>
-6.60077

> <CNNscore>
0.5712409019

> <CNNaffinity>
5.6792235374

> <CNN_VS>
3.2442047596

> <CNNaffinity_variance>
0.0320705585

$$$$
/media/chris/experiments/cd1a-new-docking/inputs/ligands/6nux_ligand.pdb


 17 16  0  0  0  0  0  0  0  0999 V2000
  -43.9847   58.2882   62.4393 C   0  0  0  0  0  0  0  0  0  0  0  0
  -43.5312   59.7109   62.6038 C   0  0  0  0  0  0  0  0  0  0  0  0
  -43.0797   57.3009   62.4936 C   0  0  0  0  0  0  0  0  0  0  0  0
  -45.4470   57.9622   62.2199 C   0  0  0  0  0  0  0  0  0  0  0  0
  -45.8879   58.3749   60.8194 C   0  0  0  0  0  0  0  0  0  0  0  0
  -46.7141   58.3233   58.0764 C   0  0  0  0  0  0  0  0  0  0  0  0
  -47.4913   57.5674   59.1104 C   0  0  0  0  0  0  0  0  0  0  0  0
  -48.7043   56.7868   58.7022 C   0  0  0  0  0  0  0  0  0  0  0  0
  -47.1087   57.5909   60.3958 C   0  0  0  0  0  0  0  0  0  0  0  0
  -41.6194   57.6194   62.7183 C   0  0  0  0  0  0  0  0  0  0  0  0
  -40.7428   56.5836   62.0248 C   0  0  0  0  0  0  0  0  0  0  0  0
  -39.4344   57.2130   61.5983 C   0  0  0  0  0  0  0  0  0  0  0  0
  -38.1466   56.7104   62.1733 C   0  0  0  0  0  0  0  0  0  0  0  0
  -39.4200   58.2100   60.7013 C   0  0  0  0  0  0  0  0  0  0  0  0
  -37.8935   60.0591   60.9882 O   0  0  0  0  0  0  0  0  0  0  0  0
  -38.1226   58.8479   60.2596 C   0  0  0  0  0  0  0  0  0  0  0  0
  -37.0592   60.4590   60.6966 H   0  0  0  0  0  0  0  0  0  0  0  0
  6  7  1  0  0  0
 15 16  1  0  0  0
 15 17  1  0  0  0
  7  8  1  0  0  0
  7  9  2  0  0  0
  9  5  1  0  0  0
  5  4  1  0  0  0
  4  1  1  0  0  0
  1  2  1  0  0  0
  1  3  2  0  0  0
  3 10  1  0  0  0
 10 11  1  0  0  0
 11 12  1  0  0  0
 12 13  1  0  0  0
 12 14  2  0  0  0
 14 16  1  0  0  0
M  END
> <minimizedAffinity>
-7.15013

> <CNNscore>
0.5088045597

> <CNNaffinity>
5.6203188896

> <CNN_VS>
2.8596439362

> <CNNaffinity_variance>
0.2502263486

$$$$
/media/chris/experiments/cd1a-new-docking/inputs/ligands/6nux_ligand.pdb


 17 16  0  0  0  0  0  0  0  0999 V2000
  -36.5895   58.0160   63.2747 C   0  0  0  0  0  0  0  0  0  0  0  0
  -36.1838   57.1689   64.4471 C   0  0  0  0  0  0  0  0  0  0  0  0
  -36.7475   59.3364   63.4430 C   0  0  0  0  0  0  0  0  0  0  0  0
  -36.8143   57.3952   61.9121 C   0  0  0  0  0  0  0  0  0  0  0  0
  -38.2675   57.5569   61.4781 C   0  0  0  0  0  0  0  0  0  0  0  0
  -40.5378   58.4055   63.0060 C   0  0  0  0  0  0  0  0  0  0  0  0
  -40.2090   56.9482   62.8936 C   0  0  0  0  0  0  0  0  0  0  0  0
  -41.0725   55.9377   63.5868 C   0  0  0  0  0  0  0  0  0  0  0  0
  -39.1457   56.5474   62.1809 C   0  0  0  0  0  0  0  0  0  0  0  0
  -36.5189   59.9629   64.7993 C   0  0  0  0  0  0  0  0  0  0  0  0
  -35.2613   60.8232   64.7757 C   0  0  0  0  0  0  0  0  0  0  0  0
  -35.5708   62.2090   65.2990 C   0  0  0  0  0  0  0  0  0  0  0  0
  -36.2535   63.2026   64.4111 C   0  0  0  0  0  0  0  0  0  0  0  0
  -35.2473   62.5493   66.5554 C   0  0  0  0  0  0  0  0  0  0  0  0
  -36.6004   63.8550   68.0705 O   0  0  0  0  0  0  0  0  0  0  0  0
  -35.5525   63.9271   67.0973 C   0  0  0  0  0  0  0  0  0  0  0  0
  -36.7875   64.7439   68.4108 H   0  0  0  0  0  0  0  0  0  0  0  0
  6  7  1  0  0  0
 15 16  1  0  0  0
 15 17  1  0  0  0
  7  8  1  0  0  0
  7  9  2  0  0  0
  9  5  1  0  0  0
  5  4  1  0  0  0
  4  1  1  0  0  0
  1  2  1  0  0  0
  1  3  2  0  0  0
  3 10  1  0  0  0
 10 11  1  0  0  0
 11 12  1  0  0  0
 12 13  1  0  0  0
 12 14  2  0  0  0
 14 16  1  0  0  0
M  END
> <minimizedAffinity>
-6.50730

> <CNNscore>
0.4866202474

> <CNNaffinity>
5.2179803848

> <CNN_VS>
2.5391747952

> <CNNaffinity_variance>
0.0415134653

$$$$
/media/chris/experiments/cd1a-new-docking/inputs/ligands/6nux_ligand.pdb


 17 16  0  0  0  0  0  0  0  0999 V2000
  -38.7831   57.7390   61.3161 C   0  0  0  0  0  0  0  0  0  0  0  0
  -37.9066   58.6214   60.4735 C   0  0  0  0  0  0  0  0  0  0  0  0
  -38.2235   56.9622   62.2542 C   0  0  0  0  0  0  0  0  0  0  0  0
  -40.2843   57.7244   61.1192 C   0  0  0  0  0  0  0  0  0  0  0  0
  -40.8890   56.4382   61.6726 C   0  0  0  0  0  0  0  0  0  0  0  0
  -41.5549   54.4209   63.5951 C   0  0  0  0  0  0  0  0  0  0  0  0
  -42.1341   55.7972   63.7176 C   0  0  0  0  0  0  0  0  0  0  0  0
  -43.0654   56.1115   64.8496 C   0  0  0  0  0  0  0  0  0  0  0  0
  -41.8263   56.7435   62.8183 C   0  0  0  0  0  0  0  0  0  0  0  0
  -36.7261   56.9767   62.4595 C   0  0  0  0  0  0  0  0  0  0  0  0
  -36.3962   57.3654   63.8955 C   0  0  0  0  0  0  0  0  0  0  0  0
  -36.7276   58.8237   64.1276 C   0  0  0  0  0  0  0  0  0  0  0  0
  -37.8105   59.1944   65.0928 C   0  0  0  0  0  0  0  0  0  0  0  0
  -36.0510   59.7857   63.4828 C   0  0  0  0  0  0  0  0  0  0  0  0
  -36.6647   61.8845   62.4583 O   0  0  0  0  0  0  0  0  0  0  0  0
  -36.3645   61.2477   63.7052 C   0  0  0  0  0  0  0  0  0  0  0  0
  -36.8641   62.8211   62.6133 H   0  0  0  0  0  0  0  0  0  0  0  0
  6  7  1  0  0  0
 15 16  1  0  0  0
 15 17  1  0  0  0
  7  8  1  0  0  0
  7  9  2  0  0  0
  9  5  1  0  0  0
  5  4  1  0  0  0
  4  1  1  0  0  0
  1  2  1  0  0  0
  1  3  2  0  0  0
  3 10  1  0  0  0
 10 11  1  0  0  0
 11 12  1  0  0  0
 12 13  1  0  0  0
 12 14  2  0  0  0
 14 16  1  0  0  0
M  END
> <minimizedAffinity>
-6.77927

> <CNNscore>
0.4862045050

> <CNNaffinity>
5.4525947571

> <CNN_VS>
2.6510760784

> <CNNaffinity_variance>
0.0304125361

$$$$
/media/chris/experiments/cd1a-new-docking/inputs/ligands/6nux_ligand.pdb


 17 16  0  0  0  0  0  0  0  0999 V2000
  -49.6200   58.9774   64.2889 C   0  0  0  0  0  0  0  0  0  0  0  0
  -49.7135   60.4762   64.3329 C   0  0  0  0  0  0  0  0  0  0  0  0
  -49.5804   58.3574   63.1012 C   0  0  0  0  0  0  0  0  0  0  0  0
  -49.5649   58.1674   65.5670 C   0  0  0  0  0  0  0  0  0  0  0  0
  -48.2470   57.4063   65.6675 C   0  0  0  0  0  0  0  0  0  0  0  0
  -46.0582   58.0735   63.9433 C   0  0  0  0  0  0  0  0  0  0  0  0
  -46.1196   58.6330   65.3318 C   0  0  0  0  0  0  0  0  0  0  0  0
  -45.0287   59.5411   65.8141 C   0  0  0  0  0  0  0  0  0  0  0  0
  -47.1418   58.3212   66.1424 C   0  0  0  0  0  0  0  0  0  0  0  0
  -49.6292   59.1608   61.8219 C   0  0  0  0  0  0  0  0  0  0  0  0
  -48.4620   58.7819   60.9185 C   0  0  0  0  0  0  0  0  0  0  0  0
  -48.8545   57.6298   60.0192 C   0  0  0  0  0  0  0  0  0  0  0  0
  -50.2853   57.4599   59.6121 C   0  0  0  0  0  0  0  0  0  0  0  0
  -47.9282   56.7668   59.5762 C   0  0  0  0  0  0  0  0  0  0  0  0
  -47.1313   54.8684   58.3143 O   0  0  0  0  0  0  0  0  0  0  0  0
  -48.3005   55.6128   58.6734 C   0  0  0  0  0  0  0  0  0  0  0  0
  -47.3822   54.1314   57.7357 H   0  0  0  0  0  0  0  0  0  0  0  0
  6  7  1  0  0  0
 15 16  1  0  0  0
 15 17  1  0  0  0
  7  8  1  0  0  0
  7  9  2  0  0  0
  9  5  1  0  0  0
  5  4  1  0  0  0
  4  1  1  0  0  0
  1  2  1  0  0  0
  1  3  2  0  0  0
  3 10  1  0  0  0
 10 11  1  0  0  0
 11 12  1  0  0  0
 12 13  1  0  0  0
 12 14  2  0  0  0
 14 16  1  0  0  0
M  END
> <minimizedAffinity>
-6.18356

> <CNNscore>
0.4750947058

> <CNNaffinity>
5.9329652786

> <CNN_VS>
2.8187203407

> <CNNaffinity_variance>
0.1228788123

$$$$
/media/chris/experiments/cd1a-new-docking/inputs/ligands/6nux_ligand.pdb


 17 16  0  0  0  0  0  0  0  0999 V2000
  -38.6901   57.6192   61.3531 C   0  0  0  0  0  0  0  0  0  0  0  0
  -37.8693   58.6519   60.6343 C   0  0  0  0  0  0  0  0  0  0  0  0
  -38.1118   56.8612   62.2953 C   0  0  0  0  0  0  0  0  0  0  0  0
  -40.1572   57.4328   61.0279 C   0  0  0  0  0  0  0  0  0  0  0  0
  -41.0308   58.2010   62.0141 C   0  0  0  0  0  0  0  0  0  0  0  0
  -40.6437   57.7752   64.8209 C   0  0  0  0  0  0  0  0  0  0  0  0
  -41.7407   57.0576   64.0955 C   0  0  0  0  0  0  0  0  0  0  0  0
  -42.6322   56.1142   64.8456 C   0  0  0  0  0  0  0  0  0  0  0  0
  -41.9236   57.2529   62.7811 C   0  0  0  0  0  0  0  0  0  0  0  0
  -36.6493   57.0465   62.6285 C   0  0  0  0  0  0  0  0  0  0  0  0
  -36.4806   57.3244   64.1173 C   0  0  0  0  0  0  0  0  0  0  0  0
  -35.5254   58.4797   64.3246 C   0  0  0  0  0  0  0  0  0  0  0  0
  -34.2300   58.2528   65.0402 C   0  0  0  0  0  0  0  0  0  0  0  0
  -35.8267   59.7023   63.8625 C   0  0  0  0  0  0  0  0  0  0  0  0
  -34.0569   61.0324   62.8980 O   0  0  0  0  0  0  0  0  0  0  0  0
  -34.8831   60.8674   64.0558 C   0  0  0  0  0  0  0  0  0  0  0  0
  -33.4563   61.7820   63.0335 H   0  0  0  0  0  0  0  0  0  0  0  0
  6  7  1  0  0  0
 15 16  1  0  0  0
 15 17  1  0  0  0
  7  8  1  0  0  0
  7  9  2  0  0  0
  9  5  1  0  0  0
  5  4  1  0  0  0
  4  1  1  0  0  0
  1  2  1  0  0  0
  1  3  2  0  0  0
  3 10  1  0  0  0
 10 11  1  0  0  0
 11 12  1  0  0  0
 12 13  1  0  0  0
 12 14  2  0  0  0
 14 16  1  0  0  0
M  END
> <minimizedAffinity>
-6.52078

> <CNNscore>
0.4681569338

> <CNNaffinity>
5.5014681816

> <CNN_VS>
2.5755505562

> <CNNaffinity_variance>
0.0176116191

$$$$
