/media/chris/experiments/cd1a-new-docking/inputs/ligands/6nux_ligand.pdb


 17 16  0  0  0  0  0  0  0  0999 V2000
  -38.0643   57.5904   61.4191 C   0  0  0  0  0  0  0  0  0  0  0  0
  -39.1037   58.2566   60.5631 C   0  0  0  0  0  0  0  0  0  0  0  0
  -38.4491   56.7017   62.3458 C   0  0  0  0  0  0  0  0  0  0  0  0
  -36.5947   57.9084   61.2407 C   0  0  0  0  0  0  0  0  0  0  0  0
  -35.7835   57.3961   62.4263 C   0  0  0  0  0  0  0  0  0  0  0  0
  -33.1617   56.4816   61.7197 C   0  0  0  0  0  0  0  0  0  0  0  0
  -33.3471   57.8402   62.3233 C   0  0  0  0  0  0  0  0  0  0  0  0
  -32.1536   58.7165   62.5577 C   0  0  0  0  0  0  0  0  0  0  0  0
  -34.5728   58.2708   62.6573 C   0  0  0  0  0  0  0  0  0  0  0  0
  -39.9141   56.3757   62.5247 C   0  0  0  0  0  0  0  0  0  0  0  0
  -40.4256   56.9575   63.8370 C   0  0  0  0  0  0  0  0  0  0  0  0
  -41.7238   56.2869   64.2310 C   0  0  0  0  0  0  0  0  0  0  0  0
  -41.9624   54.8560   63.8608 C   0  0  0  0  0  0  0  0  0  0  0  0
  -42.6567   56.9624   64.9181 C   0  0  0  0  0  0  0  0  0  0  0  0
  -44.3883   56.8104   66.5943 O   0  0  0  0  0  0  0  0  0  0  0  0
  -43.9575   56.3082   65.3244 C   0  0  0  0  0  0  0  0  0  0  0  0
  -45.2229   56.3839   66.8444 H   0  0  0  0  0  0  0  0  0  0  0  0
  6  7  1  0  0  0
 15 16  1  0  0  0
 15 17  1  0  0  0
  7  8  1  0  0  0
  7  9  2  0  0  0
  9  5  1  0  0  0
  5  4  1  0  0  0
  4  1  1  0  0  0
  1  2  1  0  0  0
  1  3  2  0  0  0
  3 10  1  0  0  0
 10 11  1  0  0  0
 11 12  1  0  0  0
 12 13  1  0  0  0
 12 14  2  0  0  0
 14 16  1  0  0  0
M  END
> <minimizedAffinity>
-7.12488

> <CNNscore>
0.8460802436

> <CNNaffinity>
5.8065509796

> <CNN_VS>
4.9128079414

> <CNNaffinity_variance>
0.0104125487

$$$$
/media/chris/experiments/cd1a-new-docking/inputs/ligands/6nux_ligand.pdb


 17 16  0  0  0  0  0  0  0  0999 V2000
  -38.4425   57.5460   61.3924 C   0  0  0  0  0  0  0  0  0  0  0  0
  -39.4777   58.1816   60.5085 C   0  0  0  0  0  0  0  0  0  0  0  0
  -38.8210   56.6195   62.2841 C   0  0  0  0  0  0  0  0  0  0  0  0
  -36.9839   57.9369   61.2810 C   0  0  0  0  0  0  0  0  0  0  0  0
  -36.1520   57.2278   62.3446 C   0  0  0  0  0  0  0  0  0  0  0  0
  -34.5550   58.7950   64.1342 C   0  0  0  0  0  0  0  0  0  0  0  0
  -33.9319   58.1636   62.9269 C   0  0  0  0  0  0  0  0  0  0  0  0
  -32.4698   58.3586   62.6595 C   0  0  0  0  0  0  0  0  0  0  0  0
  -34.6769   57.4310   62.0858 C   0  0  0  0  0  0  0  0  0  0  0  0
  -40.2746   56.2209   62.3961 C   0  0  0  0  0  0  0  0  0  0  0  0
  -40.7791   56.4657   63.8130 C   0  0  0  0  0  0  0  0  0  0  0  0
  -42.2277   56.9024   63.7799 C   0  0  0  0  0  0  0  0  0  0  0  0
  -43.2145   56.2724   64.7131 C   0  0  0  0  0  0  0  0  0  0  0  0
  -42.6309   57.8566   62.9280 C   0  0  0  0  0  0  0  0  0  0  0  0
  -44.7170   57.7939   61.7134 O   0  0  0  0  0  0  0  0  0  0  0  0
  -44.0726   58.3091   62.8837 C   0  0  0  0  0  0  0  0  0  0  0  0
  -45.6404   58.0905   61.6957 H   0  0  0  0  0  0  0  0  0  0  0  0
  6  7  1  0  0  0
 15 16  1  0  0  0
 15 17  1  0  0  0
  7  8  1  0  0  0
  7  9  2  0  0  0
  9  5  1  0  0  0
  5  4  1  0  0  0
  4  1  1  0  0  0
  1  2  1  0  0  0
  1  3  2  0  0  0
  3 10  1  0  0  0
 10 11  1  0  0  0
 11 12  1  0  0  0
 12 13  1  0  0  0
 12 14  2  0  0  0
 14 16  1  0  0  0
M  END
> <minimizedAffinity>
-6.76747

> <CNNscore>
0.6662628055

> <CNNaffinity>
5.6548080444

> <CNN_VS>
3.7675883770

> <CNNaffinity_variance>
0.0094742347

$$$$
/media/chris/experiments/cd1a-new-docking/inputs/ligands/6nux_ligand.pdb


 17 16  0  0  0  0  0  0  0  0999 V2000
  -38.3117   57.5497   61.3871 C   0  0  0  0  0  0  0  0  0  0  0  0
  -39.3230   58.2479   60.5229 C   0  0  0  0  0  0  0  0  0  0  0  0
  -38.7262   56.6275   62.2672 C   0  0  0  0  0  0  0  0  0  0  0  0
  -36.8373   57.8731   61.2687 C   0  0  0  0  0  0  0  0  0  0  0  0
  -36.0648   57.3156   62.4598 C   0  0  0  0  0  0  0  0  0  0  0  0
  -33.4309   56.4684   61.7154 C   0  0  0  0  0  0  0  0  0  0  0  0
  -33.6306   57.7805   62.4104 C   0  0  0  0  0  0  0  0  0  0  0  0
  -32.4451   58.6455   62.7162 C   0  0  0  0  0  0  0  0  0  0  0  0
  -34.8620   58.1794   62.7622 C   0  0  0  0  0  0  0  0  0  0  0  0
  -40.1960   56.2962   62.3860 C   0  0  0  0  0  0  0  0  0  0  0  0
  -40.6534   56.4456   63.8319 C   0  0  0  0  0  0  0  0  0  0  0  0
  -40.7754   57.9112   64.1888 C   0  0  0  0  0  0  0  0  0  0  0  0
  -41.6673   58.8006   63.3794 C   0  0  0  0  0  0  0  0  0  0  0  0
  -40.0985   58.4159   65.2309 C   0  0  0  0  0  0  0  0  0  0  0  0
  -38.9550   60.5351   65.4113 O   0  0  0  0  0  0  0  0  0  0  0  0
  -40.2113   59.8761   65.6054 C   0  0  0  0  0  0  0  0  0  0  0  0
  -39.0395   61.4703   65.6546 H   0  0  0  0  0  0  0  0  0  0  0  0
  6  7  1  0  0  0
 15 16  1  0  0  0
 15 17  1  0  0  0
  7  8  1  0  0  0
  7  9  2  0  0  0
  9  5  1  0  0  0
  5  4  1  0  0  0
  4  1  1  0  0  0
  1  2  1  0  0  0
  1  3  2  0  0  0
  3 10  1  0  0  0
 10 11  1  0  0  0
 11 12  1  0  0  0
 12 13  1  0  0  0
 12 14  2  0  0  0
 14 16  1  0  0  0
M  END
> <minimizedAffinity>
-6.81814

> <CNNscore>
0.6593619585

> <CNNaffinity>
5.5861191750

> <CNN_VS>
3.6832745075

> <CNNaffinity_variance>
0.0273169484

$$$$
/media/chris/experiments/cd1a-new-docking/inputs/ligands/6nux_ligand.pdb


 17 16  0  0  0  0  0  0  0  0999 V2000
  -37.9080   57.2847   62.5566 C   0  0  0  0  0  0  0  0  0  0  0  0
  -38.0522   57.6028   64.0178 C   0  0  0  0  0  0  0  0  0  0  0  0
  -38.9243   56.6967   61.9100 C   0  0  0  0  0  0  0  0  0  0  0  0
  -36.6344   57.6258   61.8122 C   0  0  0  0  0  0  0  0  0  0  0  0
  -35.4114   57.1407   62.5836 C   0  0  0  0  0  0  0  0  0  0  0  0
  -32.7056   56.4653   61.9264 C   0  0  0  0  0  0  0  0  0  0  0  0
  -33.0656   57.8779   62.2721 C   0  0  0  0  0  0  0  0  0  0  0  0
  -32.0021   58.9345   62.2747 C   0  0  0  0  0  0  0  0  0  0  0  0
  -34.3308   58.1974   62.5823 C   0  0  0  0  0  0  0  0  0  0  0  0
  -40.2003   56.3590   62.6462 C   0  0  0  0  0  0  0  0  0  0  0  0
  -41.4092   56.8225   61.8425 C   0  0  0  0  0  0  0  0  0  0  0  0
  -42.1216   57.9393   62.5743 C   0  0  0  0  0  0  0  0  0  0  0  0
  -43.5239   57.7344   63.0573 C   0  0  0  0  0  0  0  0  0  0  0  0
  -41.5019   59.1068   62.8021 C   0  0  0  0  0  0  0  0  0  0  0  0
  -41.2525   60.9604   64.3296 O   0  0  0  0  0  0  0  0  0  0  0  0
  -42.1955   60.2321   63.5353 C   0  0  0  0  0  0  0  0  0  0  0  0
  -41.7086   61.6790   64.7948 H   0  0  0  0  0  0  0  0  0  0  0  0
  6  7  1  0  0  0
 15 16  1  0  0  0
 15 17  1  0  0  0
  7  8  1  0  0  0
  7  9  2  0  0  0
  9  5  1  0  0  0
  5  4  1  0  0  0
  4  1  1  0  0  0
  1  2  1  0  0  0
  1  3  2  0  0  0
  3 10  1  0  0  0
 10 11  1  0  0  0
 11 12  1  0  0  0
 12 13  1  0  0  0
 12 14  2  0  0  0
 14 16  1  0  0  0
M  END
> <minimizedAffinity>
-6.67303

> <CNNscore>
0.6209334135

> <CNNaffinity>
5.5913438797

> <CNN_VS>
3.4718523026

> <CNNaffinity_variance>
0.0660352707

$$$$
/media/chris/experiments/cd1a-new-docking/inputs/ligands/6nux_ligand.pdb


 17 16  0  0  0  0  0  0  0  0999 V2000
  -37.4628   58.2492   61.8625 C   0  0  0  0  0  0  0  0  0  0  0  0
  -36.3096   57.3144   62.0934 C   0  0  0  0  0  0  0  0  0  0  0  0
  -37.5398   59.3836   62.5723 C   0  0  0  0  0  0  0  0  0  0  0  0
  -38.5287   57.9250   60.8371 C   0  0  0  0  0  0  0  0  0  0  0  0
  -39.9217   58.1377   61.4205 C   0  0  0  0  0  0  0  0  0  0  0  0
  -40.1624   57.1274   64.0909 C   0  0  0  0  0  0  0  0  0  0  0  0
  -40.7060   56.3410   62.9373 C   0  0  0  0  0  0  0  0  0  0  0  0
  -41.3735   55.0224   63.1880 C   0  0  0  0  0  0  0  0  0  0  0  0
  -40.5932   56.8098   61.6856 C   0  0  0  0  0  0  0  0  0  0  0  0
  -36.4758   59.7156   63.5932 C   0  0  0  0  0  0  0  0  0  0  0  0
  -37.1215   60.1736   64.8953 C   0  0  0  0  0  0  0  0  0  0  0  0
  -36.7243   61.6024   65.1970 C   0  0  0  0  0  0  0  0  0  0  0  0
  -36.5732   62.5834   64.0762 C   0  0  0  0  0  0  0  0  0  0  0  0
  -36.5172   61.9979   66.4618 C   0  0  0  0  0  0  0  0  0  0  0  0
  -36.5347   63.7603   68.1126 O   0  0  0  0  0  0  0  0  0  0  0  0
  -36.1245   63.4219   66.7830 C   0  0  0  0  0  0  0  0  0  0  0  0
  -36.2777   64.6751   68.3072 H   0  0  0  0  0  0  0  0  0  0  0  0
  6  7  1  0  0  0
 15 16  1  0  0  0
 15 17  1  0  0  0
  7  8  1  0  0  0
  7  9  2  0  0  0
  9  5  1  0  0  0
  5  4  1  0  0  0
  4  1  1  0  0  0
  1  2  1  0  0  0
  1  3  2  0  0  0
  3 10  1  0  0  0
 10 11  1  0  0  0
 11 12  1  0  0  0
 12 13  1  0  0  0
 12 14  2  0  0  0
 14 16  1  0  0  0
M  END
> <minimizedAffinity>
-6.62612

> <CNNscore>
0.5975841880

> <CNNaffinity>
5.3074789047

> <CNN_VS>
3.1716654301

> <CNNaffinity_variance>
0.0603116676

$$$$
/media/chris/experiments/cd1a-new-docking/inputs/ligands/6nux_ligand.pdb


 17 16  0  0  0  0  0  0  0  0999 V2000
  -49.6401   59.1606   64.5312 C   0  0  0  0  0  0  0  0  0  0  0  0
  -49.4773   60.6008   64.1362 C   0  0  0  0  0  0  0  0  0  0  0  0
  -49.4815   58.2046   63.6051 C   0  0  0  0  0  0  0  0  0  0  0  0
  -49.9741   58.7823   65.9588 C   0  0  0  0  0  0  0  0  0  0  0  0
  -48.9313   57.8219   66.5211 C   0  0  0  0  0  0  0  0  0  0  0  0
  -46.3898   57.2223   65.3419 C   0  0  0  0  0  0  0  0  0  0  0  0
  -46.5016   58.2926   66.3842 C   0  0  0  0  0  0  0  0  0  0  0  0
  -45.2765   59.0455   66.8082 C   0  0  0  0  0  0  0  0  0  0  0  0
  -47.6894   58.5746   66.9400 C   0  0  0  0  0  0  0  0  0  0  0  0
  -49.1423   58.5754   62.1797 C   0  0  0  0  0  0  0  0  0  0  0  0
  -47.6889   58.2301   61.8784 C   0  0  0  0  0  0  0  0  0  0  0  0
  -47.5702   57.6574   60.4826 C   0  0  0  0  0  0  0  0  0  0  0  0
  -46.2668   57.7475   59.7515 C   0  0  0  0  0  0  0  0  0  0  0  0
  -48.6212   57.0608   59.9008 C   0  0  0  0  0  0  0  0  0  0  0  0
  -48.2130   55.0820   58.5784 O   0  0  0  0  0  0  0  0  0  0  0  0
  -48.5204   56.4788   58.5093 C   0  0  0  0  0  0  0  0  0  0  0  0
  -48.1509   54.7199   57.6807 H   0  0  0  0  0  0  0  0  0  0  0  0
  6  7  1  0  0  0
 15 16  1  0  0  0
 15 17  1  0  0  0
  7  8  1  0  0  0
  7  9  2  0  0  0
  9  5  1  0  0  0
  5  4  1  0  0  0
  4  1  1  0  0  0
  1  2  1  0  0  0
  1  3  2  0  0  0
  3 10  1  0  0  0
 10 11  1  0  0  0
 11 12  1  0  0  0
 12 13  1  0  0  0
 12 14  2  0  0  0
 14 16  1  0  0  0
M  END
> <minimizedAffinity>
-6.42198

> <CNNscore>
0.5968630910

> <CNNaffinity>
5.9940958023

> <CNN_VS>
3.5776546001

> <CNNaffinity_variance>
0.1642568111

$$$$
/media/chris/experiments/cd1a-new-docking/inputs/ligands/6nux_ligand.pdb


 17 16  0  0  0  0  0  0  0  0999 V2000
  -38.7461   57.8374   61.2905 C   0  0  0  0  0  0  0  0  0  0  0  0
  -37.9865   58.9394   60.6083 C   0  0  0  0  0  0  0  0  0  0  0  0
  -38.0955   57.0064   62.1168 C   0  0  0  0  0  0  0  0  0  0  0  0
  -40.2321   57.6624   61.0579 C   0  0  0  0  0  0  0  0  0  0  0  0
  -40.7508   56.4268   61.7862 C   0  0  0  0  0  0  0  0  0  0  0  0
  -41.5907   54.5117   63.7449 C   0  0  0  0  0  0  0  0  0  0  0  0
  -42.0795   55.9260   63.8179 C   0  0  0  0  0  0  0  0  0  0  0  0
  -43.0119   56.3323   64.9192 C   0  0  0  0  0  0  0  0  0  0  0  0
  -41.6901   56.8248   62.9015 C   0  0  0  0  0  0  0  0  0  0  0  0
  -36.6135   57.1795   62.3575 C   0  0  0  0  0  0  0  0  0  0  0  0
  -36.3116   57.1094   63.8496 C   0  0  0  0  0  0  0  0  0  0  0  0
  -37.0554   58.2054   64.5816 C   0  0  0  0  0  0  0  0  0  0  0  0
  -38.3313   57.8867   65.2971 C   0  0  0  0  0  0  0  0  0  0  0  0
  -36.5739   59.4571   64.6023 C   0  0  0  0  0  0  0  0  0  0  0  0
  -38.0872   61.3293   64.4126 O   0  0  0  0  0  0  0  0  0  0  0  0
  -37.3003   60.5639   65.3320 C   0  0  0  0  0  0  0  0  0  0  0  0
  -38.5480   62.0357   64.8917 H   0  0  0  0  0  0  0  0  0  0  0  0
  6  7  1  0  0  0
 15 16  1  0  0  0
 15 17  1  0  0  0
  7  8  1  0  0  0
  7  9  2  0  0  0
  9  5  1  0  0  0
  5  4  1  0  0  0
  4  1  1  0  0  0
  1  2  1  0  0  0
  1  3  2  0  0  0
  3 10  1  0  0  0
 10 11  1  0  0  0
 11 12  1  0  0  0
 12 13  1  0  0  0
 12 14  2  0  0  0
 14 16  1  0  0  0
M  END
> <minimizedAffinity>
-6.75702

> <CNNscore>
0.5927632451

> <CNNaffinity>
5.5391807556

> <CNN_VS>
3.2834227085

> <CNNaffinity_variance>
0.0286773592

$$$$
/media/chris/experiments/cd1a-new-docking/inputs/ligands/6nux_ligand.pdb


 17 16  0  0  0  0  0  0  0  0999 V2000
  -49.2961   59.2485   61.9585 C   0  0  0  0  0  0  0  0  0  0  0  0
  -49.7027   57.9113   61.4077 C   0  0  0  0  0  0  0  0  0  0  0  0
  -49.3044   59.4415   63.2850 C   0  0  0  0  0  0  0  0  0  0  0  0
  -48.8744   60.3709   61.0338 C   0  0  0  0  0  0  0  0  0  0  0  0
  -47.3797   60.2958   60.7400 C   0  0  0  0  0  0  0  0  0  0  0  0
  -46.1691   57.7139   60.4616 C   0  0  0  0  0  0  0  0  0  0  0  0
  -46.5730   58.4903   59.2456 C   0  0  0  0  0  0  0  0  0  0  0  0
  -46.3377   57.9101   57.8835 C   0  0  0  0  0  0  0  0  0  0  0  0
  -47.1381   59.7002   59.3721 C   0  0  0  0  0  0  0  0  0  0  0  0
  -49.7188   58.3232   64.2135 C   0  0  0  0  0  0  0  0  0  0  0  0
  -49.7863   58.8299   65.6491 C   0  0  0  0  0  0  0  0  0  0  0  0
  -48.5189   58.4616   66.3896 C   0  0  0  0  0  0  0  0  0  0  0  0
  -47.4248   59.4730   66.5373 C   0  0  0  0  0  0  0  0  0  0  0  0
  -48.3738   57.2397   66.9230 C   0  0  0  0  0  0  0  0  0  0  0  0
  -46.2021   56.1921   66.7906 O   0  0  0  0  0  0  0  0  0  0  0  0
  -47.1171   56.8551   67.6701 C   0  0  0  0  0  0  0  0  0  0  0  0
  -45.4005   55.9503   67.2805 H   0  0  0  0  0  0  0  0  0  0  0  0
  6  7  1  0  0  0
 15 16  1  0  0  0
 15 17  1  0  0  0
  7  8  1  0  0  0
  7  9  2  0  0  0
  9  5  1  0  0  0
  5  4  1  0  0  0
  4  1  1  0  0  0
  1  2  1  0  0  0
  1  3  2  0  0  0
  3 10  1  0  0  0
 10 11  1  0  0  0
 11 12  1  0  0  0
 12 13  1  0  0  0
 12 14  2  0  0  0
 14 16  1  0  0  0
M  END
> <minimizedAffinity>
-7.06961

> <CNNscore>
0.5664415359

> <CNNaffinity>
5.7707939148

> <CNN_VS>
3.2688174248

> <CNNaffinity_variance>
0.1175488979

$$$$
/media/chris/experiments/cd1a-new-docking/inputs/ligands/6nux_ligand.pdb


 17 16  0  0  0  0  0  0  0  0999 V2000
  -41.9714   57.6972   64.7313 C   0  0  0  0  0  0  0  0  0  0  0  0
  -42.6752   56.3705   64.7690 C   0  0  0  0  0  0  0  0  0  0  0  0
  -41.3718   58.0895   63.5985 C   0  0  0  0  0  0  0  0  0  0  0  0
  -41.9389   58.5913   65.9528 C   0  0  0  0  0  0  0  0  0  0  0  0
  -43.0699   58.2360   66.9124 C   0  0  0  0  0  0  0  0  0  0  0  0
  -45.7130   57.1346   66.8100 C   0  0  0  0  0  0  0  0  0  0  0  0
  -45.5039   58.6068   66.6266 C   0  0  0  0  0  0  0  0  0  0  0  0
  -46.6845   59.4990   66.3866 C   0  0  0  0  0  0  0  0  0  0  0  0
  -44.2678   59.1256   66.6717 C   0  0  0  0  0  0  0  0  0  0  0  0
  -41.4056   57.2041   62.3740 C   0  0  0  0  0  0  0  0  0  0  0  0
  -40.1432   56.3533   62.3055 C   0  0  0  0  0  0  0  0  0  0  0  0
  -39.0083   57.1559   61.7071 C   0  0  0  0  0  0  0  0  0  0  0  0
  -39.2814   58.0994   60.5771 C   0  0  0  0  0  0  0  0  0  0  0  0
  -37.7625   57.0355   62.1889 C   0  0  0  0  0  0  0  0  0  0  0  0
  -36.3844   59.0082   62.3905 O   0  0  0  0  0  0  0  0  0  0  0  0
  -36.6171   57.8323   61.6072 C   0  0  0  0  0  0  0  0  0  0  0  0
  -35.6482   59.5109   62.0081 H   0  0  0  0  0  0  0  0  0  0  0  0
  6  7  1  0  0  0
 15 16  1  0  0  0
 15 17  1  0  0  0
  7  8  1  0  0  0
  7  9  2  0  0  0
  9  5  1  0  0  0
  5  4  1  0  0  0
  4  1  1  0  0  0
  1  2  1  0  0  0
  1  3  2  0  0  0
  3 10  1  0  0  0
 10 11  1  0  0  0
 11 12  1  0  0  0
 12 13  1  0  0  0
 12 14  2  0  0  0
 14 16  1  0  0  0
M  END
> <minimizedAffinity>
-6.49984

> <CNNscore>
0.5504792929

> <CNNaffinity>
5.6273522377

> <CNN_VS>
3.0977408886

> <CNNaffinity_variance>
0.0747246593

$$$$
