/media/chris/experiments/cd1a-new-docking/inputs/ligands/6nux_ligand.pdb


 17 16  0  0  0  0  0  0  0  0999 V2000
  -49.8757   58.4365   61.1759 C   0  0  0  0  0  0  0  0  0  0  0  0
  -49.7863   59.9052   60.8730 C   0  0  0  0  0  0  0  0  0  0  0  0
  -49.6258   58.0071   62.4208 C   0  0  0  0  0  0  0  0  0  0  0  0
  -50.2491   57.4445   60.0946 C   0  0  0  0  0  0  0  0  0  0  0  0
  -49.0760   56.5220   59.7796 C   0  0  0  0  0  0  0  0  0  0  0  0
  -46.3949   57.4943   60.0532 C   0  0  0  0  0  0  0  0  0  0  0  0
  -47.0564   57.4805   58.7091 C   0  0  0  0  0  0  0  0  0  0  0  0
  -46.3089   57.9805   57.5097 C   0  0  0  0  0  0  0  0  0  0  0  0
  -48.3123   57.0280   58.5776 C   0  0  0  0  0  0  0  0  0  0  0  0
  -49.2583   58.9929   63.5058 C   0  0  0  0  0  0  0  0  0  0  0  0
  -49.6587   58.4460   64.8706 C   0  0  0  0  0  0  0  0  0  0  0  0
  -48.4431   58.3457   65.7665 C   0  0  0  0  0  0  0  0  0  0  0  0
  -47.2934   59.2834   65.5653 C   0  0  0  0  0  0  0  0  0  0  0  0
  -48.3935   57.4302   66.7453 C   0  0  0  0  0  0  0  0  0  0  0  0
  -46.5632   56.0413   67.4884 O   0  0  0  0  0  0  0  0  0  0  0  0
  -47.1899   57.3182   67.6531 C   0  0  0  0  0  0  0  0  0  0  0  0
  -45.7931   55.9809   68.0752 H   0  0  0  0  0  0  0  0  0  0  0  0
  6  7  1  0  0  0
 15 16  1  0  0  0
 15 17  1  0  0  0
  7  8  1  0  0  0
  7  9  2  0  0  0
  9  5  1  0  0  0
  5  4  1  0  0  0
  4  1  1  0  0  0
  1  2  1  0  0  0
  1  3  2  0  0  0
  3 10  1  0  0  0
 10 11  1  0  0  0
 11 12  1  0  0  0
 12 13  1  0  0  0
 12 14  2  0  0  0
 14 16  1  0  0  0
M  END
> <minimizedAffinity>
-7.43907

> <CNNscore>
0.7633972168

> <CNNaffinity>
6.0221991539

> <CNN_VS>
4.5973300934

> <CNNaffinity_variance>
0.2202037126

$$$$
/media/chris/experiments/cd1a-new-docking/inputs/ligands/6nux_ligand.pdb


 17 16  0  0  0  0  0  0  0  0999 V2000
  -36.5313   57.9343   62.6226 C   0  0  0  0  0  0  0  0  0  0  0  0
  -36.9377   58.5736   63.9200 C   0  0  0  0  0  0  0  0  0  0  0  0
  -35.2299   57.7430   62.3650 C   0  0  0  0  0  0  0  0  0  0  0  0
  -37.5735   57.5021   61.6128 C   0  0  0  0  0  0  0  0  0  0  0  0
  -38.5898   56.5628   62.2540 C   0  0  0  0  0  0  0  0  0  0  0  0
  -40.5680   57.0856   64.2596 C   0  0  0  0  0  0  0  0  0  0  0  0
  -40.9187   57.2051   62.8080 C   0  0  0  0  0  0  0  0  0  0  0  0
  -42.3103   57.5969   62.4114 C   0  0  0  0  0  0  0  0  0  0  0  0
  -39.9957   56.9591   61.8663 C   0  0  0  0  0  0  0  0  0  0  0  0
  -34.1851   58.1670   63.3715 C   0  0  0  0  0  0  0  0  0  0  0  0
  -32.8021   58.1512   62.7319 C   0  0  0  0  0  0  0  0  0  0  0  0
  -32.3232   59.5674   62.4961 C   0  0  0  0  0  0  0  0  0  0  0  0
  -30.9280   59.8077   62.0093 C   0  0  0  0  0  0  0  0  0  0  0  0
  -33.1432   60.6069   62.7101 C   0  0  0  0  0  0  0  0  0  0  0  0
  -33.7310   62.7915   61.8657 O   0  0  0  0  0  0  0  0  0  0  0  0
  -32.6843   62.0280   62.4756 C   0  0  0  0  0  0  0  0  0  0  0  0
  -33.4255   63.7006   61.7201 H   0  0  0  0  0  0  0  0  0  0  0  0
  6  7  1  0  0  0
 15 16  1  0  0  0
 15 17  1  0  0  0
  7  8  1  0  0  0
  7  9  2  0  0  0
  9  5  1  0  0  0
  5  4  1  0  0  0
  4  1  1  0  0  0
  1  2  1  0  0  0
  1  3  2  0  0  0
  3 10  1  0  0  0
 10 11  1  0  0  0
 11 12  1  0  0  0
 12 13  1  0  0  0
 12 14  2  0  0  0
 14 16  1  0  0  0
M  END
> <minimizedAffinity>
-6.57005

> <CNNscore>
0.7330902815

> <CNNaffinity>
5.7368607521

> <CNN_VS>
4.2056369781

> <CNNaffinity_variance>
0.0374069586

$$$$
/media/chris/experiments/cd1a-new-docking/inputs/ligands/6nux_ligand.pdb


 17 16  0  0  0  0  0  0  0  0999 V2000
  -42.9397   57.1044   63.4755 C   0  0  0  0  0  0  0  0  0  0  0  0
  -42.9892   58.4112   62.7360 C   0  0  0  0  0  0  0  0  0  0  0  0
  -42.0130   56.1958   63.1402 C   0  0  0  0  0  0  0  0  0  0  0  0
  -43.9181   56.8096   64.5928 C   0  0  0  0  0  0  0  0  0  0  0  0
  -44.9433   57.9314   64.7228 C   0  0  0  0  0  0  0  0  0  0  0  0
  -46.2387   58.6036   67.1883 C   0  0  0  0  0  0  0  0  0  0  0  0
  -46.9096   57.6867   66.2117 C   0  0  0  0  0  0  0  0  0  0  0  0
  -48.2603   57.1213   66.5331 C   0  0  0  0  0  0  0  0  0  0  0  0
  -46.3052   57.3682   65.0574 C   0  0  0  0  0  0  0  0  0  0  0  0
  -41.0298   56.4864   62.0297 C   0  0  0  0  0  0  0  0  0  0  0  0
  -39.6054   56.2356   62.5096 C   0  0  0  0  0  0  0  0  0  0  0  0
  -38.6474   57.1692   61.8018 C   0  0  0  0  0  0  0  0  0  0  0  0
  -37.1905   57.1379   62.1455 C   0  0  0  0  0  0  0  0  0  0  0  0
  -39.0929   58.0161   60.8622 C   0  0  0  0  0  0  0  0  0  0  0  0
  -38.0574   60.1976   60.8424 O   0  0  0  0  0  0  0  0  0  0  0  0
  -38.1503   58.9526   60.1411 C   0  0  0  0  0  0  0  0  0  0  0  0
  -37.4507   60.7898   60.3711 H   0  0  0  0  0  0  0  0  0  0  0  0
  6  7  1  0  0  0
 15 16  1  0  0  0
 15 17  1  0  0  0
  7  8  1  0  0  0
  7  9  2  0  0  0
  9  5  1  0  0  0
  5  4  1  0  0  0
  4  1  1  0  0  0
  1  2  1  0  0  0
  1  3  2  0  0  0
  3 10  1  0  0  0
 10 11  1  0  0  0
 11 12  1  0  0  0
 12 13  1  0  0  0
 12 14  2  0  0  0
 14 16  1  0  0  0
M  END
> <minimizedAffinity>
-6.53740

> <CNNscore>
0.7066857815

> <CNNaffinity>
5.9320478439

> <CNN_VS>
4.1920938492

> <CNNaffinity_variance>
0.4566172659

$$$$
/media/chris/experiments/cd1a-new-docking/inputs/ligands/6nux_ligand.pdb


 17 16  0  0  0  0  0  0  0  0999 V2000
  -38.4628   57.5377   61.3847 C   0  0  0  0  0  0  0  0  0  0  0  0
  -39.4983   58.1891   60.5128 C   0  0  0  0  0  0  0  0  0  0  0  0
  -38.8437   56.6098   62.2739 C   0  0  0  0  0  0  0  0  0  0  0  0
  -37.0012   57.9143   61.2641 C   0  0  0  0  0  0  0  0  0  0  0  0
  -36.1734   57.2172   62.3388 C   0  0  0  0  0  0  0  0  0  0  0  0
  -34.6461   58.7845   64.1881 C   0  0  0  0  0  0  0  0  0  0  0  0
  -33.9866   58.1915   62.9807 C   0  0  0  0  0  0  0  0  0  0  0  0
  -32.5248   58.4251   62.7446 C   0  0  0  0  0  0  0  0  0  0  0  0
  -34.6990   57.4589   62.1117 C   0  0  0  0  0  0  0  0  0  0  0  0
  -40.3004   56.2254   62.3950 C   0  0  0  0  0  0  0  0  0  0  0  0
  -40.7847   56.4439   63.8232 C   0  0  0  0  0  0  0  0  0  0  0  0
  -42.2240   56.9118   63.8172 C   0  0  0  0  0  0  0  0  0  0  0  0
  -42.7122   57.7967   62.7126 C   0  0  0  0  0  0  0  0  0  0  0  0
  -43.0669   56.5307   64.7883 C   0  0  0  0  0  0  0  0  0  0  0  0
  -45.2590   56.2299   65.7554 O   0  0  0  0  0  0  0  0  0  0  0  0
  -44.5090   56.9839   64.7965 C   0  0  0  0  0  0  0  0  0  0  0  0
  -46.1818   56.5291   65.7518 H   0  0  0  0  0  0  0  0  0  0  0  0
  6  7  1  0  0  0
 15 16  1  0  0  0
 15 17  1  0  0  0
  7  8  1  0  0  0
  7  9  2  0  0  0
  9  5  1  0  0  0
  5  4  1  0  0  0
  4  1  1  0  0  0
  1  2  1  0  0  0
  1  3  2  0  0  0
  3 10  1  0  0  0
 10 11  1  0  0  0
 11 12  1  0  0  0
 12 13  1  0  0  0
 12 14  2  0  0  0
 14 16  1  0  0  0
M  END
> <minimizedAffinity>
-7.02078

> <CNNscore>
0.6566062570

> <CNNaffinity>
5.7495527267

> <CNN_VS>
3.7751922607

> <CNNaffinity_variance>
0.0268720873

$$$$
/media/chris/experiments/cd1a-new-docking/inputs/ligands/6nux_ligand.pdb


 17 16  0  0  0  0  0  0  0  0999 V2000
  -38.4109   57.5618   61.3902 C   0  0  0  0  0  0  0  0  0  0  0  0
  -39.4275   58.2281   60.5073 C   0  0  0  0  0  0  0  0  0  0  0  0
  -38.8141   56.6362   62.2719 C   0  0  0  0  0  0  0  0  0  0  0  0
  -36.9435   57.9211   61.2889 C   0  0  0  0  0  0  0  0  0  0  0  0
  -36.1406   57.2263   62.3840 C   0  0  0  0  0  0  0  0  0  0  0  0
  -34.5538   58.9187   64.0653 C   0  0  0  0  0  0  0  0  0  0  0  0
  -33.9182   58.1794   62.9278 C   0  0  0  0  0  0  0  0  0  0  0  0
  -32.4488   58.3322   62.6731 C   0  0  0  0  0  0  0  0  0  0  0  0
  -34.6583   57.3878   62.1374 C   0  0  0  0  0  0  0  0  0  0  0  0
  -40.2767   56.2691   62.3737 C   0  0  0  0  0  0  0  0  0  0  0  0
  -40.7546   56.4082   63.8140 C   0  0  0  0  0  0  0  0  0  0  0  0
  -40.9230   57.8705   64.1659 C   0  0  0  0  0  0  0  0  0  0  0  0
  -41.8152   58.7366   63.3320 C   0  0  0  0  0  0  0  0  0  0  0  0
  -40.2872   58.3925   65.2251 C   0  0  0  0  0  0  0  0  0  0  0  0
  -39.2235   60.3593   66.1370 O   0  0  0  0  0  0  0  0  0  0  0  0
  -40.4469   59.8496   65.5949 C   0  0  0  0  0  0  0  0  0  0  0  0
  -39.3378   61.2939   66.3704 H   0  0  0  0  0  0  0  0  0  0  0  0
  6  7  1  0  0  0
 15 16  1  0  0  0
 15 17  1  0  0  0
  7  8  1  0  0  0
  7  9  2  0  0  0
  9  5  1  0  0  0
  5  4  1  0  0  0
  4  1  1  0  0  0
  1  2  1  0  0  0
  1  3  2  0  0  0
  3 10  1  0  0  0
 10 11  1  0  0  0
 11 12  1  0  0  0
 12 13  1  0  0  0
 12 14  2  0  0  0
 14 16  1  0  0  0
M  END
> <minimizedAffinity>
-6.85556

> <CNNscore>
0.6333621144

> <CNNaffinity>
5.6084699631

> <CNN_VS>
3.5521924496

> <CNNaffinity_variance>
0.0155166890

$$$$
/media/chris/experiments/cd1a-new-docking/inputs/ligands/6nux_ligand.pdb


 17 16  0  0  0  0  0  0  0  0999 V2000
  -37.2779   57.8570   64.0020 C   0  0  0  0  0  0  0  0  0  0  0  0
  -38.4854   57.6535   64.8723 C   0  0  0  0  0  0  0  0  0  0  0  0
  -37.2945   57.4037   62.7407 C   0  0  0  0  0  0  0  0  0  0  0  0
  -36.0524   58.5705   64.5330 C   0  0  0  0  0  0  0  0  0  0  0  0
  -34.8067   57.7085   64.3562 C   0  0  0  0  0  0  0  0  0  0  0  0
  -33.5923   57.0138   61.8558 C   0  0  0  0  0  0  0  0  0  0  0  0
  -33.1040   58.2035   62.6243 C   0  0  0  0  0  0  0  0  0  0  0  0
  -31.9755   59.0261   62.0792 C   0  0  0  0  0  0  0  0  0  0  0  0
  -33.6688   58.5305   63.7962 C   0  0  0  0  0  0  0  0  0  0  0  0
  -38.5169   56.6959   62.2031 C   0  0  0  0  0  0  0  0  0  0  0  0
  -39.2274   57.5762   61.1821 C   0  0  0  0  0  0  0  0  0  0  0  0
  -40.3055   58.3925   61.8618 C   0  0  0  0  0  0  0  0  0  0  0  0
  -41.5664   57.7253   62.3160 C   0  0  0  0  0  0  0  0  0  0  0  0
  -40.1343   59.7064   62.0691 C   0  0  0  0  0  0  0  0  0  0  0  0
  -40.8194   60.8111   64.1042 O   0  0  0  0  0  0  0  0  0  0  0  0
  -41.1977   60.5372   62.7506 C   0  0  0  0  0  0  0  0  0  0  0  0
  -41.5084   61.3441   64.5310 H   0  0  0  0  0  0  0  0  0  0  0  0
  6  7  1  0  0  0
 15 16  1  0  0  0
 15 17  1  0  0  0
  7  8  1  0  0  0
  7  9  2  0  0  0
  9  5  1  0  0  0
  5  4  1  0  0  0
  4  1  1  0  0  0
  1  2  1  0  0  0
  1  3  2  0  0  0
  3 10  1  0  0  0
 10 11  1  0  0  0
 11 12  1  0  0  0
 12 13  1  0  0  0
 12 14  2  0  0  0
 14 16  1  0  0  0
M  END
> <minimizedAffinity>
-6.44503

> <CNNscore>
0.5794013143

> <CNNaffinity>
5.5684046745

> <CNN_VS>
3.2263410091

> <CNNaffinity_variance>
0.1209892482

$$$$
/media/chris/experiments/cd1a-new-docking/inputs/ligands/6nux_ligand.pdb


 17 16  0  0  0  0  0  0  0  0999 V2000
  -49.5060   59.7448   63.2916 C   0  0  0  0  0  0  0  0  0  0  0  0
  -49.5412   58.2430   63.2889 C   0  0  0  0  0  0  0  0  0  0  0  0
  -49.7103   60.4036   64.4409 C   0  0  0  0  0  0  0  0  0  0  0  0
  -49.2376   60.5151   62.0159 C   0  0  0  0  0  0  0  0  0  0  0  0
  -49.4119   59.6167   60.7958 C   0  0  0  0  0  0  0  0  0  0  0  0
  -48.7650   57.0035   59.8152 C   0  0  0  0  0  0  0  0  0  0  0  0
  -47.7779   58.1225   59.6819 C   0  0  0  0  0  0  0  0  0  0  0  0
  -46.4497   57.8666   59.0355 C   0  0  0  0  0  0  0  0  0  0  0  0
  -48.0765   59.3467   60.1417 C   0  0  0  0  0  0  0  0  0  0  0  0
  -49.9729   59.6403   65.7187 C   0  0  0  0  0  0  0  0  0  0  0  0
  -48.7509   59.6999   66.6272 C   0  0  0  0  0  0  0  0  0  0  0  0
  -48.1694   58.3142   66.8064 C   0  0  0  0  0  0  0  0  0  0  0  0
  -49.0694   57.1189   66.7528 C   0  0  0  0  0  0  0  0  0  0  0  0
  -46.8529   58.1494   67.0021 C   0  0  0  0  0  0  0  0  0  0  0  0
  -45.7116   56.3069   65.9373 O   0  0  0  0  0  0  0  0  0  0  0  0
  -46.2532   56.7729   67.1782 C   0  0  0  0  0  0  0  0  0  0  0  0
  -45.3300   55.4238   66.0623 H   0  0  0  0  0  0  0  0  0  0  0  0
  6  7  1  0  0  0
 15 16  1  0  0  0
 15 17  1  0  0  0
  7  8  1  0  0  0
  7  9  2  0  0  0
  9  5  1  0  0  0
  5  4  1  0  0  0
  4  1  1  0  0  0
  1  2  1  0  0  0
  1  3  2  0  0  0
  3 10  1  0  0  0
 10 11  1  0  0  0
 11 12  1  0  0  0
 12 13  1  0  0  0
 12 14  2  0  0  0
 14 16  1  0  0  0
M  END
> <minimizedAffinity>
-6.57323

> <CNNscore>
0.5565887094

> <CNNaffinity>
5.7609605789

> <CNN_VS>
3.2064855099

> <CNNaffinity_variance>
0.1662768424

$$$$
/media/chris/experiments/cd1a-new-docking/inputs/ligands/6nux_ligand.pdb


 17 16  0  0  0  0  0  0  0  0999 V2000
  -41.3770   56.3083   64.0500 C   0  0  0  0  0  0  0  0  0  0  0  0
  -41.6805   54.9008   63.6214 C   0  0  0  0  0  0  0  0  0  0  0  0
  -42.2976   56.9971   64.7391 C   0  0  0  0  0  0  0  0  0  0  0  0
  -40.0461   56.9490   63.7170 C   0  0  0  0  0  0  0  0  0  0  0  0
  -39.4711   56.3626   62.4317 C   0  0  0  0  0  0  0  0  0  0  0  0
  -36.9293   57.5132   61.7805 C   0  0  0  0  0  0  0  0  0  0  0  0
  -38.1650   57.9645   61.0637 C   0  0  0  0  0  0  0  0  0  0  0  0
  -38.0642   59.0226   60.0066 C   0  0  0  0  0  0  0  0  0  0  0  0
  -39.3570   57.4295   61.3674 C   0  0  0  0  0  0  0  0  0  0  0  0
  -43.6257   56.3611   65.0797 C   0  0  0  0  0  0  0  0  0  0  0  0
  -44.0724   56.7904   66.4719 C   0  0  0  0  0  0  0  0  0  0  0  0
  -44.6689   58.1804   66.4199 C   0  0  0  0  0  0  0  0  0  0  0  0
  -43.9070   59.3367   66.9892 C   0  0  0  0  0  0  0  0  0  0  0  0
  -45.8695   58.3845   65.8583 C   0  0  0  0  0  0  0  0  0  0  0  0
  -47.4720   59.9178   66.8135 O   0  0  0  0  0  0  0  0  0  0  0  0
  -46.4792   59.7663   65.7928 C   0  0  0  0  0  0  0  0  0  0  0  0
  -47.8558   60.8072   66.7618 H   0  0  0  0  0  0  0  0  0  0  0  0
  6  7  1  0  0  0
 15 16  1  0  0  0
 15 17  1  0  0  0
  7  8  1  0  0  0
  7  9  2  0  0  0
  9  5  1  0  0  0
  5  4  1  0  0  0
  4  1  1  0  0  0
  1  2  1  0  0  0
  1  3  2  0  0  0
  3 10  1  0  0  0
 10 11  1  0  0  0
 11 12  1  0  0  0
 12 13  1  0  0  0
 12 14  2  0  0  0
 14 16  1  0  0  0
M  END
> <minimizedAffinity>
-6.71234

> <CNNscore>
0.5281108618

> <CNNaffinity>
5.5144853592

> <CNN_VS>
2.9122595787

> <CNNaffinity_variance>
0.2953816056

$$$$
/media/chris/experiments/cd1a-new-docking/inputs/ligands/6nux_ligand.pdb


 17 16  0  0  0  0  0  0  0  0999 V2000
  -44.2376   58.3937   62.3294 C   0  0  0  0  0  0  0  0  0  0  0  0
  -43.7276   59.7650   62.6708 C   0  0  0  0  0  0  0  0  0  0  0  0
  -43.3717   57.3739   62.2462 C   0  0  0  0  0  0  0  0  0  0  0  0
  -45.7128   58.1549   62.0858 C   0  0  0  0  0  0  0  0  0  0  0  0
  -46.0607   58.3781   60.6177 C   0  0  0  0  0  0  0  0  0  0  0  0
  -46.4730   58.2113   57.7873 C   0  0  0  0  0  0  0  0  0  0  0  0
  -46.7067   57.0114   58.6534 C   0  0  0  0  0  0  0  0  0  0  0  0
  -47.1597   55.7249   58.0314 C   0  0  0  0  0  0  0  0  0  0  0  0
  -46.5166   57.0864   59.9791 C   0  0  0  0  0  0  0  0  0  0  0  0
  -41.8987   57.6048   62.4940 C   0  0  0  0  0  0  0  0  0  0  0  0
  -41.0662   56.6956   61.5983 C   0  0  0  0  0  0  0  0  0  0  0  0
  -39.6687   57.2561   61.4454 C   0  0  0  0  0  0  0  0  0  0  0  0
  -38.5654   56.7483   62.3210 C   0  0  0  0  0  0  0  0  0  0  0  0
  -39.4102   58.1962   60.5246 C   0  0  0  0  0  0  0  0  0  0  0  0
  -37.9537   60.0843   60.9054 O   0  0  0  0  0  0  0  0  0  0  0  0
  -38.0197   58.7645   60.3540 C   0  0  0  0  0  0  0  0  0  0  0  0
  -37.0580   60.4384   60.7903 H   0  0  0  0  0  0  0  0  0  0  0  0
  6  7  1  0  0  0
 15 16  1  0  0  0
 15 17  1  0  0  0
  7  8  1  0  0  0
  7  9  2  0  0  0
  9  5  1  0  0  0
  5  4  1  0  0  0
  4  1  1  0  0  0
  1  2  1  0  0  0
  1  3  2  0  0  0
  3 10  1  0  0  0
 10 11  1  0  0  0
 11 12  1  0  0  0
 12 13  1  0  0  0
 12 14  2  0  0  0
 14 16  1  0  0  0
M  END
> <minimizedAffinity>
-7.50781

> <CNNscore>
0.5165791512

> <CNNaffinity>
5.5951347351

> <CNN_VS>
2.8903298378

> <CNNaffinity_variance>
0.1763934642

$$$$
