/media/chris/experiments/cd1a-new-docking/inputs/ligands/6nux_ligand.pdb


 17 16  0  0  0  0  0  0  0  0999 V2000
  -49.9137   58.4208   61.1310 C   0  0  0  0  0  0  0  0  0  0  0  0
  -49.9535   59.9107   60.9429 C   0  0  0  0  0  0  0  0  0  0  0  0
  -49.5338   57.9190   62.3144 C   0  0  0  0  0  0  0  0  0  0  0  0
  -50.3024   57.4876   60.0037 C   0  0  0  0  0  0  0  0  0  0  0  0
  -49.1766   56.5028   59.7055 C   0  0  0  0  0  0  0  0  0  0  0  0
  -46.4896   57.4334   60.0566 C   0  0  0  0  0  0  0  0  0  0  0  0
  -47.1034   57.4052   58.6902 C   0  0  0  0  0  0  0  0  0  0  0  0
  -46.3050   57.8691   57.5092 C   0  0  0  0  0  0  0  0  0  0  0  0
  -48.3617   56.9721   58.5223 C   0  0  0  0  0  0  0  0  0  0  0  0
  -49.1502   58.8454   63.4453 C   0  0  0  0  0  0  0  0  0  0  0  0
  -49.6566   58.2928   64.7721 C   0  0  0  0  0  0  0  0  0  0  0  0
  -48.5017   58.1106   65.7331 C   0  0  0  0  0  0  0  0  0  0  0  0
  -47.8211   59.3119   66.3120 C   0  0  0  0  0  0  0  0  0  0  0  0
  -48.0913   56.8810   66.0774 C   0  0  0  0  0  0  0  0  0  0  0  0
  -45.7408   56.3830   66.3196 O   0  0  0  0  0  0  0  0  0  0  0  0
  -46.9427   56.6792   67.0394 C   0  0  0  0  0  0  0  0  0  0  0  0
  -45.0116   56.2556   66.9464 H   0  0  0  0  0  0  0  0  0  0  0  0
  6  7  1  0  0  0
 15 16  1  0  0  0
 15 17  1  0  0  0
  7  8  1  0  0  0
  7  9  2  0  0  0
  9  5  1  0  0  0
  5  4  1  0  0  0
  4  1  1  0  0  0
  1  2  1  0  0  0
  1  3  2  0  0  0
  3 10  1  0  0  0
 10 11  1  0  0  0
 11 12  1  0  0  0
 12 13  1  0  0  0
 12 14  2  0  0  0
 14 16  1  0  0  0
M  END
> <minimizedAffinity>
-7.59530

> <CNNscore>
0.8019313216

> <CNNaffinity>
6.0604619980

> <CNN_VS>
4.8600745201

> <CNNaffinity_variance>
0.2352701724

$$$$
/media/chris/experiments/cd1a-new-docking/inputs/ligands/6nux_ligand.pdb


 17 16  0  0  0  0  0  0  0  0999 V2000
  -49.6986   58.9097   64.2210 C   0  0  0  0  0  0  0  0  0  0  0  0
  -49.7472   60.3957   64.0054 C   0  0  0  0  0  0  0  0  0  0  0  0
  -49.5483   58.0983   63.1647 C   0  0  0  0  0  0  0  0  0  0  0  0
  -49.8117   58.3254   65.6133 C   0  0  0  0  0  0  0  0  0  0  0  0
  -48.6542   57.3729   65.8947 C   0  0  0  0  0  0  0  0  0  0  0  0
  -46.0380   57.7883   64.8028 C   0  0  0  0  0  0  0  0  0  0  0  0
  -46.3589   58.2610   66.1878 C   0  0  0  0  0  0  0  0  0  0  0  0
  -45.3030   58.9495   66.9993 C   0  0  0  0  0  0  0  0  0  0  0  0
  -47.5819   58.0665   66.7029 C   0  0  0  0  0  0  0  0  0  0  0  0
  -49.4290   58.6758   61.7731 C   0  0  0  0  0  0  0  0  0  0  0  0
  -49.9108   57.6636   60.7409 C   0  0  0  0  0  0  0  0  0  0  0  0
  -48.7406   57.1560   59.9263 C   0  0  0  0  0  0  0  0  0  0  0  0
  -47.6594   58.1041   59.5095 C   0  0  0  0  0  0  0  0  0  0  0  0
  -48.6606   55.8615   59.5847 C   0  0  0  0  0  0  0  0  0  0  0  0
  -47.9549   54.8503   57.5084 O   0  0  0  0  0  0  0  0  0  0  0  0
  -47.4971   55.3352   58.7756 C   0  0  0  0  0  0  0  0  0  0  0  0
  -47.2006   54.5155   56.9986 H   0  0  0  0  0  0  0  0  0  0  0  0
  6  7  1  0  0  0
 15 16  1  0  0  0
 15 17  1  0  0  0
  7  8  1  0  0  0
  7  9  2  0  0  0
  9  5  1  0  0  0
  5  4  1  0  0  0
  4  1  1  0  0  0
  1  2  1  0  0  0
  1  3  2  0  0  0
  3 10  1  0  0  0
 10 11  1  0  0  0
 11 12  1  0  0  0
 12 13  1  0  0  0
 12 14  2  0  0  0
 14 16  1  0  0  0
M  END
> <minimizedAffinity>
-6.60116

> <CNNscore>
0.7558128834

> <CNNaffinity>
6.2494173050

> <CNN_VS>
4.7233901024

> <CNNaffinity_variance>
0.2738974988

$$$$
/media/chris/experiments/cd1a-new-docking/inputs/ligands/6nux_ligand.pdb


 17 16  0  0  0  0  0  0  0  0999 V2000
  -38.7694   57.7593   61.1603 C   0  0  0  0  0  0  0  0  0  0  0  0
  -38.0059   58.7454   60.3227 C   0  0  0  0  0  0  0  0  0  0  0  0
  -38.1084   56.9998   62.0452 C   0  0  0  0  0  0  0  0  0  0  0  0
  -40.2706   57.6213   61.0179 C   0  0  0  0  0  0  0  0  0  0  0  0
  -40.8119   56.5803   61.9923 C   0  0  0  0  0  0  0  0  0  0  0  0
  -41.6873   57.3958   64.5958 C   0  0  0  0  0  0  0  0  0  0  0  0
  -42.6825   57.2109   63.4912 C   0  0  0  0  0  0  0  0  0  0  0  0
  -44.1381   57.4522   63.7567 C   0  0  0  0  0  0  0  0  0  0  0  0
  -42.2765   56.8273   62.2717 C   0  0  0  0  0  0  0  0  0  0  0  0
  -36.6108   57.1370   62.1961 C   0  0  0  0  0  0  0  0  0  0  0  0
  -36.2507   57.3926   63.6546 C   0  0  0  0  0  0  0  0  0  0  0  0
  -34.8730   58.0119   63.7481 C   0  0  0  0  0  0  0  0  0  0  0  0
  -34.3029   58.3552   65.0892 C   0  0  0  0  0  0  0  0  0  0  0  0
  -34.1558   58.2453   62.6390 C   0  0  0  0  0  0  0  0  0  0  0  0
  -32.8345   60.2496   62.3777 O   0  0  0  0  0  0  0  0  0  0  0  0
  -32.7761   58.8587   62.7128 C   0  0  0  0  0  0  0  0  0  0  0  0
  -31.9445   60.6321   62.4283 H   0  0  0  0  0  0  0  0  0  0  0  0
  6  7  1  0  0  0
 15 16  1  0  0  0
 15 17  1  0  0  0
  7  8  1  0  0  0
  7  9  2  0  0  0
  9  5  1  0  0  0
  5  4  1  0  0  0
  4  1  1  0  0  0
  1  2  1  0  0  0
  1  3  2  0  0  0
  3 10  1  0  0  0
 10 11  1  0  0  0
 11 12  1  0  0  0
 12 13  1  0  0  0
 12 14  2  0  0  0
 14 16  1  0  0  0
M  END
> <minimizedAffinity>
-6.69522

> <CNNscore>
0.7452932596

> <CNNaffinity>
5.8210172653

> <CNN_VS>
4.3383650780

> <CNNaffinity_variance>
0.0402574986

$$$$
/media/chris/experiments/cd1a-new-docking/inputs/ligands/6nux_ligand.pdb


 17 16  0  0  0  0  0  0  0  0999 V2000
  -41.9980   57.4246   64.8707 C   0  0  0  0  0  0  0  0  0  0  0  0
  -40.6924   58.1432   65.0603 C   0  0  0  0  0  0  0  0  0  0  0  0
  -42.0665   56.4077   64.0001 C   0  0  0  0  0  0  0  0  0  0  0  0
  -43.2275   57.8334   65.6541 C   0  0  0  0  0  0  0  0  0  0  0  0
  -44.1830   56.6553   65.8131 C   0  0  0  0  0  0  0  0  0  0  0  0
  -46.5425   56.5907   67.4372 C   0  0  0  0  0  0  0  0  0  0  0  0
  -46.6369   56.9568   65.9875 C   0  0  0  0  0  0  0  0  0  0  0  0
  -47.9726   57.2862   65.3915 C   0  0  0  0  0  0  0  0  0  0  0  0
  -45.5348   56.9861   65.2237 C   0  0  0  0  0  0  0  0  0  0  0  0
  -40.8413   55.9910   63.2194 C   0  0  0  0  0  0  0  0  0  0  0  0
  -40.8619   56.6224   61.8326 C   0  0  0  0  0  0  0  0  0  0  0  0
  -39.5135   57.2351   61.5213 C   0  0  0  0  0  0  0  0  0  0  0  0
  -38.3003   56.7798   62.2711 C   0  0  0  0  0  0  0  0  0  0  0  0
  -39.3968   58.1751   60.5717 C   0  0  0  0  0  0  0  0  0  0  0  0
  -37.9582   60.0972   60.8310 O   0  0  0  0  0  0  0  0  0  0  0  0
  -38.0578   58.7952   60.2435 C   0  0  0  0  0  0  0  0  0  0  0  0
  -37.0959   60.4849   60.6140 H   0  0  0  0  0  0  0  0  0  0  0  0
  6  7  1  0  0  0
 15 16  1  0  0  0
 15 17  1  0  0  0
  7  8  1  0  0  0
  7  9  2  0  0  0
  9  5  1  0  0  0
  5  4  1  0  0  0
  4  1  1  0  0  0
  1  2  1  0  0  0
  1  3  2  0  0  0
  3 10  1  0  0  0
 10 11  1  0  0  0
 11 12  1  0  0  0
 12 13  1  0  0  0
 12 14  2  0  0  0
 14 16  1  0  0  0
M  END
> <minimizedAffinity>
-6.74547

> <CNNscore>
0.7342904210

> <CNNaffinity>
5.8554735184

> <CNN_VS>
4.2996182442

> <CNNaffinity_variance>
0.1618294865

$$$$
/media/chris/experiments/cd1a-new-docking/inputs/ligands/6nux_ligand.pdb


 17 16  0  0  0  0  0  0  0  0999 V2000
  -38.4095   57.5864   61.4195 C   0  0  0  0  0  0  0  0  0  0  0  0
  -39.4782   58.2501   60.5984 C   0  0  0  0  0  0  0  0  0  0  0  0
  -38.7552   56.6436   62.3075 C   0  0  0  0  0  0  0  0  0  0  0  0
  -36.9539   57.9673   61.2492 C   0  0  0  0  0  0  0  0  0  0  0  0
  -36.0830   57.2416   62.2696 C   0  0  0  0  0  0  0  0  0  0  0  0
  -34.4285   58.4865   64.2501 C   0  0  0  0  0  0  0  0  0  0  0  0
  -33.8474   58.0849   62.9289 C   0  0  0  0  0  0  0  0  0  0  0  0
  -32.3971   58.3406   62.6484 C   0  0  0  0  0  0  0  0  0  0  0  0
  -34.6194   57.5037   61.9986 C   0  0  0  0  0  0  0  0  0  0  0  0
  -40.2058   56.2549   62.4779 C   0  0  0  0  0  0  0  0  0  0  0  0
  -40.6575   56.5243   63.9082 C   0  0  0  0  0  0  0  0  0  0  0  0
  -42.1228   56.9022   63.9271 C   0  0  0  0  0  0  0  0  0  0  0  0
  -42.8184   57.2421   62.6456 C   0  0  0  0  0  0  0  0  0  0  0  0
  -42.8044   56.9244   65.0821 C   0  0  0  0  0  0  0  0  0  0  0  0
  -45.0510   56.1775   65.5576 O   0  0  0  0  0  0  0  0  0  0  0  0
  -44.2695   57.2948   65.1202 C   0  0  0  0  0  0  0  0  0  0  0  0
  -45.9883   56.4266   65.5781 H   0  0  0  0  0  0  0  0  0  0  0  0
  6  7  1  0  0  0
 15 16  1  0  0  0
 15 17  1  0  0  0
  7  8  1  0  0  0
  7  9  2  0  0  0
  9  5  1  0  0  0
  5  4  1  0  0  0
  4  1  1  0  0  0
  1  2  1  0  0  0
  1  3  2  0  0  0
  3 10  1  0  0  0
 10 11  1  0  0  0
 11 12  1  0  0  0
 12 13  1  0  0  0
 12 14  2  0  0  0
 14 16  1  0  0  0
M  END
> <minimizedAffinity>
-6.96831

> <CNNscore>
0.6875317097

> <CNNaffinity>
5.7574086189

> <CNN_VS>
3.9584009647

> <CNNaffinity_variance>
0.0184337739

$$$$
/media/chris/experiments/cd1a-new-docking/inputs/ligands/6nux_ligand.pdb


 17 16  0  0  0  0  0  0  0  0999 V2000
  -38.4697   57.5578   61.3715 C   0  0  0  0  0  0  0  0  0  0  0  0
  -39.5113   58.2372   60.5287 C   0  0  0  0  0  0  0  0  0  0  0  0
  -38.8475   56.6198   62.2513 C   0  0  0  0  0  0  0  0  0  0  0  0
  -37.0055   57.9176   61.2319 C   0  0  0  0  0  0  0  0  0  0  0  0
  -36.1792   57.2524   62.3277 C   0  0  0  0  0  0  0  0  0  0  0  0
  -34.5474   58.3533   64.4097 C   0  0  0  0  0  0  0  0  0  0  0  0
  -33.9439   58.0133   63.0812 C   0  0  0  0  0  0  0  0  0  0  0  0
  -32.4830   58.2549   62.8470 C   0  0  0  0  0  0  0  0  0  0  0  0
  -34.7051   57.4996   62.1036 C   0  0  0  0  0  0  0  0  0  0  0  0
  -40.3068   56.2520   62.3911 C   0  0  0  0  0  0  0  0  0  0  0  0
  -40.7487   56.3972   63.8423 C   0  0  0  0  0  0  0  0  0  0  0  0
  -40.9086   57.8609   64.1922 C   0  0  0  0  0  0  0  0  0  0  0  0
  -41.8575   58.7124   63.4073 C   0  0  0  0  0  0  0  0  0  0  0  0
  -40.2142   58.3972   65.2066 C   0  0  0  0  0  0  0  0  0  0  0  0
  -39.1431   60.3537   66.1321 O   0  0  0  0  0  0  0  0  0  0  0  0
  -40.3641   59.8560   65.5739 C   0  0  0  0  0  0  0  0  0  0  0  0
  -39.2511   61.2894   66.3637 H   0  0  0  0  0  0  0  0  0  0  0  0
  6  7  1  0  0  0
 15 16  1  0  0  0
 15 17  1  0  0  0
  7  8  1  0  0  0
  7  9  2  0  0  0
  9  5  1  0  0  0
  5  4  1  0  0  0
  4  1  1  0  0  0
  1  2  1  0  0  0
  1  3  2  0  0  0
  3 10  1  0  0  0
 10 11  1  0  0  0
 11 12  1  0  0  0
 12 13  1  0  0  0
 12 14  2  0  0  0
 14 16  1  0  0  0
M  END
> <minimizedAffinity>
-6.89189

> <CNNscore>
0.6611816883

> <CNNaffinity>
5.6230936050

> <CNN_VS>
3.7178864479

> <CNNaffinity_variance>
0.0203230716

$$$$
/media/chris/experiments/cd1a-new-docking/inputs/ligands/6nux_ligand.pdb


 17 16  0  0  0  0  0  0  0  0999 V2000
  -38.2535   57.5098   61.4577 C   0  0  0  0  0  0  0  0  0  0  0  0
  -39.2835   58.1452   60.5676 C   0  0  0  0  0  0  0  0  0  0  0  0
  -38.6446   56.6253   62.3858 C   0  0  0  0  0  0  0  0  0  0  0  0
  -36.7863   57.8542   61.3121 C   0  0  0  0  0  0  0  0  0  0  0  0
  -35.9885   57.3326   62.5028 C   0  0  0  0  0  0  0  0  0  0  0  0
  -33.3607   56.4913   61.7304 C   0  0  0  0  0  0  0  0  0  0  0  0
  -33.5600   57.8173   62.3986 C   0  0  0  0  0  0  0  0  0  0  0  0
  -32.3770   58.6994   62.6630 C   0  0  0  0  0  0  0  0  0  0  0  0
  -34.7884   58.2135   62.7634 C   0  0  0  0  0  0  0  0  0  0  0  0
  -40.1071   56.2730   62.5321 C   0  0  0  0  0  0  0  0  0  0  0  0
  -40.7216   57.0502   63.6899 C   0  0  0  0  0  0  0  0  0  0  0  0
  -41.7866   57.9938   63.1743 C   0  0  0  0  0  0  0  0  0  0  0  0
  -43.0396   57.4401   62.5703 C   0  0  0  0  0  0  0  0  0  0  0  0
  -41.6199   59.3216   63.2645 C   0  0  0  0  0  0  0  0  0  0  0  0
  -43.5007   60.7217   63.8422 O   0  0  0  0  0  0  0  0  0  0  0  0
  -42.6745   60.2797   62.7594 C   0  0  0  0  0  0  0  0  0  0  0  0
  -44.1728   61.3352   63.5065 H   0  0  0  0  0  0  0  0  0  0  0  0
  6  7  1  0  0  0
 15 16  1  0  0  0
 15 17  1  0  0  0
  7  8  1  0  0  0
  7  9  2  0  0  0
  9  5  1  0  0  0
  5  4  1  0  0  0
  4  1  1  0  0  0
  1  2  1  0  0  0
  1  3  2  0  0  0
  3 10  1  0  0  0
 10 11  1  0  0  0
 11 12  1  0  0  0
 12 13  1  0  0  0
 12 14  2  0  0  0
 14 16  1  0  0  0
M  END
> <minimizedAffinity>
-6.61741

> <CNNscore>
0.6118534207

> <CNNaffinity>
5.5888109207

> <CNN_VS>
3.4195330143

> <CNNaffinity_variance>
0.0289489236

$$$$
/media/chris/experiments/cd1a-new-docking/inputs/ligands/6nux_ligand.pdb


 17 16  0  0  0  0  0  0  0  0999 V2000
  -38.6893   57.5487   61.4598 C   0  0  0  0  0  0  0  0  0  0  0  0
  -38.5539   58.6388   60.4351 C   0  0  0  0  0  0  0  0  0  0  0  0
  -37.5894   57.0721   62.0596 C   0  0  0  0  0  0  0  0  0  0  0  0
  -40.0499   56.9917   61.8223 C   0  0  0  0  0  0  0  0  0  0  0  0
  -40.1231   56.6720   63.3118 C   0  0  0  0  0  0  0  0  0  0  0  0
  -38.4818   57.9725   65.2674 C   0  0  0  0  0  0  0  0  0  0  0  0
  -39.8687   58.4709   64.9978 C   0  0  0  0  0  0  0  0  0  0  0  0
  -40.3933   59.6513   65.7588 C   0  0  0  0  0  0  0  0  0  0  0  0
  -40.6406   57.8633   64.0846 C   0  0  0  0  0  0  0  0  0  0  0  0
  -36.2291   57.6280   61.7064 C   0  0  0  0  0  0  0  0  0  0  0  0
  -35.2995   57.5480   62.9112 C   0  0  0  0  0  0  0  0  0  0  0  0
  -33.8603   57.6950   62.4669 C   0  0  0  0  0  0  0  0  0  0  0  0
  -33.1841   56.5649   61.7548 C   0  0  0  0  0  0  0  0  0  0  0  0
  -33.1906   58.8340   62.6974 C   0  0  0  0  0  0  0  0  0  0  0  0
  -31.5086   60.3591   61.8751 O   0  0  0  0  0  0  0  0  0  0  0  0
  -31.7542   59.0011   62.2568 C   0  0  0  0  0  0  0  0  0  0  0  0
  -30.5849   60.4542   61.5946 H   0  0  0  0  0  0  0  0  0  0  0  0
  6  7  1  0  0  0
 15 16  1  0  0  0
 15 17  1  0  0  0
  7  8  1  0  0  0
  7  9  2  0  0  0
  9  5  1  0  0  0
  5  4  1  0  0  0
  4  1  1  0  0  0
  1  2  1  0  0  0
  1  3  2  0  0  0
  3 10  1  0  0  0
 10 11  1  0  0  0
 11 12  1  0  0  0
 12 13  1  0  0  0
 12 14  2  0  0  0
 14 16  1  0  0  0
M  END
> <minimizedAffinity>
-6.99177

> <CNNscore>
0.5829522610

> <CNNaffinity>
5.6836991310

> <CNN_VS>
3.3133251667

> <CNNaffinity_variance>
0.0745286793

$$$$
/media/chris/experiments/cd1a-new-docking/inputs/ligands/6nux_ligand.pdb


 17 16  0  0  0  0  0  0  0  0999 V2000
  -37.4280   57.4234   62.6701 C   0  0  0  0  0  0  0  0  0  0  0  0
  -38.7482   56.8669   62.2181 C   0  0  0  0  0  0  0  0  0  0  0  0
  -37.2731   57.7861   63.9512 C   0  0  0  0  0  0  0  0  0  0  0  0
  -36.2767   57.5714   61.6979 C   0  0  0  0  0  0  0  0  0  0  0  0
  -35.0357   56.8527   62.2170 C   0  0  0  0  0  0  0  0  0  0  0  0
  -33.5124   58.3805   64.1024 C   0  0  0  0  0  0  0  0  0  0  0  0
  -33.0713   58.2936   62.6732 C   0  0  0  0  0  0  0  0  0  0  0  0
  -31.8308   59.0125   62.2352 C   0  0  0  0  0  0  0  0  0  0  0  0
  -33.7830   57.5810   61.7874 C   0  0  0  0  0  0  0  0  0  0  0  0
  -38.4167   57.6352   64.9278 C   0  0  0  0  0  0  0  0  0  0  0  0
  -38.9788   59.0034   65.2943 C   0  0  0  0  0  0  0  0  0  0  0  0
  -40.4782   58.9157   65.4801 C   0  0  0  0  0  0  0  0  0  0  0  0
  -41.2347   57.7711   64.8808 C   0  0  0  0  0  0  0  0  0  0  0  0
  -41.1316   59.8501   66.1864 C   0  0  0  0  0  0  0  0  0  0  0  0
  -42.9447   59.8466   67.7814 O   0  0  0  0  0  0  0  0  0  0  0  0
  -42.6282   59.7767   66.3867 C   0  0  0  0  0  0  0  0  0  0  0  0
  -43.9066   59.7986   67.8975 H   0  0  0  0  0  0  0  0  0  0  0  0
  6  7  1  0  0  0
 15 16  1  0  0  0
 15 17  1  0  0  0
  7  8  1  0  0  0
  7  9  2  0  0  0
  9  5  1  0  0  0
  5  4  1  0  0  0
  4  1  1  0  0  0
  1  2  1  0  0  0
  1  3  2  0  0  0
  3 10  1  0  0  0
 10 11  1  0  0  0
 11 12  1  0  0  0
 12 13  1  0  0  0
 12 14  2  0  0  0
 14 16  1  0  0  0
M  END
> <minimizedAffinity>
-6.56322

> <CNNscore>
0.4590104520

> <CNNaffinity>
5.3540015221

> <CNN_VS>
2.4575426579

> <CNNaffinity_variance>
0.0737511367

$$$$
