/media/chris/experiments/cd1a-new-docking/inputs/ligands/6nux_ligand.pdb


 17 16  0  0  0  0  0  0  0  0999 V2000
  -49.3482   59.2792   63.1935 C   0  0  0  0  0  0  0  0  0  0  0  0
  -49.1272   60.6771   63.6976 C   0  0  0  0  0  0  0  0  0  0  0  0
  -49.6763   58.3129   64.0626 C   0  0  0  0  0  0  0  0  0  0  0  0
  -49.2098   58.9565   61.7207 C   0  0  0  0  0  0  0  0  0  0  0  0
  -48.1054   57.9293   61.4944 C   0  0  0  0  0  0  0  0  0  0  0  0
  -47.8616   56.1652   59.2500 C   0  0  0  0  0  0  0  0  0  0  0  0
  -47.1522   57.4847   59.2500 C   0  0  0  0  0  0  0  0  0  0  0  0
  -46.3126   57.8750   58.0710 C   0  0  0  0  0  0  0  0  0  0  0  0
  -47.2624   58.3122   60.2999 C   0  0  0  0  0  0  0  0  0  0  0  0
  -49.8216   58.6299   65.5332 C   0  0  0  0  0  0  0  0  0  0  0  0
  -49.1378   57.5573   66.3722 C   0  0  0  0  0  0  0  0  0  0  0  0
  -47.6353   57.7264   66.3062 C   0  0  0  0  0  0  0  0  0  0  0  0
  -47.0214   59.0485   66.6479 C   0  0  0  0  0  0  0  0  0  0  0  0
  -46.8500   56.6977   65.9543 C   0  0  0  0  0  0  0  0  0  0  0  0
  -44.9358   57.1136   64.5422 O   0  0  0  0  0  0  0  0  0  0  0  0
  -45.3471   56.8462   65.8875 C   0  0  0  0  0  0  0  0  0  0  0  0
  -43.9708   57.2068   64.5116 H   0  0  0  0  0  0  0  0  0  0  0  0
  6  7  1  0  0  0
 15 16  1  0  0  0
 15 17  1  0  0  0
  7  8  1  0  0  0
  7  9  2  0  0  0
  9  5  1  0  0  0
  5  4  1  0  0  0
  4  1  1  0  0  0
  1  2  1  0  0  0
  1  3  2  0  0  0
  3 10  1  0  0  0
 10 11  1  0  0  0
 11 12  1  0  0  0
 12 13  1  0  0  0
 12 14  2  0  0  0
 14 16  1  0  0  0
M  END
> <minimizedAffinity>
-6.48470

> <CNNscore>
0.7849259377

> <CNNaffinity>
6.0459022522

> <CNN_VS>
4.7455854416

> <CNNaffinity_variance>
0.1602034271

$$$$
/media/chris/experiments/cd1a-new-docking/inputs/ligands/6nux_ligand.pdb


 17 16  0  0  0  0  0  0  0  0999 V2000
  -38.4650   57.5162   61.4574 C   0  0  0  0  0  0  0  0  0  0  0  0
  -39.5649   58.1303   60.6389 C   0  0  0  0  0  0  0  0  0  0  0  0
  -38.7753   56.6271   62.4112 C   0  0  0  0  0  0  0  0  0  0  0  0
  -37.0176   57.8869   61.2113 C   0  0  0  0  0  0  0  0  0  0  0  0
  -36.1186   57.3026   62.2960 C   0  0  0  0  0  0  0  0  0  0  0  0
  -34.3727   58.2999   64.3372 C   0  0  0  0  0  0  0  0  0  0  0  0
  -33.8517   58.0593   62.9532 C   0  0  0  0  0  0  0  0  0  0  0  0
  -32.4135   58.3458   62.6424 C   0  0  0  0  0  0  0  0  0  0  0  0
  -34.6667   57.5944   61.9947 C   0  0  0  0  0  0  0  0  0  0  0  0
  -40.2177   56.2486   62.6577 C   0  0  0  0  0  0  0  0  0  0  0  0
  -40.6685   56.7564   64.0219 C   0  0  0  0  0  0  0  0  0  0  0  0
  -42.1740   56.9093   64.0471 C   0  0  0  0  0  0  0  0  0  0  0  0
  -42.8578   57.7008   62.9759 C   0  0  0  0  0  0  0  0  0  0  0  0
  -42.9000   56.3320   65.0158 C   0  0  0  0  0  0  0  0  0  0  0  0
  -44.8647   56.4921   66.4108 O   0  0  0  0  0  0  0  0  0  0  0  0
  -44.4049   56.4697   65.0548 C   0  0  0  0  0  0  0  0  0  0  0  0
  -45.8305   56.5805   66.4233 H   0  0  0  0  0  0  0  0  0  0  0  0
  6  7  1  0  0  0
 15 16  1  0  0  0
 15 17  1  0  0  0
  7  8  1  0  0  0
  7  9  2  0  0  0
  9  5  1  0  0  0
  5  4  1  0  0  0
  4  1  1  0  0  0
  1  2  1  0  0  0
  1  3  2  0  0  0
  3 10  1  0  0  0
 10 11  1  0  0  0
 11 12  1  0  0  0
 12 13  1  0  0  0
 12 14  2  0  0  0
 14 16  1  0  0  0
M  END
> <minimizedAffinity>
-6.98662

> <CNNscore>
0.7354671955

> <CNNaffinity>
5.8070974350

> <CNN_VS>
4.2709298134

> <CNNaffinity_variance>
0.0411831364

$$$$
/media/chris/experiments/cd1a-new-docking/inputs/ligands/6nux_ligand.pdb


 17 16  0  0  0  0  0  0  0  0999 V2000
  -38.2429   58.1517   61.6783 C   0  0  0  0  0  0  0  0  0  0  0  0
  -37.8932   59.5275   62.1701 C   0  0  0  0  0  0  0  0  0  0  0  0
  -37.5149   57.1038   62.0888 C   0  0  0  0  0  0  0  0  0  0  0  0
  -39.4070   57.9401   60.7335 C   0  0  0  0  0  0  0  0  0  0  0  0
  -40.7250   57.9032   61.5001 C   0  0  0  0  0  0  0  0  0  0  0  0
  -40.6473   56.8347   64.1574 C   0  0  0  0  0  0  0  0  0  0  0  0
  -41.1052   55.9793   63.0158 C   0  0  0  0  0  0  0  0  0  0  0  0
  -41.5195   54.5615   63.2716 C   0  0  0  0  0  0  0  0  0  0  0  0
  -41.1409   56.4756   61.7702 C   0  0  0  0  0  0  0  0  0  0  0  0
  -36.3553   57.3079   63.0365 C   0  0  0  0  0  0  0  0  0  0  0  0
  -35.0440   56.9515   62.3470 C   0  0  0  0  0  0  0  0  0  0  0  0
  -33.9456   57.8860   62.8060 C   0  0  0  0  0  0  0  0  0  0  0  0
  -34.0157   58.5010   64.1693 C   0  0  0  0  0  0  0  0  0  0  0  0
  -32.9054   58.1584   62.0043 C   0  0  0  0  0  0  0  0  0  0  0  0
  -31.4035   59.9384   61.3661 O   0  0  0  0  0  0  0  0  0  0  0  0
  -31.7966   59.0856   62.4472 C   0  0  0  0  0  0  0  0  0  0  0  0
  -30.6924   60.5281   61.6617 H   0  0  0  0  0  0  0  0  0  0  0  0
  6  7  1  0  0  0
 15 16  1  0  0  0
 15 17  1  0  0  0
  7  8  1  0  0  0
  7  9  2  0  0  0
  9  5  1  0  0  0
  5  4  1  0  0  0
  4  1  1  0  0  0
  1  2  1  0  0  0
  1  3  2  0  0  0
  3 10  1  0  0  0
 10 11  1  0  0  0
 11 12  1  0  0  0
 12 13  1  0  0  0
 12 14  2  0  0  0
 14 16  1  0  0  0
M  END
> <minimizedAffinity>
-6.71604

> <CNNscore>
0.7238797545

> <CNNaffinity>
5.7909383774

> <CNN_VS>
4.1919431686

> <CNNaffinity_variance>
0.0088759419

$$$$
/media/chris/experiments/cd1a-new-docking/inputs/ligands/6nux_ligand.pdb


 17 16  0  0  0  0  0  0  0  0999 V2000
  -38.4574   57.5403   61.3881 C   0  0  0  0  0  0  0  0  0  0  0  0
  -39.4989   58.2259   60.5502 C   0  0  0  0  0  0  0  0  0  0  0  0
  -38.8375   56.6114   62.2765 C   0  0  0  0  0  0  0  0  0  0  0  0
  -36.9907   57.8838   61.2340 C   0  0  0  0  0  0  0  0  0  0  0  0
  -36.1653   57.2364   62.3412 C   0  0  0  0  0  0  0  0  0  0  0  0
  -34.5570   58.3599   64.4292 C   0  0  0  0  0  0  0  0  0  0  0  0
  -33.9421   58.0213   63.1056 C   0  0  0  0  0  0  0  0  0  0  0  0
  -32.4822   58.2762   62.8796 C   0  0  0  0  0  0  0  0  0  0  0  0
  -34.6924   57.4971   62.1252 C   0  0  0  0  0  0  0  0  0  0  0  0
  -40.2994   56.2600   62.4309 C   0  0  0  0  0  0  0  0  0  0  0  0
  -40.7266   56.4153   63.8853 C   0  0  0  0  0  0  0  0  0  0  0  0
  -40.8629   57.8821   64.2323 C   0  0  0  0  0  0  0  0  0  0  0  0
  -41.8321   58.7368   63.4762 C   0  0  0  0  0  0  0  0  0  0  0  0
  -40.1297   58.4184   65.2189 C   0  0  0  0  0  0  0  0  0  0  0  0
  -39.0412   60.3476   66.1809 O   0  0  0  0  0  0  0  0  0  0  0  0
  -40.2555   59.8803   65.5830 C   0  0  0  0  0  0  0  0  0  0  0  0
  -39.1337   61.2855   66.4100 H   0  0  0  0  0  0  0  0  0  0  0  0
  6  7  1  0  0  0
 15 16  1  0  0  0
 15 17  1  0  0  0
  7  8  1  0  0  0
  7  9  2  0  0  0
  9  5  1  0  0  0
  5  4  1  0  0  0
  4  1  1  0  0  0
  1  2  1  0  0  0
  1  3  2  0  0  0
  3 10  1  0  0  0
 10 11  1  0  0  0
 11 12  1  0  0  0
 12 13  1  0  0  0
 12 14  2  0  0  0
 14 16  1  0  0  0
M  END
> <minimizedAffinity>
-6.87508

> <CNNscore>
0.6468929052

> <CNNaffinity>
5.5999131203

> <CNN_VS>
3.6225440502

> <CNNaffinity_variance>
0.0256603900

$$$$
/media/chris/experiments/cd1a-new-docking/inputs/ligands/6nux_ligand.pdb


 17 16  0  0  0  0  0  0  0  0999 V2000
  -38.6381   57.6793   61.3145 C   0  0  0  0  0  0  0  0  0  0  0  0
  -38.4507   58.8568   60.4006 C   0  0  0  0  0  0  0  0  0  0  0  0
  -37.5707   57.1477   61.9267 C   0  0  0  0  0  0  0  0  0  0  0  0
  -40.0148   57.0954   61.5524 C   0  0  0  0  0  0  0  0  0  0  0  0
  -40.1301   56.5444   62.9699 C   0  0  0  0  0  0  0  0  0  0  0  0
  -38.8076   57.9324   65.0990 C   0  0  0  0  0  0  0  0  0  0  0  0
  -40.2672   58.1571   64.8470 C   0  0  0  0  0  0  0  0  0  0  0  0
  -41.0316   59.1095   65.7165 C   0  0  0  0  0  0  0  0  0  0  0  0
  -40.8900   57.5074   63.8525 C   0  0  0  0  0  0  0  0  0  0  0  0
  -36.1947   57.7297   61.6978 C   0  0  0  0  0  0  0  0  0  0  0  0
  -35.2580   57.3250   62.8296 C   0  0  0  0  0  0  0  0  0  0  0  0
  -33.8199   57.5633   62.4232 C   0  0  0  0  0  0  0  0  0  0  0  0
  -33.0258   56.4490   61.8154 C   0  0  0  0  0  0  0  0  0  0  0  0
  -33.2557   58.7681   62.5938 C   0  0  0  0  0  0  0  0  0  0  0  0
  -31.5966   60.4324   62.0379 O   0  0  0  0  0  0  0  0  0  0  0  0
  -31.8221   59.0264   62.1897 C   0  0  0  0  0  0  0  0  0  0  0  0
  -30.6746   60.5857   61.7788 H   0  0  0  0  0  0  0  0  0  0  0  0
  6  7  1  0  0  0
 15 16  1  0  0  0
 15 17  1  0  0  0
  7  8  1  0  0  0
  7  9  2  0  0  0
  9  5  1  0  0  0
  5  4  1  0  0  0
  4  1  1  0  0  0
  1  2  1  0  0  0
  1  3  2  0  0  0
  3 10  1  0  0  0
 10 11  1  0  0  0
 11 12  1  0  0  0
 12 13  1  0  0  0
 12 14  2  0  0  0
 14 16  1  0  0  0
M  END
> <minimizedAffinity>
-7.01961

> <CNNscore>
0.6258283854

> <CNNaffinity>
5.7207036018

> <CNN_VS>
3.5801787376

> <CNNaffinity_variance>
0.0551403537

$$$$
/media/chris/experiments/cd1a-new-docking/inputs/ligands/6nux_ligand.pdb


 17 16  0  0  0  0  0  0  0  0999 V2000
  -38.4343   57.5869   61.3722 C   0  0  0  0  0  0  0  0  0  0  0  0
  -39.4931   58.3360   60.6141 C   0  0  0  0  0  0  0  0  0  0  0  0
  -38.7994   56.6247   62.2310 C   0  0  0  0  0  0  0  0  0  0  0  0
  -36.9675   57.9040   61.1709 C   0  0  0  0  0  0  0  0  0  0  0  0
  -36.1198   57.2518   62.2583 C   0  0  0  0  0  0  0  0  0  0  0  0
  -34.5279   58.4347   64.3259 C   0  0  0  0  0  0  0  0  0  0  0  0
  -33.9112   58.0942   63.0036 C   0  0  0  0  0  0  0  0  0  0  0  0
  -32.4582   58.3783   62.7682 C   0  0  0  0  0  0  0  0  0  0  0  0
  -34.6539   57.5421   62.0327 C   0  0  0  0  0  0  0  0  0  0  0  0
  -40.2617   56.2996   62.4320 C   0  0  0  0  0  0  0  0  0  0  0  0
  -40.6346   56.4424   63.9026 C   0  0  0  0  0  0  0  0  0  0  0  0
  -40.2252   57.8076   64.4115 C   0  0  0  0  0  0  0  0  0  0  0  0
  -38.9321   57.9678   65.1489 C   0  0  0  0  0  0  0  0  0  0  0  0
  -41.0073   58.8758   64.1972 C   0  0  0  0  0  0  0  0  0  0  0  0
  -41.6537   61.1920   64.4184 O   0  0  0  0  0  0  0  0  0  0  0  0
  -40.6127   60.2481   64.6938 C   0  0  0  0  0  0  0  0  0  0  0  0
  -41.3897   62.0678   64.7410 H   0  0  0  0  0  0  0  0  0  0  0  0
  6  7  1  0  0  0
 15 16  1  0  0  0
 15 17  1  0  0  0
  7  8  1  0  0  0
  7  9  2  0  0  0
  9  5  1  0  0  0
  5  4  1  0  0  0
  4  1  1  0  0  0
  1  2  1  0  0  0
  1  3  2  0  0  0
  3 10  1  0  0  0
 10 11  1  0  0  0
 11 12  1  0  0  0
 12 13  1  0  0  0
 12 14  2  0  0  0
 14 16  1  0  0  0
M  END
> <minimizedAffinity>
-6.89006

> <CNNscore>
0.6069175005

> <CNNaffinity>
5.5602397919

> <CNN_VS>
3.3746068478

> <CNNaffinity_variance>
0.0350685455

$$$$
/media/chris/experiments/cd1a-new-docking/inputs/ligands/6nux_ligand.pdb


 17 16  0  0  0  0  0  0  0  0999 V2000
  -34.7248   58.5836   63.1104 C   0  0  0  0  0  0  0  0  0  0  0  0
  -33.2299   58.7290   63.0799 C   0  0  0  0  0  0  0  0  0  0  0  0
  -35.4762   59.6174   63.5147 C   0  0  0  0  0  0  0  0  0  0  0  0
  -35.3855   57.2892   62.6854 C   0  0  0  0  0  0  0  0  0  0  0  0
  -36.6254   57.5673   61.8419 C   0  0  0  0  0  0  0  0  0  0  0  0
  -39.2337   57.9693   60.7265 C   0  0  0  0  0  0  0  0  0  0  0  0
  -39.0490   57.0513   61.8960 C   0  0  0  0  0  0  0  0  0  0  0  0
  -40.2365   56.3471   62.4803 C   0  0  0  0  0  0  0  0  0  0  0  0
  -37.8298   56.8623   62.4220 C   0  0  0  0  0  0  0  0  0  0  0  0
  -34.8230   60.9140   63.9346 C   0  0  0  0  0  0  0  0  0  0  0  0
  -35.0333   61.1499   65.4253 C   0  0  0  0  0  0  0  0  0  0  0  0
  -34.5492   62.5325   65.8053 C   0  0  0  0  0  0  0  0  0  0  0  0
  -35.0405   63.1701   67.0677 C   0  0  0  0  0  0  0  0  0  0  0  0
  -33.6755   63.1854   65.0248 C   0  0  0  0  0  0  0  0  0  0  0  0
  -31.8352   64.4912   65.8848 O   0  0  0  0  0  0  0  0  0  0  0  0
  -33.1770   64.5650   65.3904 C   0  0  0  0  0  0  0  0  0  0  0  0
  -31.5264   65.3812   66.1159 H   0  0  0  0  0  0  0  0  0  0  0  0
  6  7  1  0  0  0
 15 16  1  0  0  0
 15 17  1  0  0  0
  7  8  1  0  0  0
  7  9  2  0  0  0
  9  5  1  0  0  0
  5  4  1  0  0  0
  4  1  1  0  0  0
  1  2  1  0  0  0
  1  3  2  0  0  0
  3 10  1  0  0  0
 10 11  1  0  0  0
 11 12  1  0  0  0
 12 13  1  0  0  0
 12 14  2  0  0  0
 14 16  1  0  0  0
M  END
> <minimizedAffinity>
-6.76016

> <CNNscore>
0.5106304884

> <CNNaffinity>
5.2807488441

> <CNN_VS>
2.6965112686

> <CNNaffinity_variance>
0.1229591370

$$$$
/media/chris/experiments/cd1a-new-docking/inputs/ligands/6nux_ligand.pdb


 17 16  0  0  0  0  0  0  0  0999 V2000
  -44.1975   58.2542   62.7854 C   0  0  0  0  0  0  0  0  0  0  0  0
  -43.7992   59.0488   63.9966 C   0  0  0  0  0  0  0  0  0  0  0  0
  -43.2634   57.5608   62.1196 C   0  0  0  0  0  0  0  0  0  0  0  0
  -45.6372   58.2260   62.3172 C   0  0  0  0  0  0  0  0  0  0  0  0
  -45.7139   57.9195   60.8251 C   0  0  0  0  0  0  0  0  0  0  0  0
  -46.5179   57.8765   58.0755 C   0  0  0  0  0  0  0  0  0  0  0  0
  -47.4911   57.4979   59.1497 C   0  0  0  0  0  0  0  0  0  0  0  0
  -48.8877   57.0995   58.7779 C   0  0  0  0  0  0  0  0  0  0  0  0
  -47.1188   57.5188   60.4381 C   0  0  0  0  0  0  0  0  0  0  0  0
  -41.8257   57.5803   62.5854 C   0  0  0  0  0  0  0  0  0  0  0  0
  -40.9886   56.6218   61.7472 C   0  0  0  0  0  0  0  0  0  0  0  0
  -39.6090   57.2008   61.5195 C   0  0  0  0  0  0  0  0  0  0  0  0
  -38.4500   56.6945   62.3206 C   0  0  0  0  0  0  0  0  0  0  0  0
  -39.4161   58.1561   60.5981 C   0  0  0  0  0  0  0  0  0  0  0  0
  -38.0520   60.1486   60.6271 O   0  0  0  0  0  0  0  0  0  0  0  0
  -38.0447   58.7430   60.3532 C   0  0  0  0  0  0  0  0  0  0  0  0
  -37.1679   60.5138   60.4666 H   0  0  0  0  0  0  0  0  0  0  0  0
  6  7  1  0  0  0
 15 16  1  0  0  0
 15 17  1  0  0  0
  7  8  1  0  0  0
  7  9  2  0  0  0
  9  5  1  0  0  0
  5  4  1  0  0  0
  4  1  1  0  0  0
  1  2  1  0  0  0
  1  3  2  0  0  0
  3 10  1  0  0  0
 10 11  1  0  0  0
 11 12  1  0  0  0
 12 13  1  0  0  0
 12 14  2  0  0  0
 14 16  1  0  0  0
M  END
> <minimizedAffinity>
-7.16160

> <CNNscore>
0.5082970858

> <CNNaffinity>
5.6768274307

> <CNN_VS>
2.8855147362

> <CNNaffinity_variance>
0.3910142481

$$$$
/media/chris/experiments/cd1a-new-docking/inputs/ligands/6nux_ligand.pdb


 17 16  0  0  0  0  0  0  0  0999 V2000
  -42.6063   56.9346   63.6209 C   0  0  0  0  0  0  0  0  0  0  0  0
  -43.5772   57.7464   62.8116 C   0  0  0  0  0  0  0  0  0  0  0  0
  -41.2907   57.0937   63.4196 C   0  0  0  0  0  0  0  0  0  0  0  0
  -43.0986   55.9487   64.6594 C   0  0  0  0  0  0  0  0  0  0  0  0
  -43.9856   56.6444   65.6867 C   0  0  0  0  0  0  0  0  0  0  0  0
  -44.7824   59.3711   66.0594 C   0  0  0  0  0  0  0  0  0  0  0  0
  -43.5435   58.8522   66.7230 C   0  0  0  0  0  0  0  0  0  0  0  0
  -42.7225   59.7680   67.5800 C   0  0  0  0  0  0  0  0  0  0  0  0
  -43.1664   57.5768   66.5491 C   0  0  0  0  0  0  0  0  0  0  0  0
  -40.7930   58.0804   62.3886 C   0  0  0  0  0  0  0  0  0  0  0  0
  -40.0754   57.3466   61.2622 C   0  0  0  0  0  0  0  0  0  0  0  0
  -38.6135   57.7370   61.2372 C   0  0  0  0  0  0  0  0  0  0  0  0
  -38.1456   58.8021   60.2948 C   0  0  0  0  0  0  0  0  0  0  0  0
  -37.7369   57.1431   62.0604 C   0  0  0  0  0  0  0  0  0  0  0  0
  -35.9651   58.3249   63.1987 O   0  0  0  0  0  0  0  0  0  0  0  0
  -36.2737   57.5230   62.0531 C   0  0  0  0  0  0  0  0  0  0  0  0
  -35.0248   58.5624   63.1832 H   0  0  0  0  0  0  0  0  0  0  0  0
  6  7  1  0  0  0
 15 16  1  0  0  0
 15 17  1  0  0  0
  7  8  1  0  0  0
  7  9  2  0  0  0
  9  5  1  0  0  0
  5  4  1  0  0  0
  4  1  1  0  0  0
  1  2  1  0  0  0
  1  3  2  0  0  0
  3 10  1  0  0  0
 10 11  1  0  0  0
 11 12  1  0  0  0
 12 13  1  0  0  0
 12 14  2  0  0  0
 14 16  1  0  0  0
M  END
> <minimizedAffinity>
-6.58379

> <CNNscore>
0.4931349158

> <CNNaffinity>
5.4809365273

> <CNN_VS>
2.7028412819

> <CNNaffinity_variance>
0.0254651867

$$$$
