/media/chris/experiments/cd1a-new-docking/inputs/ligands/6nux_ligand.pdb


 17 16  0  0  0  0  0  0  0  0999 V2000
  -49.4706   58.8994   63.0491 C   0  0  0  0  0  0  0  0  0  0  0  0
  -49.6844   60.3206   62.6118 C   0  0  0  0  0  0  0  0  0  0  0  0
  -49.1053   57.9821   62.1426 C   0  0  0  0  0  0  0  0  0  0  0  0
  -49.6576   58.4986   64.4973 C   0  0  0  0  0  0  0  0  0  0  0  0
  -49.2732   59.6437   65.4285 C   0  0  0  0  0  0  0  0  0  0  0  0
  -46.4830   60.0779   64.9432 C   0  0  0  0  0  0  0  0  0  0  0  0
  -46.9307   59.3945   66.1991 C   0  0  0  0  0  0  0  0  0  0  0  0
  -45.9108   58.9372   67.1981 C   0  0  0  0  0  0  0  0  0  0  0  0
  -48.2360   59.1877   66.4286 C   0  0  0  0  0  0  0  0  0  0  0  0
  -48.9114   58.3771   60.6967 C   0  0  0  0  0  0  0  0  0  0  0  0
  -47.4951   58.0415   60.2455 C   0  0  0  0  0  0  0  0  0  0  0  0
  -47.5003   57.6142   58.7937 C   0  0  0  0  0  0  0  0  0  0  0  0
  -46.4073   58.0750   57.8804 C   0  0  0  0  0  0  0  0  0  0  0  0
  -48.4713   56.8176   58.3230 C   0  0  0  0  0  0  0  0  0  0  0  0
  -47.9721   55.0472   56.7585 O   0  0  0  0  0  0  0  0  0  0  0  0
  -48.4908   56.3766   56.8771 C   0  0  0  0  0  0  0  0  0  0  0  0
  -47.9894   54.7753   55.8274 H   0  0  0  0  0  0  0  0  0  0  0  0
  6  7  1  0  0  0
 15 16  1  0  0  0
 15 17  1  0  0  0
  7  8  1  0  0  0
  7  9  2  0  0  0
  9  5  1  0  0  0
  5  4  1  0  0  0
  4  1  1  0  0  0
  1  2  1  0  0  0
  1  3  2  0  0  0
  3 10  1  0  0  0
 10 11  1  0  0  0
 11 12  1  0  0  0
 12 13  1  0  0  0
 12 14  2  0  0  0
 14 16  1  0  0  0
M  END
> <minimizedAffinity>
-7.11153

> <CNNscore>
0.7242651582

> <CNNaffinity>
6.0919575691

> <CNN_VS>
4.4121928215

> <CNNaffinity_variance>
0.1664077640

$$$$
/media/chris/experiments/cd1a-new-docking/inputs/ligands/6nux_ligand.pdb


 17 16  0  0  0  0  0  0  0  0999 V2000
  -49.9786   58.4447   60.9670 C   0  0  0  0  0  0  0  0  0  0  0  0
  -49.9925   59.9415   60.8389 C   0  0  0  0  0  0  0  0  0  0  0  0
  -49.6494   57.8900   62.1419 C   0  0  0  0  0  0  0  0  0  0  0  0
  -50.3368   57.5637   59.7888 C   0  0  0  0  0  0  0  0  0  0  0  0
  -49.2439   56.5305   59.5351 C   0  0  0  0  0  0  0  0  0  0  0  0
  -46.5446   57.3583   60.0228 C   0  0  0  0  0  0  0  0  0  0  0  0
  -47.0899   57.3548   58.6273 C   0  0  0  0  0  0  0  0  0  0  0  0
  -46.2165   57.7892   57.4890 C   0  0  0  0  0  0  0  0  0  0  0  0
  -48.3538   56.9699   58.3955 C   0  0  0  0  0  0  0  0  0  0  0  0
  -49.2965   58.7642   63.3233 C   0  0  0  0  0  0  0  0  0  0  0  0
  -48.0393   58.2411   64.0073 C   0  0  0  0  0  0  0  0  0  0  0  0
  -48.4000   57.5770   65.3185 C   0  0  0  0  0  0  0  0  0  0  0  0
  -49.6878   57.9257   65.9977 C   0  0  0  0  0  0  0  0  0  0  0  0
  -47.5790   56.6712   65.8704 C   0  0  0  0  0  0  0  0  0  0  0  0
  -47.0967   56.5001   68.2302 O   0  0  0  0  0  0  0  0  0  0  0  0
  -47.9244   55.9941   67.1771 C   0  0  0  0  0  0  0  0  0  0  0  0
  -47.3270   56.0588   69.0629 H   0  0  0  0  0  0  0  0  0  0  0  0
  6  7  1  0  0  0
 15 16  1  0  0  0
 15 17  1  0  0  0
  7  8  1  0  0  0
  7  9  2  0  0  0
  9  5  1  0  0  0
  5  4  1  0  0  0
  4  1  1  0  0  0
  1  2  1  0  0  0
  1  3  2  0  0  0
  3 10  1  0  0  0
 10 11  1  0  0  0
 11 12  1  0  0  0
 12 13  1  0  0  0
 12 14  2  0  0  0
 14 16  1  0  0  0
M  END
> <minimizedAffinity>
-7.82137

> <CNNscore>
0.7158035636

> <CNNaffinity>
5.9774222374

> <CNN_VS>
4.2786602974

> <CNNaffinity_variance>
0.0856697112

$$$$
/media/chris/experiments/cd1a-new-docking/inputs/ligands/6nux_ligand.pdb


 17 16  0  0  0  0  0  0  0  0999 V2000
  -48.7462   60.5231   61.8728 C   0  0  0  0  0  0  0  0  0  0  0  0
  -49.8998   60.1841   60.9722 C   0  0  0  0  0  0  0  0  0  0  0  0
  -47.4957   60.4358   61.3979 C   0  0  0  0  0  0  0  0  0  0  0  0
  -48.9833   60.9650   63.3015 C   0  0  0  0  0  0  0  0  0  0  0  0
  -49.9023   59.9856   64.0242 C   0  0  0  0  0  0  0  0  0  0  0  0
  -48.9153   59.3208   66.6306 C   0  0  0  0  0  0  0  0  0  0  0  0
  -48.7327   58.3656   65.4909 C   0  0  0  0  0  0  0  0  0  0  0  0
  -48.0288   57.0624   65.7215 C   0  0  0  0  0  0  0  0  0  0  0  0
  -49.1917   58.6744   64.2689 C   0  0  0  0  0  0  0  0  0  0  0  0
  -47.2528   60.0009   59.9710 C   0  0  0  0  0  0  0  0  0  0  0  0
  -46.5285   58.6604   59.9462 C   0  0  0  0  0  0  0  0  0  0  0  0
  -46.9921   57.8418   58.7607 C   0  0  0  0  0  0  0  0  0  0  0  0
  -46.1783   57.8282   57.5042 C   0  0  0  0  0  0  0  0  0  0  0  0
  -48.1209   57.1209   58.8319 C   0  0  0  0  0  0  0  0  0  0  0  0
  -48.1597   54.9376   57.8011 O   0  0  0  0  0  0  0  0  0  0  0  0
  -48.5974   56.2936   57.6598 C   0  0  0  0  0  0  0  0  0  0  0  0
  -48.4709   54.4168   57.0442 H   0  0  0  0  0  0  0  0  0  0  0  0
  6  7  1  0  0  0
 15 16  1  0  0  0
 15 17  1  0  0  0
  7  8  1  0  0  0
  7  9  2  0  0  0
  9  5  1  0  0  0
  5  4  1  0  0  0
  4  1  1  0  0  0
  1  2  1  0  0  0
  1  3  2  0  0  0
  3 10  1  0  0  0
 10 11  1  0  0  0
 11 12  1  0  0  0
 12 13  1  0  0  0
 12 14  2  0  0  0
 14 16  1  0  0  0
M  END
> <minimizedAffinity>
-6.92106

> <CNNscore>
0.6945689917

> <CNNaffinity>
5.9951477051

> <CNN_VS>
4.1640439034

> <CNNaffinity_variance>
0.0581521466

$$$$
/media/chris/experiments/cd1a-new-docking/inputs/ligands/6nux_ligand.pdb


 17 16  0  0  0  0  0  0  0  0999 V2000
  -49.9585   58.3902   60.9869 C   0  0  0  0  0  0  0  0  0  0  0  0
  -49.9332   59.8824   60.8149 C   0  0  0  0  0  0  0  0  0  0  0  0
  -49.6471   57.8620   62.1789 C   0  0  0  0  0  0  0  0  0  0  0  0
  -50.3359   57.4843   59.8338 C   0  0  0  0  0  0  0  0  0  0  0  0
  -49.2225   56.4821   59.5476 C   0  0  0  0  0  0  0  0  0  0  0  0
  -46.5281   57.3337   60.0211 C   0  0  0  0  0  0  0  0  0  0  0  0
  -47.0929   57.3615   58.6337 C   0  0  0  0  0  0  0  0  0  0  0  0
  -46.2416   57.8397   57.4962 C   0  0  0  0  0  0  0  0  0  0  0  0
  -48.3546   56.9655   58.4086 C   0  0  0  0  0  0  0  0  0  0  0  0
  -49.2752   58.7612   63.3353 C   0  0  0  0  0  0  0  0  0  0  0  0
  -49.7340   58.1431   64.6504 C   0  0  0  0  0  0  0  0  0  0  0  0
  -48.5349   57.7222   65.4723 C   0  0  0  0  0  0  0  0  0  0  0  0
  -47.1611   57.8217   64.8858 C   0  0  0  0  0  0  0  0  0  0  0  0
  -48.6940   57.2709   66.7253 C   0  0  0  0  0  0  0  0  0  0  0  0
  -47.0896   57.9301   68.4052 O   0  0  0  0  0  0  0  0  0  0  0  0
  -47.5081   56.8503   67.5631 C   0  0  0  0  0  0  0  0  0  0  0  0
  -46.3289   57.6490   68.9374 H   0  0  0  0  0  0  0  0  0  0  0  0
  6  7  1  0  0  0
 15 16  1  0  0  0
 15 17  1  0  0  0
  7  8  1  0  0  0
  7  9  2  0  0  0
  9  5  1  0  0  0
  5  4  1  0  0  0
  4  1  1  0  0  0
  1  2  1  0  0  0
  1  3  2  0  0  0
  3 10  1  0  0  0
 10 11  1  0  0  0
 11 12  1  0  0  0
 12 13  1  0  0  0
 12 14  2  0  0  0
 14 16  1  0  0  0
M  END
> <minimizedAffinity>
-7.74968

> <CNNscore>
0.6834312677

> <CNNaffinity>
5.8758211136

> <CNN_VS>
4.0157198906

> <CNNaffinity_variance>
0.1241014749

$$$$
/media/chris/experiments/cd1a-new-docking/inputs/ligands/6nux_ligand.pdb


 17 16  0  0  0  0  0  0  0  0999 V2000
  -49.9849   58.4452   60.9625 C   0  0  0  0  0  0  0  0  0  0  0  0
  -49.9437   59.9413   60.8320 C   0  0  0  0  0  0  0  0  0  0  0  0
  -49.7099   57.8824   62.1475 C   0  0  0  0  0  0  0  0  0  0  0  0
  -50.3378   57.5741   59.7753 C   0  0  0  0  0  0  0  0  0  0  0  0
  -49.2410   56.5470   59.5141 C   0  0  0  0  0  0  0  0  0  0  0  0
  -48.2701   56.2935   56.8304 C   0  0  0  0  0  0  0  0  0  0  0  0
  -47.5132   57.1138   57.8298 C   0  0  0  0  0  0  0  0  0  0  0  0
  -46.2445   57.7983   57.4183 C   0  0  0  0  0  0  0  0  0  0  0  0
  -47.9636   57.2330   59.0876 C   0  0  0  0  0  0  0  0  0  0  0  0
  -49.3626   58.7468   63.3376 C   0  0  0  0  0  0  0  0  0  0  0  0
  -48.6793   57.9108   64.4129 C   0  0  0  0  0  0  0  0  0  0  0  0
  -47.2534   58.3795   64.6068 C   0  0  0  0  0  0  0  0  0  0  0  0
  -46.9371   59.8413   64.5404 C   0  0  0  0  0  0  0  0  0  0  0  0
  -46.2740   57.4955   64.8479 C   0  0  0  0  0  0  0  0  0  0  0  0
  -44.0718   57.6761   63.8739 O   0  0  0  0  0  0  0  0  0  0  0  0
  -44.8447   57.9452   65.0488 C   0  0  0  0  0  0  0  0  0  0  0  0
  -43.1575   57.9684   64.0143 H   0  0  0  0  0  0  0  0  0  0  0  0
  6  7  1  0  0  0
 15 16  1  0  0  0
 15 17  1  0  0  0
  7  8  1  0  0  0
  7  9  2  0  0  0
  9  5  1  0  0  0
  5  4  1  0  0  0
  4  1  1  0  0  0
  1  2  1  0  0  0
  1  3  2  0  0  0
  3 10  1  0  0  0
 10 11  1  0  0  0
 11 12  1  0  0  0
 12 13  1  0  0  0
 12 14  2  0  0  0
 14 16  1  0  0  0
M  END
> <minimizedAffinity>
-7.04766

> <CNNscore>
0.6329938173

> <CNNaffinity>
5.6976318359

> <CNN_VS>
3.6065657139

> <CNNaffinity_variance>
0.1333478987

$$$$
/media/chris/experiments/cd1a-new-docking/inputs/ligands/6nux_ligand.pdb


 17 16  0  0  0  0  0  0  0  0999 V2000
  -38.3596   57.5348   61.4320 C   0  0  0  0  0  0  0  0  0  0  0  0
  -39.4353   58.1968   60.6186 C   0  0  0  0  0  0  0  0  0  0  0  0
  -38.7015   56.6250   62.3551 C   0  0  0  0  0  0  0  0  0  0  0  0
  -36.9016   57.8807   61.2150 C   0  0  0  0  0  0  0  0  0  0  0  0
  -36.0250   57.2109   62.2681 C   0  0  0  0  0  0  0  0  0  0  0  0
  -34.4954   58.9325   63.9727 C   0  0  0  0  0  0  0  0  0  0  0  0
  -33.8502   58.2800   62.7884 C   0  0  0  0  0  0  0  0  0  0  0  0
  -32.4016   58.5351   62.4993 C   0  0  0  0  0  0  0  0  0  0  0  0
  -34.5637   57.4750   61.9870 C   0  0  0  0  0  0  0  0  0  0  0  0
  -40.1547   56.2713   62.5724 C   0  0  0  0  0  0  0  0  0  0  0  0
  -40.5972   56.6997   63.9662 C   0  0  0  0  0  0  0  0  0  0  0  0
  -42.0821   56.9921   63.9724 C   0  0  0  0  0  0  0  0  0  0  0  0
  -42.7970   57.2307   62.6788 C   0  0  0  0  0  0  0  0  0  0  0  0
  -42.7632   57.0286   65.1273 C   0  0  0  0  0  0  0  0  0  0  0  0
  -44.9743   56.1259   65.4835 O   0  0  0  0  0  0  0  0  0  0  0  0
  -44.2474   57.3145   65.1529 C   0  0  0  0  0  0  0  0  0  0  0  0
  -45.9244   56.3213   65.4969 H   0  0  0  0  0  0  0  0  0  0  0  0
  6  7  1  0  0  0
 15 16  1  0  0  0
 15 17  1  0  0  0
  7  8  1  0  0  0
  7  9  2  0  0  0
  9  5  1  0  0  0
  5  4  1  0  0  0
  4  1  1  0  0  0
  1  2  1  0  0  0
  1  3  2  0  0  0
  3 10  1  0  0  0
 10 11  1  0  0  0
 11 12  1  0  0  0
 12 13  1  0  0  0
 12 14  2  0  0  0
 14 16  1  0  0  0
M  END
> <minimizedAffinity>
-6.92273

> <CNNscore>
0.6219388843

> <CNNaffinity>
5.6890020370

> <CNN_VS>
3.5382115841

> <CNNaffinity_variance>
0.0197471734

$$$$
/media/chris/experiments/cd1a-new-docking/inputs/ligands/6nux_ligand.pdb


 17 16  0  0  0  0  0  0  0  0999 V2000
  -49.2203   59.6341   62.1766 C   0  0  0  0  0  0  0  0  0  0  0  0
  -49.5994   58.2001   62.4147 C   0  0  0  0  0  0  0  0  0  0  0  0
  -49.2693   60.5034   63.1957 C   0  0  0  0  0  0  0  0  0  0  0  0
  -48.7809   60.1011   60.8049 C   0  0  0  0  0  0  0  0  0  0  0  0
  -47.2752   59.9297   60.6327 C   0  0  0  0  0  0  0  0  0  0  0  0
  -46.5137   57.2252   60.0715 C   0  0  0  0  0  0  0  0  0  0  0  0
  -46.5951   58.2293   58.9625 C   0  0  0  0  0  0  0  0  0  0  0  0
  -46.2734   57.8116   57.5592 C   0  0  0  0  0  0  0  0  0  0  0  0
  -46.9492   59.4968   59.2219 C   0  0  0  0  0  0  0  0  0  0  0  0
  -49.7015   60.0421   64.5686 C   0  0  0  0  0  0  0  0  0  0  0  0
  -48.4835   59.6721   65.4063 C   0  0  0  0  0  0  0  0  0  0  0  0
  -48.7052   58.3364   66.0826 C   0  0  0  0  0  0  0  0  0  0  0  0
  -50.0952   57.8000   66.2287 C   0  0  0  0  0  0  0  0  0  0  0  0
  -47.6644   57.6260   66.5421 C   0  0  0  0  0  0  0  0  0  0  0  0
  -47.5582   55.2251   66.3073 O   0  0  0  0  0  0  0  0  0  0  0  0
  -47.8657   56.2880   67.2162 C   0  0  0  0  0  0  0  0  0  0  0  0
  -47.6909   54.3723   66.7502 H   0  0  0  0  0  0  0  0  0  0  0  0
  6  7  1  0  0  0
 15 16  1  0  0  0
 15 17  1  0  0  0
  7  8  1  0  0  0
  7  9  2  0  0  0
  9  5  1  0  0  0
  5  4  1  0  0  0
  4  1  1  0  0  0
  1  2  1  0  0  0
  1  3  2  0  0  0
  3 10  1  0  0  0
 10 11  1  0  0  0
 11 12  1  0  0  0
 12 13  1  0  0  0
 12 14  2  0  0  0
 14 16  1  0  0  0
M  END
> <minimizedAffinity>
-7.22938

> <CNNscore>
0.6213960052

> <CNNaffinity>
5.8428101540

> <CNN_VS>
3.6306989193

> <CNNaffinity_variance>
0.1829457432

$$$$
/media/chris/experiments/cd1a-new-docking/inputs/ligands/6nux_ligand.pdb


 17 16  0  0  0  0  0  0  0  0999 V2000
  -37.7325   57.2203   62.7049 C   0  0  0  0  0  0  0  0  0  0  0  0
  -37.9450   57.5785   64.1483 C   0  0  0  0  0  0  0  0  0  0  0  0
  -38.7460   56.6926   62.0041 C   0  0  0  0  0  0  0  0  0  0  0  0
  -36.3933   57.4545   62.0382 C   0  0  0  0  0  0  0  0  0  0  0  0
  -35.2529   57.2459   63.0293 C   0  0  0  0  0  0  0  0  0  0  0  0
  -32.6951   56.5460   61.9444 C   0  0  0  0  0  0  0  0  0  0  0  0
  -32.9880   57.9652   62.3249 C   0  0  0  0  0  0  0  0  0  0  0  0
  -31.9349   59.0155   62.1373 C   0  0  0  0  0  0  0  0  0  0  0  0
  -34.1836   58.2962   62.8350 C   0  0  0  0  0  0  0  0  0  0  0  0
  -40.0868   56.4619   62.6623 C   0  0  0  0  0  0  0  0  0  0  0  0
  -41.1556   57.3160   61.9913 C   0  0  0  0  0  0  0  0  0  0  0  0
  -41.1081   58.7279   62.5342 C   0  0  0  0  0  0  0  0  0  0  0  0
  -40.6296   59.8441   61.6588 C   0  0  0  0  0  0  0  0  0  0  0  0
  -41.5015   58.9870   63.7901 C   0  0  0  0  0  0  0  0  0  0  0  0
  -40.5922   60.4510   65.4815 O   0  0  0  0  0  0  0  0  0  0  0  0
  -41.4655   60.3914   64.3483 C   0  0  0  0  0  0  0  0  0  0  0  0
  -40.5772   61.3559   65.8309 H   0  0  0  0  0  0  0  0  0  0  0  0
  6  7  1  0  0  0
 15 16  1  0  0  0
 15 17  1  0  0  0
  7  8  1  0  0  0
  7  9  2  0  0  0
  9  5  1  0  0  0
  5  4  1  0  0  0
  4  1  1  0  0  0
  1  2  1  0  0  0
  1  3  2  0  0  0
  3 10  1  0  0  0
 10 11  1  0  0  0
 11 12  1  0  0  0
 12 13  1  0  0  0
 12 14  2  0  0  0
 14 16  1  0  0  0
M  END
> <minimizedAffinity>
-6.55743

> <CNNscore>
0.5899816751

> <CNNaffinity>
5.5711889267

> <CNN_VS>
3.2868993282

> <CNNaffinity_variance>
0.0342947170

$$$$
/media/chris/experiments/cd1a-new-docking/inputs/ligands/6nux_ligand.pdb


 17 16  0  0  0  0  0  0  0  0999 V2000
  -47.8940   59.7708   60.3223 C   0  0  0  0  0  0  0  0  0  0  0  0
  -47.9096   61.1752   60.8558 C   0  0  0  0  0  0  0  0  0  0  0  0
  -48.8070   58.8926   60.7604 C   0  0  0  0  0  0  0  0  0  0  0  0
  -46.8656   59.3439   59.2963 C   0  0  0  0  0  0  0  0  0  0  0  0
  -46.3935   57.9188   59.5655 C   0  0  0  0  0  0  0  0  0  0  0  0
  -48.0680   55.6038   59.3513 C   0  0  0  0  0  0  0  0  0  0  0  0
  -47.2089   56.0202   58.1967 C   0  0  0  0  0  0  0  0  0  0  0  0
  -47.2286   55.2175   56.9307 C   0  0  0  0  0  0  0  0  0  0  0  0
  -46.4222   57.1022   58.2941 C   0  0  0  0  0  0  0  0  0  0  0  0
  -49.8397   59.3143   61.7802 C   0  0  0  0  0  0  0  0  0  0  0  0
  -49.6380   58.5466   63.0809 C   0  0  0  0  0  0  0  0  0  0  0  0
  -49.2235   59.4954   64.1847 C   0  0  0  0  0  0  0  0  0  0  0  0
  -49.7833   60.8834   64.2196 C   0  0  0  0  0  0  0  0  0  0  0  0
  -48.3668   59.0978   65.1370 C   0  0  0  0  0  0  0  0  0  0  0  0
  -48.7762   59.8358   67.3994 O   0  0  0  0  0  0  0  0  0  0  0  0
  -47.9447   60.0298   66.2499 C   0  0  0  0  0  0  0  0  0  0  0  0
  -48.4965   60.4385   68.1062 H   0  0  0  0  0  0  0  0  0  0  0  0
  6  7  1  0  0  0
 15 16  1  0  0  0
 15 17  1  0  0  0
  7  8  1  0  0  0
  7  9  2  0  0  0
  9  5  1  0  0  0
  5  4  1  0  0  0
  4  1  1  0  0  0
  1  2  1  0  0  0
  1  3  2  0  0  0
  3 10  1  0  0  0
 10 11  1  0  0  0
 11 12  1  0  0  0
 12 13  1  0  0  0
 12 14  2  0  0  0
 14 16  1  0  0  0
M  END
> <minimizedAffinity>
-6.98573

> <CNNscore>
0.5497938395

> <CNNaffinity>
5.7153983116

> <CNN_VS>
3.1422908306

> <CNNaffinity_variance>
0.0306514092

$$$$
