/media/chris/experiments/cd1a-new-docking/inputs/ligands/6nux_ligand.pdb


 17 16  0  0  0  0  0  0  0  0999 V2000
  -39.2505   57.1811   61.6319 C   0  0  0  0  0  0  0  0  0  0  0  0
  -39.3188   58.2087   60.5381 C   0  0  0  0  0  0  0  0  0  0  0  0
  -38.0666   56.8983   62.1932 C   0  0  0  0  0  0  0  0  0  0  0  0
  -40.5009   56.4710   62.1060 C   0  0  0  0  0  0  0  0  0  0  0  0
  -40.5899   56.4927   63.6285 C   0  0  0  0  0  0  0  0  0  0  0  0
  -42.0782   58.0959   65.4789 C   0  0  0  0  0  0  0  0  0  0  0  0
  -42.6611   56.8212   64.9497 C   0  0  0  0  0  0  0  0  0  0  0  0
  -44.0253   56.3884   65.3957 C   0  0  0  0  0  0  0  0  0  0  0  0
  -41.9663   56.0672   64.0849 C   0  0  0  0  0  0  0  0  0  0  0  0
  -36.8157   57.6080   61.7283 C   0  0  0  0  0  0  0  0  0  0  0  0
  -35.6165   57.1523   62.5507 C   0  0  0  0  0  0  0  0  0  0  0  0
  -34.8234   58.3524   63.0208 C   0  0  0  0  0  0  0  0  0  0  0  0
  -33.3302   58.3439   62.9132 C   0  0  0  0  0  0  0  0  0  0  0  0
  -35.4497   59.4269   63.5230 C   0  0  0  0  0  0  0  0  0  0  0  0
  -34.6250   61.6253   62.9584 O   0  0  0  0  0  0  0  0  0  0  0  0
  -34.6748   60.6368   63.9931 C   0  0  0  0  0  0  0  0  0  0  0  0
  -34.1260   62.3959   63.2712 H   0  0  0  0  0  0  0  0  0  0  0  0
  6  7  1  0  0  0
 15 16  1  0  0  0
 15 17  1  0  0  0
  7  8  1  0  0  0
  7  9  2  0  0  0
  9  5  1  0  0  0
  5  4  1  0  0  0
  4  1  1  0  0  0
  1  2  1  0  0  0
  1  3  2  0  0  0
  3 10  1  0  0  0
 10 11  1  0  0  0
 11 12  1  0  0  0
 12 13  1  0  0  0
 12 14  2  0  0  0
 14 16  1  0  0  0
M  END
> <minimizedAffinity>
-6.70859

> <CNNscore>
0.8270529509

> <CNNaffinity>
5.9233579636

> <CNN_VS>
4.8989305496

> <CNNaffinity_variance>
0.0758457780

$$$$
/media/chris/experiments/cd1a-new-docking/inputs/ligands/6nux_ligand.pdb


 17 16  0  0  0  0  0  0  0  0999 V2000
  -38.4686   57.4973   61.4485 C   0  0  0  0  0  0  0  0  0  0  0  0
  -39.5352   58.1225   60.5950 C   0  0  0  0  0  0  0  0  0  0  0  0
  -38.8135   56.5762   62.3592 C   0  0  0  0  0  0  0  0  0  0  0  0
  -37.0161   57.8926   61.2853 C   0  0  0  0  0  0  0  0  0  0  0  0
  -36.1491   57.2092   62.3378 C   0  0  0  0  0  0  0  0  0  0  0  0
  -34.5105   58.3450   64.3956 C   0  0  0  0  0  0  0  0  0  0  0  0
  -33.9221   58.0279   63.0547 C   0  0  0  0  0  0  0  0  0  0  0  0
  -32.4730   58.3107   62.7954 C   0  0  0  0  0  0  0  0  0  0  0  0
  -34.6868   57.4980   62.0884 C   0  0  0  0  0  0  0  0  0  0  0  0
  -40.2609   56.1733   62.5228 C   0  0  0  0  0  0  0  0  0  0  0  0
  -40.7659   56.5760   63.9030 C   0  0  0  0  0  0  0  0  0  0  0  0
  -42.2406   56.9099   63.8391 C   0  0  0  0  0  0  0  0  0  0  0  0
  -42.8484   57.3412   62.5407 C   0  0  0  0  0  0  0  0  0  0  0  0
  -43.0080   56.8119   64.9347 C   0  0  0  0  0  0  0  0  0  0  0  0
  -45.2284   56.1581   65.6229 O   0  0  0  0  0  0  0  0  0  0  0  0
  -44.4837   57.1366   64.8892 C   0  0  0  0  0  0  0  0  0  0  0  0
  -46.1728   56.3766   65.5867 H   0  0  0  0  0  0  0  0  0  0  0  0
  6  7  1  0  0  0
 15 16  1  0  0  0
 15 17  1  0  0  0
  7  8  1  0  0  0
  7  9  2  0  0  0
  9  5  1  0  0  0
  5  4  1  0  0  0
  4  1  1  0  0  0
  1  2  1  0  0  0
  1  3  2  0  0  0
  3 10  1  0  0  0
 10 11  1  0  0  0
 11 12  1  0  0  0
 12 13  1  0  0  0
 12 14  2  0  0  0
 14 16  1  0  0  0
M  END
> <minimizedAffinity>
-7.02432

> <CNNscore>
0.6734616756

> <CNNaffinity>
5.7786149979

> <CNN_VS>
3.8916757107

> <CNNaffinity_variance>
0.0303747654

$$$$
/media/chris/experiments/cd1a-new-docking/inputs/ligands/6nux_ligand.pdb


 17 16  0  0  0  0  0  0  0  0999 V2000
  -49.5516   58.6101   62.8114 C   0  0  0  0  0  0  0  0  0  0  0  0
  -49.4218   60.0818   62.5391 C   0  0  0  0  0  0  0  0  0  0  0  0
  -49.6543   58.1841   64.0782 C   0  0  0  0  0  0  0  0  0  0  0  0
  -49.5731   57.6113   61.6737 C   0  0  0  0  0  0  0  0  0  0  0  0
  -49.4007   58.3168   60.3325 C   0  0  0  0  0  0  0  0  0  0  0  0
  -46.9378   59.5080   59.4813 C   0  0  0  0  0  0  0  0  0  0  0  0
  -47.2850   58.1137   59.0574 C   0  0  0  0  0  0  0  0  0  0  0  0
  -46.3382   57.3470   58.1837 C   0  0  0  0  0  0  0  0  0  0  0  0
  -48.4381   57.5536   59.4523 C   0  0  0  0  0  0  0  0  0  0  0  0
  -49.6393   59.1766   65.2179 C   0  0  0  0  0  0  0  0  0  0  0  0
  -49.1861   58.4945   66.5030 C   0  0  0  0  0  0  0  0  0  0  0  0
  -47.6834   58.3156   66.4936 C   0  0  0  0  0  0  0  0  0  0  0  0
  -46.7995   59.4783   66.1648 C   0  0  0  0  0  0  0  0  0  0  0  0
  -47.1385   57.1259   66.7877 C   0  0  0  0  0  0  0  0  0  0  0  0
  -45.2420   56.1549   65.6511 O   0  0  0  0  0  0  0  0  0  0  0  0
  -45.6396   56.9293   66.7880 C   0  0  0  0  0  0  0  0  0  0  0  0
  -44.2794   56.0355   65.6619 H   0  0  0  0  0  0  0  0  0  0  0  0
  6  7  1  0  0  0
 15 16  1  0  0  0
 15 17  1  0  0  0
  7  8  1  0  0  0
  7  9  2  0  0  0
  9  5  1  0  0  0
  5  4  1  0  0  0
  4  1  1  0  0  0
  1  2  1  0  0  0
  1  3  2  0  0  0
  3 10  1  0  0  0
 10 11  1  0  0  0
 11 12  1  0  0  0
 12 13  1  0  0  0
 12 14  2  0  0  0
 14 16  1  0  0  0
M  END
> <minimizedAffinity>
-6.85895

> <CNNscore>
0.6680405736

> <CNNaffinity>
5.9201035500

> <CNN_VS>
3.9548692703

> <CNNaffinity_variance>
0.2327843159

$$$$
/media/chris/experiments/cd1a-new-docking/inputs/ligands/6nux_ligand.pdb


 17 16  0  0  0  0  0  0  0  0999 V2000
  -38.3918   57.5616   61.4106 C   0  0  0  0  0  0  0  0  0  0  0  0
  -39.4232   58.1871   60.5152 C   0  0  0  0  0  0  0  0  0  0  0  0
  -38.7769   56.6605   62.3252 C   0  0  0  0  0  0  0  0  0  0  0  0
  -36.9295   57.9340   61.2852 C   0  0  0  0  0  0  0  0  0  0  0  0
  -36.0905   57.1810   62.3125 C   0  0  0  0  0  0  0  0  0  0  0  0
  -34.4988   58.4875   64.3047 C   0  0  0  0  0  0  0  0  0  0  0  0
  -33.8758   58.0428   63.0168 C   0  0  0  0  0  0  0  0  0  0  0  0
  -32.4166   58.2876   62.7757 C   0  0  0  0  0  0  0  0  0  0  0  0
  -34.6184   57.4326   62.0811 C   0  0  0  0  0  0  0  0  0  0  0  0
  -40.2343   56.2803   62.4514 C   0  0  0  0  0  0  0  0  0  0  0  0
  -40.7014   56.4587   63.8909 C   0  0  0  0  0  0  0  0  0  0  0  0
  -40.8659   57.9300   64.2045 C   0  0  0  0  0  0  0  0  0  0  0  0
  -41.8037   58.7629   63.3872 C   0  0  0  0  0  0  0  0  0  0  0  0
  -40.1855   58.4899   65.2158 C   0  0  0  0  0  0  0  0  0  0  0  0
  -39.2215   60.4110   66.3163 O   0  0  0  0  0  0  0  0  0  0  0  0
  -40.3404   59.9567   65.5470 C   0  0  0  0  0  0  0  0  0  0  0  0
  -39.3318   61.3524   66.5227 H   0  0  0  0  0  0  0  0  0  0  0  0
  6  7  1  0  0  0
 15 16  1  0  0  0
 15 17  1  0  0  0
  7  8  1  0  0  0
  7  9  2  0  0  0
  9  5  1  0  0  0
  5  4  1  0  0  0
  4  1  1  0  0  0
  1  2  1  0  0  0
  1  3  2  0  0  0
  3 10  1  0  0  0
 10 11  1  0  0  0
 11 12  1  0  0  0
 12 13  1  0  0  0
 12 14  2  0  0  0
 14 16  1  0  0  0
M  END
> <minimizedAffinity>
-6.86326

> <CNNscore>
0.6448583007

> <CNNaffinity>
5.6197204590

> <CNN_VS>
3.6239233017

> <CNNaffinity_variance>
0.0164520536

$$$$
/media/chris/experiments/cd1a-new-docking/inputs/ligands/6nux_ligand.pdb


 17 16  0  0  0  0  0  0  0  0999 V2000
  -49.2486   59.3184   62.2684 C   0  0  0  0  0  0  0  0  0  0  0  0
  -49.5931   57.8711   62.0596 C   0  0  0  0  0  0  0  0  0  0  0  0
  -49.2849   59.8291   63.5071 C   0  0  0  0  0  0  0  0  0  0  0  0
  -48.8578   60.1975   61.0992 C   0  0  0  0  0  0  0  0  0  0  0  0
  -47.3607   60.0980   60.8254 C   0  0  0  0  0  0  0  0  0  0  0  0
  -46.3695   57.4815   60.2087 C   0  0  0  0  0  0  0  0  0  0  0  0
  -46.6481   58.4590   59.1081 C   0  0  0  0  0  0  0  0  0  0  0  0
  -46.4029   58.0614   57.6836 C   0  0  0  0  0  0  0  0  0  0  0  0
  -47.1103   59.6855   59.3933 C   0  0  0  0  0  0  0  0  0  0  0  0
  -49.6685   58.9552   64.6791 C   0  0  0  0  0  0  0  0  0  0  0  0
  -48.9675   59.4351   65.9442 C   0  0  0  0  0  0  0  0  0  0  0  0
  -48.1301   58.3183   66.5289 C   0  0  0  0  0  0  0  0  0  0  0  0
  -46.7440   58.6066   67.0158 C   0  0  0  0  0  0  0  0  0  0  0  0
  -48.6249   57.0753   66.6232 C   0  0  0  0  0  0  0  0  0  0  0  0
  -47.4601   55.0053   66.1877 O   0  0  0  0  0  0  0  0  0  0  0  0
  -47.8052   55.9481   67.2086 C   0  0  0  0  0  0  0  0  0  0  0  0
  -46.9349   54.2875   66.5746 H   0  0  0  0  0  0  0  0  0  0  0  0
  6  7  1  0  0  0
 15 16  1  0  0  0
 15 17  1  0  0  0
  7  8  1  0  0  0
  7  9  2  0  0  0
  9  5  1  0  0  0
  5  4  1  0  0  0
  4  1  1  0  0  0
  1  2  1  0  0  0
  1  3  2  0  0  0
  3 10  1  0  0  0
 10 11  1  0  0  0
 11 12  1  0  0  0
 12 13  1  0  0  0
 12 14  2  0  0  0
 14 16  1  0  0  0
M  END
> <minimizedAffinity>
-7.23394

> <CNNscore>
0.6296407580

> <CNNaffinity>
5.8991785049

> <CNN_VS>
3.7143633366

> <CNNaffinity_variance>
0.2594622970

$$$$
/media/chris/experiments/cd1a-new-docking/inputs/ligands/6nux_ligand.pdb


 17 16  0  0  0  0  0  0  0  0999 V2000
  -38.5948   57.9235   61.2196 C   0  0  0  0  0  0  0  0  0  0  0  0
  -37.9523   59.1671   60.6742 C   0  0  0  0  0  0  0  0  0  0  0  0
  -37.8628   57.0761   61.9564 C   0  0  0  0  0  0  0  0  0  0  0  0
  -40.0545   57.6244   60.9502 C   0  0  0  0  0  0  0  0  0  0  0  0
  -40.5608   56.5255   61.8789 C   0  0  0  0  0  0  0  0  0  0  0  0
  -41.7204   54.8579   63.8997 C   0  0  0  0  0  0  0  0  0  0  0  0
  -42.1587   56.2835   63.7581 C   0  0  0  0  0  0  0  0  0  0  0  0
  -43.2086   56.8311   64.6775 C   0  0  0  0  0  0  0  0  0  0  0  0
  -41.6195   57.0665   62.8119 C   0  0  0  0  0  0  0  0  0  0  0  0
  -36.4069   57.3720   62.2337 C   0  0  0  0  0  0  0  0  0  0  0  0
  -36.1330   57.3059   63.7313 C   0  0  0  0  0  0  0  0  0  0  0  0
  -37.0622   58.2439   64.4707 C   0  0  0  0  0  0  0  0  0  0  0  0
  -38.2391   57.6909   65.2126 C   0  0  0  0  0  0  0  0  0  0  0  0
  -36.8325   59.5654   64.4745 C   0  0  0  0  0  0  0  0  0  0  0  0
  -37.3229   61.8695   65.0055 O   0  0  0  0  0  0  0  0  0  0  0  0
  -37.7469   60.5174   65.2113 C   0  0  0  0  0  0  0  0  0  0  0  0
  -37.9163   62.4706   65.4824 H   0  0  0  0  0  0  0  0  0  0  0  0
  6  7  1  0  0  0
 15 16  1  0  0  0
 15 17  1  0  0  0
  7  8  1  0  0  0
  7  9  2  0  0  0
  9  5  1  0  0  0
  5  4  1  0  0  0
  4  1  1  0  0  0
  1  2  1  0  0  0
  1  3  2  0  0  0
  3 10  1  0  0  0
 10 11  1  0  0  0
 11 12  1  0  0  0
 12 13  1  0  0  0
 12 14  2  0  0  0
 14 16  1  0  0  0
M  END
> <minimizedAffinity>
-6.66727

> <CNNscore>
0.6264959574

> <CNNaffinity>
5.6236066818

> <CNN_VS>
3.5231668949

> <CNNaffinity_variance>
0.0141859828

$$$$
/media/chris/experiments/cd1a-new-docking/inputs/ligands/6nux_ligand.pdb


 17 16  0  0  0  0  0  0  0  0999 V2000
  -50.0335   58.4313   60.9469 C   0  0  0  0  0  0  0  0  0  0  0  0
  -49.9895   59.9304   60.8585 C   0  0  0  0  0  0  0  0  0  0  0  0
  -49.7900   57.8362   62.1230 C   0  0  0  0  0  0  0  0  0  0  0  0
  -50.3541   57.5930   59.7274 C   0  0  0  0  0  0  0  0  0  0  0  0
  -49.2621   56.5570   59.4820 C   0  0  0  0  0  0  0  0  0  0  0  0
  -46.5771   57.4148   59.9963 C   0  0  0  0  0  0  0  0  0  0  0  0
  -47.1044   57.3935   58.5941 C   0  0  0  0  0  0  0  0  0  0  0  0
  -46.2207   57.8259   57.4630 C   0  0  0  0  0  0  0  0  0  0  0  0
  -48.3615   56.9945   58.3499 C   0  0  0  0  0  0  0  0  0  0  0  0
  -49.4751   58.6677   63.3452 C   0  0  0  0  0  0  0  0  0  0  0  0
  -48.1349   58.2469   63.9362 C   0  0  0  0  0  0  0  0  0  0  0  0
  -48.3416   57.6255   65.3005 C   0  0  0  0  0  0  0  0  0  0  0  0
  -49.6213   57.8654   66.0393 C   0  0  0  0  0  0  0  0  0  0  0  0
  -47.3908   56.8533   65.8469 C   0  0  0  0  0  0  0  0  0  0  0  0
  -48.0150   54.8631   67.0640 O   0  0  0  0  0  0  0  0  0  0  0  0
  -47.5811   56.2202   67.2065 C   0  0  0  0  0  0  0  0  0  0  0  0
  -48.1337   54.4677   67.9417 H   0  0  0  0  0  0  0  0  0  0  0  0
  6  7  1  0  0  0
 15 16  1  0  0  0
 15 17  1  0  0  0
  7  8  1  0  0  0
  7  9  2  0  0  0
  9  5  1  0  0  0
  5  4  1  0  0  0
  4  1  1  0  0  0
  1  2  1  0  0  0
  1  3  2  0  0  0
  3 10  1  0  0  0
 10 11  1  0  0  0
 11 12  1  0  0  0
 12 13  1  0  0  0
 12 14  2  0  0  0
 14 16  1  0  0  0
M  END
> <minimizedAffinity>
-7.91834

> <CNNscore>
0.6257035136

> <CNNaffinity>
5.9293017387

> <CNN_VS>
3.7099850178

> <CNNaffinity_variance>
0.1070545763

$$$$
/media/chris/experiments/cd1a-new-docking/inputs/ligands/6nux_ligand.pdb


 17 16  0  0  0  0  0  0  0  0999 V2000
  -49.8046   58.7359   61.2238 C   0  0  0  0  0  0  0  0  0  0  0  0
  -49.9674   60.1381   60.7098 C   0  0  0  0  0  0  0  0  0  0  0  0
  -49.2549   58.5393   62.4304 C   0  0  0  0  0  0  0  0  0  0  0  0
  -50.2587   57.5510   60.3977 C   0  0  0  0  0  0  0  0  0  0  0  0
  -49.0782   56.6486   60.0535 C   0  0  0  0  0  0  0  0  0  0  0  0
  -46.3740   57.5879   60.1711 C   0  0  0  0  0  0  0  0  0  0  0  0
  -47.1116   57.5806   58.8672 C   0  0  0  0  0  0  0  0  0  0  0  0
  -46.4281   58.0697   57.6259 C   0  0  0  0  0  0  0  0  0  0  0  0
  -48.3784   57.1434   58.8087 C   0  0  0  0  0  0  0  0  0  0  0  0
  -48.8050   59.7182   63.2623 C   0  0  0  0  0  0  0  0  0  0  0  0
  -49.7122   59.8820   64.4758 C   0  0  0  0  0  0  0  0  0  0  0  0
  -49.2545   58.9694   65.5929 C   0  0  0  0  0  0  0  0  0  0  0  0
  -50.1853   57.9256   66.1271 C   0  0  0  0  0  0  0  0  0  0  0  0
  -48.0179   59.0826   66.0998 C   0  0  0  0  0  0  0  0  0  0  0  0
  -46.3407   58.6971   67.7938 O   0  0  0  0  0  0  0  0  0  0  0  0
  -47.5414   58.1769   67.2124 C   0  0  0  0  0  0  0  0  0  0  0  0
  -46.0447   58.1084   68.5056 H   0  0  0  0  0  0  0  0  0  0  0  0
  6  7  1  0  0  0
 15 16  1  0  0  0
 15 17  1  0  0  0
  7  8  1  0  0  0
  7  9  2  0  0  0
  9  5  1  0  0  0
  5  4  1  0  0  0
  4  1  1  0  0  0
  1  2  1  0  0  0
  1  3  2  0  0  0
  3 10  1  0  0  0
 10 11  1  0  0  0
 11 12  1  0  0  0
 12 13  1  0  0  0
 12 14  2  0  0  0
 14 16  1  0  0  0
M  END
> <minimizedAffinity>
-7.31124

> <CNNscore>
0.5976540446

> <CNNaffinity>
5.7804284096

> <CNN_VS>
3.4546964169

> <CNNaffinity_variance>
0.0726733655

$$$$
/media/chris/experiments/cd1a-new-docking/inputs/ligands/6nux_ligand.pdb


 17 16  0  0  0  0  0  0  0  0999 V2000
  -38.8263   57.3943   61.5502 C   0  0  0  0  0  0  0  0  0  0  0  0
  -38.7395   58.4658   60.5009 C   0  0  0  0  0  0  0  0  0  0  0  0
  -37.7033   56.9619   62.1406 C   0  0  0  0  0  0  0  0  0  0  0  0
  -40.1640   56.8066   61.9478 C   0  0  0  0  0  0  0  0  0  0  0  0
  -40.2296   56.5845   63.4553 C   0  0  0  0  0  0  0  0  0  0  0  0
  -38.3922   57.7921   65.2924 C   0  0  0  0  0  0  0  0  0  0  0  0
  -39.7185   58.4348   65.0233 C   0  0  0  0  0  0  0  0  0  0  0  0
  -40.0795   59.7108   65.7224 C   0  0  0  0  0  0  0  0  0  0  0  0
  -40.5820   57.8711   64.1655 C   0  0  0  0  0  0  0  0  0  0  0  0
  -36.3656   57.5486   61.7523 C   0  0  0  0  0  0  0  0  0  0  0  0
  -35.4064   57.4989   62.9354 C   0  0  0  0  0  0  0  0  0  0  0  0
  -33.9848   57.7070   62.4601 C   0  0  0  0  0  0  0  0  0  0  0  0
  -33.2668   56.5967   61.7580 C   0  0  0  0  0  0  0  0  0  0  0  0
  -33.3682   58.8821   62.6543 C   0  0  0  0  0  0  0  0  0  0  0  0
  -31.6703   60.5130   62.1167 O   0  0  0  0  0  0  0  0  0  0  0  0
  -31.9503   59.1102   62.1824 C   0  0  0  0  0  0  0  0  0  0  0  0
  -30.7588   60.6469   61.8132 H   0  0  0  0  0  0  0  0  0  0  0  0
  6  7  1  0  0  0
 15 16  1  0  0  0
 15 17  1  0  0  0
  7  8  1  0  0  0
  7  9  2  0  0  0
  9  5  1  0  0  0
  5  4  1  0  0  0
  4  1  1  0  0  0
  1  2  1  0  0  0
  1  3  2  0  0  0
  3 10  1  0  0  0
 10 11  1  0  0  0
 11 12  1  0  0  0
 12 13  1  0  0  0
 12 14  2  0  0  0
 14 16  1  0  0  0
M  END
> <minimizedAffinity>
-7.02528

> <CNNscore>
0.5537773967

> <CNNaffinity>
5.6418075562

> <CNN_VS>
3.1243054867

> <CNNaffinity_variance>
0.0563053899

$$$$
