/media/chris/experiments/cd1a-new-docking/inputs/ligands/6nux_ligand.pdb


 17 16  0  0  0  0  0  0  0  0999 V2000
  -49.6055   58.7364   62.3865 C   0  0  0  0  0  0  0  0  0  0  0  0
  -49.6755   60.1581   61.9059 C   0  0  0  0  0  0  0  0  0  0  0  0
  -49.6021   58.4889   63.7039 C   0  0  0  0  0  0  0  0  0  0  0  0
  -49.5449   57.5883   61.4012 C   0  0  0  0  0  0  0  0  0  0  0  0
  -49.4945   58.1085   59.9684 C   0  0  0  0  0  0  0  0  0  0  0  0
  -47.0438   59.4859   59.4151 C   0  0  0  0  0  0  0  0  0  0  0  0
  -47.2386   58.0778   58.9420 C   0  0  0  0  0  0  0  0  0  0  0  0
  -46.1457   57.3952   58.1757 C   0  0  0  0  0  0  0  0  0  0  0  0
  -48.3854   57.4306   59.1974 C   0  0  0  0  0  0  0  0  0  0  0  0
  -49.6683   59.6303   64.6923 C   0  0  0  0  0  0  0  0  0  0  0  0
  -49.8655   59.0921   66.1043 C   0  0  0  0  0  0  0  0  0  0  0  0
  -48.6688   58.2616   66.5150 C   0  0  0  0  0  0  0  0  0  0  0  0
  -47.3271   58.9111   66.6544 C   0  0  0  0  0  0  0  0  0  0  0  0
  -48.8044   56.9509   66.7649 C   0  0  0  0  0  0  0  0  0  0  0  0
  -47.4497   55.0139   66.2710 O   0  0  0  0  0  0  0  0  0  0  0  0
  -47.6218   56.1061   67.1808 C   0  0  0  0  0  0  0  0  0  0  0  0
  -46.6889   54.4795   66.5475 H   0  0  0  0  0  0  0  0  0  0  0  0
  6  7  1  0  0  0
 15 16  1  0  0  0
 15 17  1  0  0  0
  7  8  1  0  0  0
  7  9  2  0  0  0
  9  5  1  0  0  0
  5  4  1  0  0  0
  4  1  1  0  0  0
  1  2  1  0  0  0
  1  3  2  0  0  0
  3 10  1  0  0  0
 10 11  1  0  0  0
 11 12  1  0  0  0
 12 13  1  0  0  0
 12 14  2  0  0  0
 14 16  1  0  0  0
M  END
> <minimizedAffinity>
-7.34872

> <CNNscore>
0.6412173510

> <CNNaffinity>
6.0150251389

> <CNN_VS>
3.8569386005

> <CNNaffinity_variance>
0.2867148817

$$$$
/media/chris/experiments/cd1a-new-docking/inputs/ligands/6nux_ligand.pdb


 17 16  0  0  0  0  0  0  0  0999 V2000
  -38.4643   57.5573   61.3803 C   0  0  0  0  0  0  0  0  0  0  0  0
  -39.4954   58.2926   60.5722 C   0  0  0  0  0  0  0  0  0  0  0  0
  -38.8583   56.5971   62.2285 C   0  0  0  0  0  0  0  0  0  0  0  0
  -36.9929   57.8862   61.2412 C   0  0  0  0  0  0  0  0  0  0  0  0
  -36.1791   57.1909   62.3277 C   0  0  0  0  0  0  0  0  0  0  0  0
  -34.6280   58.5099   64.3435 C   0  0  0  0  0  0  0  0  0  0  0  0
  -33.9789   58.0564   63.0717 C   0  0  0  0  0  0  0  0  0  0  0  0
  -32.5149   58.2990   62.8591 C   0  0  0  0  0  0  0  0  0  0  0  0
  -34.7024   57.4404   62.1249 C   0  0  0  0  0  0  0  0  0  0  0  0
  -40.3251   56.2602   62.3676 C   0  0  0  0  0  0  0  0  0  0  0  0
  -40.7606   56.3985   63.8213 C   0  0  0  0  0  0  0  0  0  0  0  0
  -40.9104   57.8609   64.1812 C   0  0  0  0  0  0  0  0  0  0  0  0
  -41.9070   58.7067   63.4515 C   0  0  0  0  0  0  0  0  0  0  0  0
  -40.1641   58.4009   65.1561 C   0  0  0  0  0  0  0  0  0  0  0  0
  -39.1143   60.3154   66.1876 O   0  0  0  0  0  0  0  0  0  0  0  0
  -40.3029   59.8583   65.5329 C   0  0  0  0  0  0  0  0  0  0  0  0
  -39.2148   61.2506   66.4244 H   0  0  0  0  0  0  0  0  0  0  0  0
  6  7  1  0  0  0
 15 16  1  0  0  0
 15 17  1  0  0  0
  7  8  1  0  0  0
  7  9  2  0  0  0
  9  5  1  0  0  0
  5  4  1  0  0  0
  4  1  1  0  0  0
  1  2  1  0  0  0
  1  3  2  0  0  0
  3 10  1  0  0  0
 10 11  1  0  0  0
 11 12  1  0  0  0
 12 13  1  0  0  0
 12 14  2  0  0  0
 14 16  1  0  0  0
M  END
> <minimizedAffinity>
-6.86966

> <CNNscore>
0.6359013319

> <CNNaffinity>
5.5976109505

> <CNN_VS>
3.5595283508

> <CNNaffinity_variance>
0.0260875635

$$$$
/media/chris/experiments/cd1a-new-docking/inputs/ligands/6nux_ligand.pdb


 17 16  0  0  0  0  0  0  0  0999 V2000
  -42.0730   56.8738   63.7428 C   0  0  0  0  0  0  0  0  0  0  0  0
  -41.1248   57.5690   64.6779 C   0  0  0  0  0  0  0  0  0  0  0  0
  -41.5947   56.3040   62.6278 C   0  0  0  0  0  0  0  0  0  0  0  0
  -43.5540   56.8071   64.0505 C   0  0  0  0  0  0  0  0  0  0  0  0
  -43.7860   56.5641   65.5383 C   0  0  0  0  0  0  0  0  0  0  0  0
  -43.8550   59.1213   66.8288 C   0  0  0  0  0  0  0  0  0  0  0  0
  -45.1271   58.3707   66.5781 C   0  0  0  0  0  0  0  0  0  0  0  0
  -46.4350   58.9637   67.0085 C   0  0  0  0  0  0  0  0  0  0  0  0
  -45.0984   57.1724   65.9760 C   0  0  0  0  0  0  0  0  0  0  0  0
  -40.1165   56.3621   62.3180 C   0  0  0  0  0  0  0  0  0  0  0  0
  -39.8485   57.3897   61.2252 C   0  0  0  0  0  0  0  0  0  0  0  0
  -38.3852   57.7764   61.2241 C   0  0  0  0  0  0  0  0  0  0  0  0
  -37.9005   58.8453   60.2947 C   0  0  0  0  0  0  0  0  0  0  0  0
  -37.5227   57.1756   62.0571 C   0  0  0  0  0  0  0  0  0  0  0  0
  -35.5372   57.4513   63.4036 O   0  0  0  0  0  0  0  0  0  0  0  0
  -36.0586   57.5516   62.0738 C   0  0  0  0  0  0  0  0  0  0  0  0
  -34.5982   57.6946   63.4020 H   0  0  0  0  0  0  0  0  0  0  0  0
  6  7  1  0  0  0
 15 16  1  0  0  0
 15 17  1  0  0  0
  7  8  1  0  0  0
  7  9  2  0  0  0
  9  5  1  0  0  0
  5  4  1  0  0  0
  4  1  1  0  0  0
  1  2  1  0  0  0
  1  3  2  0  0  0
  3 10  1  0  0  0
 10 11  1  0  0  0
 11 12  1  0  0  0
 12 13  1  0  0  0
 12 14  2  0  0  0
 14 16  1  0  0  0
M  END
> <minimizedAffinity>
-6.43822

> <CNNscore>
0.6143859625

> <CNNaffinity>
5.6886386871

> <CNN_VS>
3.4950196743

> <CNNaffinity_variance>
0.1063915342

$$$$
/media/chris/experiments/cd1a-new-docking/inputs/ligands/6nux_ligand.pdb


 17 16  0  0  0  0  0  0  0  0999 V2000
  -38.1263   58.3325   61.7748 C   0  0  0  0  0  0  0  0  0  0  0  0
  -37.1132   57.3237   62.2363 C   0  0  0  0  0  0  0  0  0  0  0  0
  -38.0539   59.5907   62.2311 C   0  0  0  0  0  0  0  0  0  0  0  0
  -39.2179   57.9432   60.8003 C   0  0  0  0  0  0  0  0  0  0  0  0
  -40.5792   57.9384   61.4881 C   0  0  0  0  0  0  0  0  0  0  0  0
  -40.5828   56.8668   64.1454 C   0  0  0  0  0  0  0  0  0  0  0  0
  -41.0386   56.0238   62.9938 C   0  0  0  0  0  0  0  0  0  0  0  0
  -41.4936   54.6167   63.2394 C   0  0  0  0  0  0  0  0  0  0  0  0
  -41.0363   56.5215   61.7482 C   0  0  0  0  0  0  0  0  0  0  0  0
  -36.9631   59.9869   63.1994 C   0  0  0  0  0  0  0  0  0  0  0  0
  -37.5724   60.4419   64.5200 C   0  0  0  0  0  0  0  0  0  0  0  0
  -36.8570   61.6770   65.0233 C   0  0  0  0  0  0  0  0  0  0  0  0
  -36.5110   62.7758   64.0671 C   0  0  0  0  0  0  0  0  0  0  0  0
  -36.5409   61.7982   66.3210 C   0  0  0  0  0  0  0  0  0  0  0  0
  -36.6190   63.6603   67.8565 O   0  0  0  0  0  0  0  0  0  0  0  0
  -35.8308   63.0263   66.8431 C   0  0  0  0  0  0  0  0  0  0  0  0
  -36.1539   64.4461   68.1837 H   0  0  0  0  0  0  0  0  0  0  0  0
  6  7  1  0  0  0
 15 16  1  0  0  0
 15 17  1  0  0  0
  7  8  1  0  0  0
  7  9  2  0  0  0
  9  5  1  0  0  0
  5  4  1  0  0  0
  4  1  1  0  0  0
  1  2  1  0  0  0
  1  3  2  0  0  0
  3 10  1  0  0  0
 10 11  1  0  0  0
 11 12  1  0  0  0
 12 13  1  0  0  0
 12 14  2  0  0  0
 14 16  1  0  0  0
M  END
> <minimizedAffinity>
-6.57965

> <CNNscore>
0.5840014815

> <CNNaffinity>
5.3615484238

> <CNN_VS>
3.1311521530

> <CNNaffinity_variance>
0.0594635792

$$$$
/media/chris/experiments/cd1a-new-docking/inputs/ligands/6nux_ligand.pdb


 17 16  0  0  0  0  0  0  0  0999 V2000
  -38.5931   57.5850   61.3605 C   0  0  0  0  0  0  0  0  0  0  0  0
  -38.4053   58.7154   60.3890 C   0  0  0  0  0  0  0  0  0  0  0  0
  -37.5224   57.0658   61.9775 C   0  0  0  0  0  0  0  0  0  0  0  0
  -39.9736   57.0348   61.6506 C   0  0  0  0  0  0  0  0  0  0  0  0
  -40.1064   56.6581   63.1226 C   0  0  0  0  0  0  0  0  0  0  0  0
  -38.4467   57.7705   65.1762 C   0  0  0  0  0  0  0  0  0  0  0  0
  -39.7924   58.3647   64.8925 C   0  0  0  0  0  0  0  0  0  0  0  0
  -40.2663   59.5420   65.6906 C   0  0  0  0  0  0  0  0  0  0  0  0
  -40.5730   57.8452   63.9332 C   0  0  0  0  0  0  0  0  0  0  0  0
  -36.1424   57.6145   61.6965 C   0  0  0  0  0  0  0  0  0  0  0  0
  -35.2161   57.3358   62.8740 C   0  0  0  0  0  0  0  0  0  0  0  0
  -33.7800   57.6058   62.4798 C   0  0  0  0  0  0  0  0  0  0  0  0
  -32.9638   56.5161   61.8572 C   0  0  0  0  0  0  0  0  0  0  0  0
  -33.2377   58.8169   62.6747 C   0  0  0  0  0  0  0  0  0  0  0  0
  -31.6441   60.5008   61.9994 O   0  0  0  0  0  0  0  0  0  0  0  0
  -31.8068   59.1068   62.2831 C   0  0  0  0  0  0  0  0  0  0  0  0
  -30.7232   60.6748   61.7496 H   0  0  0  0  0  0  0  0  0  0  0  0
  6  7  1  0  0  0
 15 16  1  0  0  0
 15 17  1  0  0  0
  7  8  1  0  0  0
  7  9  2  0  0  0
  9  5  1  0  0  0
  5  4  1  0  0  0
  4  1  1  0  0  0
  1  2  1  0  0  0
  1  3  2  0  0  0
  3 10  1  0  0  0
 10 11  1  0  0  0
 11 12  1  0  0  0
 12 13  1  0  0  0
 12 14  2  0  0  0
 14 16  1  0  0  0
M  END
> <minimizedAffinity>
-7.02006

> <CNNscore>
0.5747440457

> <CNNaffinity>
5.6716508865

> <CNN_VS>
3.2597475052

> <CNNaffinity_variance>
0.0596150346

$$$$
/media/chris/experiments/cd1a-new-docking/inputs/ligands/6nux_ligand.pdb


 17 16  0  0  0  0  0  0  0  0999 V2000
  -49.2843   59.9792   64.4940 C   0  0  0  0  0  0  0  0  0  0  0  0
  -48.0732   60.5663   65.1613 C   0  0  0  0  0  0  0  0  0  0  0  0
  -49.7682   58.8067   64.9273 C   0  0  0  0  0  0  0  0  0  0  0  0
  -49.9618   60.6994   63.3473 C   0  0  0  0  0  0  0  0  0  0  0  0
  -49.1802   60.5070   62.0517 C   0  0  0  0  0  0  0  0  0  0  0  0
  -48.8833   57.6980   61.5717 C   0  0  0  0  0  0  0  0  0  0  0  0
  -49.8915   58.4910   60.7976 C   0  0  0  0  0  0  0  0  0  0  0  0
  -50.7415   57.8072   59.7693 C   0  0  0  0  0  0  0  0  0  0  0  0
  -50.0318   59.8066   61.0183 C   0  0  0  0  0  0  0  0  0  0  0  0
  -49.0999   58.0858   66.0753 C   0  0  0  0  0  0  0  0  0  0  0  0
  -48.0937   57.0717   65.5449 C   0  0  0  0  0  0  0  0  0  0  0  0
  -46.7593   57.2549   66.2349 C   0  0  0  0  0  0  0  0  0  0  0  0
  -46.6909   57.9957   67.5341 C   0  0  0  0  0  0  0  0  0  0  0  0
  -45.6401   56.7492   65.6959 C   0  0  0  0  0  0  0  0  0  0  0  0
  -43.5167   57.8990   65.6832 O   0  0  0  0  0  0  0  0  0  0  0  0
  -44.2990   56.9179   66.3728 C   0  0  0  0  0  0  0  0  0  0  0  0
  -42.6594   57.9987   66.1259 H   0  0  0  0  0  0  0  0  0  0  0  0
  6  7  1  0  0  0
 15 16  1  0  0  0
 15 17  1  0  0  0
  7  8  1  0  0  0
  7  9  2  0  0  0
  9  5  1  0  0  0
  5  4  1  0  0  0
  4  1  1  0  0  0
  1  2  1  0  0  0
  1  3  2  0  0  0
  3 10  1  0  0  0
 10 11  1  0  0  0
 11 12  1  0  0  0
 12 13  1  0  0  0
 12 14  2  0  0  0
 14 16  1  0  0  0
M  END
> <minimizedAffinity>
-6.42246

> <CNNscore>
0.4885023832

> <CNNaffinity>
5.6532807350

> <CNN_VS>
2.7616410255

> <CNNaffinity_variance>
0.0273409002

$$$$
/media/chris/experiments/cd1a-new-docking/inputs/ligands/6nux_ligand.pdb


 17 16  0  0  0  0  0  0  0  0999 V2000
  -43.9399   58.4373   62.5396 C   0  0  0  0  0  0  0  0  0  0  0  0
  -43.2440   59.7665   62.6158 C   0  0  0  0  0  0  0  0  0  0  0  0
  -43.2151   57.3122   62.6152 C   0  0  0  0  0  0  0  0  0  0  0  0
  -45.4441   58.3587   62.3849 C   0  0  0  0  0  0  0  0  0  0  0  0
  -45.8492   58.5738   60.9302 C   0  0  0  0  0  0  0  0  0  0  0  0
  -46.6704   58.4720   58.1872 C   0  0  0  0  0  0  0  0  0  0  0  0
  -46.6457   57.2215   59.0118 C   0  0  0  0  0  0  0  0  0  0  0  0
  -47.0554   55.9182   58.3946 C   0  0  0  0  0  0  0  0  0  0  0  0
  -46.2638   57.2657   60.2969 C   0  0  0  0  0  0  0  0  0  0  0  0
  -41.7140   57.3840   62.7756 C   0  0  0  0  0  0  0  0  0  0  0  0
  -41.0262   56.7249   61.5862 C   0  0  0  0  0  0  0  0  0  0  0  0
  -39.6252   57.2748   61.4268 C   0  0  0  0  0  0  0  0  0  0  0  0
  -38.5197   56.7516   62.2902 C   0  0  0  0  0  0  0  0  0  0  0  0
  -39.3657   58.2193   60.5106 C   0  0  0  0  0  0  0  0  0  0  0  0
  -37.8775   60.0729   60.9356 O   0  0  0  0  0  0  0  0  0  0  0  0
  -37.9720   58.7771   60.3335 C   0  0  0  0  0  0  0  0  0  0  0  0
  -36.9799   60.4204   60.8159 H   0  0  0  0  0  0  0  0  0  0  0  0
  6  7  1  0  0  0
 15 16  1  0  0  0
 15 17  1  0  0  0
  7  8  1  0  0  0
  7  9  2  0  0  0
  9  5  1  0  0  0
  5  4  1  0  0  0
  4  1  1  0  0  0
  1  2  1  0  0  0
  1  3  2  0  0  0
  3 10  1  0  0  0
 10 11  1  0  0  0
 11 12  1  0  0  0
 12 13  1  0  0  0
 12 14  2  0  0  0
 14 16  1  0  0  0
M  END
> <minimizedAffinity>
-7.24512

> <CNNscore>
0.4705220461

> <CNNaffinity>
5.5076413155

> <CNN_VS>
2.5914666653

> <CNNaffinity_variance>
0.1243510693

$$$$
/media/chris/experiments/cd1a-new-docking/inputs/ligands/6nux_ligand.pdb


 17 16  0  0  0  0  0  0  0  0999 V2000
  -49.5952   58.8695   64.6379 C   0  0  0  0  0  0  0  0  0  0  0  0
  -49.4733   60.3644   64.7227 C   0  0  0  0  0  0  0  0  0  0  0  0
  -49.5398   58.2739   63.4384 C   0  0  0  0  0  0  0  0  0  0  0  0
  -49.7732   58.0351   65.8889 C   0  0  0  0  0  0  0  0  0  0  0  0
  -48.5407   58.1314   66.7821 C   0  0  0  0  0  0  0  0  0  0  0  0
  -46.0004   59.1879   65.9820 C   0  0  0  0  0  0  0  0  0  0  0  0
  -46.2597   57.7143   65.9065 C   0  0  0  0  0  0  0  0  0  0  0  0
  -45.1841   56.7969   65.4076 C   0  0  0  0  0  0  0  0  0  0  0  0
  -47.4485   57.2164   66.2782 C   0  0  0  0  0  0  0  0  0  0  0  0
  -49.3564   59.1007   62.1866 C   0  0  0  0  0  0  0  0  0  0  0  0
  -49.8936   58.3475   60.9757 C   0  0  0  0  0  0  0  0  0  0  0  0
  -48.7461   57.8262   60.1378 C   0  0  0  0  0  0  0  0  0  0  0  0
  -47.4262   58.5322   60.1653 C   0  0  0  0  0  0  0  0  0  0  0  0
  -48.9007   56.7307   59.3797 C   0  0  0  0  0  0  0  0  0  0  0  0
  -48.0765   54.8754   58.0720 O   0  0  0  0  0  0  0  0  0  0  0  0
  -47.7649   56.1923   58.5399 C   0  0  0  0  0  0  0  0  0  0  0  0
  -47.3415   54.5406   57.5350 H   0  0  0  0  0  0  0  0  0  0  0  0
  6  7  1  0  0  0
 15 16  1  0  0  0
 15 17  1  0  0  0
  7  8  1  0  0  0
  7  9  2  0  0  0
  9  5  1  0  0  0
  5  4  1  0  0  0
  4  1  1  0  0  0
  1  2  1  0  0  0
  1  3  2  0  0  0
  3 10  1  0  0  0
 10 11  1  0  0  0
 11 12  1  0  0  0
 12 13  1  0  0  0
 12 14  2  0  0  0
 14 16  1  0  0  0
M  END
> <minimizedAffinity>
-6.32962

> <CNNscore>
0.4638617039

> <CNNaffinity>
5.8447051048

> <CNN_VS>
2.7111349106

> <CNNaffinity_variance>
0.4202000201

$$$$
/media/chris/experiments/cd1a-new-docking/inputs/ligands/6nux_ligand.pdb


 17 16  0  0  0  0  0  0  0  0999 V2000
  -39.3679   57.4083   61.4806 C   0  0  0  0  0  0  0  0  0  0  0  0
  -39.4773   58.6077   60.5827 C   0  0  0  0  0  0  0  0  0  0  0  0
  -38.1586   57.0129   61.9024 C   0  0  0  0  0  0  0  0  0  0  0  0
  -40.6051   56.6510   61.9148 C   0  0  0  0  0  0  0  0  0  0  0  0
  -40.5982   56.4247   63.4231 C   0  0  0  0  0  0  0  0  0  0  0  0
  -38.8548   57.8398   65.2028 C   0  0  0  0  0  0  0  0  0  0  0  0
  -40.2544   58.3244   64.9777 C   0  0  0  0  0  0  0  0  0  0  0  0
  -40.7379   59.5514   65.6905 C   0  0  0  0  0  0  0  0  0  0  0  0
  -41.0740   57.6632   64.1468 C   0  0  0  0  0  0  0  0  0  0  0  0
  -36.9205   57.7681   61.4772 C   0  0  0  0  0  0  0  0  0  0  0  0
  -35.8024   57.5580   62.4911 C   0  0  0  0  0  0  0  0  0  0  0  0
  -35.7664   58.7113   63.4704 C   0  0  0  0  0  0  0  0  0  0  0  0
  -34.8757   58.6379   64.6714 C   0  0  0  0  0  0  0  0  0  0  0  0
  -36.5187   59.8023   63.2639 C   0  0  0  0  0  0  0  0  0  0  0  0
  -37.8268   61.3364   64.5931 O   0  0  0  0  0  0  0  0  0  0  0  0
  -36.4926   60.9661   64.2282 C   0  0  0  0  0  0  0  0  0  0  0  0
  -37.7975   62.0832   65.2114 H   0  0  0  0  0  0  0  0  0  0  0  0
  6  7  1  0  0  0
 15 16  1  0  0  0
 15 17  1  0  0  0
  7  8  1  0  0  0
  7  9  2  0  0  0
  9  5  1  0  0  0
  5  4  1  0  0  0
  4  1  1  0  0  0
  1  2  1  0  0  0
  1  3  2  0  0  0
  3 10  1  0  0  0
 10 11  1  0  0  0
 11 12  1  0  0  0
 12 13  1  0  0  0
 12 14  2  0  0  0
 14 16  1  0  0  0
M  END
> <minimizedAffinity>
-6.47273

> <CNNscore>
0.4468962550

> <CNNaffinity>
5.3203010559

> <CNN_VS>
2.3776226044

> <CNNaffinity_variance>
0.0509103723

$$$$
