/media/chris/experiments/cd1a-new-docking/inputs/ligands/6nux_ligand.pdb


 17 16  0  0  0  0  0  0  0  0999 V2000
  -49.8464   58.4279   61.1333 C   0  0  0  0  0  0  0  0  0  0  0  0
  -49.9979   59.9190   61.0312 C   0  0  0  0  0  0  0  0  0  0  0  0
  -49.4013   57.8907   62.2779 C   0  0  0  0  0  0  0  0  0  0  0  0
  -50.1955   57.5324   59.9633 C   0  0  0  0  0  0  0  0  0  0  0  0
  -49.0871   56.5153   59.7122 C   0  0  0  0  0  0  0  0  0  0  0  0
  -46.4025   57.4728   60.0043 C   0  0  0  0  0  0  0  0  0  0  0  0
  -47.0147   57.3541   58.6421 C   0  0  0  0  0  0  0  0  0  0  0  0
  -46.2160   57.7415   57.4341 C   0  0  0  0  0  0  0  0  0  0  0  0
  -48.2719   56.9081   58.5017 C   0  0  0  0  0  0  0  0  0  0  0  0
  -49.0567   58.7788   63.4513 C   0  0  0  0  0  0  0  0  0  0  0  0
  -49.7625   58.2859   64.7086 C   0  0  0  0  0  0  0  0  0  0  0  0
  -48.7764   58.1871   65.8524 C   0  0  0  0  0  0  0  0  0  0  0  0
  -48.1285   59.4280   66.3832 C   0  0  0  0  0  0  0  0  0  0  0  0
  -48.4875   56.9974   66.4001 C   0  0  0  0  0  0  0  0  0  0  0  0
  -46.2529   56.3784   67.0747 O   0  0  0  0  0  0  0  0  0  0  0  0
  -47.5088   56.8794   67.5462 C   0  0  0  0  0  0  0  0  0  0  0  0
  -45.6338   56.3070   67.8180 H   0  0  0  0  0  0  0  0  0  0  0  0
  6  7  1  0  0  0
 15 16  1  0  0  0
 15 17  1  0  0  0
  7  8  1  0  0  0
  7  9  2  0  0  0
  9  5  1  0  0  0
  5  4  1  0  0  0
  4  1  1  0  0  0
  1  2  1  0  0  0
  1  3  2  0  0  0
  3 10  1  0  0  0
 10 11  1  0  0  0
 11 12  1  0  0  0
 12 13  1  0  0  0
 12 14  2  0  0  0
 14 16  1  0  0  0
M  END
> <minimizedAffinity>
-7.64001

> <CNNscore>
0.8278083801

> <CNNaffinity>
6.0871238708

> <CNN_VS>
5.0389723778

> <CNNaffinity_variance>
0.1636638045

$$$$
/media/chris/experiments/cd1a-new-docking/inputs/ligands/6nux_ligand.pdb


 17 16  0  0  0  0  0  0  0  0999 V2000
  -38.3841   57.5262   61.3980 C   0  0  0  0  0  0  0  0  0  0  0  0
  -39.4097   58.1782   60.5149 C   0  0  0  0  0  0  0  0  0  0  0  0
  -38.7793   56.6223   62.3055 C   0  0  0  0  0  0  0  0  0  0  0  0
  -36.9165   57.8755   61.2683 C   0  0  0  0  0  0  0  0  0  0  0  0
  -36.1213   57.3109   62.4409 C   0  0  0  0  0  0  0  0  0  0  0  0
  -33.4674   56.4947   61.7337 C   0  0  0  0  0  0  0  0  0  0  0  0
  -33.6935   57.8094   62.4157 C   0  0  0  0  0  0  0  0  0  0  0  0
  -32.5236   58.6933   62.7280 C   0  0  0  0  0  0  0  0  0  0  0  0
  -34.9343   58.1938   62.7501 C   0  0  0  0  0  0  0  0  0  0  0  0
  -40.2421   56.2652   62.4358 C   0  0  0  0  0  0  0  0  0  0  0  0
  -40.7037   56.4567   63.8754 C   0  0  0  0  0  0  0  0  0  0  0  0
  -42.1807   56.7846   63.9076 C   0  0  0  0  0  0  0  0  0  0  0  0
  -42.7992   57.5363   62.7701 C   0  0  0  0  0  0  0  0  0  0  0  0
  -42.9408   56.3973   64.9426 C   0  0  0  0  0  0  0  0  0  0  0  0
  -44.9486   56.4034   66.2843 O   0  0  0  0  0  0  0  0  0  0  0  0
  -44.4187   56.7115   64.9902 C   0  0  0  0  0  0  0  0  0  0  0  0
  -45.8963   56.6088   66.3028 H   0  0  0  0  0  0  0  0  0  0  0  0
  6  7  1  0  0  0
 15 16  1  0  0  0
 15 17  1  0  0  0
  7  8  1  0  0  0
  7  9  2  0  0  0
  9  5  1  0  0  0
  5  4  1  0  0  0
  4  1  1  0  0  0
  1  2  1  0  0  0
  1  3  2  0  0  0
  3 10  1  0  0  0
 10 11  1  0  0  0
 11 12  1  0  0  0
 12 13  1  0  0  0
 12 14  2  0  0  0
 14 16  1  0  0  0
M  END
> <minimizedAffinity>
-7.00911

> <CNNscore>
0.7506132126

> <CNNaffinity>
5.8001017570

> <CNN_VS>
4.3536329269

> <CNNaffinity_variance>
0.0411432795

$$$$
/media/chris/experiments/cd1a-new-docking/inputs/ligands/6nux_ligand.pdb


 17 16  0  0  0  0  0  0  0  0999 V2000
  -38.4473   57.5816   61.3709 C   0  0  0  0  0  0  0  0  0  0  0  0
  -39.4550   58.2379   60.4704 C   0  0  0  0  0  0  0  0  0  0  0  0
  -38.8588   56.6630   62.2560 C   0  0  0  0  0  0  0  0  0  0  0  0
  -36.9796   57.9430   61.2833 C   0  0  0  0  0  0  0  0  0  0  0  0
  -36.1721   57.1793   62.3277 C   0  0  0  0  0  0  0  0  0  0  0  0
  -34.6280   58.4980   64.3491 C   0  0  0  0  0  0  0  0  0  0  0  0
  -33.9726   58.0365   63.0834 C   0  0  0  0  0  0  0  0  0  0  0  0
  -32.5060   58.2710   62.8799 C   0  0  0  0  0  0  0  0  0  0  0  0
  -34.6928   57.4207   62.1341 C   0  0  0  0  0  0  0  0  0  0  0  0
  -40.3218   56.2938   62.3443 C   0  0  0  0  0  0  0  0  0  0  0  0
  -40.8037   56.3963   63.7863 C   0  0  0  0  0  0  0  0  0  0  0  0
  -41.0486   57.8448   64.1499 C   0  0  0  0  0  0  0  0  0  0  0  0
  -41.8346   58.7200   63.2237 C   0  0  0  0  0  0  0  0  0  0  0  0
  -40.5756   58.3464   65.3003 C   0  0  0  0  0  0  0  0  0  0  0  0
  -39.6265   60.5605   65.4693 O   0  0  0  0  0  0  0  0  0  0  0  0
  -40.8140   59.7893   65.6827 C   0  0  0  0  0  0  0  0  0  0  0  0
  -39.7914   61.4835   65.7178 H   0  0  0  0  0  0  0  0  0  0  0  0
  6  7  1  0  0  0
 15 16  1  0  0  0
 15 17  1  0  0  0
  7  8  1  0  0  0
  7  9  2  0  0  0
  9  5  1  0  0  0
  5  4  1  0  0  0
  4  1  1  0  0  0
  1  2  1  0  0  0
  1  3  2  0  0  0
  3 10  1  0  0  0
 10 11  1  0  0  0
 11 12  1  0  0  0
 12 13  1  0  0  0
 12 14  2  0  0  0
 14 16  1  0  0  0
M  END
> <minimizedAffinity>
-6.80733

> <CNNscore>
0.7177233100

> <CNNaffinity>
5.7242102623

> <CNN_VS>
4.1083989143

> <CNNaffinity_variance>
0.0074774893

$$$$
/media/chris/experiments/cd1a-new-docking/inputs/ligands/6nux_ligand.pdb


 17 16  0  0  0  0  0  0  0  0999 V2000
  -48.5096   60.5073   61.6615 C   0  0  0  0  0  0  0  0  0  0  0  0
  -49.7304   60.2477   60.8254 C   0  0  0  0  0  0  0  0  0  0  0  0
  -47.2954   60.3250   61.1236 C   0  0  0  0  0  0  0  0  0  0  0  0
  -48.6387   60.9757   63.0956 C   0  0  0  0  0  0  0  0  0  0  0  0
  -49.7237   60.1900   63.8247 C   0  0  0  0  0  0  0  0  0  0  0  0
  -49.0746   59.6056   66.5535 C   0  0  0  0  0  0  0  0  0  0  0  0
  -48.9119   58.5533   65.4996 C   0  0  0  0  0  0  0  0  0  0  0  0
  -48.4053   57.1947   65.8806 C   0  0  0  0  0  0  0  0  0  0  0  0
  -49.2129   58.8239   64.2208 C   0  0  0  0  0  0  0  0  0  0  0  0
  -47.1599   59.8632   59.6909 C   0  0  0  0  0  0  0  0  0  0  0  0
  -46.4831   58.4989   59.6402 C   0  0  0  0  0  0  0  0  0  0  0  0
  -47.2646   57.5649   58.7419 C   0  0  0  0  0  0  0  0  0  0  0  0
  -48.5872   57.0308   59.1972 C   0  0  0  0  0  0  0  0  0  0  0  0
  -46.7857   57.2211   57.5372 C   0  0  0  0  0  0  0  0  0  0  0  0
  -47.0017   54.9734   56.6813 O   0  0  0  0  0  0  0  0  0  0  0  0
  -47.5541   56.2932   56.6241 C   0  0  0  0  0  0  0  0  0  0  0  0
  -47.5023   54.3876   56.0922 H   0  0  0  0  0  0  0  0  0  0  0  0
  6  7  1  0  0  0
 15 16  1  0  0  0
 15 17  1  0  0  0
  7  8  1  0  0  0
  7  9  2  0  0  0
  9  5  1  0  0  0
  5  4  1  0  0  0
  4  1  1  0  0  0
  1  2  1  0  0  0
  1  3  2  0  0  0
  3 10  1  0  0  0
 10 11  1  0  0  0
 11 12  1  0  0  0
 12 13  1  0  0  0
 12 14  2  0  0  0
 14 16  1  0  0  0
M  END
> <minimizedAffinity>
-7.10653

> <CNNscore>
0.6969523430

> <CNNaffinity>
6.0467329025

> <CNN_VS>
4.2142848969

> <CNNaffinity_variance>
0.0550223067

$$$$
/media/chris/experiments/cd1a-new-docking/inputs/ligands/6nux_ligand.pdb


 17 16  0  0  0  0  0  0  0  0999 V2000
  -48.8240   58.7798   62.0182 C   0  0  0  0  0  0  0  0  0  0  0  0
  -49.5677   59.1071   60.7545 C   0  0  0  0  0  0  0  0  0  0  0  0
  -47.4883   58.6738   61.9844 C   0  0  0  0  0  0  0  0  0  0  0  0
  -49.5660   58.5757   63.3222 C   0  0  0  0  0  0  0  0  0  0  0  0
  -48.6245   58.7402   64.5107 C   0  0  0  0  0  0  0  0  0  0  0  0
  -46.2980   57.2968   65.3553 C   0  0  0  0  0  0  0  0  0  0  0  0
  -47.6543   56.8900   65.8446 C   0  0  0  0  0  0  0  0  0  0  0  0
  -47.7872   55.7227   66.7758 C   0  0  0  0  0  0  0  0  0  0  0  0
  -48.7459   57.5622   65.4497 C   0  0  0  0  0  0  0  0  0  0  0  0
  -46.7415   58.8821   60.6870 C   0  0  0  0  0  0  0  0  0  0  0  0
  -46.1386   57.5662   60.2103 C   0  0  0  0  0  0  0  0  0  0  0  0
  -46.6937   57.2037   58.8499 C   0  0  0  0  0  0  0  0  0  0  0  0
  -46.4705   58.1218   57.6884 C   0  0  0  0  0  0  0  0  0  0  0  0
  -47.3744   56.0614   58.6757 C   0  0  0  0  0  0  0  0  0  0  0  0
  -47.0138   54.8263   56.6321 O   0  0  0  0  0  0  0  0  0  0  0  0
  -47.9322   55.6801   57.3234 C   0  0  0  0  0  0  0  0  0  0  0  0
  -47.3820   54.5886   55.7668 H   0  0  0  0  0  0  0  0  0  0  0  0
  6  7  1  0  0  0
 15 16  1  0  0  0
 15 17  1  0  0  0
  7  8  1  0  0  0
  7  9  2  0  0  0
  9  5  1  0  0  0
  5  4  1  0  0  0
  4  1  1  0  0  0
  1  2  1  0  0  0
  1  3  2  0  0  0
  3 10  1  0  0  0
 10 11  1  0  0  0
 11 12  1  0  0  0
 12 13  1  0  0  0
 12 14  2  0  0  0
 14 16  1  0  0  0
M  END
> <minimizedAffinity>
-7.19434

> <CNNscore>
0.6908534169

> <CNNaffinity>
6.1028580666

> <CNN_VS>
4.2161803246

> <CNNaffinity_variance>
0.1208788007

$$$$
/media/chris/experiments/cd1a-new-docking/inputs/ligands/6nux_ligand.pdb


 17 16  0  0  0  0  0  0  0  0999 V2000
  -49.9590   58.1744   61.0048 C   0  0  0  0  0  0  0  0  0  0  0  0
  -50.0104   59.6533   60.7457 C   0  0  0  0  0  0  0  0  0  0  0  0
  -49.6721   57.7341   62.2379 C   0  0  0  0  0  0  0  0  0  0  0  0
  -50.2326   57.1837   59.8928 C   0  0  0  0  0  0  0  0  0  0  0  0
  -49.0156   56.2980   59.6472 C   0  0  0  0  0  0  0  0  0  0  0  0
  -46.4086   57.4288   60.0138 C   0  0  0  0  0  0  0  0  0  0  0  0
  -47.0002   57.3319   58.6408 C   0  0  0  0  0  0  0  0  0  0  0  0
  -46.2219   57.8322   57.4612 C   0  0  0  0  0  0  0  0  0  0  0  0
  -48.2212   56.8050   58.4656 C   0  0  0  0  0  0  0  0  0  0  0  0
  -49.4038   58.7180   63.3534 C   0  0  0  0  0  0  0  0  0  0  0  0
  -48.0829   58.3887   64.0382 C   0  0  0  0  0  0  0  0  0  0  0  0
  -48.3413   57.6871   65.3540 C   0  0  0  0  0  0  0  0  0  0  0  0
  -49.6487   57.8845   66.0564 C   0  0  0  0  0  0  0  0  0  0  0  0
  -47.4117   56.8819   65.8891 C   0  0  0  0  0  0  0  0  0  0  0  0
  -48.0224   54.8060   66.9613 O   0  0  0  0  0  0  0  0  0  0  0  0
  -47.6535   56.1689   67.2000 C   0  0  0  0  0  0  0  0  0  0  0  0
  -48.1748   54.3592   67.8086 H   0  0  0  0  0  0  0  0  0  0  0  0
  6  7  1  0  0  0
 15 16  1  0  0  0
 15 17  1  0  0  0
  7  8  1  0  0  0
  7  9  2  0  0  0
  9  5  1  0  0  0
  5  4  1  0  0  0
  4  1  1  0  0  0
  1  2  1  0  0  0
  1  3  2  0  0  0
  3 10  1  0  0  0
 10 11  1  0  0  0
 11 12  1  0  0  0
 12 13  1  0  0  0
 12 14  2  0  0  0
 14 16  1  0  0  0
M  END
> <minimizedAffinity>
-7.83924

> <CNNscore>
0.6387050748

> <CNNaffinity>
5.9359993935

> <CNN_VS>
3.7913529873

> <CNNaffinity_variance>
0.1062422395

$$$$
/media/chris/experiments/cd1a-new-docking/inputs/ligands/6nux_ligand.pdb


 17 16  0  0  0  0  0  0  0  0999 V2000
  -38.3494   57.5701   61.3774 C   0  0  0  0  0  0  0  0  0  0  0  0
  -39.3727   58.1647   60.4521 C   0  0  0  0  0  0  0  0  0  0  0  0
  -38.7399   56.6853   62.3054 C   0  0  0  0  0  0  0  0  0  0  0  0
  -36.8893   57.9556   61.2672 C   0  0  0  0  0  0  0  0  0  0  0  0
  -36.0781   57.3270   62.3955 C   0  0  0  0  0  0  0  0  0  0  0  0
  -33.4502   56.4223   61.6992 C   0  0  0  0  0  0  0  0  0  0  0  0
  -33.6350   57.7445   62.3790 C   0  0  0  0  0  0  0  0  0  0  0  0
  -32.4376   58.5894   62.6950 C   0  0  0  0  0  0  0  0  0  0  0  0
  -34.8636   58.1703   62.7083 C   0  0  0  0  0  0  0  0  0  0  0  0
  -40.1950   56.2921   62.4167 C   0  0  0  0  0  0  0  0  0  0  0  0
  -40.8169   56.9237   63.6562 C   0  0  0  0  0  0  0  0  0  0  0  0
  -41.8630   57.9397   63.2516 C   0  0  0  0  0  0  0  0  0  0  0  0
  -43.2727   57.4973   63.0091 C   0  0  0  0  0  0  0  0  0  0  0  0
  -41.5383   59.2342   63.1193 C   0  0  0  0  0  0  0  0  0  0  0  0
  -41.9388   61.3702   62.0663 O   0  0  0  0  0  0  0  0  0  0  0  0
  -42.5705   60.2642   62.7206 C   0  0  0  0  0  0  0  0  0  0  0  0
  -42.6101   62.0238   61.8155 H   0  0  0  0  0  0  0  0  0  0  0  0
  6  7  1  0  0  0
 15 16  1  0  0  0
 15 17  1  0  0  0
  7  8  1  0  0  0
  7  9  2  0  0  0
  9  5  1  0  0  0
  5  4  1  0  0  0
  4  1  1  0  0  0
  1  2  1  0  0  0
  1  3  2  0  0  0
  3 10  1  0  0  0
 10 11  1  0  0  0
 11 12  1  0  0  0
 12 13  1  0  0  0
 12 14  2  0  0  0
 14 16  1  0  0  0
M  END
> <minimizedAffinity>
-6.61844

> <CNNscore>
0.6299384832

> <CNNaffinity>
5.5902266502

> <CNN_VS>
3.5214989185

> <CNNaffinity_variance>
0.0263644699

$$$$
/media/chris/experiments/cd1a-new-docking/inputs/ligands/6nux_ligand.pdb


 17 16  0  0  0  0  0  0  0  0999 V2000
  -39.9896   56.8259   62.7853 C   0  0  0  0  0  0  0  0  0  0  0  0
  -39.4551   57.3624   61.4878 C   0  0  0  0  0  0  0  0  0  0  0  0
  -39.4111   57.1965   63.9362 C   0  0  0  0  0  0  0  0  0  0  0  0
  -41.1723   55.8806   62.8034 C   0  0  0  0  0  0  0  0  0  0  0  0
  -41.5134   55.4698   64.2321 C   0  0  0  0  0  0  0  0  0  0  0  0
  -42.5728   57.6340   65.7824 C   0  0  0  0  0  0  0  0  0  0  0  0
  -43.4927   56.6040   65.2013 C   0  0  0  0  0  0  0  0  0  0  0  0
  -44.9691   56.7109   65.4380 C   0  0  0  0  0  0  0  0  0  0  0  0
  -43.0000   55.5884   64.4768 C   0  0  0  0  0  0  0  0  0  0  0  0
  -38.2340   58.1443   63.9250 C   0  0  0  0  0  0  0  0  0  0  0  0
  -37.0227   57.4858   64.5741 C   0  0  0  0  0  0  0  0  0  0  0  0
  -35.8066   57.6484   63.6880 C   0  0  0  0  0  0  0  0  0  0  0  0
  -35.8480   57.1596   62.2735 C   0  0  0  0  0  0  0  0  0  0  0  0
  -34.6967   58.2366   64.1581 C   0  0  0  0  0  0  0  0  0  0  0  0
  -33.4711   59.7161   62.6950 O   0  0  0  0  0  0  0  0  0  0  0  0
  -33.4739   58.4121   63.2867 C   0  0  0  0  0  0  0  0  0  0  0  0
  -32.6829   59.8170   62.1388 H   0  0  0  0  0  0  0  0  0  0  0  0
  6  7  1  0  0  0
 15 16  1  0  0  0
 15 17  1  0  0  0
  7  8  1  0  0  0
  7  9  2  0  0  0
  9  5  1  0  0  0
  5  4  1  0  0  0
  4  1  1  0  0  0
  1  2  1  0  0  0
  1  3  2  0  0  0
  3 10  1  0  0  0
 10 11  1  0  0  0
 11 12  1  0  0  0
 12 13  1  0  0  0
 12 14  2  0  0  0
 14 16  1  0  0  0
M  END
> <minimizedAffinity>
-6.36583

> <CNNscore>
0.6089999676

> <CNNaffinity>
5.7152824402

> <CNN_VS>
3.4806067944

> <CNNaffinity_variance>
0.0247198716

$$$$
/media/chris/experiments/cd1a-new-docking/inputs/ligands/6nux_ligand.pdb


 17 16  0  0  0  0  0  0  0  0999 V2000
  -48.3746   59.3801   60.8742 C   0  0  0  0  0  0  0  0  0  0  0  0
  -49.7040   60.0616   60.7152 C   0  0  0  0  0  0  0  0  0  0  0  0
  -48.2065   58.4935   61.8653 C   0  0  0  0  0  0  0  0  0  0  0  0
  -47.2325   59.6806   59.9266 C   0  0  0  0  0  0  0  0  0  0  0  0
  -46.4906   58.4017   59.5523 C   0  0  0  0  0  0  0  0  0  0  0  0
  -48.1060   56.1225   58.9156 C   0  0  0  0  0  0  0  0  0  0  0  0
  -47.5264   56.9635   57.8196 C   0  0  0  0  0  0  0  0  0  0  0  0
  -47.7941   56.6042   56.3890 C   0  0  0  0  0  0  0  0  0  0  0  0
  -46.7680   58.0300   58.1139 C   0  0  0  0  0  0  0  0  0  0  0  0
  -49.3445   58.1850   62.8109 C   0  0  0  0  0  0  0  0  0  0  0  0
  -49.1688   58.9554   64.1139 C   0  0  0  0  0  0  0  0  0  0  0  0
  -49.0743   57.9925   65.2775 C   0  0  0  0  0  0  0  0  0  0  0  0
  -50.2136   57.8799   66.2424 C   0  0  0  0  0  0  0  0  0  0  0  0
  -47.9820   57.2321   65.4437 C   0  0  0  0  0  0  0  0  0  0  0  0
  -47.4363   54.9809   66.1262 O   0  0  0  0  0  0  0  0  0  0  0  0
  -47.8714   56.2612   66.5972 C   0  0  0  0  0  0  0  0  0  0  0  0
  -47.3691   54.3670   66.8741 H   0  0  0  0  0  0  0  0  0  0  0  0
  6  7  1  0  0  0
 15 16  1  0  0  0
 15 17  1  0  0  0
  7  8  1  0  0  0
  7  9  2  0  0  0
  9  5  1  0  0  0
  5  4  1  0  0  0
  4  1  1  0  0  0
  1  2  1  0  0  0
  1  3  2  0  0  0
  3 10  1  0  0  0
 10 11  1  0  0  0
 11 12  1  0  0  0
 12 13  1  0  0  0
 12 14  2  0  0  0
 14 16  1  0  0  0
M  END
> <minimizedAffinity>
-7.56266

> <CNNscore>
0.5895236731

> <CNNaffinity>
5.9546461105

> <CNN_VS>
3.5104048252

> <CNNaffinity_variance>
0.1185092553

$$$$
