/media/chris/experiments/cd1a-new-docking/inputs/ligands/6nux_ligand.pdb


 17 16  0  0  0  0  0  0  0  0999 V2000
  -38.3851   57.5445   61.3787 C   0  0  0  0  0  0  0  0  0  0  0  0
  -39.4104   58.2112   60.5061 C   0  0  0  0  0  0  0  0  0  0  0  0
  -38.7824   56.6355   62.2801 C   0  0  0  0  0  0  0  0  0  0  0  0
  -36.9158   57.8847   61.2449 C   0  0  0  0  0  0  0  0  0  0  0  0
  -36.1124   57.2662   62.3844 C   0  0  0  0  0  0  0  0  0  0  0  0
  -33.4494   56.4679   61.6913 C   0  0  0  0  0  0  0  0  0  0  0  0
  -33.6843   57.7638   62.4056 C   0  0  0  0  0  0  0  0  0  0  0  0
  -32.5187   58.6382   62.7575 C   0  0  0  0  0  0  0  0  0  0  0  0
  -34.9295   58.1397   62.7334 C   0  0  0  0  0  0  0  0  0  0  0  0
  -40.2470   56.2873   62.4143 C   0  0  0  0  0  0  0  0  0  0  0  0
  -40.6931   56.4408   63.8634 C   0  0  0  0  0  0  0  0  0  0  0  0
  -42.1827   56.7016   63.9229 C   0  0  0  0  0  0  0  0  0  0  0  0
  -42.8773   57.3110   62.7450 C   0  0  0  0  0  0  0  0  0  0  0  0
  -42.8858   56.3807   65.0190 C   0  0  0  0  0  0  0  0  0  0  0  0
  -44.8309   56.4925   66.4457 O   0  0  0  0  0  0  0  0  0  0  0  0
  -44.3750   56.6292   65.0952 C   0  0  0  0  0  0  0  0  0  0  0  0
  -45.7866   56.6539   66.4822 H   0  0  0  0  0  0  0  0  0  0  0  0
  6  7  1  0  0  0
 15 16  1  0  0  0
 15 17  1  0  0  0
  7  8  1  0  0  0
  7  9  2  0  0  0
  9  5  1  0  0  0
  5  4  1  0  0  0
  4  1  1  0  0  0
  1  2  1  0  0  0
  1  3  2  0  0  0
  3 10  1  0  0  0
 10 11  1  0  0  0
 11 12  1  0  0  0
 12 13  1  0  0  0
 12 14  2  0  0  0
 14 16  1  0  0  0
M  END
> <minimizedAffinity>
-7.05036

> <CNNscore>
0.7740871310

> <CNNaffinity>
5.7925448418

> <CNN_VS>
4.4839344025

> <CNNaffinity_variance>
0.0308479518

$$$$
/media/chris/experiments/cd1a-new-docking/inputs/ligands/6nux_ligand.pdb


 17 16  0  0  0  0  0  0  0  0999 V2000
  -49.9171   58.5401   61.1563 C   0  0  0  0  0  0  0  0  0  0  0  0
  -49.9867   60.0392   61.0864 C   0  0  0  0  0  0  0  0  0  0  0  0
  -49.4261   57.9570   62.2588 C   0  0  0  0  0  0  0  0  0  0  0  0
  -50.3993   57.6881   60.0012 C   0  0  0  0  0  0  0  0  0  0  0  0
  -49.3356   56.6717   59.5990 C   0  0  0  0  0  0  0  0  0  0  0  0
  -46.5396   57.1776   59.9674 C   0  0  0  0  0  0  0  0  0  0  0  0
  -47.1833   57.4417   58.6406 C   0  0  0  0  0  0  0  0  0  0  0  0
  -46.3573   57.9742   57.5086 C   0  0  0  0  0  0  0  0  0  0  0  0
  -48.4925   57.2080   58.4651 C   0  0  0  0  0  0  0  0  0  0  0  0
  -48.9486   58.8018   63.4175 C   0  0  0  0  0  0  0  0  0  0  0  0
  -49.6421   58.3699   64.7039 C   0  0  0  0  0  0  0  0  0  0  0  0
  -48.6666   58.4159   65.8600 C   0  0  0  0  0  0  0  0  0  0  0  0
  -48.3686   59.7220   66.5284 C   0  0  0  0  0  0  0  0  0  0  0  0
  -48.0759   57.2936   66.2963 C   0  0  0  0  0  0  0  0  0  0  0  0
  -46.7931   55.9840   67.8682 O   0  0  0  0  0  0  0  0  0  0  0  0
  -47.1025   57.3189   67.4526 C   0  0  0  0  0  0  0  0  0  0  0  0
  -46.1685   56.0129   68.6097 H   0  0  0  0  0  0  0  0  0  0  0  0
  6  7  1  0  0  0
 15 16  1  0  0  0
 15 17  1  0  0  0
  7  8  1  0  0  0
  7  9  2  0  0  0
  9  5  1  0  0  0
  5  4  1  0  0  0
  4  1  1  0  0  0
  1  2  1  0  0  0
  1  3  2  0  0  0
  3 10  1  0  0  0
 10 11  1  0  0  0
 11 12  1  0  0  0
 12 13  1  0  0  0
 12 14  2  0  0  0
 14 16  1  0  0  0
M  END
> <minimizedAffinity>
-7.50631

> <CNNscore>
0.6881856918

> <CNNaffinity>
5.9135475159

> <CNN_VS>
4.0696187019

> <CNNaffinity_variance>
0.1274945438

$$$$
/media/chris/experiments/cd1a-new-docking/inputs/ligands/6nux_ligand.pdb


 17 16  0  0  0  0  0  0  0  0999 V2000
  -39.5292   57.2483   61.6048 C   0  0  0  0  0  0  0  0  0  0  0  0
  -39.4137   58.5009   60.7835 C   0  0  0  0  0  0  0  0  0  0  0  0
  -38.4300   56.7327   62.1728 C   0  0  0  0  0  0  0  0  0  0  0  0
  -40.8695   56.5713   61.7996 C   0  0  0  0  0  0  0  0  0  0  0  0
  -40.9856   55.9988   63.2085 C   0  0  0  0  0  0  0  0  0  0  0  0
  -43.3451   56.0689   64.8325 C   0  0  0  0  0  0  0  0  0  0  0  0
  -42.3023   57.1352   64.9746 C   0  0  0  0  0  0  0  0  0  0  0  0
  -42.5016   58.2394   65.9686 C   0  0  0  0  0  0  0  0  0  0  0  0
  -41.1974   57.1067   64.2145 C   0  0  0  0  0  0  0  0  0  0  0  0
  -37.0903   57.4072   61.9869 C   0  0  0  0  0  0  0  0  0  0  0  0
  -36.1822   57.1084   63.1736 C   0  0  0  0  0  0  0  0  0  0  0  0
  -35.9399   58.3707   63.9724 C   0  0  0  0  0  0  0  0  0  0  0  0
  -34.6579   58.5368   64.7275 C   0  0  0  0  0  0  0  0  0  0  0  0
  -36.8608   59.3454   63.9995 C   0  0  0  0  0  0  0  0  0  0  0  0
  -37.8876   61.1659   65.2091 O   0  0  0  0  0  0  0  0  0  0  0  0
  -36.6347   60.6154   64.7877 C   0  0  0  0  0  0  0  0  0  0  0  0
  -37.7300   61.9795   65.7132 H   0  0  0  0  0  0  0  0  0  0  0  0
  6  7  1  0  0  0
 15 16  1  0  0  0
 15 17  1  0  0  0
  7  8  1  0  0  0
  7  9  2  0  0  0
  9  5  1  0  0  0
  5  4  1  0  0  0
  4  1  1  0  0  0
  1  2  1  0  0  0
  1  3  2  0  0  0
  3 10  1  0  0  0
 10 11  1  0  0  0
 11 12  1  0  0  0
 12 13  1  0  0  0
 12 14  2  0  0  0
 14 16  1  0  0  0
M  END
> <minimizedAffinity>
-6.43570

> <CNNscore>
0.6717791557

> <CNNaffinity>
5.6124548912

> <CNN_VS>
3.7703301907

> <CNNaffinity_variance>
0.0250698440

$$$$
/media/chris/experiments/cd1a-new-docking/inputs/ligands/6nux_ligand.pdb


 17 16  0  0  0  0  0  0  0  0999 V2000
  -37.7271   57.2727   62.6253 C   0  0  0  0  0  0  0  0  0  0  0  0
  -37.8547   57.6175   64.0820 C   0  0  0  0  0  0  0  0  0  0  0  0
  -38.7747   56.7360   61.9842 C   0  0  0  0  0  0  0  0  0  0  0  0
  -36.4349   57.5302   61.8792 C   0  0  0  0  0  0  0  0  0  0  0  0
  -35.2317   57.1516   62.7366 C   0  0  0  0  0  0  0  0  0  0  0  0
  -32.5492   56.4898   61.9780 C   0  0  0  0  0  0  0  0  0  0  0  0
  -32.9121   57.9076   62.2985 C   0  0  0  0  0  0  0  0  0  0  0  0
  -31.8639   58.9765   62.2225 C   0  0  0  0  0  0  0  0  0  0  0  0
  -34.1665   58.2208   62.6560 C   0  0  0  0  0  0  0  0  0  0  0  0
  -40.0691   56.4820   62.7219 C   0  0  0  0  0  0  0  0  0  0  0  0
  -41.2550   56.9074   61.8646 C   0  0  0  0  0  0  0  0  0  0  0  0
  -41.8917   58.1533   62.4413 C   0  0  0  0  0  0  0  0  0  0  0  0
  -43.3297   58.1277   62.8572 C   0  0  0  0  0  0  0  0  0  0  0  0
  -41.1740   59.2762   62.5921 C   0  0  0  0  0  0  0  0  0  0  0  0
  -41.1446   60.8771   64.3999 O   0  0  0  0  0  0  0  0  0  0  0  0
  -41.7913   60.5291   63.1706 C   0  0  0  0  0  0  0  0  0  0  0  0
  -41.5486   61.6814   64.7613 H   0  0  0  0  0  0  0  0  0  0  0  0
  6  7  1  0  0  0
 15 16  1  0  0  0
 15 17  1  0  0  0
  7  8  1  0  0  0
  7  9  2  0  0  0
  9  5  1  0  0  0
  5  4  1  0  0  0
  4  1  1  0  0  0
  1  2  1  0  0  0
  1  3  2  0  0  0
  3 10  1  0  0  0
 10 11  1  0  0  0
 11 12  1  0  0  0
 12 13  1  0  0  0
 12 14  2  0  0  0
 14 16  1  0  0  0
M  END
> <minimizedAffinity>
-6.70899

> <CNNscore>
0.6398718357

> <CNNaffinity>
5.5981903076

> <CNN_VS>
3.5821242332

> <CNNaffinity_variance>
0.0586114712

$$$$
/media/chris/experiments/cd1a-new-docking/inputs/ligands/6nux_ligand.pdb


 17 16  0  0  0  0  0  0  0  0999 V2000
  -38.3556   57.5513   61.3769 C   0  0  0  0  0  0  0  0  0  0  0  0
  -39.3803   58.2371   60.5186 C   0  0  0  0  0  0  0  0  0  0  0  0
  -38.7542   56.6278   62.2628 C   0  0  0  0  0  0  0  0  0  0  0  0
  -36.8853   57.8887   61.2461 C   0  0  0  0  0  0  0  0  0  0  0  0
  -36.0871   57.2785   62.3936 C   0  0  0  0  0  0  0  0  0  0  0  0
  -33.4250   56.4531   61.7295 C   0  0  0  0  0  0  0  0  0  0  0  0
  -33.6562   57.7616   62.4217 C   0  0  0  0  0  0  0  0  0  0  0  0
  -32.4873   58.6344   62.7668 C   0  0  0  0  0  0  0  0  0  0  0  0
  -34.9009   58.1503   62.7359 C   0  0  0  0  0  0  0  0  0  0  0  0
  -40.2198   56.2825   62.3940 C   0  0  0  0  0  0  0  0  0  0  0  0
  -40.6645   56.4208   63.8450 C   0  0  0  0  0  0  0  0  0  0  0  0
  -40.8147   57.8831   64.2047 C   0  0  0  0  0  0  0  0  0  0  0  0
  -41.7894   58.7360   63.4537 C   0  0  0  0  0  0  0  0  0  0  0  0
  -40.0886   58.4170   65.1980 C   0  0  0  0  0  0  0  0  0  0  0  0
  -39.0181   60.3479   66.1763 O   0  0  0  0  0  0  0  0  0  0  0  0
  -40.2282   59.8743   65.5748 C   0  0  0  0  0  0  0  0  0  0  0  0
  -39.1195   61.2829   66.4135 H   0  0  0  0  0  0  0  0  0  0  0  0
  6  7  1  0  0  0
 15 16  1  0  0  0
 15 17  1  0  0  0
  7  8  1  0  0  0
  7  9  2  0  0  0
  9  5  1  0  0  0
  5  4  1  0  0  0
  4  1  1  0  0  0
  1  2  1  0  0  0
  1  3  2  0  0  0
  3 10  1  0  0  0
 10 11  1  0  0  0
 11 12  1  0  0  0
 12 13  1  0  0  0
 12 14  2  0  0  0
 14 16  1  0  0  0
M  END
> <minimizedAffinity>
-6.89059

> <CNNscore>
0.6157737374

> <CNNaffinity>
5.5611581802

> <CNN_VS>
3.4244151115

> <CNNaffinity_variance>
0.0343938284

$$$$
/media/chris/experiments/cd1a-new-docking/inputs/ligands/6nux_ligand.pdb


 17 16  0  0  0  0  0  0  0  0999 V2000
  -48.7797   60.5312   61.6138 C   0  0  0  0  0  0  0  0  0  0  0  0
  -50.1003   60.1791   60.9901 C   0  0  0  0  0  0  0  0  0  0  0  0
  -48.6185   60.3825   62.9361 C   0  0  0  0  0  0  0  0  0  0  0  0
  -47.6351   61.0438   60.7655 C   0  0  0  0  0  0  0  0  0  0  0  0
  -46.6076   59.9431   60.5228 C   0  0  0  0  0  0  0  0  0  0  0  0
  -46.0670   57.1772   60.0061 C   0  0  0  0  0  0  0  0  0  0  0  0
  -46.5079   58.0781   58.8932 C   0  0  0  0  0  0  0  0  0  0  0  0
  -46.6619   57.5250   57.5084 C   0  0  0  0  0  0  0  0  0  0  0  0
  -46.7599   59.3740   59.1310 C   0  0  0  0  0  0  0  0  0  0  0  0
  -49.7554   59.8657   63.7875 C   0  0  0  0  0  0  0  0  0  0  0  0
  -49.5032   58.4139   64.1762 C   0  0  0  0  0  0  0  0  0  0  0  0
  -48.8489   58.3479   65.5392 C   0  0  0  0  0  0  0  0  0  0  0  0
  -49.0628   59.4586   66.5200 C   0  0  0  0  0  0  0  0  0  0  0  0
  -48.0880   57.2966   65.8779 C   0  0  0  0  0  0  0  0  0  0  0  0
  -46.4779   56.1415   67.2580 O   0  0  0  0  0  0  0  0  0  0  0  0
  -47.4302   57.2106   67.2363 C   0  0  0  0  0  0  0  0  0  0  0  0
  -46.0628   56.0961   68.1335 H   0  0  0  0  0  0  0  0  0  0  0  0
  6  7  1  0  0  0
 15 16  1  0  0  0
 15 17  1  0  0  0
  7  8  1  0  0  0
  7  9  2  0  0  0
  9  5  1  0  0  0
  5  4  1  0  0  0
  4  1  1  0  0  0
  1  2  1  0  0  0
  1  3  2  0  0  0
  3 10  1  0  0  0
 10 11  1  0  0  0
 11 12  1  0  0  0
 12 13  1  0  0  0
 12 14  2  0  0  0
 14 16  1  0  0  0
M  END
> <minimizedAffinity>
-7.17288

> <CNNscore>
0.6028465629

> <CNNaffinity>
5.7255802155

> <CNN_VS>
3.4516463280

> <CNNaffinity_variance>
0.0686802715

$$$$
/media/chris/experiments/cd1a-new-docking/inputs/ligands/6nux_ligand.pdb


 17 16  0  0  0  0  0  0  0  0999 V2000
  -38.6753   57.7998   61.2295 C   0  0  0  0  0  0  0  0  0  0  0  0
  -37.9888   58.9745   60.5928 C   0  0  0  0  0  0  0  0  0  0  0  0
  -37.9739   56.9852   62.0303 C   0  0  0  0  0  0  0  0  0  0  0  0
  -40.1449   57.5335   60.9802 C   0  0  0  0  0  0  0  0  0  0  0  0
  -40.6898   56.5267   61.9880 C   0  0  0  0  0  0  0  0  0  0  0  0
  -41.8350   55.0475   64.1582 C   0  0  0  0  0  0  0  0  0  0  0  0
  -41.9067   56.5439   64.1473 C   0  0  0  0  0  0  0  0  0  0  0  0
  -42.5829   57.2620   65.2762 C   0  0  0  0  0  0  0  0  0  0  0  0
  -41.3735   57.2396   63.1319 C   0  0  0  0  0  0  0  0  0  0  0  0
  -36.5081   57.2491   62.2878 C   0  0  0  0  0  0  0  0  0  0  0  0
  -36.2083   57.1405   63.7779 C   0  0  0  0  0  0  0  0  0  0  0  0
  -37.0299   58.1520   64.5476 C   0  0  0  0  0  0  0  0  0  0  0  0
  -38.2656   57.7105   65.2684 C   0  0  0  0  0  0  0  0  0  0  0  0
  -36.6528   59.4381   64.5969 C   0  0  0  0  0  0  0  0  0  0  0  0
  -38.0483   61.4043   64.4624 O   0  0  0  0  0  0  0  0  0  0  0  0
  -37.4579   60.4619   65.3644 C   0  0  0  0  0  0  0  0  0  0  0  0
  -38.5618   62.0554   64.9656 H   0  0  0  0  0  0  0  0  0  0  0  0
  6  7  1  0  0  0
 15 16  1  0  0  0
 15 17  1  0  0  0
  7  8  1  0  0  0
  7  9  2  0  0  0
  9  5  1  0  0  0
  5  4  1  0  0  0
  4  1  1  0  0  0
  1  2  1  0  0  0
  1  3  2  0  0  0
  3 10  1  0  0  0
 10 11  1  0  0  0
 11 12  1  0  0  0
 12 13  1  0  0  0
 12 14  2  0  0  0
 14 16  1  0  0  0
M  END
> <minimizedAffinity>
-6.66136

> <CNNscore>
0.5645594001

> <CNNaffinity>
5.5640473366

> <CNN_VS>
3.1412351131

> <CNNaffinity_variance>
0.0220778249

$$$$
/media/chris/experiments/cd1a-new-docking/inputs/ligands/6nux_ligand.pdb


 17 16  0  0  0  0  0  0  0  0999 V2000
  -44.2722   58.5538   62.3264 C   0  0  0  0  0  0  0  0  0  0  0  0
  -43.7736   59.9024   62.7620 C   0  0  0  0  0  0  0  0  0  0  0  0
  -43.3971   57.5511   62.1671 C   0  0  0  0  0  0  0  0  0  0  0  0
  -45.7463   58.3184   62.0730 C   0  0  0  0  0  0  0  0  0  0  0  0
  -46.0611   58.4193   60.5840 C   0  0  0  0  0  0  0  0  0  0  0  0
  -46.4482   58.0189   57.7735 C   0  0  0  0  0  0  0  0  0  0  0  0
  -46.7216   56.9044   58.7367 C   0  0  0  0  0  0  0  0  0  0  0  0
  -47.2010   55.5806   58.2220 C   0  0  0  0  0  0  0  0  0  0  0  0
  -46.5435   57.0889   60.0533 C   0  0  0  0  0  0  0  0  0  0  0  0
  -41.9251   57.7783   62.4242 C   0  0  0  0  0  0  0  0  0  0  0  0
  -41.0955   56.7339   61.6871 C   0  0  0  0  0  0  0  0  0  0  0  0
  -39.6855   57.2432   61.4798 C   0  0  0  0  0  0  0  0  0  0  0  0
  -38.5637   56.6739   62.2915 C   0  0  0  0  0  0  0  0  0  0  0  0
  -39.4330   58.1927   60.5669 C   0  0  0  0  0  0  0  0  0  0  0  0
  -37.9111   60.0477   60.8403 O   0  0  0  0  0  0  0  0  0  0  0  0
  -38.0305   58.7105   60.3422 C   0  0  0  0  0  0  0  0  0  0  0  0
  -37.0082   60.3689   60.6908 H   0  0  0  0  0  0  0  0  0  0  0  0
  6  7  1  0  0  0
 15 16  1  0  0  0
 15 17  1  0  0  0
  7  8  1  0  0  0
  7  9  2  0  0  0
  9  5  1  0  0  0
  5  4  1  0  0  0
  4  1  1  0  0  0
  1  2  1  0  0  0
  1  3  2  0  0  0
  3 10  1  0  0  0
 10 11  1  0  0  0
 11 12  1  0  0  0
 12 13  1  0  0  0
 12 14  2  0  0  0
 14 16  1  0  0  0
M  END
> <minimizedAffinity>
-7.48460

> <CNNscore>
0.5283450484

> <CNNaffinity>
5.6288037300

> <CNN_VS>
2.9739506245

> <CNNaffinity_variance>
0.2075431794

$$$$
/media/chris/experiments/cd1a-new-docking/inputs/ligands/6nux_ligand.pdb


 17 16  0  0  0  0  0  0  0  0999 V2000
  -49.1548   58.6454   62.1361 C   0  0  0  0  0  0  0  0  0  0  0  0
  -47.8945   58.1501   62.7867 C   0  0  0  0  0  0  0  0  0  0  0  0
  -49.7379   59.7599   62.5994 C   0  0  0  0  0  0  0  0  0  0  0  0
  -49.7646   57.9037   60.9653 C   0  0  0  0  0  0  0  0  0  0  0  0
  -48.7667   56.9128   60.3749 C   0  0  0  0  0  0  0  0  0  0  0  0
  -45.9624   57.3002   59.9332 C   0  0  0  0  0  0  0  0  0  0  0  0
  -46.9429   57.5846   58.8366 C   0  0  0  0  0  0  0  0  0  0  0  0
  -46.4488   58.0751   57.5090 C   0  0  0  0  0  0  0  0  0  0  0  0
  -48.2566   57.4063   59.0406 C   0  0  0  0  0  0  0  0  0  0  0  0
  -49.1309   60.5079   63.7640 C   0  0  0  0  0  0  0  0  0  0  0  0
  -49.9608   60.2841   65.0224 C   0  0  0  0  0  0  0  0  0  0  0  0
  -49.3812   59.1430   65.8301 C   0  0  0  0  0  0  0  0  0  0  0  0
  -50.2034   57.9167   66.0785 C   0  0  0  0  0  0  0  0  0  0  0  0
  -48.1332   59.2185   66.3153 C   0  0  0  0  0  0  0  0  0  0  0  0
  -46.5407   58.5905   68.0186 O   0  0  0  0  0  0  0  0  0  0  0  0
  -47.5355   58.0870   67.1201 C   0  0  0  0  0  0  0  0  0  0  0  0
  -46.1648   57.8564   68.5290 H   0  0  0  0  0  0  0  0  0  0  0  0
  6  7  1  0  0  0
 15 16  1  0  0  0
 15 17  1  0  0  0
  7  8  1  0  0  0
  7  9  2  0  0  0
  9  5  1  0  0  0
  5  4  1  0  0  0
  4  1  1  0  0  0
  1  2  1  0  0  0
  1  3  2  0  0  0
  3 10  1  0  0  0
 10 11  1  0  0  0
 11 12  1  0  0  0
 12 13  1  0  0  0
 12 14  2  0  0  0
 14 16  1  0  0  0
M  END
> <minimizedAffinity>
-6.87314

> <CNNscore>
0.4815770388

> <CNNaffinity>
5.6850142479

> <CNN_VS>
2.7377722263

> <CNNaffinity_variance>
0.0616794340

$$$$
