/media/chris/experiments/cd1a-new-docking/inputs/ligands/6nux_ligand.pdb


 17 16  0  0  0  0  0  0  0  0999 V2000
  -38.4588   57.5149   61.4156 C   0  0  0  0  0  0  0  0  0  0  0  0
  -39.5385   58.1724   60.6040 C   0  0  0  0  0  0  0  0  0  0  0  0
  -38.7918   56.5740   62.3103 C   0  0  0  0  0  0  0  0  0  0  0  0
  -37.0064   57.8999   61.2283 C   0  0  0  0  0  0  0  0  0  0  0  0
  -36.1287   57.2221   62.2754 C   0  0  0  0  0  0  0  0  0  0  0  0
  -34.4653   58.3464   64.3194 C   0  0  0  0  0  0  0  0  0  0  0  0
  -33.8928   58.0353   62.9702 C   0  0  0  0  0  0  0  0  0  0  0  0
  -32.4465   58.3180   62.6955 C   0  0  0  0  0  0  0  0  0  0  0  0
  -34.6691   57.5109   62.0104 C   0  0  0  0  0  0  0  0  0  0  0  0
  -40.2392   56.1812   62.4978 C   0  0  0  0  0  0  0  0  0  0  0  0
  -40.7468   56.6735   63.8477 C   0  0  0  0  0  0  0  0  0  0  0  0
  -42.2286   56.9710   63.7678 C   0  0  0  0  0  0  0  0  0  0  0  0
  -42.7956   57.5899   62.5281 C   0  0  0  0  0  0  0  0  0  0  0  0
  -43.0380   56.6742   64.7951 C   0  0  0  0  0  0  0  0  0  0  0  0
  -45.2108   56.2214   65.7466 O   0  0  0  0  0  0  0  0  0  0  0  0
  -44.5212   56.9596   64.7319 C   0  0  0  0  0  0  0  0  0  0  0  0
  -46.1605   56.4122   65.6963 H   0  0  0  0  0  0  0  0  0  0  0  0
  6  7  1  0  0  0
 15 16  1  0  0  0
 15 17  1  0  0  0
  7  8  1  0  0  0
  7  9  2  0  0  0
  9  5  1  0  0  0
  5  4  1  0  0  0
  4  1  1  0  0  0
  1  2  1  0  0  0
  1  3  2  0  0  0
  3 10  1  0  0  0
 10 11  1  0  0  0
 11 12  1  0  0  0
 12 13  1  0  0  0
 12 14  2  0  0  0
 14 16  1  0  0  0
M  END
> <minimizedAffinity>
-7.03364

> <CNNscore>
0.6616574526

> <CNNaffinity>
5.7524342537

> <CNN_VS>
3.8061408997

> <CNNaffinity_variance>
0.0290179662

$$$$
/media/chris/experiments/cd1a-new-docking/inputs/ligands/6nux_ligand.pdb


 17 16  0  0  0  0  0  0  0  0999 V2000
  -38.4427   57.5573   61.3770 C   0  0  0  0  0  0  0  0  0  0  0  0
  -39.4621   58.2531   60.5204 C   0  0  0  0  0  0  0  0  0  0  0  0
  -38.8473   56.6265   62.2526 C   0  0  0  0  0  0  0  0  0  0  0  0
  -36.9712   57.8926   61.2558 C   0  0  0  0  0  0  0  0  0  0  0  0
  -36.1714   57.2235   62.3688 C   0  0  0  0  0  0  0  0  0  0  0  0
  -34.6170   58.7975   64.1896 C   0  0  0  0  0  0  0  0  0  0  0  0
  -33.9643   58.1558   63.0035 C   0  0  0  0  0  0  0  0  0  0  0  0
  -32.4950   58.3443   62.7736 C   0  0  0  0  0  0  0  0  0  0  0  0
  -34.6893   57.4201   62.1479 C   0  0  0  0  0  0  0  0  0  0  0  0
  -40.3142   56.2832   62.3741 C   0  0  0  0  0  0  0  0  0  0  0  0
  -40.7664   56.4146   63.8233 C   0  0  0  0  0  0  0  0  0  0  0  0
  -40.9320   57.8748   64.1850 C   0  0  0  0  0  0  0  0  0  0  0  0
  -41.8585   58.7372   63.3853 C   0  0  0  0  0  0  0  0  0  0  0  0
  -40.2631   58.3983   65.2228 C   0  0  0  0  0  0  0  0  0  0  0  0
  -39.1893   60.3616   66.1303 O   0  0  0  0  0  0  0  0  0  0  0  0
  -40.4192   59.8533   65.6021 C   0  0  0  0  0  0  0  0  0  0  0  0
  -39.3015   61.2948   66.3700 H   0  0  0  0  0  0  0  0  0  0  0  0
  6  7  1  0  0  0
 15 16  1  0  0  0
 15 17  1  0  0  0
  7  8  1  0  0  0
  7  9  2  0  0  0
  9  5  1  0  0  0
  5  4  1  0  0  0
  4  1  1  0  0  0
  1  2  1  0  0  0
  1  3  2  0  0  0
  3 10  1  0  0  0
 10 11  1  0  0  0
 11 12  1  0  0  0
 12 13  1  0  0  0
 12 14  2  0  0  0
 14 16  1  0  0  0
M  END
> <minimizedAffinity>
-6.85935

> <CNNscore>
0.6385965347

> <CNNaffinity>
5.6054964066

> <CNN_VS>
3.5796506405

> <CNNaffinity_variance>
0.0186948888

$$$$
/media/chris/experiments/cd1a-new-docking/inputs/ligands/6nux_ligand.pdb


 17 16  0  0  0  0  0  0  0  0999 V2000
  -41.9321   55.8627   62.9622 C   0  0  0  0  0  0  0  0  0  0  0  0
  -41.5747   54.5103   63.5101 C   0  0  0  0  0  0  0  0  0  0  0  0
  -42.6433   56.7100   63.7192 C   0  0  0  0  0  0  0  0  0  0  0  0
  -41.4933   56.2759   61.5732 C   0  0  0  0  0  0  0  0  0  0  0  0
  -40.5513   57.4736   61.6382 C   0  0  0  0  0  0  0  0  0  0  0  0
  -38.1360   58.5140   60.5012 C   0  0  0  0  0  0  0  0  0  0  0  0
  -38.0739   57.5486   61.6453 C   0  0  0  0  0  0  0  0  0  0  0  0
  -36.7417   57.1285   62.1893 C   0  0  0  0  0  0  0  0  0  0  0  0
  -39.2025   57.0579   62.1786 C   0  0  0  0  0  0  0  0  0  0  0  0
  -43.0792   56.3057   65.1087 C   0  0  0  0  0  0  0  0  0  0  0  0
  -43.4270   57.5408   65.9307 C   0  0  0  0  0  0  0  0  0  0  0  0
  -44.9078   57.5564   66.2427 C   0  0  0  0  0  0  0  0  0  0  0  0
  -45.5091   58.7428   66.9300 C   0  0  0  0  0  0  0  0  0  0  0  0
  -45.6863   56.5201   65.8981 C   0  0  0  0  0  0  0  0  0  0  0  0
  -47.6244   55.1837   66.4355 O   0  0  0  0  0  0  0  0  0  0  0  0
  -47.1681   56.5197   66.1970 C   0  0  0  0  0  0  0  0  0  0  0  0
  -48.5755   55.1959   66.6258 H   0  0  0  0  0  0  0  0  0  0  0  0
  6  7  1  0  0  0
 15 16  1  0  0  0
 15 17  1  0  0  0
  7  8  1  0  0  0
  7  9  2  0  0  0
  9  5  1  0  0  0
  5  4  1  0  0  0
  4  1  1  0  0  0
  1  2  1  0  0  0
  1  3  2  0  0  0
  3 10  1  0  0  0
 10 11  1  0  0  0
 11 12  1  0  0  0
 12 13  1  0  0  0
 12 14  2  0  0  0
 14 16  1  0  0  0
M  END
> <minimizedAffinity>
-6.93965

> <CNNscore>
0.6234816909

> <CNNaffinity>
5.6015386581

> <CNN_VS>
3.4924569130

> <CNNaffinity_variance>
0.1123584360

$$$$
/media/chris/experiments/cd1a-new-docking/inputs/ligands/6nux_ligand.pdb


 17 16  0  0  0  0  0  0  0  0999 V2000
  -38.4075   58.0636   61.2841 C   0  0  0  0  0  0  0  0  0  0  0  0
  -37.7855   59.4304   61.2408 C   0  0  0  0  0  0  0  0  0  0  0  0
  -37.7563   57.0658   61.8982 C   0  0  0  0  0  0  0  0  0  0  0  0
  -39.7577   57.8071   60.6487 C   0  0  0  0  0  0  0  0  0  0  0  0
  -40.8701   57.9006   61.6879 C   0  0  0  0  0  0  0  0  0  0  0  0
  -40.4921   56.8866   64.3408 C   0  0  0  0  0  0  0  0  0  0  0  0
  -41.1840   56.0509   63.3076 C   0  0  0  0  0  0  0  0  0  0  0  0
  -41.6745   54.6812   63.6689 C   0  0  0  0  0  0  0  0  0  0  0  0
  -41.3608   56.5216   62.0641 C   0  0  0  0  0  0  0  0  0  0  0  0
  -36.4109   57.3169   62.5394 C   0  0  0  0  0  0  0  0  0  0  0  0
  -36.5434   57.3144   64.0575 C   0  0  0  0  0  0  0  0  0  0  0  0
  -36.3270   58.7108   64.5995 C   0  0  0  0  0  0  0  0  0  0  0  0
  -34.9341   59.2257   64.7894 C   0  0  0  0  0  0  0  0  0  0  0  0
  -37.3739   59.4932   64.9005 C   0  0  0  0  0  0  0  0  0  0  0  0
  -37.9666   61.0840   66.6178 O   0  0  0  0  0  0  0  0  0  0  0  0
  -37.1776   60.8922   65.4385 C   0  0  0  0  0  0  0  0  0  0  0  0
  -37.8327   61.9842   66.9535 H   0  0  0  0  0  0  0  0  0  0  0  0
  6  7  1  0  0  0
 15 16  1  0  0  0
 15 17  1  0  0  0
  7  8  1  0  0  0
  7  9  2  0  0  0
  9  5  1  0  0  0
  5  4  1  0  0  0
  4  1  1  0  0  0
  1  2  1  0  0  0
  1  3  2  0  0  0
  3 10  1  0  0  0
 10 11  1  0  0  0
 11 12  1  0  0  0
 12 13  1  0  0  0
 12 14  2  0  0  0
 14 16  1  0  0  0
M  END
> <minimizedAffinity>
-6.53309

> <CNNscore>
0.5844601989

> <CNNaffinity>
5.5031061172

> <CNN_VS>
3.2163465023

> <CNNaffinity_variance>
0.0189128909

$$$$
/media/chris/experiments/cd1a-new-docking/inputs/ligands/6nux_ligand.pdb


 17 16  0  0  0  0  0  0  0  0999 V2000
  -37.5087   57.2711   63.6203 C   0  0  0  0  0  0  0  0  0  0  0  0
  -38.5225   57.6934   64.6453 C   0  0  0  0  0  0  0  0  0  0  0  0
  -37.9286   56.8027   62.4366 C   0  0  0  0  0  0  0  0  0  0  0  0
  -36.0260   57.3750   63.9094 C   0  0  0  0  0  0  0  0  0  0  0  0
  -35.2124   57.1880   62.6330 C   0  0  0  0  0  0  0  0  0  0  0  0
  -32.4857   56.5035   62.0806 C   0  0  0  0  0  0  0  0  0  0  0  0
  -32.8805   57.9382   62.2554 C   0  0  0  0  0  0  0  0  0  0  0  0
  -31.8409   59.0123   62.1424 C   0  0  0  0  0  0  0  0  0  0  0  0
  -34.1557   58.2621   62.5162 C   0  0  0  0  0  0  0  0  0  0  0  0
  -39.4071   56.7020   62.1398 C   0  0  0  0  0  0  0  0  0  0  0  0
  -39.7690   57.5987   60.9620 C   0  0  0  0  0  0  0  0  0  0  0  0
  -40.0633   59.0011   61.4487 C   0  0  0  0  0  0  0  0  0  0  0  0
  -39.2937   60.1575   60.8902 C   0  0  0  0  0  0  0  0  0  0  0  0
  -41.0157   59.2159   62.3683 C   0  0  0  0  0  0  0  0  0  0  0  0
  -40.7455   60.8179   64.1548 O   0  0  0  0  0  0  0  0  0  0  0  0
  -41.3271   60.6100   62.8631 C   0  0  0  0  0  0  0  0  0  0  0  0
  -40.9518   61.7147   64.4618 H   0  0  0  0  0  0  0  0  0  0  0  0
  6  7  1  0  0  0
 15 16  1  0  0  0
 15 17  1  0  0  0
  7  8  1  0  0  0
  7  9  2  0  0  0
  9  5  1  0  0  0
  5  4  1  0  0  0
  4  1  1  0  0  0
  1  2  1  0  0  0
  1  3  2  0  0  0
  3 10  1  0  0  0
 10 11  1  0  0  0
 11 12  1  0  0  0
 12 13  1  0  0  0
 12 14  2  0  0  0
 14 16  1  0  0  0
M  END
> <minimizedAffinity>
-6.79966

> <CNNscore>
0.5812386870

> <CNNaffinity>
5.4798359871

> <CNN_VS>
3.1850926876

> <CNNaffinity_variance>
0.0538400598

$$$$
/media/chris/experiments/cd1a-new-docking/inputs/ligands/6nux_ligand.pdb


 17 16  0  0  0  0  0  0  0  0999 V2000
  -38.3686   57.5547   61.4064 C   0  0  0  0  0  0  0  0  0  0  0  0
  -39.4319   58.1609   60.5353 C   0  0  0  0  0  0  0  0  0  0  0  0
  -38.7174   56.6557   62.3375 C   0  0  0  0  0  0  0  0  0  0  0  0
  -36.9151   57.9441   61.2383 C   0  0  0  0  0  0  0  0  0  0  0  0
  -36.0512   57.2804   62.3057 C   0  0  0  0  0  0  0  0  0  0  0  0
  -33.3796   56.4128   61.7413 C   0  0  0  0  0  0  0  0  0  0  0  0
  -33.6181   57.7466   62.3808 C   0  0  0  0  0  0  0  0  0  0  0  0
  -32.4515   58.6226   62.7257 C   0  0  0  0  0  0  0  0  0  0  0  0
  -34.8673   58.1550   62.6483 C   0  0  0  0  0  0  0  0  0  0  0  0
  -40.1658   56.2585   62.5063 C   0  0  0  0  0  0  0  0  0  0  0  0
  -40.6403   56.5880   63.9164 C   0  0  0  0  0  0  0  0  0  0  0  0
  -41.3564   57.9213   63.9247 C   0  0  0  0  0  0  0  0  0  0  0  0
  -41.1025   58.8933   65.0348 C   0  0  0  0  0  0  0  0  0  0  0  0
  -42.2079   58.2420   62.9394 C   0  0  0  0  0  0  0  0  0  0  0  0
  -44.3109   59.3866   63.2531 O   0  0  0  0  0  0  0  0  0  0  0  0
  -42.9287   59.5707   62.9281 C   0  0  0  0  0  0  0  0  0  0  0  0
  -44.7626   60.2449   63.2426 H   0  0  0  0  0  0  0  0  0  0  0  0
  6  7  1  0  0  0
 15 16  1  0  0  0
 15 17  1  0  0  0
  7  8  1  0  0  0
  7  9  2  0  0  0
  9  5  1  0  0  0
  5  4  1  0  0  0
  4  1  1  0  0  0
  1  2  1  0  0  0
  1  3  2  0  0  0
  3 10  1  0  0  0
 10 11  1  0  0  0
 11 12  1  0  0  0
 12 13  1  0  0  0
 12 14  2  0  0  0
 14 16  1  0  0  0
M  END
> <minimizedAffinity>
-6.58855

> <CNNscore>
0.5672383308

> <CNNaffinity>
5.5588507652

> <CNN_VS>
3.1531932354

> <CNNaffinity_variance>
0.0291428212

$$$$
/media/chris/experiments/cd1a-new-docking/inputs/ligands/6nux_ligand.pdb


 17 16  0  0  0  0  0  0  0  0999 V2000
  -49.9732   58.2186   61.3596 C   0  0  0  0  0  0  0  0  0  0  0  0
  -49.8576   59.6787   61.0257 C   0  0  0  0  0  0  0  0  0  0  0  0
  -49.6786   57.8041   62.5998 C   0  0  0  0  0  0  0  0  0  0  0  0
  -50.4225   57.2188   60.3149 C   0  0  0  0  0  0  0  0  0  0  0  0
  -49.2418   56.3931   59.8146 C   0  0  0  0  0  0  0  0  0  0  0  0
  -46.5965   57.3048   60.4315 C   0  0  0  0  0  0  0  0  0  0  0  0
  -47.2006   57.5996   59.0925 C   0  0  0  0  0  0  0  0  0  0  0  0
  -46.4145   58.3759   58.0793 C   0  0  0  0  0  0  0  0  0  0  0  0
  -48.4394   57.1761   58.8011 C   0  0  0  0  0  0  0  0  0  0  0  0
  -49.2352   58.7980   63.6485 C   0  0  0  0  0  0  0  0  0  0  0  0
  -49.5728   58.2787   65.0408 C   0  0  0  0  0  0  0  0  0  0  0  0
  -48.3755   57.5682   65.6341 C   0  0  0  0  0  0  0  0  0  0  0  0
  -48.5430   56.7326   66.8651 C   0  0  0  0  0  0  0  0  0  0  0  0
  -47.1685   57.6734   65.0589 C   0  0  0  0  0  0  0  0  0  0  0  0
  -44.8611   57.0461   64.7221 O   0  0  0  0  0  0  0  0  0  0  0  0
  -45.9620   56.9673   65.6342 C   0  0  0  0  0  0  0  0  0  0  0  0
  -44.0936   56.5901   65.1015 H   0  0  0  0  0  0  0  0  0  0  0  0
  6  7  1  0  0  0
 15 16  1  0  0  0
 15 17  1  0  0  0
  7  8  1  0  0  0
  7  9  2  0  0  0
  9  5  1  0  0  0
  5  4  1  0  0  0
  4  1  1  0  0  0
  1  2  1  0  0  0
  1  3  2  0  0  0
  3 10  1  0  0  0
 10 11  1  0  0  0
 11 12  1  0  0  0
 12 13  1  0  0  0
 12 14  2  0  0  0
 14 16  1  0  0  0
M  END
> <minimizedAffinity>
-7.03358

> <CNNscore>
0.5463861823

> <CNNaffinity>
5.8508272171

> <CNN_VS>
3.1968111992

> <CNNaffinity_variance>
0.1107756644

$$$$
/media/chris/experiments/cd1a-new-docking/inputs/ligands/6nux_ligand.pdb


 17 16  0  0  0  0  0  0  0  0999 V2000
  -44.2791   58.4332   62.4242 C   0  0  0  0  0  0  0  0  0  0  0  0
  -43.8116   59.7538   62.9669 C   0  0  0  0  0  0  0  0  0  0  0  0
  -43.3809   57.4675   62.1849 C   0  0  0  0  0  0  0  0  0  0  0  0
  -45.7477   58.1841   62.1523 C   0  0  0  0  0  0  0  0  0  0  0  0
  -46.1282   58.6677   60.7568 C   0  0  0  0  0  0  0  0  0  0  0  0
  -46.3460   57.6839   58.0747 C   0  0  0  0  0  0  0  0  0  0  0  0
  -47.4891   57.5235   59.0299 C   0  0  0  0  0  0  0  0  0  0  0  0
  -48.7473   56.8483   58.5737 C   0  0  0  0  0  0  0  0  0  0  0  0
  -47.3913   57.9847   60.2856 C   0  0  0  0  0  0  0  0  0  0  0  0
  -41.9142   57.7080   62.4597 C   0  0  0  0  0  0  0  0  0  0  0  0
  -41.0650   56.6880   61.7110 C   0  0  0  0  0  0  0  0  0  0  0  0
  -39.6747   57.2395   61.4803 C   0  0  0  0  0  0  0  0  0  0  0  0
  -38.5220   56.7006   62.2692 C   0  0  0  0  0  0  0  0  0  0  0  0
  -39.4668   58.1994   60.5671 C   0  0  0  0  0  0  0  0  0  0  0  0
  -37.9786   60.0768   60.8697 O   0  0  0  0  0  0  0  0  0  0  0  0
  -38.0847   58.7593   60.3194 C   0  0  0  0  0  0  0  0  0  0  0  0
  -37.0886   60.4255   60.7048 H   0  0  0  0  0  0  0  0  0  0  0  0
  6  7  1  0  0  0
 15 16  1  0  0  0
 15 17  1  0  0  0
  7  8  1  0  0  0
  7  9  2  0  0  0
  9  5  1  0  0  0
  5  4  1  0  0  0
  4  1  1  0  0  0
  1  2  1  0  0  0
  1  3  2  0  0  0
  3 10  1  0  0  0
 10 11  1  0  0  0
 11 12  1  0  0  0
 12 13  1  0  0  0
 12 14  2  0  0  0
 14 16  1  0  0  0
M  END
> <minimizedAffinity>
-7.21312

> <CNNscore>
0.4972828627

> <CNNaffinity>
5.6559939384

> <CNN_VS>
2.8126287460

> <CNNaffinity_variance>
0.2832302749

$$$$
/media/chris/experiments/cd1a-new-docking/inputs/ligands/6nux_ligand.pdb


 17 16  0  0  0  0  0  0  0  0999 V2000
  -35.2156   58.3661   63.9876 C   0  0  0  0  0  0  0  0  0  0  0  0
  -33.9584   58.2003   64.7931 C   0  0  0  0  0  0  0  0  0  0  0  0
  -35.6842   59.5991   63.7495 C   0  0  0  0  0  0  0  0  0  0  0  0
  -35.9496   57.1597   63.4412 C   0  0  0  0  0  0  0  0  0  0  0  0
  -36.7041   57.5188   62.1653 C   0  0  0  0  0  0  0  0  0  0  0  0
  -38.7243   58.5965   60.4430 C   0  0  0  0  0  0  0  0  0  0  0  0
  -39.0677   57.5131   61.4193 C   0  0  0  0  0  0  0  0  0  0  0  0
  -40.4739   56.9987   61.4914 C   0  0  0  0  0  0  0  0  0  0  0  0
  -38.1250   57.0077   62.2285 C   0  0  0  0  0  0  0  0  0  0  0  0
  -34.9529   60.8075   64.2873 C   0  0  0  0  0  0  0  0  0  0  0  0
  -35.3170   62.0458   63.4772 C   0  0  0  0  0  0  0  0  0  0  0  0
  -34.1593   63.0205   63.4705 C   0  0  0  0  0  0  0  0  0  0  0  0
  -33.4370   63.3065   62.1907 C   0  0  0  0  0  0  0  0  0  0  0  0
  -33.7834   63.6375   64.6005 C   0  0  0  0  0  0  0  0  0  0  0  0
  -31.4517   63.9881   65.1214 O   0  0  0  0  0  0  0  0  0  0  0  0
  -32.6327   64.6177   64.6125 C   0  0  0  0  0  0  0  0  0  0  0  0
  -30.7209   64.6259   65.1246 H   0  0  0  0  0  0  0  0  0  0  0  0
  6  7  1  0  0  0
 15 16  1  0  0  0
 15 17  1  0  0  0
  7  8  1  0  0  0
  7  9  2  0  0  0
  9  5  1  0  0  0
  5  4  1  0  0  0
  4  1  1  0  0  0
  1  2  1  0  0  0
  1  3  2  0  0  0
  3 10  1  0  0  0
 10 11  1  0  0  0
 11 12  1  0  0  0
 12 13  1  0  0  0
 12 14  2  0  0  0
 14 16  1  0  0  0
M  END
> <minimizedAffinity>
-6.51466

> <CNNscore>
0.4887731671

> <CNNaffinity>
5.0965733528

> <CNN_VS>
2.4910683632

> <CNNaffinity_variance>
0.1501344442

$$$$
