/media/chris/experiments/cd1a-new-docking/inputs/ligands/6nux_ligand.pdb


 17 16  0  0  0  0  0  0  0  0999 V2000
  -38.5181   57.5706   61.5012 C   0  0  0  0  0  0  0  0  0  0  0  0
  -39.5535   58.2210   60.6284 C   0  0  0  0  0  0  0  0  0  0  0  0
  -38.8889   56.5968   62.3444 C   0  0  0  0  0  0  0  0  0  0  0  0
  -37.0675   57.9995   61.4324 C   0  0  0  0  0  0  0  0  0  0  0  0
  -36.2212   57.2018   62.4192 C   0  0  0  0  0  0  0  0  0  0  0  0
  -34.5250   58.6164   64.2443 C   0  0  0  0  0  0  0  0  0  0  0  0
  -33.9588   58.0443   62.9807 C   0  0  0  0  0  0  0  0  0  0  0  0
  -32.5014   58.2185   62.6759 C   0  0  0  0  0  0  0  0  0  0  0  0
  -34.7503   57.3832   62.1230 C   0  0  0  0  0  0  0  0  0  0  0  0
  -40.3342   56.1603   62.4135 C   0  0  0  0  0  0  0  0  0  0  0  0
  -40.8427   56.2509   63.8471 C   0  0  0  0  0  0  0  0  0  0  0  0
  -42.2931   56.6834   63.8570 C   0  0  0  0  0  0  0  0  0  0  0  0
  -43.2322   56.1083   64.8713 C   0  0  0  0  0  0  0  0  0  0  0  0
  -42.7396   57.5853   62.9705 C   0  0  0  0  0  0  0  0  0  0  0  0
  -44.7912   57.7365   61.7058 O   0  0  0  0  0  0  0  0  0  0  0  0
  -44.1835   58.0330   62.9681 C   0  0  0  0  0  0  0  0  0  0  0  0
  -45.7164   58.0278   61.7159 H   0  0  0  0  0  0  0  0  0  0  0  0
  6  7  1  0  0  0
 15 16  1  0  0  0
 15 17  1  0  0  0
  7  8  1  0  0  0
  7  9  2  0  0  0
  9  5  1  0  0  0
  5  4  1  0  0  0
  4  1  1  0  0  0
  1  2  1  0  0  0
  1  3  2  0  0  0
  3 10  1  0  0  0
 10 11  1  0  0  0
 11 12  1  0  0  0
 12 13  1  0  0  0
 12 14  2  0  0  0
 14 16  1  0  0  0
M  END
> <minimizedAffinity>
-6.71497

> <CNNscore>
0.6833158731

> <CNNaffinity>
5.7036280632

> <CNN_VS>
3.8973796368

> <CNNaffinity_variance>
0.0072309980

$$$$
/media/chris/experiments/cd1a-new-docking/inputs/ligands/6nux_ligand.pdb


 17 16  0  0  0  0  0  0  0  0999 V2000
  -38.4365   57.7423   61.2324 C   0  0  0  0  0  0  0  0  0  0  0  0
  -38.1553   58.8224   60.2268 C   0  0  0  0  0  0  0  0  0  0  0  0
  -37.4260   57.2416   61.9569 C   0  0  0  0  0  0  0  0  0  0  0  0
  -39.8438   57.2223   61.4369 C   0  0  0  0  0  0  0  0  0  0  0  0
  -39.9694   56.5197   62.7847 C   0  0  0  0  0  0  0  0  0  0  0  0
  -38.8578   57.9219   65.0225 C   0  0  0  0  0  0  0  0  0  0  0  0
  -40.3322   57.9710   64.7611 C   0  0  0  0  0  0  0  0  0  0  0  0
  -41.2220   58.7551   65.6779 C   0  0  0  0  0  0  0  0  0  0  0  0
  -40.8563   57.3141   63.7156 C   0  0  0  0  0  0  0  0  0  0  0  0
  -36.0200   57.7606   61.7616 C   0  0  0  0  0  0  0  0  0  0  0  0
  -35.0387   56.9471   62.5967 C   0  0  0  0  0  0  0  0  0  0  0  0
  -33.6240   57.4215   62.3433 C   0  0  0  0  0  0  0  0  0  0  0  0
  -32.5755   56.4385   61.9239 C   0  0  0  0  0  0  0  0  0  0  0  0
  -33.3063   58.7171   62.4816 C   0  0  0  0  0  0  0  0  0  0  0  0
  -31.8682   60.6419   62.2396 O   0  0  0  0  0  0  0  0  0  0  0  0
  -31.8999   59.2103   62.2282 C   0  0  0  0  0  0  0  0  0  0  0  0
  -30.9619   60.9466   62.0761 H   0  0  0  0  0  0  0  0  0  0  0  0
  6  7  1  0  0  0
 15 16  1  0  0  0
 15 17  1  0  0  0
  7  8  1  0  0  0
  7  9  2  0  0  0
  9  5  1  0  0  0
  5  4  1  0  0  0
  4  1  1  0  0  0
  1  2  1  0  0  0
  1  3  2  0  0  0
  3 10  1  0  0  0
 10 11  1  0  0  0
 11 12  1  0  0  0
 12 13  1  0  0  0
 12 14  2  0  0  0
 14 16  1  0  0  0
M  END
> <minimizedAffinity>
-7.03963

> <CNNscore>
0.6406168938

> <CNNaffinity>
5.7163801193

> <CNN_VS>
3.6620097160

> <CNNaffinity_variance>
0.0446798280

$$$$
/media/chris/experiments/cd1a-new-docking/inputs/ligands/6nux_ligand.pdb


 17 16  0  0  0  0  0  0  0  0999 V2000
  -38.3821   57.6348   62.0434 C   0  0  0  0  0  0  0  0  0  0  0  0
  -38.6017   57.6091   63.5293 C   0  0  0  0  0  0  0  0  0  0  0  0
  -39.4415   57.7034   61.2249 C   0  0  0  0  0  0  0  0  0  0  0  0
  -36.9828   57.5898   61.4668 C   0  0  0  0  0  0  0  0  0  0  0  0
  -35.9884   57.0749   62.5022 C   0  0  0  0  0  0  0  0  0  0  0  0
  -34.2856   58.3341   64.4321 C   0  0  0  0  0  0  0  0  0  0  0  0
  -33.7863   58.0757   63.0434 C   0  0  0  0  0  0  0  0  0  0  0  0
  -32.3926   58.4820   62.6691 C   0  0  0  0  0  0  0  0  0  0  0  0
  -34.5813   57.4883   62.1367 C   0  0  0  0  0  0  0  0  0  0  0  0
  -40.8405   57.7543   61.7945 C   0  0  0  0  0  0  0  0  0  0  0  0
  -41.5054   56.3881   61.6784 C   0  0  0  0  0  0  0  0  0  0  0  0
  -41.9213   55.8953   63.0476 C   0  0  0  0  0  0  0  0  0  0  0  0
  -41.5416   54.5152   63.4866 C   0  0  0  0  0  0  0  0  0  0  0  0
  -42.6179   56.6898   63.8735 C   0  0  0  0  0  0  0  0  0  0  0  0
  -44.4445   55.9493   65.2688 O   0  0  0  0  0  0  0  0  0  0  0  0
  -43.0379   56.2168   65.2466 C   0  0  0  0  0  0  0  0  0  0  0  0
  -44.7022   55.6468   66.1537 H   0  0  0  0  0  0  0  0  0  0  0  0
  6  7  1  0  0  0
 15 16  1  0  0  0
 15 17  1  0  0  0
  7  8  1  0  0  0
  7  9  2  0  0  0
  9  5  1  0  0  0
  5  4  1  0  0  0
  4  1  1  0  0  0
  1  2  1  0  0  0
  1  3  2  0  0  0
  3 10  1  0  0  0
 10 11  1  0  0  0
 11 12  1  0  0  0
 12 13  1  0  0  0
 12 14  2  0  0  0
 14 16  1  0  0  0
M  END
> <minimizedAffinity>
-6.86249

> <CNNscore>
0.6315076351

> <CNNaffinity>
5.7059073448

> <CNN_VS>
3.6033239365

> <CNNaffinity_variance>
0.0052126674

$$$$
/media/chris/experiments/cd1a-new-docking/inputs/ligands/6nux_ligand.pdb


 17 16  0  0  0  0  0  0  0  0999 V2000
  -38.4486   57.5438   61.4011 C   0  0  0  0  0  0  0  0  0  0  0  0
  -39.5174   58.2249   60.5944 C   0  0  0  0  0  0  0  0  0  0  0  0
  -38.7967   56.5995   62.2864 C   0  0  0  0  0  0  0  0  0  0  0  0
  -36.9905   57.9091   61.2192 C   0  0  0  0  0  0  0  0  0  0  0  0
  -36.1282   57.2338   62.2806 C   0  0  0  0  0  0  0  0  0  0  0  0
  -34.5093   58.4251   64.3226 C   0  0  0  0  0  0  0  0  0  0  0  0
  -33.9094   58.0771   62.9946 C   0  0  0  0  0  0  0  0  0  0  0  0
  -32.4591   58.3580   62.7398 C   0  0  0  0  0  0  0  0  0  0  0  0
  -34.6647   57.5211   62.0356 C   0  0  0  0  0  0  0  0  0  0  0  0
  -40.2500   56.2263   62.4684 C   0  0  0  0  0  0  0  0  0  0  0  0
  -40.6640   56.4187   63.9222 C   0  0  0  0  0  0  0  0  0  0  0  0
  -40.8538   57.8909   64.2173 C   0  0  0  0  0  0  0  0  0  0  0  0
  -41.9179   58.6608   63.4986 C   0  0  0  0  0  0  0  0  0  0  0  0
  -40.0828   58.5072   65.1252 C   0  0  0  0  0  0  0  0  0  0  0  0
  -39.2350   60.4194   66.3321 O   0  0  0  0  0  0  0  0  0  0  0  0
  -40.2608   59.9758   65.4368 C   0  0  0  0  0  0  0  0  0  0  0  0
  -39.3593   61.3619   66.5247 H   0  0  0  0  0  0  0  0  0  0  0  0
  6  7  1  0  0  0
 15 16  1  0  0  0
 15 17  1  0  0  0
  7  8  1  0  0  0
  7  9  2  0  0  0
  9  5  1  0  0  0
  5  4  1  0  0  0
  4  1  1  0  0  0
  1  2  1  0  0  0
  1  3  2  0  0  0
  3 10  1  0  0  0
 10 11  1  0  0  0
 11 12  1  0  0  0
 12 13  1  0  0  0
 12 14  2  0  0  0
 14 16  1  0  0  0
M  END
> <minimizedAffinity>
-6.87292

> <CNNscore>
0.6270090342

> <CNNaffinity>
5.6052017212

> <CNN_VS>
3.5145120621

> <CNNaffinity_variance>
0.0160517581

$$$$
/media/chris/experiments/cd1a-new-docking/inputs/ligands/6nux_ligand.pdb


 17 16  0  0  0  0  0  0  0  0999 V2000
  -39.0589   57.4492   61.4172 C   0  0  0  0  0  0  0  0  0  0  0  0
  -38.4981   58.5006   60.5023 C   0  0  0  0  0  0  0  0  0  0  0  0
  -38.2403   56.8183   62.2708 C   0  0  0  0  0  0  0  0  0  0  0  0
  -40.5326   57.1030   61.3871 C   0  0  0  0  0  0  0  0  0  0  0  0
  -41.3077   57.9535   62.3881 C   0  0  0  0  0  0  0  0  0  0  0  0
  -44.0978   57.7186   62.9959 C   0  0  0  0  0  0  0  0  0  0  0  0
  -43.0830   56.9993   63.8309 C   0  0  0  0  0  0  0  0  0  0  0  0
  -43.5354   56.1588   64.9869 C   0  0  0  0  0  0  0  0  0  0  0  0
  -41.7758   57.1085   63.5506 C   0  0  0  0  0  0  0  0  0  0  0  0
  -36.7694   57.1636   62.3097 C   0  0  0  0  0  0  0  0  0  0  0  0
  -36.2979   57.2931   63.7530 C   0  0  0  0  0  0  0  0  0  0  0  0
  -35.9563   58.7352   64.0598 C   0  0  0  0  0  0  0  0  0  0  0  0
  -34.7293   59.0540   64.8563 C   0  0  0  0  0  0  0  0  0  0  0  0
  -36.7391   59.7289   63.6144 C   0  0  0  0  0  0  0  0  0  0  0  0
  -37.4791   61.7861   64.6400 O   0  0  0  0  0  0  0  0  0  0  0  0
  -36.4114   61.1755   63.9067 C   0  0  0  0  0  0  0  0  0  0  0  0
  -37.2580   62.7129   64.8217 H   0  0  0  0  0  0  0  0  0  0  0  0
  6  7  1  0  0  0
 15 16  1  0  0  0
 15 17  1  0  0  0
  7  8  1  0  0  0
  7  9  2  0  0  0
  9  5  1  0  0  0
  5  4  1  0  0  0
  4  1  1  0  0  0
  1  2  1  0  0  0
  1  3  2  0  0  0
  3 10  1  0  0  0
 10 11  1  0  0  0
 11 12  1  0  0  0
 12 13  1  0  0  0
 12 14  2  0  0  0
 14 16  1  0  0  0
M  END
> <minimizedAffinity>
-6.44865

> <CNNscore>
0.5990996361

> <CNNaffinity>
5.6485233307

> <CNN_VS>
3.3840281963

> <CNNaffinity_variance>
0.0424950346

$$$$
/media/chris/experiments/cd1a-new-docking/inputs/ligands/6nux_ligand.pdb


 17 16  0  0  0  0  0  0  0  0999 V2000
  -37.4421   57.8681   63.9750 C   0  0  0  0  0  0  0  0  0  0  0  0
  -38.6480   57.6633   64.8472 C   0  0  0  0  0  0  0  0  0  0  0  0
  -37.4617   57.4180   62.7126 C   0  0  0  0  0  0  0  0  0  0  0  0
  -36.2150   58.5793   64.5052 C   0  0  0  0  0  0  0  0  0  0  0  0
  -34.9893   57.6753   64.4232 C   0  0  0  0  0  0  0  0  0  0  0  0
  -33.7615   57.0375   61.9143 C   0  0  0  0  0  0  0  0  0  0  0  0
  -33.2190   58.1523   62.7553 C   0  0  0  0  0  0  0  0  0  0  0  0
  -32.0293   58.9297   62.2782 C   0  0  0  0  0  0  0  0  0  0  0  0
  -33.7899   58.4524   63.9314 C   0  0  0  0  0  0  0  0  0  0  0  0
  -38.6858   56.7125   62.1757 C   0  0  0  0  0  0  0  0  0  0  0  0
  -39.3957   57.5944   61.1556 C   0  0  0  0  0  0  0  0  0  0  0  0
  -40.4539   58.4318   61.8409 C   0  0  0  0  0  0  0  0  0  0  0  0
  -41.6990   57.7786   62.3555 C   0  0  0  0  0  0  0  0  0  0  0  0
  -40.2791   59.7520   61.9992 C   0  0  0  0  0  0  0  0  0  0  0  0
  -40.9396   60.8589   64.0413 O   0  0  0  0  0  0  0  0  0  0  0  0
  -41.3228   60.6038   62.6853 C   0  0  0  0  0  0  0  0  0  0  0  0
  -41.6159   61.4056   64.4710 H   0  0  0  0  0  0  0  0  0  0  0  0
  6  7  1  0  0  0
 15 16  1  0  0  0
 15 17  1  0  0  0
  7  8  1  0  0  0
  7  9  2  0  0  0
  9  5  1  0  0  0
  5  4  1  0  0  0
  4  1  1  0  0  0
  1  2  1  0  0  0
  1  3  2  0  0  0
  3 10  1  0  0  0
 10 11  1  0  0  0
 11 12  1  0  0  0
 12 13  1  0  0  0
 12 14  2  0  0  0
 14 16  1  0  0  0
M  END
> <minimizedAffinity>
-6.46216

> <CNNscore>
0.5725745559

> <CNNaffinity>
5.5523595810

> <CNN_VS>
3.1791398525

> <CNNaffinity_variance>
0.1481786072

$$$$
/media/chris/experiments/cd1a-new-docking/inputs/ligands/6nux_ligand.pdb


 17 16  0  0  0  0  0  0  0  0999 V2000
  -35.4876   58.5188   63.8376 C   0  0  0  0  0  0  0  0  0  0  0  0
  -34.5405   58.5791   65.0021 C   0  0  0  0  0  0  0  0  0  0  0  0
  -35.8199   59.6518   63.2030 C   0  0  0  0  0  0  0  0  0  0  0  0
  -36.0617   57.1964   63.3744 C   0  0  0  0  0  0  0  0  0  0  0  0
  -36.7939   57.3611   62.0466 C   0  0  0  0  0  0  0  0  0  0  0  0
  -38.8430   58.5558   60.4393 C   0  0  0  0  0  0  0  0  0  0  0  0
  -39.1896   57.4789   61.4215 C   0  0  0  0  0  0  0  0  0  0  0  0
  -40.6139   57.0324   61.5601 C   0  0  0  0  0  0  0  0  0  0  0  0
  -38.2333   56.9187   62.1770 C   0  0  0  0  0  0  0  0  0  0  0  0
  -35.2456   60.9741   63.6569 C   0  0  0  0  0  0  0  0  0  0  0  0
  -36.3655   61.9802   63.8929 C   0  0  0  0  0  0  0  0  0  0  0  0
  -36.4357   62.3439   65.3604 C   0  0  0  0  0  0  0  0  0  0  0  0
  -37.0299   61.3771   66.3370 C   0  0  0  0  0  0  0  0  0  0  0  0
  -35.9599   63.5209   65.7926 C   0  0  0  0  0  0  0  0  0  0  0  0
  -34.7341   64.3568   67.6980 O   0  0  0  0  0  0  0  0  0  0  0  0
  -36.0168   63.8996   67.2551 C   0  0  0  0  0  0  0  0  0  0  0  0
  -34.7827   64.5967   68.6366 H   0  0  0  0  0  0  0  0  0  0  0  0
  6  7  1  0  0  0
 15 16  1  0  0  0
 15 17  1  0  0  0
  7  8  1  0  0  0
  7  9  2  0  0  0
  9  5  1  0  0  0
  5  4  1  0  0  0
  4  1  1  0  0  0
  1  2  1  0  0  0
  1  3  2  0  0  0
  3 10  1  0  0  0
 10 11  1  0  0  0
 11 12  1  0  0  0
 12 13  1  0  0  0
 12 14  2  0  0  0
 14 16  1  0  0  0
M  END
> <minimizedAffinity>
-6.66342

> <CNNscore>
0.5188603401

> <CNNaffinity>
5.1807236671

> <CNN_VS>
2.6880719662

> <CNNaffinity_variance>
0.0428896472

$$$$
/media/chris/experiments/cd1a-new-docking/inputs/ligands/6nux_ligand.pdb


 17 16  0  0  0  0  0  0  0  0999 V2000
  -42.2348   57.9435   62.5625 C   0  0  0  0  0  0  0  0  0  0  0  0
  -41.7164   59.3478   62.4356 C   0  0  0  0  0  0  0  0  0  0  0  0
  -41.5164   56.9311   62.0569 C   0  0  0  0  0  0  0  0  0  0  0  0
  -43.5507   57.6640   63.2573 C   0  0  0  0  0  0  0  0  0  0  0  0
  -43.3169   56.9932   64.6070 C   0  0  0  0  0  0  0  0  0  0  0  0
  -44.8067   58.4377   66.5827 C   0  0  0  0  0  0  0  0  0  0  0  0
  -43.3225   58.6147   66.4816 C   0  0  0  0  0  0  0  0  0  0  0  0
  -42.6223   59.5533   67.4177 C   0  0  0  0  0  0  0  0  0  0  0  0
  -42.6221   57.9417   65.5566 C   0  0  0  0  0  0  0  0  0  0  0  0
  -40.1993   57.2031   61.3674 C   0  0  0  0  0  0  0  0  0  0  0  0
  -39.0419   56.7365   62.2420 C   0  0  0  0  0  0  0  0  0  0  0  0
  -37.7531   57.3870   61.7875 C   0  0  0  0  0  0  0  0  0  0  0  0
  -37.7748   58.3656   60.6546 C   0  0  0  0  0  0  0  0  0  0  0  0
  -36.5945   57.1007   62.3993 C   0  0  0  0  0  0  0  0  0  0  0  0
  -35.0266   58.9013   62.7610 O   0  0  0  0  0  0  0  0  0  0  0  0
  -35.2980   57.7440   61.9626 C   0  0  0  0  0  0  0  0  0  0  0  0
  -34.1933   59.3053   62.4721 H   0  0  0  0  0  0  0  0  0  0  0  0
  6  7  1  0  0  0
 15 16  1  0  0  0
 15 17  1  0  0  0
  7  8  1  0  0  0
  7  9  2  0  0  0
  9  5  1  0  0  0
  5  4  1  0  0  0
  4  1  1  0  0  0
  1  2  1  0  0  0
  1  3  2  0  0  0
  3 10  1  0  0  0
 10 11  1  0  0  0
 11 12  1  0  0  0
 12 13  1  0  0  0
 12 14  2  0  0  0
 14 16  1  0  0  0
M  END
> <minimizedAffinity>
-6.64839

> <CNNscore>
0.5020353198

> <CNNaffinity>
5.5144829750

> <CNN_VS>
2.7684652805

> <CNNaffinity_variance>
0.0582321994

$$$$
/media/chris/experiments/cd1a-new-docking/inputs/ligands/6nux_ligand.pdb


 17 16  0  0  0  0  0  0  0  0999 V2000
  -38.8143   57.7630   61.3154 C   0  0  0  0  0  0  0  0  0  0  0  0
  -37.9366   58.6232   60.4514 C   0  0  0  0  0  0  0  0  0  0  0  0
  -38.2529   56.9859   62.2523 C   0  0  0  0  0  0  0  0  0  0  0  0
  -40.3184   57.7711   61.1415 C   0  0  0  0  0  0  0  0  0  0  0  0
  -40.9274   56.4672   61.6467 C   0  0  0  0  0  0  0  0  0  0  0  0
  -41.5428   54.4170   63.5513 C   0  0  0  0  0  0  0  0  0  0  0  0
  -42.1653   55.7738   63.6791 C   0  0  0  0  0  0  0  0  0  0  0  0
  -43.1133   56.0513   64.8068 C   0  0  0  0  0  0  0  0  0  0  0  0
  -41.8811   56.7353   62.7882 C   0  0  0  0  0  0  0  0  0  0  0  0
  -36.7526   56.9778   62.4347 C   0  0  0  0  0  0  0  0  0  0  0  0
  -36.3947   57.3692   63.8633 C   0  0  0  0  0  0  0  0  0  0  0  0
  -36.7319   58.8251   64.1025 C   0  0  0  0  0  0  0  0  0  0  0  0
  -37.8169   59.1866   65.0688 C   0  0  0  0  0  0  0  0  0  0  0  0
  -36.0588   59.7929   63.4630 C   0  0  0  0  0  0  0  0  0  0  0  0
  -36.7079   61.8878   62.4524 O   0  0  0  0  0  0  0  0  0  0  0  0
  -36.3782   61.2525   63.6926 C   0  0  0  0  0  0  0  0  0  0  0  0
  -36.9108   62.8229   62.6119 H   0  0  0  0  0  0  0  0  0  0  0  0
  6  7  1  0  0  0
 15 16  1  0  0  0
 15 17  1  0  0  0
  7  8  1  0  0  0
  7  9  2  0  0  0
  9  5  1  0  0  0
  5  4  1  0  0  0
  4  1  1  0  0  0
  1  2  1  0  0  0
  1  3  2  0  0  0
  3 10  1  0  0  0
 10 11  1  0  0  0
 11 12  1  0  0  0
 12 13  1  0  0  0
 12 14  2  0  0  0
 14 16  1  0  0  0
M  END
> <minimizedAffinity>
-6.77795

> <CNNscore>
0.4897676408

> <CNNaffinity>
5.4435939789

> <CNN_VS>
2.6660962105

> <CNNaffinity_variance>
0.0333964340

$$$$
