/media/chris/experiments/cd1a-new-docking/inputs/ligands/6nux_ligand.pdb


 17 16  0  0  0  0  0  0  0  0999 V2000
  -39.5092   57.1536   61.5763 C   0  0  0  0  0  0  0  0  0  0  0  0
  -39.3003   58.2248   60.5439 C   0  0  0  0  0  0  0  0  0  0  0  0
  -38.4534   56.6794   62.2524 C   0  0  0  0  0  0  0  0  0  0  0  0
  -40.8945   56.6129   61.8614 C   0  0  0  0  0  0  0  0  0  0  0  0
  -40.9621   56.0122   63.2616 C   0  0  0  0  0  0  0  0  0  0  0  0
  -43.3568   56.0428   64.8344 C   0  0  0  0  0  0  0  0  0  0  0  0
  -42.3166   57.1037   65.0274 C   0  0  0  0  0  0  0  0  0  0  0  0
  -42.5371   58.1817   66.0454 C   0  0  0  0  0  0  0  0  0  0  0  0
  -41.1953   57.0936   64.2914 C   0  0  0  0  0  0  0  0  0  0  0  0
  -37.0689   57.2192   61.9765 C   0  0  0  0  0  0  0  0  0  0  0  0
  -36.6221   58.1273   63.1157 C   0  0  0  0  0  0  0  0  0  0  0  0
  -35.1193   58.0540   63.2789 C   0  0  0  0  0  0  0  0  0  0  0  0
  -34.5066   58.2854   64.6252 C   0  0  0  0  0  0  0  0  0  0  0  0
  -34.3342   57.7728   62.2284 C   0  0  0  0  0  0  0  0  0  0  0  0
  -32.2161   58.8537   61.8082 O   0  0  0  0  0  0  0  0  0  0  0  0
  -32.8317   57.6908   62.3730 C   0  0  0  0  0  0  0  0  0  0  0  0
  -31.2531   58.7899   61.9066 H   0  0  0  0  0  0  0  0  0  0  0  0
  6  7  1  0  0  0
 15 16  1  0  0  0
 15 17  1  0  0  0
  7  8  1  0  0  0
  7  9  2  0  0  0
  9  5  1  0  0  0
  5  4  1  0  0  0
  4  1  1  0  0  0
  1  2  1  0  0  0
  1  3  2  0  0  0
  3 10  1  0  0  0
 10 11  1  0  0  0
 11 12  1  0  0  0
 12 13  1  0  0  0
 12 14  2  0  0  0
 14 16  1  0  0  0
M  END
> <minimizedAffinity>
-6.69472

> <CNNscore>
0.7986312509

> <CNNaffinity>
5.9026927948

> <CNN_VS>
4.7140750885

> <CNNaffinity_variance>
0.0184367839

$$$$
/media/chris/experiments/cd1a-new-docking/inputs/ligands/6nux_ligand.pdb


 17 16  0  0  0  0  0  0  0  0999 V2000
  -38.4438   57.5710   61.3822 C   0  0  0  0  0  0  0  0  0  0  0  0
  -39.4854   58.2249   60.5195 C   0  0  0  0  0  0  0  0  0  0  0  0
  -38.8194   56.6466   62.2773 C   0  0  0  0  0  0  0  0  0  0  0  0
  -36.9819   57.9413   61.2457 C   0  0  0  0  0  0  0  0  0  0  0  0
  -36.1472   57.2492   62.3182 C   0  0  0  0  0  0  0  0  0  0  0  0
  -34.5702   58.7895   64.1485 C   0  0  0  0  0  0  0  0  0  0  0  0
  -33.9377   58.1924   62.9287 C   0  0  0  0  0  0  0  0  0  0  0  0
  -32.4769   58.4075   62.6702 C   0  0  0  0  0  0  0  0  0  0  0  0
  -34.6734   57.4725   62.0686 C   0  0  0  0  0  0  0  0  0  0  0  0
  -40.2763   56.2686   62.4142 C   0  0  0  0  0  0  0  0  0  0  0  0
  -40.7371   56.4643   63.8535 C   0  0  0  0  0  0  0  0  0  0  0  0
  -42.2211   56.7592   63.8877 C   0  0  0  0  0  0  0  0  0  0  0  0
  -42.8800   57.3909   62.7010 C   0  0  0  0  0  0  0  0  0  0  0  0
  -42.9512   56.4488   64.9691 C   0  0  0  0  0  0  0  0  0  0  0  0
  -44.9503   56.4394   66.3237 O   0  0  0  0  0  0  0  0  0  0  0  0
  -44.4354   56.7314   65.0199 C   0  0  0  0  0  0  0  0  0  0  0  0
  -45.9024   56.6242   66.3443 H   0  0  0  0  0  0  0  0  0  0  0  0
  6  7  1  0  0  0
 15 16  1  0  0  0
 15 17  1  0  0  0
  7  8  1  0  0  0
  7  9  2  0  0  0
  9  5  1  0  0  0
  5  4  1  0  0  0
  4  1  1  0  0  0
  1  2  1  0  0  0
  1  3  2  0  0  0
  3 10  1  0  0  0
 10 11  1  0  0  0
 11 12  1  0  0  0
 12 13  1  0  0  0
 12 14  2  0  0  0
 14 16  1  0  0  0
M  END
> <minimizedAffinity>
-7.03027

> <CNNscore>
0.7372275591

> <CNNaffinity>
5.7814264297

> <CNN_VS>
4.2622270584

> <CNNaffinity_variance>
0.0203945599

$$$$
/media/chris/experiments/cd1a-new-docking/inputs/ligands/6nux_ligand.pdb


 17 16  0  0  0  0  0  0  0  0999 V2000
  -38.4210   57.5709   61.3711 C   0  0  0  0  0  0  0  0  0  0  0  0
  -39.4256   58.2304   60.4695 C   0  0  0  0  0  0  0  0  0  0  0  0
  -38.8364   56.6534   62.2556 C   0  0  0  0  0  0  0  0  0  0  0  0
  -36.9521   57.9279   61.2853 C   0  0  0  0  0  0  0  0  0  0  0  0
  -36.1572   57.2083   62.3699 C   0  0  0  0  0  0  0  0  0  0  0  0
  -34.5815   58.8997   64.0626 C   0  0  0  0  0  0  0  0  0  0  0  0
  -33.9381   58.1601   62.9297 C   0  0  0  0  0  0  0  0  0  0  0  0
  -32.4669   58.3122   62.6855 C   0  0  0  0  0  0  0  0  0  0  0  0
  -34.6731   57.3691   62.1339 C   0  0  0  0  0  0  0  0  0  0  0  0
  -40.3005   56.2885   62.3420 C   0  0  0  0  0  0  0  0  0  0  0  0
  -40.7865   56.4022   63.7818 C   0  0  0  0  0  0  0  0  0  0  0  0
  -41.0171   57.8548   64.1384 C   0  0  0  0  0  0  0  0  0  0  0  0
  -41.8359   58.7207   63.2323 C   0  0  0  0  0  0  0  0  0  0  0  0
  -40.5022   58.3683   65.2654 C   0  0  0  0  0  0  0  0  0  0  0  0
  -39.4861   60.4268   66.0148 O   0  0  0  0  0  0  0  0  0  0  0  0
  -40.7258   59.8155   65.6406 C   0  0  0  0  0  0  0  0  0  0  0  0
  -39.6418   61.3541   66.2533 H   0  0  0  0  0  0  0  0  0  0  0  0
  6  7  1  0  0  0
 15 16  1  0  0  0
 15 17  1  0  0  0
  7  8  1  0  0  0
  7  9  2  0  0  0
  9  5  1  0  0  0
  5  4  1  0  0  0
  4  1  1  0  0  0
  1  2  1  0  0  0
  1  3  2  0  0  0
  3 10  1  0  0  0
 10 11  1  0  0  0
 11 12  1  0  0  0
 12 13  1  0  0  0
 12 14  2  0  0  0
 14 16  1  0  0  0
M  END
> <minimizedAffinity>
-6.86087

> <CNNscore>
0.6683459282

> <CNNaffinity>
5.6719026566

> <CNN_VS>
3.7907929420

> <CNNaffinity_variance>
0.0068021780

$$$$
/media/chris/experiments/cd1a-new-docking/inputs/ligands/6nux_ligand.pdb


 17 16  0  0  0  0  0  0  0  0999 V2000
  -36.6289   58.1743   62.2149 C   0  0  0  0  0  0  0  0  0  0  0  0
  -35.5882   57.1537   62.5787 C   0  0  0  0  0  0  0  0  0  0  0  0
  -36.8661   59.1955   63.0501 C   0  0  0  0  0  0  0  0  0  0  0  0
  -37.4028   58.0624   60.9183 C   0  0  0  0  0  0  0  0  0  0  0  0
  -38.7674   58.7317   61.0445 C   0  0  0  0  0  0  0  0  0  0  0  0
  -40.2852   57.8189   63.2967 C   0  0  0  0  0  0  0  0  0  0  0  0
  -40.5834   57.2933   61.9258 C   0  0  0  0  0  0  0  0  0  0  0  0
  -41.6778   56.2859   61.7400 C   0  0  0  0  0  0  0  0  0  0  0  0
  -39.8735   57.7168   60.8695 C   0  0  0  0  0  0  0  0  0  0  0  0
  -36.0928   59.3159   64.3431 C   0  0  0  0  0  0  0  0  0  0  0  0
  -35.0772   60.4477   64.2447 C   0  0  0  0  0  0  0  0  0  0  0  0
  -35.6157   61.6886   64.9234 C   0  0  0  0  0  0  0  0  0  0  0  0
  -36.4723   62.6440   64.1523 C   0  0  0  0  0  0  0  0  0  0  0  0
  -35.3396   61.9322   66.2132 C   0  0  0  0  0  0  0  0  0  0  0  0
  -36.4975   62.8017   68.1457 O   0  0  0  0  0  0  0  0  0  0  0  0
  -35.8723   63.1637   66.9093 C   0  0  0  0  0  0  0  0  0  0  0  0
  -36.8352   63.5990   68.5829 H   0  0  0  0  0  0  0  0  0  0  0  0
  6  7  1  0  0  0
 15 16  1  0  0  0
 15 17  1  0  0  0
  7  8  1  0  0  0
  7  9  2  0  0  0
  9  5  1  0  0  0
  5  4  1  0  0  0
  4  1  1  0  0  0
  1  2  1  0  0  0
  1  3  2  0  0  0
  3 10  1  0  0  0
 10 11  1  0  0  0
 11 12  1  0  0  0
 12 13  1  0  0  0
 12 14  2  0  0  0
 14 16  1  0  0  0
M  END
> <minimizedAffinity>
-6.45829

> <CNNscore>
0.6565725803

> <CNNaffinity>
5.5236392021

> <CNN_VS>
3.6266701221

> <CNNaffinity_variance>
0.1147958189

$$$$
/media/chris/experiments/cd1a-new-docking/inputs/ligands/6nux_ligand.pdb


 17 16  0  0  0  0  0  0  0  0999 V2000
  -38.6883   57.8350   61.2321 C   0  0  0  0  0  0  0  0  0  0  0  0
  -37.9545   58.9068   60.4773 C   0  0  0  0  0  0  0  0  0  0  0  0
  -38.0111   57.0509   62.0825 C   0  0  0  0  0  0  0  0  0  0  0  0
  -40.1780   57.6383   61.0453 C   0  0  0  0  0  0  0  0  0  0  0  0
  -40.6685   56.4361   61.8453 C   0  0  0  0  0  0  0  0  0  0  0  0
  -41.6314   54.5551   63.7802 C   0  0  0  0  0  0  0  0  0  0  0  0
  -42.0171   55.9995   63.8786 C   0  0  0  0  0  0  0  0  0  0  0  0
  -42.9110   56.4539   64.9929 C   0  0  0  0  0  0  0  0  0  0  0  0
  -41.5698   56.8825   62.9734 C   0  0  0  0  0  0  0  0  0  0  0  0
  -36.5251   57.2460   62.2777 C   0  0  0  0  0  0  0  0  0  0  0  0
  -36.1840   57.2343   63.7629 C   0  0  0  0  0  0  0  0  0  0  0  0
  -37.0751   58.2046   64.5077 C   0  0  0  0  0  0  0  0  0  0  0  0
  -38.2796   57.6963   65.2372 C   0  0  0  0  0  0  0  0  0  0  0  0
  -36.7871   59.5144   64.5275 C   0  0  0  0  0  0  0  0  0  0  0  0
  -37.4757   61.8184   64.7483 O   0  0  0  0  0  0  0  0  0  0  0  0
  -37.6626   60.4980   65.2698 C   0  0  0  0  0  0  0  0  0  0  0  0
  -38.0418   62.4403   65.2317 H   0  0  0  0  0  0  0  0  0  0  0  0
  6  7  1  0  0  0
 15 16  1  0  0  0
 15 17  1  0  0  0
  7  8  1  0  0  0
  7  9  2  0  0  0
  9  5  1  0  0  0
  5  4  1  0  0  0
  4  1  1  0  0  0
  1  2  1  0  0  0
  1  3  2  0  0  0
  3 10  1  0  0  0
 10 11  1  0  0  0
 11 12  1  0  0  0
 12 13  1  0  0  0
 12 14  2  0  0  0
 14 16  1  0  0  0
M  END
> <minimizedAffinity>
-6.85582

> <CNNscore>
0.6340886354

> <CNNaffinity>
5.6108617783

> <CNN_VS>
3.5577836037

> <CNNaffinity_variance>
0.0198832266

$$$$
/media/chris/experiments/cd1a-new-docking/inputs/ligands/6nux_ligand.pdb


 17 16  0  0  0  0  0  0  0  0999 V2000
  -33.5921   59.0078   62.7517 C   0  0  0  0  0  0  0  0  0  0  0  0
  -32.2335   59.4249   62.2647 C   0  0  0  0  0  0  0  0  0  0  0  0
  -34.3737   59.9075   63.3650 C   0  0  0  0  0  0  0  0  0  0  0  0
  -34.0845   57.5900   62.5515 C   0  0  0  0  0  0  0  0  0  0  0  0
  -35.3576   57.3422   63.3539 C   0  0  0  0  0  0  0  0  0  0  0  0
  -38.0529   57.6352   64.2807 C   0  0  0  0  0  0  0  0  0  0  0  0
  -37.7848   57.2217   62.8659 C   0  0  0  0  0  0  0  0  0  0  0  0
  -38.9340   56.9599   61.9396 C   0  0  0  0  0  0  0  0  0  0  0  0
  -36.5243   57.0815   62.4292 C   0  0  0  0  0  0  0  0  0  0  0  0
  -33.8902   61.3258   63.5627 C   0  0  0  0  0  0  0  0  0  0  0  0
  -35.0770   62.2690   63.7174 C   0  0  0  0  0  0  0  0  0  0  0  0
  -35.0284   62.9468   65.0696 C   0  0  0  0  0  0  0  0  0  0  0  0
  -33.7149   63.4032   65.6243 C   0  0  0  0  0  0  0  0  0  0  0  0
  -36.1546   63.1508   65.7688 C   0  0  0  0  0  0  0  0  0  0  0  0
  -36.4111   62.8839   68.1551 O   0  0  0  0  0  0  0  0  0  0  0  0
  -36.1264   63.8302   67.1189 C   0  0  0  0  0  0  0  0  0  0  0  0
  -36.3903   63.3307   69.0158 H   0  0  0  0  0  0  0  0  0  0  0  0
  6  7  1  0  0  0
 15 16  1  0  0  0
 15 17  1  0  0  0
  7  8  1  0  0  0
  7  9  2  0  0  0
  9  5  1  0  0  0
  5  4  1  0  0  0
  4  1  1  0  0  0
  1  2  1  0  0  0
  1  3  2  0  0  0
  3 10  1  0  0  0
 10 11  1  0  0  0
 11 12  1  0  0  0
 12 13  1  0  0  0
 12 14  2  0  0  0
 14 16  1  0  0  0
M  END
> <minimizedAffinity>
-6.65237

> <CNNscore>
0.6211928129

> <CNNaffinity>
5.4645204544

> <CNN_VS>
3.3945207596

> <CNNaffinity_variance>
0.0778594539

$$$$
/media/chris/experiments/cd1a-new-docking/inputs/ligands/6nux_ligand.pdb


 17 16  0  0  0  0  0  0  0  0999 V2000
  -49.9638   58.7457   61.2491 C   0  0  0  0  0  0  0  0  0  0  0  0
  -49.8329   60.1958   60.8793 C   0  0  0  0  0  0  0  0  0  0  0  0
  -49.6798   58.3599   62.5010 C   0  0  0  0  0  0  0  0  0  0  0  0
  -50.4165   57.7240   60.2274 C   0  0  0  0  0  0  0  0  0  0  0  0
  -49.3180   56.6989   59.9655 C   0  0  0  0  0  0  0  0  0  0  0  0
  -46.6259   57.5662   60.4234 C   0  0  0  0  0  0  0  0  0  0  0  0
  -47.1831   57.5451   59.0329 C   0  0  0  0  0  0  0  0  0  0  0  0
  -46.3254   57.9824   57.8838 C   0  0  0  0  0  0  0  0  0  0  0  0
  -48.4436   57.1416   58.8150 C   0  0  0  0  0  0  0  0  0  0  0  0
  -49.2331   59.3758   63.5270 C   0  0  0  0  0  0  0  0  0  0  0  0
  -49.5259   58.8666   64.9331 C   0  0  0  0  0  0  0  0  0  0  0  0
  -48.3872   57.9952   65.4171 C   0  0  0  0  0  0  0  0  0  0  0  0
  -47.0132   58.1893   64.8550 C   0  0  0  0  0  0  0  0  0  0  0  0
  -48.5984   57.0582   66.3532 C   0  0  0  0  0  0  0  0  0  0  0  0
  -47.5413   54.8901   66.2378 O   0  0  0  0  0  0  0  0  0  0  0  0
  -47.4726   56.1816   66.8524 C   0  0  0  0  0  0  0  0  0  0  0  0
  -46.8149   54.3370   66.5653 H   0  0  0  0  0  0  0  0  0  0  0  0
  6  7  1  0  0  0
 15 16  1  0  0  0
 15 17  1  0  0  0
  7  8  1  0  0  0
  7  9  2  0  0  0
  9  5  1  0  0  0
  5  4  1  0  0  0
  4  1  1  0  0  0
  1  2  1  0  0  0
  1  3  2  0  0  0
  3 10  1  0  0  0
 10 11  1  0  0  0
 11 12  1  0  0  0
 12 13  1  0  0  0
 12 14  2  0  0  0
 14 16  1  0  0  0
M  END
> <minimizedAffinity>
-7.44841

> <CNNscore>
0.5466820598

> <CNNaffinity>
5.8458013535

> <CNN_VS>
3.1957948208

> <CNNaffinity_variance>
0.1689813137

$$$$
/media/chris/experiments/cd1a-new-docking/inputs/ligands/6nux_ligand.pdb


 17 16  0  0  0  0  0  0  0  0999 V2000
  -49.3208   59.7566   62.2284 C   0  0  0  0  0  0  0  0  0  0  0  0
  -49.6388   58.3008   62.4191 C   0  0  0  0  0  0  0  0  0  0  0  0
  -49.3526   60.5790   63.2864 C   0  0  0  0  0  0  0  0  0  0  0  0
  -48.9615   60.2977   60.8606 C   0  0  0  0  0  0  0  0  0  0  0  0
  -47.4493   60.3030   60.6622 C   0  0  0  0  0  0  0  0  0  0  0  0
  -46.5902   57.5782   60.4464 C   0  0  0  0  0  0  0  0  0  0  0  0
  -46.6894   58.4348   59.2213 C   0  0  0  0  0  0  0  0  0  0  0  0
  -46.3343   57.8592   57.8835 C   0  0  0  0  0  0  0  0  0  0  0  0
  -47.0892   59.7114   59.3188 C   0  0  0  0  0  0  0  0  0  0  0  0
  -49.7049   60.0438   64.6552 C   0  0  0  0  0  0  0  0  0  0  0  0
  -48.4366   59.7156   65.4337 C   0  0  0  0  0  0  0  0  0  0  0  0
  -48.5865   58.3809   66.1311 C   0  0  0  0  0  0  0  0  0  0  0  0
  -49.9432   57.7627   66.2672 C   0  0  0  0  0  0  0  0  0  0  0  0
  -47.5114   57.7437   66.6180 C   0  0  0  0  0  0  0  0  0  0  0  0
  -47.4712   55.3417   66.3726 O   0  0  0  0  0  0  0  0  0  0  0  0
  -47.6408   56.4077   67.3135 C   0  0  0  0  0  0  0  0  0  0  0  0
  -47.5563   54.4903   66.8296 H   0  0  0  0  0  0  0  0  0  0  0  0
  6  7  1  0  0  0
 15 16  1  0  0  0
 15 17  1  0  0  0
  7  8  1  0  0  0
  7  9  2  0  0  0
  9  5  1  0  0  0
  5  4  1  0  0  0
  4  1  1  0  0  0
  1  2  1  0  0  0
  1  3  2  0  0  0
  3 10  1  0  0  0
 10 11  1  0  0  0
 11 12  1  0  0  0
 12 13  1  0  0  0
 12 14  2  0  0  0
 14 16  1  0  0  0
M  END
> <minimizedAffinity>
-7.08021

> <CNNscore>
0.5333578587

> <CNNaffinity>
5.7456045151

> <CNN_VS>
3.0644633770

> <CNNaffinity_variance>
0.1406347454

$$$$
/media/chris/experiments/cd1a-new-docking/inputs/ligands/6nux_ligand.pdb


 17 16  0  0  0  0  0  0  0  0999 V2000
  -49.9030   58.8965   61.1978 C   0  0  0  0  0  0  0  0  0  0  0  0
  -49.7877   60.2324   60.5205 C   0  0  0  0  0  0  0  0  0  0  0  0
  -49.6389   58.8007   62.5085 C   0  0  0  0  0  0  0  0  0  0  0  0
  -50.3179   57.6666   60.4182 C   0  0  0  0  0  0  0  0  0  0  0  0
  -49.1371   56.7186   60.2366 C   0  0  0  0  0  0  0  0  0  0  0  0
  -46.4583   57.7096   60.4623 C   0  0  0  0  0  0  0  0  0  0  0  0
  -47.0903   57.5508   59.1133 C   0  0  0  0  0  0  0  0  0  0  0  0
  -46.3146   57.9156   57.8835 C   0  0  0  0  0  0  0  0  0  0  0  0
  -48.3449   57.0891   59.0040 C   0  0  0  0  0  0  0  0  0  0  0  0
  -49.2299   60.0259   63.2933 C   0  0  0  0  0  0  0  0  0  0  0  0
  -49.8918   60.0159   64.6659 C   0  0  0  0  0  0  0  0  0  0  0  0
  -49.2603   58.9531   65.5389 C   0  0  0  0  0  0  0  0  0  0  0  0
  -50.1094   57.8595   66.1085 C   0  0  0  0  0  0  0  0  0  0  0  0
  -47.9443   58.9784   65.7965 C   0  0  0  0  0  0  0  0  0  0  0  0
  -46.7485   58.5195   67.8436 O   0  0  0  0  0  0  0  0  0  0  0  0
  -47.2950   57.9229   66.6622 C   0  0  0  0  0  0  0  0  0  0  0  0
  -46.3349   57.8335   68.3907 H   0  0  0  0  0  0  0  0  0  0  0  0
  6  7  1  0  0  0
 15 16  1  0  0  0
 15 17  1  0  0  0
  7  8  1  0  0  0
  7  9  2  0  0  0
  9  5  1  0  0  0
  5  4  1  0  0  0
  4  1  1  0  0  0
  1  2  1  0  0  0
  1  3  2  0  0  0
  3 10  1  0  0  0
 10 11  1  0  0  0
 11 12  1  0  0  0
 12 13  1  0  0  0
 12 14  2  0  0  0
 14 16  1  0  0  0
M  END
> <minimizedAffinity>
-7.05817

> <CNNscore>
0.5260655880

> <CNNaffinity>
5.7028064728

> <CNN_VS>
3.0000503063

> <CNNaffinity_variance>
0.0753516406

$$$$
