/media/chris/experiments/cd1a-new-docking/inputs/ligands/6nux_ligand.pdb


 17 16  0  0  0  0  0  0  0  0999 V2000
  -38.1622   57.6027   62.1507 C   0  0  0  0  0  0  0  0  0  0  0  0
  -38.4059   57.4969   63.6293 C   0  0  0  0  0  0  0  0  0  0  0  0
  -39.2076   57.7250   61.3207 C   0  0  0  0  0  0  0  0  0  0  0  0
  -36.7541   57.5782   61.5945 C   0  0  0  0  0  0  0  0  0  0  0  0
  -35.7539   57.1781   62.6742 C   0  0  0  0  0  0  0  0  0  0  0  0
  -33.1113   56.4644   61.8278 C   0  0  0  0  0  0  0  0  0  0  0  0
  -33.3883   57.8420   62.3475 C   0  0  0  0  0  0  0  0  0  0  0  0
  -32.2751   58.8431   62.4244 C   0  0  0  0  0  0  0  0  0  0  0  0
  -34.6238   58.1790   62.7465 C   0  0  0  0  0  0  0  0  0  0  0  0
  -40.6152   57.7559   61.8702 C   0  0  0  0  0  0  0  0  0  0  0  0
  -41.3073   56.4219   61.6181 C   0  0  0  0  0  0  0  0  0  0  0  0
  -41.8856   55.8850   62.9094 C   0  0  0  0  0  0  0  0  0  0  0  0
  -41.4814   54.5281   63.3963 C   0  0  0  0  0  0  0  0  0  0  0  0
  -42.7489   56.6204   63.6254 C   0  0  0  0  0  0  0  0  0  0  0  0
  -42.9731   56.9651   66.0049 O   0  0  0  0  0  0  0  0  0  0  0  0
  -43.3333   56.1030   64.9199 C   0  0  0  0  0  0  0  0  0  0  0  0
  -43.3532   56.6235   66.8294 H   0  0  0  0  0  0  0  0  0  0  0  0
  6  7  1  0  0  0
 15 16  1  0  0  0
 15 17  1  0  0  0
  7  8  1  0  0  0
  7  9  2  0  0  0
  9  5  1  0  0  0
  5  4  1  0  0  0
  4  1  1  0  0  0
  1  2  1  0  0  0
  1  3  2  0  0  0
  3 10  1  0  0  0
 10 11  1  0  0  0
 11 12  1  0  0  0
 12 13  1  0  0  0
 12 14  2  0  0  0
 14 16  1  0  0  0
M  END
> <minimizedAffinity>
-6.83798

> <CNNscore>
0.7150722146

> <CNNaffinity>
5.6978101730

> <CNN_VS>
4.0743455887

> <CNNaffinity_variance>
0.0149588082

$$$$
/media/chris/experiments/cd1a-new-docking/inputs/ligands/6nux_ligand.pdb


 17 16  0  0  0  0  0  0  0  0999 V2000
  -38.4033   57.5235   61.4177 C   0  0  0  0  0  0  0  0  0  0  0  0
  -39.4935   58.1438   60.5908 C   0  0  0  0  0  0  0  0  0  0  0  0
  -38.7205   56.5946   62.3305 C   0  0  0  0  0  0  0  0  0  0  0  0
  -36.9581   57.9324   61.2255 C   0  0  0  0  0  0  0  0  0  0  0  0
  -36.0667   57.2735   62.2731 C   0  0  0  0  0  0  0  0  0  0  0  0
  -34.3498   58.3746   64.2853 C   0  0  0  0  0  0  0  0  0  0  0  0
  -33.8088   58.0629   62.9233 C   0  0  0  0  0  0  0  0  0  0  0  0
  -32.3660   58.3328   62.6191 C   0  0  0  0  0  0  0  0  0  0  0  0
  -34.6102   57.5493   61.9782 C   0  0  0  0  0  0  0  0  0  0  0  0
  -40.1605   56.1780   62.5230 C   0  0  0  0  0  0  0  0  0  0  0  0
  -40.6629   56.6377   63.8862 C   0  0  0  0  0  0  0  0  0  0  0  0
  -42.1633   56.8315   63.8480 C   0  0  0  0  0  0  0  0  0  0  0  0
  -43.0534   55.8838   64.5905 C   0  0  0  0  0  0  0  0  0  0  0  0
  -42.6999   57.8519   63.1628 C   0  0  0  0  0  0  0  0  0  0  0  0
  -44.6919   57.8071   61.7986 O   0  0  0  0  0  0  0  0  0  0  0  0
  -44.1958   58.0643   63.1169 C   0  0  0  0  0  0  0  0  0  0  0  0
  -45.6517   57.9465   61.7813 H   0  0  0  0  0  0  0  0  0  0  0  0
  6  7  1  0  0  0
 15 16  1  0  0  0
 15 17  1  0  0  0
  7  8  1  0  0  0
  7  9  2  0  0  0
  9  5  1  0  0  0
  5  4  1  0  0  0
  4  1  1  0  0  0
  1  2  1  0  0  0
  1  3  2  0  0  0
  3 10  1  0  0  0
 10 11  1  0  0  0
 11 12  1  0  0  0
 12 13  1  0  0  0
 12 14  2  0  0  0
 14 16  1  0  0  0
M  END
> <minimizedAffinity>
-6.83451

> <CNNscore>
0.6727076769

> <CNNaffinity>
5.6763010025

> <CNN_VS>
3.8184912205

> <CNNaffinity_variance>
0.0114194052

$$$$
/media/chris/experiments/cd1a-new-docking/inputs/ligands/6nux_ligand.pdb


 17 16  0  0  0  0  0  0  0  0999 V2000
  -38.4641   57.5692   61.3907 C   0  0  0  0  0  0  0  0  0  0  0  0
  -39.5194   58.2546   60.5701 C   0  0  0  0  0  0  0  0  0  0  0  0
  -38.8287   56.6343   62.2794 C   0  0  0  0  0  0  0  0  0  0  0  0
  -37.0011   57.9196   61.2191 C   0  0  0  0  0  0  0  0  0  0  0  0
  -36.1539   57.2409   62.2905 C   0  0  0  0  0  0  0  0  0  0  0  0
  -34.5291   58.3170   64.3908 C   0  0  0  0  0  0  0  0  0  0  0  0
  -33.9286   58.0254   63.0495 C   0  0  0  0  0  0  0  0  0  0  0  0
  -32.4745   58.3021   62.8123 C   0  0  0  0  0  0  0  0  0  0  0  0
  -34.6867   57.5234   62.0633 C   0  0  0  0  0  0  0  0  0  0  0  0
  -40.2869   56.2760   62.4512 C   0  0  0  0  0  0  0  0  0  0  0  0
  -40.6996   56.4377   63.9092 C   0  0  0  0  0  0  0  0  0  0  0  0
  -40.8903   57.9031   64.2351 C   0  0  0  0  0  0  0  0  0  0  0  0
  -41.8756   58.7154   63.4534 C   0  0  0  0  0  0  0  0  0  0  0  0
  -40.1908   58.4760   65.2258 C   0  0  0  0  0  0  0  0  0  0  0  0
  -39.2108   60.4333   66.2455 O   0  0  0  0  0  0  0  0  0  0  0  0
  -40.3711   59.9371   65.5690 C   0  0  0  0  0  0  0  0  0  0  0  0
  -39.3378   61.3706   66.4605 H   0  0  0  0  0  0  0  0  0  0  0  0
  6  7  1  0  0  0
 15 16  1  0  0  0
 15 17  1  0  0  0
  7  8  1  0  0  0
  7  9  2  0  0  0
  9  5  1  0  0  0
  5  4  1  0  0  0
  4  1  1  0  0  0
  1  2  1  0  0  0
  1  3  2  0  0  0
  3 10  1  0  0  0
 10 11  1  0  0  0
 11 12  1  0  0  0
 12 13  1  0  0  0
 12 14  2  0  0  0
 14 16  1  0  0  0
M  END
> <minimizedAffinity>
-6.89090

> <CNNscore>
0.6544982791

> <CNNaffinity>
5.6201848984

> <CNN_VS>
3.6784012318

> <CNNaffinity_variance>
0.0179453846

$$$$
/media/chris/experiments/cd1a-new-docking/inputs/ligands/6nux_ligand.pdb


 17 16  0  0  0  0  0  0  0  0999 V2000
  -38.7506   57.7710   61.3506 C   0  0  0  0  0  0  0  0  0  0  0  0
  -37.8920   58.7462   60.5965 C   0  0  0  0  0  0  0  0  0  0  0  0
  -38.1795   56.9429   62.2365 C   0  0  0  0  0  0  0  0  0  0  0  0
  -40.2468   57.7203   61.1236 C   0  0  0  0  0  0  0  0  0  0  0  0
  -40.8378   56.4394   61.7034 C   0  0  0  0  0  0  0  0  0  0  0  0
  -41.5812   54.4150   63.5897 C   0  0  0  0  0  0  0  0  0  0  0  0
  -42.1139   55.8080   63.7324 C   0  0  0  0  0  0  0  0  0  0  0  0
  -43.0393   56.1354   64.8653 C   0  0  0  0  0  0  0  0  0  0  0  0
  -41.7696   56.7578   62.8501 C   0  0  0  0  0  0  0  0  0  0  0  0
  -36.6874   56.9927   62.4718 C   0  0  0  0  0  0  0  0  0  0  0  0
  -36.3960   57.2502   63.9452 C   0  0  0  0  0  0  0  0  0  0  0  0
  -36.4124   58.7372   64.2253 C   0  0  0  0  0  0  0  0  0  0  0  0
  -35.3273   59.6087   63.6733 C   0  0  0  0  0  0  0  0  0  0  0  0
  -37.3976   59.2808   64.9553 C   0  0  0  0  0  0  0  0  0  0  0  0
  -38.0710   61.0105   66.4998 O   0  0  0  0  0  0  0  0  0  0  0  0
  -37.4334   60.7647   65.2415 C   0  0  0  0  0  0  0  0  0  0  0  0
  -38.0882   61.9649   66.6727 H   0  0  0  0  0  0  0  0  0  0  0  0
  6  7  1  0  0  0
 15 16  1  0  0  0
 15 17  1  0  0  0
  7  8  1  0  0  0
  7  9  2  0  0  0
  9  5  1  0  0  0
  5  4  1  0  0  0
  4  1  1  0  0  0
  1  2  1  0  0  0
  1  3  2  0  0  0
  3 10  1  0  0  0
 10 11  1  0  0  0
 11 12  1  0  0  0
 12 13  1  0  0  0
 12 14  2  0  0  0
 14 16  1  0  0  0
M  END
> <minimizedAffinity>
-6.76048

> <CNNscore>
0.5965604186

> <CNNaffinity>
5.5579972267

> <CNN_VS>
3.3156812191

> <CNNaffinity_variance>
0.0168152638

$$$$
/media/chris/experiments/cd1a-new-docking/inputs/ligands/6nux_ligand.pdb


 17 16  0  0  0  0  0  0  0  0999 V2000
  -38.6034   57.6566   61.3451 C   0  0  0  0  0  0  0  0  0  0  0  0
  -38.4329   58.8076   60.3949 C   0  0  0  0  0  0  0  0  0  0  0  0
  -37.5220   57.1253   61.9325 C   0  0  0  0  0  0  0  0  0  0  0  0
  -39.9785   57.0993   61.6472 C   0  0  0  0  0  0  0  0  0  0  0  0
  -40.0841   56.6862   63.1115 C   0  0  0  0  0  0  0  0  0  0  0  0
  -38.4110   57.7926   65.1576 C   0  0  0  0  0  0  0  0  0  0  0  0
  -39.7748   58.3621   64.9115 C   0  0  0  0  0  0  0  0  0  0  0  0
  -40.2594   59.5113   65.7430 C   0  0  0  0  0  0  0  0  0  0  0  0
  -40.5615   57.8453   63.9558 C   0  0  0  0  0  0  0  0  0  0  0  0
  -36.1473   57.6810   61.6396 C   0  0  0  0  0  0  0  0  0  0  0  0
  -35.2358   57.4914   62.8460 C   0  0  0  0  0  0  0  0  0  0  0  0
  -33.7902   57.6763   62.4383 C   0  0  0  0  0  0  0  0  0  0  0  0
  -33.0544   56.5502   61.7808 C   0  0  0  0  0  0  0  0  0  0  0  0
  -33.1675   58.8448   62.6521 C   0  0  0  0  0  0  0  0  0  0  0  0
  -31.4904   60.4271   61.9347 O   0  0  0  0  0  0  0  0  0  0  0  0
  -31.7255   59.0497   62.2475 C   0  0  0  0  0  0  0  0  0  0  0  0
  -30.5630   60.5464   61.6768 H   0  0  0  0  0  0  0  0  0  0  0  0
  6  7  1  0  0  0
 15 16  1  0  0  0
 15 17  1  0  0  0
  7  8  1  0  0  0
  7  9  2  0  0  0
  9  5  1  0  0  0
  5  4  1  0  0  0
  4  1  1  0  0  0
  1  2  1  0  0  0
  1  3  2  0  0  0
  3 10  1  0  0  0
 10 11  1  0  0  0
 11 12  1  0  0  0
 12 13  1  0  0  0
 12 14  2  0  0  0
 14 16  1  0  0  0
M  END
> <minimizedAffinity>
-6.98776

> <CNNscore>
0.5861677527

> <CNNaffinity>
5.6835627556

> <CNN_VS>
3.3315212727

> <CNNaffinity_variance>
0.0665900782

$$$$
/media/chris/experiments/cd1a-new-docking/inputs/ligands/6nux_ligand.pdb


 17 16  0  0  0  0  0  0  0  0999 V2000
  -37.3869   57.8881   63.9523 C   0  0  0  0  0  0  0  0  0  0  0  0
  -38.5680   57.6343   64.8453 C   0  0  0  0  0  0  0  0  0  0  0  0
  -37.4245   57.4684   62.6799 C   0  0  0  0  0  0  0  0  0  0  0  0
  -36.1647   58.6144   64.4731 C   0  0  0  0  0  0  0  0  0  0  0  0
  -34.9350   57.7141   64.4130 C   0  0  0  0  0  0  0  0  0  0  0  0
  -33.7272   57.0245   61.9080 C   0  0  0  0  0  0  0  0  0  0  0  0
  -33.1794   58.1579   62.7205 C   0  0  0  0  0  0  0  0  0  0  0  0
  -31.9951   58.9265   62.2168 C   0  0  0  0  0  0  0  0  0  0  0  0
  -33.7410   58.4822   63.8946 C   0  0  0  0  0  0  0  0  0  0  0  0
  -38.6440   56.7479   62.1525 C   0  0  0  0  0  0  0  0  0  0  0  0
  -39.3696   57.6189   61.1342 C   0  0  0  0  0  0  0  0  0  0  0  0
  -40.4315   58.4480   61.8235 C   0  0  0  0  0  0  0  0  0  0  0  0
  -41.6778   57.7884   62.3269 C   0  0  0  0  0  0  0  0  0  0  0  0
  -40.2589   59.7669   61.9959 C   0  0  0  0  0  0  0  0  0  0  0  0
  -40.9302   60.8503   64.0469 O   0  0  0  0  0  0  0  0  0  0  0  0
  -41.3062   60.6105   62.6862 C   0  0  0  0  0  0  0  0  0  0  0  0
  -41.6089   61.3920   64.4793 H   0  0  0  0  0  0  0  0  0  0  0  0
  6  7  1  0  0  0
 15 16  1  0  0  0
 15 17  1  0  0  0
  7  8  1  0  0  0
  7  9  2  0  0  0
  9  5  1  0  0  0
  5  4  1  0  0  0
  4  1  1  0  0  0
  1  2  1  0  0  0
  1  3  2  0  0  0
  3 10  1  0  0  0
 10 11  1  0  0  0
 11 12  1  0  0  0
 12 13  1  0  0  0
 12 14  2  0  0  0
 14 16  1  0  0  0
M  END
> <minimizedAffinity>
-6.45908

> <CNNscore>
0.5825743675

> <CNNaffinity>
5.5572500229

> <CNN_VS>
3.2375113964

> <CNNaffinity_variance>
0.1526189744

$$$$
/media/chris/experiments/cd1a-new-docking/inputs/ligands/6nux_ligand.pdb


 17 16  0  0  0  0  0  0  0  0999 V2000
  -48.9897   57.9177   65.7416 C   0  0  0  0  0  0  0  0  0  0  0  0
  -49.8755   59.1026   66.0028 C   0  0  0  0  0  0  0  0  0  0  0  0
  -48.5112   57.7163   64.5058 C   0  0  0  0  0  0  0  0  0  0  0  0
  -48.6310   56.9585   66.8569 C   0  0  0  0  0  0  0  0  0  0  0  0
  -47.4086   57.4540   67.6229 C   0  0  0  0  0  0  0  0  0  0  0  0
  -45.3715   58.9841   66.3121 C   0  0  0  0  0  0  0  0  0  0  0  0
  -45.2017   57.5069   66.4958 C   0  0  0  0  0  0  0  0  0  0  0  0
  -43.9620   56.8344   65.9878 C   0  0  0  0  0  0  0  0  0  0  0  0
  -46.1542   56.7871   67.1071 C   0  0  0  0  0  0  0  0  0  0  0  0
  -48.8610   58.6734   63.3896 C   0  0  0  0  0  0  0  0  0  0  0  0
  -49.7877   57.9959   62.3874 C   0  0  0  0  0  0  0  0  0  0  0  0
  -49.0056   57.5672   61.1649 C   0  0  0  0  0  0  0  0  0  0  0  0
  -49.4713   56.3942   60.3593 C   0  0  0  0  0  0  0  0  0  0  0  0
  -47.9049   58.2369   60.7925 C   0  0  0  0  0  0  0  0  0  0  0  0
  -45.8394   57.3018   59.9615 O   0  0  0  0  0  0  0  0  0  0  0  0
  -47.1134   57.8264   59.5718 C   0  0  0  0  0  0  0  0  0  0  0  0
  -45.3410   57.0420   59.1710 H   0  0  0  0  0  0  0  0  0  0  0  0
  6  7  1  0  0  0
 15 16  1  0  0  0
 15 17  1  0  0  0
  7  8  1  0  0  0
  7  9  2  0  0  0
  9  5  1  0  0  0
  5  4  1  0  0  0
  4  1  1  0  0  0
  1  2  1  0  0  0
  1  3  2  0  0  0
  3 10  1  0  0  0
 10 11  1  0  0  0
 11 12  1  0  0  0
 12 13  1  0  0  0
 12 14  2  0  0  0
 14 16  1  0  0  0
M  END
> <minimizedAffinity>
-6.20258

> <CNNscore>
0.4918044209

> <CNNaffinity>
5.7930059433

> <CNN_VS>
2.8490259647

> <CNNaffinity_variance>
0.1395721734

$$$$
/media/chris/experiments/cd1a-new-docking/inputs/ligands/6nux_ligand.pdb


 17 16  0  0  0  0  0  0  0  0999 V2000
  -50.0378   58.0694   61.2670 C   0  0  0  0  0  0  0  0  0  0  0  0
  -50.1038   59.5398   60.9663 C   0  0  0  0  0  0  0  0  0  0  0  0
  -49.6916   57.6666   62.4977 C   0  0  0  0  0  0  0  0  0  0  0  0
  -50.3624   57.0457   60.1997 C   0  0  0  0  0  0  0  0  0  0  0  0
  -49.1321   56.2105   59.8604 C   0  0  0  0  0  0  0  0  0  0  0  0
  -46.6185   57.4081   60.5360 C   0  0  0  0  0  0  0  0  0  0  0  0
  -47.1206   57.4585   59.1254 C   0  0  0  0  0  0  0  0  0  0  0  0
  -46.3021   58.1407   58.0710 C   0  0  0  0  0  0  0  0  0  0  0  0
  -48.2979   56.9006   58.8058 C   0  0  0  0  0  0  0  0  0  0  0  0
  -49.3720   58.6837   63.5690 C   0  0  0  0  0  0  0  0  0  0  0  0
  -47.8715   58.7151   63.8331 C   0  0  0  0  0  0  0  0  0  0  0  0
  -47.5972   58.4608   65.2994 C   0  0  0  0  0  0  0  0  0  0  0  0
  -46.9649   59.5318   66.1330 C   0  0  0  0  0  0  0  0  0  0  0  0
  -47.9263   57.2873   65.8593 C   0  0  0  0  0  0  0  0  0  0  0  0
  -46.5857   56.0866   67.4693 O   0  0  0  0  0  0  0  0  0  0  0  0
  -47.6644   57.0168   67.3233 C   0  0  0  0  0  0  0  0  0  0  0  0
  -46.4269   55.9209   68.4118 H   0  0  0  0  0  0  0  0  0  0  0  0
  6  7  1  0  0  0
 15 16  1  0  0  0
 15 17  1  0  0  0
  7  8  1  0  0  0
  7  9  2  0  0  0
  9  5  1  0  0  0
  5  4  1  0  0  0
  4  1  1  0  0  0
  1  2  1  0  0  0
  1  3  2  0  0  0
  3 10  1  0  0  0
 10 11  1  0  0  0
 11 12  1  0  0  0
 12 13  1  0  0  0
 12 14  2  0  0  0
 14 16  1  0  0  0
M  END
> <minimizedAffinity>
-6.91769

> <CNNscore>
0.4820045531

> <CNNaffinity>
5.7809391022

> <CNN_VS>
2.7864389420

> <CNNaffinity_variance>
0.1110339165

$$$$
/media/chris/experiments/cd1a-new-docking/inputs/ligands/6nux_ligand.pdb


 17 16  0  0  0  0  0  0  0  0999 V2000
  -41.7908   56.6555   62.9105 C   0  0  0  0  0  0  0  0  0  0  0  0
  -41.5538   55.4066   63.7111 C   0  0  0  0  0  0  0  0  0  0  0  0
  -40.7902   57.1652   62.1786 C   0  0  0  0  0  0  0  0  0  0  0  0
  -43.1437   57.3355   62.9192 C   0  0  0  0  0  0  0  0  0  0  0  0
  -43.0230   58.7718   63.4181 C   0  0  0  0  0  0  0  0  0  0  0  0
  -40.9255   59.3320   65.2878 C   0  0  0  0  0  0  0  0  0  0  0  0
  -42.3253   59.1080   65.7726 C   0  0  0  0  0  0  0  0  0  0  0  0
  -42.6213   59.1760   67.2406 C   0  0  0  0  0  0  0  0  0  0  0  0
  -43.3093   58.8435   64.9003 C   0  0  0  0  0  0  0  0  0  0  0  0
  -39.4392   56.4878   62.1613 C   0  0  0  0  0  0  0  0  0  0  0  0
  -38.4065   57.3917   61.4989 C   0  0  0  0  0  0  0  0  0  0  0  0
  -37.1672   57.4836   62.3625 C   0  0  0  0  0  0  0  0  0  0  0  0
  -37.2952   57.4254   63.8532 C   0  0  0  0  0  0  0  0  0  0  0  0
  -35.9551   57.6059   61.8017 C   0  0  0  0  0  0  0  0  0  0  0  0
  -34.1830   59.0272   62.6208 O   0  0  0  0  0  0  0  0  0  0  0  0
  -34.7055   57.6943   62.6478 C   0  0  0  0  0  0  0  0  0  0  0  0
  -33.3823   59.0718   63.1665 H   0  0  0  0  0  0  0  0  0  0  0  0
  6  7  1  0  0  0
 15 16  1  0  0  0
 15 17  1  0  0  0
  7  8  1  0  0  0
  7  9  2  0  0  0
  9  5  1  0  0  0
  5  4  1  0  0  0
  4  1  1  0  0  0
  1  2  1  0  0  0
  1  3  2  0  0  0
  3 10  1  0  0  0
 10 11  1  0  0  0
 11 12  1  0  0  0
 12 13  1  0  0  0
 12 14  2  0  0  0
 14 16  1  0  0  0
M  END
> <minimizedAffinity>
-6.23641

> <CNNscore>
0.4623661339

> <CNNaffinity>
5.5281538963

> <CNN_VS>
2.5560312271

> <CNNaffinity_variance>
0.0170336515

$$$$
