/media/chris/experiments/cd1a-new-docking/inputs/ligands/6nux_ligand.pdb


 17 16  0  0  0  0  0  0  0  0999 V2000
  -38.2208   57.5947   62.0905 C   0  0  0  0  0  0  0  0  0  0  0  0
  -38.4784   57.5266   63.5690 C   0  0  0  0  0  0  0  0  0  0  0  0
  -39.2581   57.7015   61.2483 C   0  0  0  0  0  0  0  0  0  0  0  0
  -36.8079   57.5497   61.5481 C   0  0  0  0  0  0  0  0  0  0  0  0
  -35.8185   57.1802   62.6484 C   0  0  0  0  0  0  0  0  0  0  0  0
  -33.1723   56.4855   61.7971 C   0  0  0  0  0  0  0  0  0  0  0  0
  -33.4595   57.8629   62.3120 C   0  0  0  0  0  0  0  0  0  0  0  0
  -32.3546   58.8736   62.3817 C   0  0  0  0  0  0  0  0  0  0  0  0
  -34.6967   58.1910   62.7134 C   0  0  0  0  0  0  0  0  0  0  0  0
  -40.6704   57.7528   61.7839 C   0  0  0  0  0  0  0  0  0  0  0  0
  -41.3402   56.3925   61.6313 C   0  0  0  0  0  0  0  0  0  0  0  0
  -41.7956   55.8839   62.9820 C   0  0  0  0  0  0  0  0  0  0  0  0
  -41.5309   54.4616   63.3674 C   0  0  0  0  0  0  0  0  0  0  0  0
  -42.4249   56.7011   63.8394 C   0  0  0  0  0  0  0  0  0  0  0  0
  -44.2809   55.9039   65.1626 O   0  0  0  0  0  0  0  0  0  0  0  0
  -42.8829   56.2124   65.1945 C   0  0  0  0  0  0  0  0  0  0  0  0
  -44.5632   55.5917   66.0366 H   0  0  0  0  0  0  0  0  0  0  0  0
  6  7  1  0  0  0
 15 16  1  0  0  0
 15 17  1  0  0  0
  7  8  1  0  0  0
  7  9  2  0  0  0
  9  5  1  0  0  0
  5  4  1  0  0  0
  4  1  1  0  0  0
  1  2  1  0  0  0
  1  3  2  0  0  0
  3 10  1  0  0  0
 10 11  1  0  0  0
 11 12  1  0  0  0
 12 13  1  0  0  0
 12 14  2  0  0  0
 14 16  1  0  0  0
M  END
> <minimizedAffinity>
-6.94787

> <CNNscore>
0.6738293767

> <CNNaffinity>
5.7017583847

> <CNN_VS>
3.8420124054

> <CNNaffinity_variance>
0.0069095930

$$$$
/media/chris/experiments/cd1a-new-docking/inputs/ligands/6nux_ligand.pdb


 17 16  0  0  0  0  0  0  0  0999 V2000
  -38.4654   57.5555   61.3773 C   0  0  0  0  0  0  0  0  0  0  0  0
  -39.4960   58.2352   60.5214 C   0  0  0  0  0  0  0  0  0  0  0  0
  -38.8560   56.6253   62.2599 C   0  0  0  0  0  0  0  0  0  0  0  0
  -36.9982   57.9063   61.2479 C   0  0  0  0  0  0  0  0  0  0  0  0
  -36.1812   57.2226   62.3393 C   0  0  0  0  0  0  0  0  0  0  0  0
  -34.5866   58.3828   64.4180 C   0  0  0  0  0  0  0  0  0  0  0  0
  -33.9613   58.0140   63.1074 C   0  0  0  0  0  0  0  0  0  0  0  0
  -32.4984   58.2580   62.8892 C   0  0  0  0  0  0  0  0  0  0  0  0
  -34.7052   57.4726   62.1313 C   0  0  0  0  0  0  0  0  0  0  0  0
  -40.3184   56.2666   62.3897 C   0  0  0  0  0  0  0  0  0  0  0  0
  -40.7670   56.4052   63.8395 C   0  0  0  0  0  0  0  0  0  0  0  0
  -40.9399   57.8669   64.1917 C   0  0  0  0  0  0  0  0  0  0  0  0
  -41.8769   58.7174   63.3916 C   0  0  0  0  0  0  0  0  0  0  0  0
  -40.2677   58.4022   65.2215 C   0  0  0  0  0  0  0  0  0  0  0  0
  -39.2160   60.3653   66.1549 O   0  0  0  0  0  0  0  0  0  0  0  0
  -40.4309   59.8588   65.5912 C   0  0  0  0  0  0  0  0  0  0  0  0
  -39.3325   61.2997   66.3880 H   0  0  0  0  0  0  0  0  0  0  0  0
  6  7  1  0  0  0
 15 16  1  0  0  0
 15 17  1  0  0  0
  7  8  1  0  0  0
  7  9  2  0  0  0
  9  5  1  0  0  0
  5  4  1  0  0  0
  4  1  1  0  0  0
  1  2  1  0  0  0
  1  3  2  0  0  0
  3 10  1  0  0  0
 10 11  1  0  0  0
 11 12  1  0  0  0
 12 13  1  0  0  0
 12 14  2  0  0  0
 14 16  1  0  0  0
M  END
> <minimizedAffinity>
-6.88322

> <CNNscore>
0.6627341509

> <CNNaffinity>
5.6309609413

> <CNN_VS>
3.7318301201

> <CNNaffinity_variance>
0.0182266068

$$$$
/media/chris/experiments/cd1a-new-docking/inputs/ligands/6nux_ligand.pdb


 17 16  0  0  0  0  0  0  0  0999 V2000
  -47.9249   59.7952   61.3634 C   0  0  0  0  0  0  0  0  0  0  0  0
  -49.0640   60.5494   60.7385 C   0  0  0  0  0  0  0  0  0  0  0  0
  -48.0729   59.2850   62.5941 C   0  0  0  0  0  0  0  0  0  0  0  0
  -46.6216   59.6032   60.6170 C   0  0  0  0  0  0  0  0  0  0  0  0
  -46.8819   59.1604   59.1810 C   0  0  0  0  0  0  0  0  0  0  0  0
  -48.9329   57.1685   58.9924 C   0  0  0  0  0  0  0  0  0  0  0  0
  -47.4901   56.7724   58.9138 C   0  0  0  0  0  0  0  0  0  0  0  0
  -47.1262   55.3287   58.7388 C   0  0  0  0  0  0  0  0  0  0  0  0
  -46.5273   57.7019   59.0038 C   0  0  0  0  0  0  0  0  0  0  0  0
  -49.3734   59.4683   63.3419 C   0  0  0  0  0  0  0  0  0  0  0  0
  -49.7164   58.2025   64.1181 C   0  0  0  0  0  0  0  0  0  0  0  0
  -49.0652   58.2389   65.4839 C   0  0  0  0  0  0  0  0  0  0  0  0
  -49.3067   59.4056   66.3905 C   0  0  0  0  0  0  0  0  0  0  0  0
  -48.2825   57.2287   65.8910 C   0  0  0  0  0  0  0  0  0  0  0  0
  -46.6561   56.1973   67.3477 O   0  0  0  0  0  0  0  0  0  0  0  0
  -47.6275   57.2451   67.2532 C   0  0  0  0  0  0  0  0  0  0  0  0
  -46.2429   56.2176   68.2252 H   0  0  0  0  0  0  0  0  0  0  0  0
  6  7  1  0  0  0
 15 16  1  0  0  0
 15 17  1  0  0  0
  7  8  1  0  0  0
  7  9  2  0  0  0
  9  5  1  0  0  0
  5  4  1  0  0  0
  4  1  1  0  0  0
  1  2  1  0  0  0
  1  3  2  0  0  0
  3 10  1  0  0  0
 10 11  1  0  0  0
 11 12  1  0  0  0
 12 13  1  0  0  0
 12 14  2  0  0  0
 14 16  1  0  0  0
M  END
> <minimizedAffinity>
-6.74002

> <CNNscore>
0.6542924643

> <CNNaffinity>
5.9100255966

> <CNN_VS>
3.8668851852

> <CNNaffinity_variance>
0.1114362031

$$$$
/media/chris/experiments/cd1a-new-docking/inputs/ligands/6nux_ligand.pdb


 17 16  0  0  0  0  0  0  0  0999 V2000
  -41.9647   55.8906   62.9875 C   0  0  0  0  0  0  0  0  0  0  0  0
  -41.6428   54.5448   63.5724 C   0  0  0  0  0  0  0  0  0  0  0  0
  -42.6316   56.7857   63.7295 C   0  0  0  0  0  0  0  0  0  0  0  0
  -41.5398   56.2436   61.5777 C   0  0  0  0  0  0  0  0  0  0  0  0
  -40.5757   57.4253   61.5843 C   0  0  0  0  0  0  0  0  0  0  0  0
  -38.1369   58.5224   60.5554 C   0  0  0  0  0  0  0  0  0  0  0  0
  -38.1012   57.5340   61.6807 C   0  0  0  0  0  0  0  0  0  0  0  0
  -36.7830   57.1206   62.2628 C   0  0  0  0  0  0  0  0  0  0  0  0
  -39.2408   57.0167   62.1635 C   0  0  0  0  0  0  0  0  0  0  0  0
  -43.0534   56.4414   65.1395 C   0  0  0  0  0  0  0  0  0  0  0  0
  -43.4853   57.7005   65.8812 C   0  0  0  0  0  0  0  0  0  0  0  0
  -44.9661   57.6399   66.1880 C   0  0  0  0  0  0  0  0  0  0  0  0
  -45.5987   58.7196   67.0100 C   0  0  0  0  0  0  0  0  0  0  0  0
  -45.7167   56.6317   65.7200 C   0  0  0  0  0  0  0  0  0  0  0  0
  -47.5490   55.2406   66.4538 O   0  0  0  0  0  0  0  0  0  0  0  0
  -47.1980   56.5567   66.0120 C   0  0  0  0  0  0  0  0  0  0  0  0
  -48.5008   55.2045   66.6379 H   0  0  0  0  0  0  0  0  0  0  0  0
  6  7  1  0  0  0
 15 16  1  0  0  0
 15 17  1  0  0  0
  7  8  1  0  0  0
  7  9  2  0  0  0
  9  5  1  0  0  0
  5  4  1  0  0  0
  4  1  1  0  0  0
  1  2  1  0  0  0
  1  3  2  0  0  0
  3 10  1  0  0  0
 10 11  1  0  0  0
 11 12  1  0  0  0
 12 13  1  0  0  0
 12 14  2  0  0  0
 14 16  1  0  0  0
M  END
> <minimizedAffinity>
-6.90657

> <CNNscore>
0.6128987074

> <CNNaffinity>
5.5970072746

> <CNN_VS>
3.4303984642

> <CNNaffinity_variance>
0.1032366306

$$$$
/media/chris/experiments/cd1a-new-docking/inputs/ligands/6nux_ligand.pdb


 17 16  0  0  0  0  0  0  0  0999 V2000
  -38.6558   57.7036   61.3119 C   0  0  0  0  0  0  0  0  0  0  0  0
  -37.8127   58.6920   60.5574 C   0  0  0  0  0  0  0  0  0  0  0  0
  -38.0908   56.9568   62.2709 C   0  0  0  0  0  0  0  0  0  0  0  0
  -40.1303   57.5495   61.0037 C   0  0  0  0  0  0  0  0  0  0  0  0
  -40.7681   56.5117   61.9213 C   0  0  0  0  0  0  0  0  0  0  0  0
  -41.9448   55.2209   64.1926 C   0  0  0  0  0  0  0  0  0  0  0  0
  -42.5632   56.4642   63.6300 C   0  0  0  0  0  0  0  0  0  0  0  0
  -43.8017   57.0268   64.2601 C   0  0  0  0  0  0  0  0  0  0  0  0
  -42.0162   57.0699   62.5655 C   0  0  0  0  0  0  0  0  0  0  0  0
  -36.6209   57.1102   62.5872 C   0  0  0  0  0  0  0  0  0  0  0  0
  -36.4160   57.2205   64.0932 C   0  0  0  0  0  0  0  0  0  0  0  0
  -36.2813   58.6738   64.4935 C   0  0  0  0  0  0  0  0  0  0  0  0
  -34.9366   59.3313   64.4604 C   0  0  0  0  0  0  0  0  0  0  0  0
  -37.3593   59.3788   64.8673 C   0  0  0  0  0  0  0  0  0  0  0  0
  -37.9779   61.0735   66.4724 O   0  0  0  0  0  0  0  0  0  0  0  0
  -37.2452   60.8324   65.2659 C   0  0  0  0  0  0  0  0  0  0  0  0
  -37.8975   62.0085   66.7181 H   0  0  0  0  0  0  0  0  0  0  0  0
  6  7  1  0  0  0
 15 16  1  0  0  0
 15 17  1  0  0  0
  7  8  1  0  0  0
  7  9  2  0  0  0
  9  5  1  0  0  0
  5  4  1  0  0  0
  4  1  1  0  0  0
  1  2  1  0  0  0
  1  3  2  0  0  0
  3 10  1  0  0  0
 10 11  1  0  0  0
 11 12  1  0  0  0
 12 13  1  0  0  0
 12 14  2  0  0  0
 14 16  1  0  0  0
M  END
> <minimizedAffinity>
-6.80867

> <CNNscore>
0.6116762757

> <CNNaffinity>
5.5966935158

> <CNN_VS>
3.4233646393

> <CNNaffinity_variance>
0.0144850137

$$$$
/media/chris/experiments/cd1a-new-docking/inputs/ligands/6nux_ligand.pdb


 17 16  0  0  0  0  0  0  0  0999 V2000
  -49.9068   58.5144   61.5414 C   0  0  0  0  0  0  0  0  0  0  0  0
  -49.9666   59.9309   61.0446 C   0  0  0  0  0  0  0  0  0  0  0  0
  -49.5336   58.2785   62.8070 C   0  0  0  0  0  0  0  0  0  0  0  0
  -50.2679   57.3591   60.6318 C   0  0  0  0  0  0  0  0  0  0  0  0
  -49.0599   56.4579   60.3979 C   0  0  0  0  0  0  0  0  0  0  0  0
  -46.4654   57.6479   60.6467 C   0  0  0  0  0  0  0  0  0  0  0  0
  -47.0797   57.4593   59.2933 C   0  0  0  0  0  0  0  0  0  0  0  0
  -46.3309   57.8991   58.0714 C   0  0  0  0  0  0  0  0  0  0  0  0
  -48.2951   56.9045   59.1732 C   0  0  0  0  0  0  0  0  0  0  0  0
  -49.1775   59.4278   63.7217 C   0  0  0  0  0  0  0  0  0  0  0  0
  -49.7606   59.1947   65.1102 C   0  0  0  0  0  0  0  0  0  0  0  0
  -48.7484   58.4886   65.9862 C   0  0  0  0  0  0  0  0  0  0  0  0
  -47.5023   59.2046   66.4060 C   0  0  0  0  0  0  0  0  0  0  0  0
  -48.9651   57.2304   66.3971 C   0  0  0  0  0  0  0  0  0  0  0  0
  -47.2605   55.5242   66.5164 O   0  0  0  0  0  0  0  0  0  0  0  0
  -47.9680   56.5106   67.2760 C   0  0  0  0  0  0  0  0  0  0  0  0
  -46.6242   55.0693   67.0902 H   0  0  0  0  0  0  0  0  0  0  0  0
  6  7  1  0  0  0
 15 16  1  0  0  0
 15 17  1  0  0  0
  7  8  1  0  0  0
  7  9  2  0  0  0
  9  5  1  0  0  0
  5  4  1  0  0  0
  4  1  1  0  0  0
  1  2  1  0  0  0
  1  3  2  0  0  0
  3 10  1  0  0  0
 10 11  1  0  0  0
 11 12  1  0  0  0
 12 13  1  0  0  0
 12 14  2  0  0  0
 14 16  1  0  0  0
M  END
> <minimizedAffinity>
-7.14510

> <CNNscore>
0.5830100775

> <CNNaffinity>
5.8550748825

> <CNN_VS>
3.4135675430

> <CNNaffinity_variance>
0.1721338034

$$$$
/media/chris/experiments/cd1a-new-docking/inputs/ligands/6nux_ligand.pdb


 17 16  0  0  0  0  0  0  0  0999 V2000
  -38.4417   57.6103   61.4124 C   0  0  0  0  0  0  0  0  0  0  0  0
  -39.4789   58.4294   60.6981 C   0  0  0  0  0  0  0  0  0  0  0  0
  -38.8336   56.6091   62.2127 C   0  0  0  0  0  0  0  0  0  0  0  0
  -36.9667   57.9013   61.2322 C   0  0  0  0  0  0  0  0  0  0  0  0
  -36.1529   57.2885   62.3671 C   0  0  0  0  0  0  0  0  0  0  0  0
  -34.5331   59.0267   63.9687 C   0  0  0  0  0  0  0  0  0  0  0  0
  -33.9174   58.2451   62.8485 C   0  0  0  0  0  0  0  0  0  0  0  0
  -32.4508   58.3800   62.5690 C   0  0  0  0  0  0  0  0  0  0  0  0
  -34.6730   57.4321   62.0954 C   0  0  0  0  0  0  0  0  0  0  0  0
  -40.3042   56.3100   62.3921 C   0  0  0  0  0  0  0  0  0  0  0  0
  -40.6965   56.4614   63.8568 C   0  0  0  0  0  0  0  0  0  0  0  0
  -40.8212   57.9273   64.2117 C   0  0  0  0  0  0  0  0  0  0  0  0
  -39.8263   58.5538   65.1387 C   0  0  0  0  0  0  0  0  0  0  0  0
  -41.8101   58.6707   63.6936 C   0  0  0  0  0  0  0  0  0  0  0  0
  -41.4231   60.9420   62.9711 O   0  0  0  0  0  0  0  0  0  0  0  0
  -41.9480   60.1372   64.0328 C   0  0  0  0  0  0  0  0  0  0  0  0
  -41.5169   61.8801   63.1997 H   0  0  0  0  0  0  0  0  0  0  0  0
  6  7  1  0  0  0
 15 16  1  0  0  0
 15 17  1  0  0  0
  7  8  1  0  0  0
  7  9  2  0  0  0
  9  5  1  0  0  0
  5  4  1  0  0  0
  4  1  1  0  0  0
  1  2  1  0  0  0
  1  3  2  0  0  0
  3 10  1  0  0  0
 10 11  1  0  0  0
 11 12  1  0  0  0
 12 13  1  0  0  0
 12 14  2  0  0  0
 14 16  1  0  0  0
M  END
> <minimizedAffinity>
-6.59317

> <CNNscore>
0.5798505545

> <CNNaffinity>
5.5134377480

> <CNN_VS>
3.1969699860

> <CNNaffinity_variance>
0.0631254017

$$$$
/media/chris/experiments/cd1a-new-docking/inputs/ligands/6nux_ligand.pdb


 17 16  0  0  0  0  0  0  0  0999 V2000
  -42.5457   56.4521   64.5864 C   0  0  0  0  0  0  0  0  0  0  0  0
  -41.6333   57.5536   65.0457 C   0  0  0  0  0  0  0  0  0  0  0  0
  -42.1306   55.6143   63.6259 C   0  0  0  0  0  0  0  0  0  0  0  0
  -43.9191   56.2783   65.1996 C   0  0  0  0  0  0  0  0  0  0  0  0
  -44.0265   57.0494   66.5111 C   0  0  0  0  0  0  0  0  0  0  0  0
  -44.5648   59.7070   65.5854 C   0  0  0  0  0  0  0  0  0  0  0  0
  -45.6528   58.8976   66.2225 C   0  0  0  0  0  0  0  0  0  0  0  0
  -47.0227   59.4869   66.3753 C   0  0  0  0  0  0  0  0  0  0  0  0
  -45.4038   57.6539   66.6589 C   0  0  0  0  0  0  0  0  0  0  0  0
  -40.7585   55.7790   63.0139 C   0  0  0  0  0  0  0  0  0  0  0  0
  -40.8406   56.6498   61.7661 C   0  0  0  0  0  0  0  0  0  0  0  0
  -39.4922   57.2749   61.4799 C   0  0  0  0  0  0  0  0  0  0  0  0
  -38.2907   56.8366   62.2583 C   0  0  0  0  0  0  0  0  0  0  0  0
  -39.3649   58.2103   60.5273 C   0  0  0  0  0  0  0  0  0  0  0  0
  -37.9197   60.1132   60.8757 O   0  0  0  0  0  0  0  0  0  0  0  0
  -38.0257   58.8426   60.2241 C   0  0  0  0  0  0  0  0  0  0  0  0
  -37.0573   60.5090   60.6742 H   0  0  0  0  0  0  0  0  0  0  0  0
  6  7  1  0  0  0
 15 16  1  0  0  0
 15 17  1  0  0  0
  7  8  1  0  0  0
  7  9  2  0  0  0
  9  5  1  0  0  0
  5  4  1  0  0  0
  4  1  1  0  0  0
  1  2  1  0  0  0
  1  3  2  0  0  0
  3 10  1  0  0  0
 10 11  1  0  0  0
 11 12  1  0  0  0
 12 13  1  0  0  0
 12 14  2  0  0  0
 14 16  1  0  0  0
M  END
> <minimizedAffinity>
-6.82106

> <CNNscore>
0.5766043663

> <CNNaffinity>
5.5864324570

> <CNN_VS>
3.2211613655

> <CNNaffinity_variance>
0.1274683028

$$$$
/media/chris/experiments/cd1a-new-docking/inputs/ligands/6nux_ligand.pdb


 17 16  0  0  0  0  0  0  0  0999 V2000
  -38.8366   57.4970   61.4313 C   0  0  0  0  0  0  0  0  0  0  0  0
  -38.6875   58.5725   60.3930 C   0  0  0  0  0  0  0  0  0  0  0  0
  -37.7477   57.0465   62.0699 C   0  0  0  0  0  0  0  0  0  0  0  0
  -40.1988   56.9258   61.7640 C   0  0  0  0  0  0  0  0  0  0  0  0
  -40.2718   56.5243   63.2335 C   0  0  0  0  0  0  0  0  0  0  0  0
  -38.7871   58.0054   65.1859 C   0  0  0  0  0  0  0  0  0  0  0  0
  -40.2377   58.3037   64.9588 C   0  0  0  0  0  0  0  0  0  0  0  0
  -40.9079   59.3787   65.7604 C   0  0  0  0  0  0  0  0  0  0  0  0
  -40.9364   57.6109   64.0471 C   0  0  0  0  0  0  0  0  0  0  0  0
  -36.3859   57.6168   61.7465 C   0  0  0  0  0  0  0  0  0  0  0  0
  -35.3081   56.8847   62.5368 C   0  0  0  0  0  0  0  0  0  0  0  0
  -34.2219   57.8529   62.9530 C   0  0  0  0  0  0  0  0  0  0  0  0
  -34.1796   58.3605   64.3609 C   0  0  0  0  0  0  0  0  0  0  0  0
  -33.2917   58.2507   62.0725 C   0  0  0  0  0  0  0  0  0  0  0  0
  -32.6295   60.5641   62.2742 O   0  0  0  0  0  0  0  0  0  0  0  0
  -32.1966   59.2134   62.4710 C   0  0  0  0  0  0  0  0  0  0  0  0
  -31.9194   61.1722   62.5330 H   0  0  0  0  0  0  0  0  0  0  0  0
  6  7  1  0  0  0
 15 16  1  0  0  0
 15 17  1  0  0  0
  7  8  1  0  0  0
  7  9  2  0  0  0
  9  5  1  0  0  0
  5  4  1  0  0  0
  4  1  1  0  0  0
  1  2  1  0  0  0
  1  3  2  0  0  0
  3 10  1  0  0  0
 10 11  1  0  0  0
 11 12  1  0  0  0
 12 13  1  0  0  0
 12 14  2  0  0  0
 14 16  1  0  0  0
M  END
> <minimizedAffinity>
-6.87650

> <CNNscore>
0.5762177110

> <CNNaffinity>
5.6700906754

> <CNN_VS>
3.2672066689

> <CNNaffinity_variance>
0.0254060663

$$$$
