/media/chris/experiments/cd1a-new-docking/inputs/ligands/6nux_ligand.pdb


 17 16  0  0  0  0  0  0  0  0999 V2000
  -38.6267   57.5786   61.4486 C   0  0  0  0  0  0  0  0  0  0  0  0
  -39.5507   58.1856   60.4314 C   0  0  0  0  0  0  0  0  0  0  0  0
  -39.0995   56.6522   62.2940 C   0  0  0  0  0  0  0  0  0  0  0  0
  -37.1736   57.9981   61.5222 C   0  0  0  0  0  0  0  0  0  0  0  0
  -36.3972   57.0912   62.4713 C   0  0  0  0  0  0  0  0  0  0  0  0
  -34.8790   58.3915   64.5240 C   0  0  0  0  0  0  0  0  0  0  0  0
  -34.2019   57.9142   63.2757 C   0  0  0  0  0  0  0  0  0  0  0  0
  -32.7272   58.1232   63.1059 C   0  0  0  0  0  0  0  0  0  0  0  0
  -34.9098   57.3069   62.3118 C   0  0  0  0  0  0  0  0  0  0  0  0
  -40.5475   56.2250   62.2217 C   0  0  0  0  0  0  0  0  0  0  0  0
  -41.0815   55.9384   63.6199 C   0  0  0  0  0  0  0  0  0  0  0  0
  -42.4345   56.5914   63.8026 C   0  0  0  0  0  0  0  0  0  0  0  0
  -43.0079   57.4311   62.7037 C   0  0  0  0  0  0  0  0  0  0  0  0
  -43.1273   56.4142   64.9372 C   0  0  0  0  0  0  0  0  0  0  0  0
  -45.3938   56.1139   65.7146 O   0  0  0  0  0  0  0  0  0  0  0  0
  -44.4822   57.0544   65.1359 C   0  0  0  0  0  0  0  0  0  0  0  0
  -46.2587   56.5354   65.8373 H   0  0  0  0  0  0  0  0  0  0  0  0
  6  7  1  0  0  0
 15 16  1  0  0  0
 15 17  1  0  0  0
  7  8  1  0  0  0
  7  9  2  0  0  0
  9  5  1  0  0  0
  5  4  1  0  0  0
  4  1  1  0  0  0
  1  2  1  0  0  0
  1  3  2  0  0  0
  3 10  1  0  0  0
 10 11  1  0  0  0
 11 12  1  0  0  0
 12 13  1  0  0  0
 12 14  2  0  0  0
 14 16  1  0  0  0
M  END
> <minimizedAffinity>
-6.92740

> <CNNscore>
0.7043248415

> <CNNaffinity>
5.8083367348

> <CNN_VS>
4.0909557343

> <CNNaffinity_variance>
0.0280905254

$$$$
/media/chris/experiments/cd1a-new-docking/inputs/ligands/6nux_ligand.pdb


 17 16  0  0  0  0  0  0  0  0999 V2000
  -38.4205   57.5651   61.3889 C   0  0  0  0  0  0  0  0  0  0  0  0
  -39.4337   58.2284   60.4998 C   0  0  0  0  0  0  0  0  0  0  0  0
  -38.8253   56.6335   62.2635 C   0  0  0  0  0  0  0  0  0  0  0  0
  -36.9545   57.9340   61.3015 C   0  0  0  0  0  0  0  0  0  0  0  0
  -36.1580   57.2465   62.4056 C   0  0  0  0  0  0  0  0  0  0  0  0
  -34.5074   59.0418   63.9096 C   0  0  0  0  0  0  0  0  0  0  0  0
  -33.9054   58.1863   62.8371 C   0  0  0  0  0  0  0  0  0  0  0  0
  -32.4360   58.2770   62.5540 C   0  0  0  0  0  0  0  0  0  0  0  0
  -34.6754   57.3462   62.1297 C   0  0  0  0  0  0  0  0  0  0  0  0
  -40.2863   56.2568   62.3514 C   0  0  0  0  0  0  0  0  0  0  0  0
  -40.7754   56.3803   63.7893 C   0  0  0  0  0  0  0  0  0  0  0  0
  -40.9757   57.8373   64.1460 C   0  0  0  0  0  0  0  0  0  0  0  0
  -41.8807   58.6884   63.3105 C   0  0  0  0  0  0  0  0  0  0  0  0
  -40.3568   58.3680   65.2109 C   0  0  0  0  0  0  0  0  0  0  0  0
  -39.3233   60.3678   66.0852 O   0  0  0  0  0  0  0  0  0  0  0  0
  -40.5483   59.8199   65.5855 C   0  0  0  0  0  0  0  0  0  0  0  0
  -39.4583   61.2986   66.3220 H   0  0  0  0  0  0  0  0  0  0  0  0
  6  7  1  0  0  0
 15 16  1  0  0  0
 15 17  1  0  0  0
  7  8  1  0  0  0
  7  9  2  0  0  0
  9  5  1  0  0  0
  5  4  1  0  0  0
  4  1  1  0  0  0
  1  2  1  0  0  0
  1  3  2  0  0  0
  3 10  1  0  0  0
 10 11  1  0  0  0
 11 12  1  0  0  0
 12 13  1  0  0  0
 12 14  2  0  0  0
 14 16  1  0  0  0
M  END
> <minimizedAffinity>
-6.86067

> <CNNscore>
0.6369373798

> <CNNaffinity>
5.6205587387

> <CNN_VS>
3.5799438953

> <CNNaffinity_variance>
0.0122351870

$$$$
/media/chris/experiments/cd1a-new-docking/inputs/ligands/6nux_ligand.pdb


 17 16  0  0  0  0  0  0  0  0999 V2000
  -37.8512   58.4242   61.6682 C   0  0  0  0  0  0  0  0  0  0  0  0
  -36.5977   57.6170   61.8534 C   0  0  0  0  0  0  0  0  0  0  0  0
  -37.9829   59.5893   62.3177 C   0  0  0  0  0  0  0  0  0  0  0  0
  -38.9571   57.9381   60.7554 C   0  0  0  0  0  0  0  0  0  0  0  0
  -40.3148   58.0606   61.4395 C   0  0  0  0  0  0  0  0  0  0  0  0
  -40.3425   56.9782   64.0922 C   0  0  0  0  0  0  0  0  0  0  0  0
  -40.9108   56.1897   62.9521 C   0  0  0  0  0  0  0  0  0  0  0  0
  -41.4910   54.8311   63.2067 C   0  0  0  0  0  0  0  0  0  0  0  0
  -40.8977   56.6924   61.7086 C   0  0  0  0  0  0  0  0  0  0  0  0
  -36.8800   60.0827   63.2257 C   0  0  0  0  0  0  0  0  0  0  0  0
  -36.8720   61.6061   63.2633 C   0  0  0  0  0  0  0  0  0  0  0  0
  -36.2970   62.0898   64.5770 C   0  0  0  0  0  0  0  0  0  0  0  0
  -35.6124   61.1202   65.4895 C   0  0  0  0  0  0  0  0  0  0  0  0
  -36.3874   63.3821   64.9240 C   0  0  0  0  0  0  0  0  0  0  0  0
  -36.8473   63.9834   67.2171 O   0  0  0  0  0  0  0  0  0  0  0  0
  -35.8150   63.8847   66.2297 C   0  0  0  0  0  0  0  0  0  0  0  0
  -36.4687   64.3064   68.0496 H   0  0  0  0  0  0  0  0  0  0  0  0
  6  7  1  0  0  0
 15 16  1  0  0  0
 15 17  1  0  0  0
  7  8  1  0  0  0
  7  9  2  0  0  0
  9  5  1  0  0  0
  5  4  1  0  0  0
  4  1  1  0  0  0
  1  2  1  0  0  0
  1  3  2  0  0  0
  3 10  1  0  0  0
 10 11  1  0  0  0
 11 12  1  0  0  0
 12 13  1  0  0  0
 12 14  2  0  0  0
 14 16  1  0  0  0
M  END
> <minimizedAffinity>
-6.70221

> <CNNscore>
0.6225333810

> <CNNaffinity>
5.3530941010

> <CNN_VS>
3.3324797153

> <CNNaffinity_variance>
0.0579615459

$$$$
/media/chris/experiments/cd1a-new-docking/inputs/ligands/6nux_ligand.pdb


 17 16  0  0  0  0  0  0  0  0999 V2000
  -38.6623   57.7416   61.3473 C   0  0  0  0  0  0  0  0  0  0  0  0
  -37.8328   58.8246   60.7182 C   0  0  0  0  0  0  0  0  0  0  0  0
  -38.1019   56.9296   62.2547 C   0  0  0  0  0  0  0  0  0  0  0  0
  -40.1184   57.5646   60.9714 C   0  0  0  0  0  0  0  0  0  0  0  0
  -40.7669   56.4761   61.8204 C   0  0  0  0  0  0  0  0  0  0  0  0
  -41.8862   55.0729   64.0536 C   0  0  0  0  0  0  0  0  0  0  0  0
  -42.4954   56.3618   63.5930 C   0  0  0  0  0  0  0  0  0  0  0  0
  -43.6947   56.9112   64.3053 C   0  0  0  0  0  0  0  0  0  0  0  0
  -41.9753   57.0204   62.5467 C   0  0  0  0  0  0  0  0  0  0  0  0
  -36.6506   57.1049   62.6385 C   0  0  0  0  0  0  0  0  0  0  0  0
  -36.5190   57.2368   64.1509 C   0  0  0  0  0  0  0  0  0  0  0  0
  -36.2999   58.6859   64.5284 C   0  0  0  0  0  0  0  0  0  0  0  0
  -34.9068   59.2268   64.6193 C   0  0  0  0  0  0  0  0  0  0  0  0
  -37.3449   59.4907   64.7713 C   0  0  0  0  0  0  0  0  0  0  0  0
  -37.7593   61.2159   66.4094 O   0  0  0  0  0  0  0  0  0  0  0  0
  -37.1459   60.9419   65.1449 C   0  0  0  0  0  0  0  0  0  0  0  0
  -37.6253   62.1488   66.6385 H   0  0  0  0  0  0  0  0  0  0  0  0
  6  7  1  0  0  0
 15 16  1  0  0  0
 15 17  1  0  0  0
  7  8  1  0  0  0
  7  9  2  0  0  0
  9  5  1  0  0  0
  5  4  1  0  0  0
  4  1  1  0  0  0
  1  2  1  0  0  0
  1  3  2  0  0  0
  3 10  1  0  0  0
 10 11  1  0  0  0
 11 12  1  0  0  0
 12 13  1  0  0  0
 12 14  2  0  0  0
 14 16  1  0  0  0
M  END
> <minimizedAffinity>
-6.72619

> <CNNscore>
0.6092105508

> <CNNaffinity>
5.6081190109

> <CNN_VS>
3.4165253639

> <CNNaffinity_variance>
0.0188837983

$$$$
/media/chris/experiments/cd1a-new-docking/inputs/ligands/6nux_ligand.pdb


 17 16  0  0  0  0  0  0  0  0999 V2000
  -35.4201   58.3376   63.5707 C   0  0  0  0  0  0  0  0  0  0  0  0
  -34.6274   58.0159   64.8056 C   0  0  0  0  0  0  0  0  0  0  0  0
  -36.0454   59.5199   63.4822 C   0  0  0  0  0  0  0  0  0  0  0  0
  -35.5132   57.3457   62.4304 C   0  0  0  0  0  0  0  0  0  0  0  0
  -36.7880   57.5688   61.6234 C   0  0  0  0  0  0  0  0  0  0  0  0
  -39.4745   58.0280   60.7395 C   0  0  0  0  0  0  0  0  0  0  0  0
  -39.1985   57.0258   61.8183 C   0  0  0  0  0  0  0  0  0  0  0  0
  -40.3356   56.2671   62.4340 C   0  0  0  0  0  0  0  0  0  0  0  0
  -37.9424   56.8096   62.2360 C   0  0  0  0  0  0  0  0  0  0  0  0
  -35.9515   60.5165   64.6145 C   0  0  0  0  0  0  0  0  0  0  0  0
  -34.8488   61.5299   64.3328 C   0  0  0  0  0  0  0  0  0  0  0  0
  -34.9116   62.6583   65.3393 C   0  0  0  0  0  0  0  0  0  0  0  0
  -33.6615   63.3958   65.7066 C   0  0  0  0  0  0  0  0  0  0  0  0
  -36.0804   63.0087   65.8960 C   0  0  0  0  0  0  0  0  0  0  0  0
  -36.4900   63.6219   68.1955 O   0  0  0  0  0  0  0  0  0  0  0  0
  -36.1636   64.1361   66.8996 C   0  0  0  0  0  0  0  0  0  0  0  0
  -36.5406   64.3535   68.8303 H   0  0  0  0  0  0  0  0  0  0  0  0
  6  7  1  0  0  0
 15 16  1  0  0  0
 15 17  1  0  0  0
  7  8  1  0  0  0
  7  9  2  0  0  0
  9  5  1  0  0  0
  5  4  1  0  0  0
  4  1  1  0  0  0
  1  2  1  0  0  0
  1  3  2  0  0  0
  3 10  1  0  0  0
 10 11  1  0  0  0
 11 12  1  0  0  0
 12 13  1  0  0  0
 12 14  2  0  0  0
 14 16  1  0  0  0
M  END
> <minimizedAffinity>
-7.05495

> <CNNscore>
0.5889502168

> <CNNaffinity>
5.2508149147

> <CNN_VS>
3.0924685001

> <CNNaffinity_variance>
0.0645888895

$$$$
/media/chris/experiments/cd1a-new-docking/inputs/ligands/6nux_ligand.pdb


 17 16  0  0  0  0  0  0  0  0999 V2000
  -37.6732   57.2848   63.6566 C   0  0  0  0  0  0  0  0  0  0  0  0
  -38.7288   57.7033   64.6401 C   0  0  0  0  0  0  0  0  0  0  0  0
  -38.0438   56.8033   62.4618 C   0  0  0  0  0  0  0  0  0  0  0  0
  -36.2035   57.4071   63.9996 C   0  0  0  0  0  0  0  0  0  0  0  0
  -35.3396   57.1779   62.7637 C   0  0  0  0  0  0  0  0  0  0  0  0
  -32.7289   56.4705   61.8188 C   0  0  0  0  0  0  0  0  0  0  0  0
  -33.0199   57.8779   62.2419 C   0  0  0  0  0  0  0  0  0  0  0  0
  -31.9372   58.9123   62.1705 C   0  0  0  0  0  0  0  0  0  0  0  0
  -34.2403   58.2122   62.6866 C   0  0  0  0  0  0  0  0  0  0  0  0
  -39.5092   56.6842   62.1113 C   0  0  0  0  0  0  0  0  0  0  0  0
  -39.8366   57.5676   60.9136 C   0  0  0  0  0  0  0  0  0  0  0  0
  -39.9798   59.0081   61.3550 C   0  0  0  0  0  0  0  0  0  0  0  0
  -38.9749   60.0244   60.9093 C   0  0  0  0  0  0  0  0  0  0  0  0
  -41.0061   59.3819   62.1333 C   0  0  0  0  0  0  0  0  0  0  0  0
  -42.1741   61.4685   61.7968 O   0  0  0  0  0  0  0  0  0  0  0  0
  -41.1683   60.8168   62.5804 C   0  0  0  0  0  0  0  0  0  0  0  0
  -42.2693   62.3874   62.0923 H   0  0  0  0  0  0  0  0  0  0  0  0
  6  7  1  0  0  0
 15 16  1  0  0  0
 15 17  1  0  0  0
  7  8  1  0  0  0
  7  9  2  0  0  0
  9  5  1  0  0  0
  5  4  1  0  0  0
  4  1  1  0  0  0
  1  2  1  0  0  0
  1  3  2  0  0  0
  3 10  1  0  0  0
 10 11  1  0  0  0
 11 12  1  0  0  0
 12 13  1  0  0  0
 12 14  2  0  0  0
 14 16  1  0  0  0
M  END
> <minimizedAffinity>
-6.68274

> <CNNscore>
0.4996584654

> <CNNaffinity>
5.3731188774

> <CNN_VS>
2.6847243309

> <CNNaffinity_variance>
0.0283796601

$$$$
/media/chris/experiments/cd1a-new-docking/inputs/ligands/6nux_ligand.pdb


 17 16  0  0  0  0  0  0  0  0999 V2000
  -44.2402   58.7033   62.4007 C   0  0  0  0  0  0  0  0  0  0  0  0
  -43.6607   60.0084   62.8676 C   0  0  0  0  0  0  0  0  0  0  0  0
  -43.4359   57.6397   62.2649 C   0  0  0  0  0  0  0  0  0  0  0  0
  -45.7169   58.5792   62.0898 C   0  0  0  0  0  0  0  0  0  0  0  0
  -45.9290   57.9262   60.7278 C   0  0  0  0  0  0  0  0  0  0  0  0
  -46.9457   57.5655   58.0735 C   0  0  0  0  0  0  0  0  0  0  0  0
  -47.8690   57.4826   59.2504 C   0  0  0  0  0  0  0  0  0  0  0  0
  -49.3272   57.2126   59.0310 C   0  0  0  0  0  0  0  0  0  0  0  0
  -47.3969   57.6529   60.4942 C   0  0  0  0  0  0  0  0  0  0  0  0
  -41.9621   57.7558   62.5792 C   0  0  0  0  0  0  0  0  0  0  0  0
  -41.1694   56.7407   61.7648 C   0  0  0  0  0  0  0  0  0  0  0  0
  -39.7587   57.2416   61.5426 C   0  0  0  0  0  0  0  0  0  0  0  0
  -38.6396   56.7037   62.3790 C   0  0  0  0  0  0  0  0  0  0  0  0
  -39.5031   58.1557   60.5950 C   0  0  0  0  0  0  0  0  0  0  0  0
  -38.0129   60.0534   60.6922 O   0  0  0  0  0  0  0  0  0  0  0  0
  -38.0999   58.6644   60.3553 C   0  0  0  0  0  0  0  0  0  0  0  0
  -37.1092   60.3684   60.5345 H   0  0  0  0  0  0  0  0  0  0  0  0
  6  7  1  0  0  0
 15 16  1  0  0  0
 15 17  1  0  0  0
  7  8  1  0  0  0
  7  9  2  0  0  0
  9  5  1  0  0  0
  5  4  1  0  0  0
  4  1  1  0  0  0
  1  2  1  0  0  0
  1  3  2  0  0  0
  3 10  1  0  0  0
 10 11  1  0  0  0
 11 12  1  0  0  0
 12 13  1  0  0  0
 12 14  2  0  0  0
 14 16  1  0  0  0
M  END
> <minimizedAffinity>
-7.08610

> <CNNscore>
0.4995501637

> <CNNaffinity>
5.6525411606

> <CNN_VS>
2.8237278461

> <CNNaffinity_variance>
0.3105836511

$$$$
/media/chris/experiments/cd1a-new-docking/inputs/ligands/6nux_ligand.pdb


 17 16  0  0  0  0  0  0  0  0999 V2000
  -38.3890   57.6122   61.3221 C   0  0  0  0  0  0  0  0  0  0  0  0
  -38.9408   56.5866   62.2710 C   0  0  0  0  0  0  0  0  0  0  0  0
  -37.0779   57.8900   61.3465 C   0  0  0  0  0  0  0  0  0  0  0  0
  -39.2950   58.3258   60.3411 C   0  0  0  0  0  0  0  0  0  0  0  0
  -39.3693   59.8155   60.6598 C   0  0  0  0  0  0  0  0  0  0  0  0
  -38.8730   60.4697   63.4048 C   0  0  0  0  0  0  0  0  0  0  0  0
  -40.2781   60.4064   62.8888 C   0  0  0  0  0  0  0  0  0  0  0  0
  -41.4220   60.6845   63.8170 C   0  0  0  0  0  0  0  0  0  0  0  0
  -40.5143   60.0986   61.6049 C   0  0  0  0  0  0  0  0  0  0  0  0
  -36.1674   57.1768   62.3195 C   0  0  0  0  0  0  0  0  0  0  0  0
  -35.2915   58.1841   63.0545 C   0  0  0  0  0  0  0  0  0  0  0  0
  -33.8635   58.0859   62.5631 C   0  0  0  0  0  0  0  0  0  0  0  0
  -33.4177   56.8675   61.8159 C   0  0  0  0  0  0  0  0  0  0  0  0
  -32.9984   59.0869   62.7831 C   0  0  0  0  0  0  0  0  0  0  0  0
  -31.3017   60.0730   61.3759 O   0  0  0  0  0  0  0  0  0  0  0  0
  -31.5695   59.0089   62.2958 C   0  0  0  0  0  0  0  0  0  0  0  0
  -30.3831   60.0127   61.0704 H   0  0  0  0  0  0  0  0  0  0  0  0
  6  7  1  0  0  0
 15 16  1  0  0  0
 15 17  1  0  0  0
  7  8  1  0  0  0
  7  9  2  0  0  0
  9  5  1  0  0  0
  5  4  1  0  0  0
  4  1  1  0  0  0
  1  2  1  0  0  0
  1  3  2  0  0  0
  3 10  1  0  0  0
 10 11  1  0  0  0
 11 12  1  0  0  0
 12 13  1  0  0  0
 12 14  2  0  0  0
 14 16  1  0  0  0
M  END
> <minimizedAffinity>
-6.90060

> <CNNscore>
0.4440249205

> <CNNaffinity>
5.3824005127

> <CNN_VS>
2.3899199963

> <CNNaffinity_variance>
0.0423742123

$$$$
/media/chris/experiments/cd1a-new-docking/inputs/ligands/6nux_ligand.pdb


 17 16  0  0  0  0  0  0  0  0999 V2000
  -37.4292   58.8380   63.1398 C   0  0  0  0  0  0  0  0  0  0  0  0
  -37.7536   58.5189   64.5715 C   0  0  0  0  0  0  0  0  0  0  0  0
  -37.4047   60.1179   62.7424 C   0  0  0  0  0  0  0  0  0  0  0  0
  -37.1260   57.7330   62.1500 C   0  0  0  0  0  0  0  0  0  0  0  0
  -35.8833   56.9559   62.5721 C   0  0  0  0  0  0  0  0  0  0  0  0
  -34.0444   58.1843   64.3938 C   0  0  0  0  0  0  0  0  0  0  0  0
  -33.7744   58.2107   62.9204 C   0  0  0  0  0  0  0  0  0  0  0  0
  -32.5388   58.8854   62.4051 C   0  0  0  0  0  0  0  0  0  0  0  0
  -34.6340   57.6384   62.0645 C   0  0  0  0  0  0  0  0  0  0  0  0
  -37.7007   61.2257   63.7270 C   0  0  0  0  0  0  0  0  0  0  0  0
  -36.5997   62.2782   63.6807 C   0  0  0  0  0  0  0  0  0  0  0  0
  -36.0233   62.4876   65.0643 C   0  0  0  0  0  0  0  0  0  0  0  0
  -35.3004   61.3669   65.7446 C   0  0  0  0  0  0  0  0  0  0  0  0
  -36.1467   63.6726   65.6801 C   0  0  0  0  0  0  0  0  0  0  0  0
  -36.5959   63.7524   68.0514 O   0  0  0  0  0  0  0  0  0  0  0  0
  -35.5736   63.9020   67.0600 C   0  0  0  0  0  0  0  0  0  0  0  0
  -36.2168   63.9016   68.9317 H   0  0  0  0  0  0  0  0  0  0  0  0
  6  7  1  0  0  0
 15 16  1  0  0  0
 15 17  1  0  0  0
  7  8  1  0  0  0
  7  9  2  0  0  0
  9  5  1  0  0  0
  5  4  1  0  0  0
  4  1  1  0  0  0
  1  2  1  0  0  0
  1  3  2  0  0  0
  3 10  1  0  0  0
 10 11  1  0  0  0
 11 12  1  0  0  0
 12 13  1  0  0  0
 12 14  2  0  0  0
 14 16  1  0  0  0
M  END
> <minimizedAffinity>
-6.41865

> <CNNscore>
0.4257662892

> <CNNaffinity>
5.1185731888

> <CNN_VS>
2.1793158054

> <CNNaffinity_variance>
0.2017017305

$$$$
