/media/chris/experiments/cd1a-new-docking/inputs/ligands/6nux_ligand.pdb


 17 16  0  0  0  0  0  0  0  0999 V2000
  -38.2156   57.5770   61.4177 C   0  0  0  0  0  0  0  0  0  0  0  0
  -39.2578   58.1935   60.5284 C   0  0  0  0  0  0  0  0  0  0  0  0
  -38.5964   56.7325   62.3865 C   0  0  0  0  0  0  0  0  0  0  0  0
  -36.7478   57.8955   61.2261 C   0  0  0  0  0  0  0  0  0  0  0  0
  -35.9196   57.3401   62.3802 C   0  0  0  0  0  0  0  0  0  0  0  0
  -33.2759   56.4536   61.7211 C   0  0  0  0  0  0  0  0  0  0  0  0
  -33.4854   57.8049   62.3332 C   0  0  0  0  0  0  0  0  0  0  0  0
  -32.3045   58.6887   62.6010 C   0  0  0  0  0  0  0  0  0  0  0  0
  -34.7214   58.2223   62.6449 C   0  0  0  0  0  0  0  0  0  0  0  0
  -40.0596   56.4062   62.5791 C   0  0  0  0  0  0  0  0  0  0  0  0
  -40.5626   57.0002   63.8891 C   0  0  0  0  0  0  0  0  0  0  0  0
  -41.9483   56.4763   64.1982 C   0  0  0  0  0  0  0  0  0  0  0  0
  -42.2231   55.0071   64.1108 C   0  0  0  0  0  0  0  0  0  0  0  0
  -42.9283   57.3175   64.5598 C   0  0  0  0  0  0  0  0  0  0  0  0
  -44.4240   56.4998   66.2703 O   0  0  0  0  0  0  0  0  0  0  0  0
  -44.3173   56.8123   64.8770 C   0  0  0  0  0  0  0  0  0  0  0  0
  -45.3184   56.1770   66.4618 H   0  0  0  0  0  0  0  0  0  0  0  0
  6  7  1  0  0  0
 15 16  1  0  0  0
 15 17  1  0  0  0
  7  8  1  0  0  0
  7  9  2  0  0  0
  9  5  1  0  0  0
  5  4  1  0  0  0
  4  1  1  0  0  0
  1  2  1  0  0  0
  1  3  2  0  0  0
  3 10  1  0  0  0
 10 11  1  0  0  0
 11 12  1  0  0  0
 12 13  1  0  0  0
 12 14  2  0  0  0
 14 16  1  0  0  0
M  END
> <minimizedAffinity>
-6.97913

> <CNNscore>
0.8135550618

> <CNNaffinity>
5.8005704880

> <CNN_VS>
4.7190833092

> <CNNaffinity_variance>
0.0177013334

$$$$
/media/chris/experiments/cd1a-new-docking/inputs/ligands/6nux_ligand.pdb


 17 16  0  0  0  0  0  0  0  0999 V2000
  -47.3787   59.5827   61.0772 C   0  0  0  0  0  0  0  0  0  0  0  0
  -47.6770   61.0551   61.0847 C   0  0  0  0  0  0  0  0  0  0  0  0
  -48.0669   58.7699   61.8911 C   0  0  0  0  0  0  0  0  0  0  0  0
  -46.3178   59.0125   60.1595 C   0  0  0  0  0  0  0  0  0  0  0  0
  -46.8362   58.9177   58.7282 C   0  0  0  0  0  0  0  0  0  0  0  0
  -48.9338   56.9738   58.5524 C   0  0  0  0  0  0  0  0  0  0  0  0
  -47.5541   56.6368   58.0754 C   0  0  0  0  0  0  0  0  0  0  0  0
  -47.2771   55.2769   57.5086 C   0  0  0  0  0  0  0  0  0  0  0  0
  -46.5692   57.5437   58.1582 C   0  0  0  0  0  0  0  0  0  0  0  0
  -49.1311   59.3323   62.8052 C   0  0  0  0  0  0  0  0  0  0  0  0
  -49.7112   58.2268   63.6789 C   0  0  0  0  0  0  0  0  0  0  0  0
  -49.3114   58.4427   65.1225 C   0  0  0  0  0  0  0  0  0  0  0  0
  -50.1199   59.3588   65.9877 C   0  0  0  0  0  0  0  0  0  0  0  0
  -48.2447   57.8111   65.6344 C   0  0  0  0  0  0  0  0  0  0  0  0
  -46.9064   59.0973   67.1791 O   0  0  0  0  0  0  0  0  0  0  0  0
  -47.8328   58.0104   67.0751 C   0  0  0  0  0  0  0  0  0  0  0  0
  -46.6496   59.2157   68.1070 H   0  0  0  0  0  0  0  0  0  0  0  0
  6  7  1  0  0  0
 15 16  1  0  0  0
 15 17  1  0  0  0
  7  8  1  0  0  0
  7  9  2  0  0  0
  9  5  1  0  0  0
  5  4  1  0  0  0
  4  1  1  0  0  0
  1  2  1  0  0  0
  1  3  2  0  0  0
  3 10  1  0  0  0
 10 11  1  0  0  0
 11 12  1  0  0  0
 12 13  1  0  0  0
 12 14  2  0  0  0
 14 16  1  0  0  0
M  END
> <minimizedAffinity>
-6.88776

> <CNNscore>
0.7249239087

> <CNNaffinity>
5.9055743217

> <CNN_VS>
4.2810921669

> <CNNaffinity_variance>
0.0938561335

$$$$
/media/chris/experiments/cd1a-new-docking/inputs/ligands/6nux_ligand.pdb


 17 16  0  0  0  0  0  0  0  0999 V2000
  -38.6356   57.7801   61.3202 C   0  0  0  0  0  0  0  0  0  0  0  0
  -37.8243   58.7324   60.4884 C   0  0  0  0  0  0  0  0  0  0  0  0
  -38.0156   57.0008   62.2173 C   0  0  0  0  0  0  0  0  0  0  0  0
  -40.1389   57.6981   61.1582 C   0  0  0  0  0  0  0  0  0  0  0  0
  -40.6790   56.4117   61.7744 C   0  0  0  0  0  0  0  0  0  0  0  0
  -41.5701   54.3587   63.5634 C   0  0  0  0  0  0  0  0  0  0  0  0
  -42.0704   55.7622   63.7201 C   0  0  0  0  0  0  0  0  0  0  0  0
  -43.0412   56.0853   64.8158 C   0  0  0  0  0  0  0  0  0  0  0  0
  -41.6570   56.7254   62.8831 C   0  0  0  0  0  0  0  0  0  0  0  0
  -36.5160   57.0821   62.3878 C   0  0  0  0  0  0  0  0  0  0  0  0
  -36.1651   57.3062   63.8537 C   0  0  0  0  0  0  0  0  0  0  0  0
  -36.0660   58.7883   64.1428 C   0  0  0  0  0  0  0  0  0  0  0  0
  -37.2090   59.4937   64.8043 C   0  0  0  0  0  0  0  0  0  0  0  0
  -34.9578   59.4715   63.8204 C   0  0  0  0  0  0  0  0  0  0  0  0
  -34.9799   61.7017   62.8945 O   0  0  0  0  0  0  0  0  0  0  0  0
  -34.8386   60.9512   64.1057 C   0  0  0  0  0  0  0  0  0  0  0  0
  -34.9017   62.6486   63.0897 H   0  0  0  0  0  0  0  0  0  0  0  0
  6  7  1  0  0  0
 15 16  1  0  0  0
 15 17  1  0  0  0
  7  8  1  0  0  0
  7  9  2  0  0  0
  9  5  1  0  0  0
  5  4  1  0  0  0
  4  1  1  0  0  0
  1  2  1  0  0  0
  1  3  2  0  0  0
  3 10  1  0  0  0
 10 11  1  0  0  0
 11 12  1  0  0  0
 12 13  1  0  0  0
 12 14  2  0  0  0
 14 16  1  0  0  0
M  END
> <minimizedAffinity>
-6.66625

> <CNNscore>
0.6609264016

> <CNNaffinity>
5.6232323647

> <CNN_VS>
3.7165427208

> <CNNaffinity_variance>
0.0105954977

$$$$
/media/chris/experiments/cd1a-new-docking/inputs/ligands/6nux_ligand.pdb


 17 16  0  0  0  0  0  0  0  0999 V2000
  -38.3603   57.5554   61.3877 C   0  0  0  0  0  0  0  0  0  0  0  0
  -39.3902   58.2297   60.5265 C   0  0  0  0  0  0  0  0  0  0  0  0
  -38.7539   56.6461   62.2904 C   0  0  0  0  0  0  0  0  0  0  0  0
  -36.8905   57.8884   61.2412 C   0  0  0  0  0  0  0  0  0  0  0  0
  -36.0817   57.2744   62.3792 C   0  0  0  0  0  0  0  0  0  0  0  0
  -33.4143   56.4590   61.7240 C   0  0  0  0  0  0  0  0  0  0  0  0
  -33.6529   57.7680   62.4127 C   0  0  0  0  0  0  0  0  0  0  0  0
  -32.4887   58.6466   62.7591 C   0  0  0  0  0  0  0  0  0  0  0  0
  -34.9002   58.1520   62.7228 C   0  0  0  0  0  0  0  0  0  0  0  0
  -40.2190   56.3052   62.4374 C   0  0  0  0  0  0  0  0  0  0  0  0
  -40.6519   56.4619   63.8900 C   0  0  0  0  0  0  0  0  0  0  0  0
  -40.8601   57.9254   64.2144 C   0  0  0  0  0  0  0  0  0  0  0  0
  -41.7607   58.7558   63.3536 C   0  0  0  0  0  0  0  0  0  0  0  0
  -40.2520   58.4804   65.2732 C   0  0  0  0  0  0  0  0  0  0  0  0
  -39.2780   60.4645   66.2459 O   0  0  0  0  0  0  0  0  0  0  0  0
  -40.4516   59.9392   65.6157 C   0  0  0  0  0  0  0  0  0  0  0  0
  -39.4176   61.4000   66.4609 H   0  0  0  0  0  0  0  0  0  0  0  0
  6  7  1  0  0  0
 15 16  1  0  0  0
 15 17  1  0  0  0
  7  8  1  0  0  0
  7  9  2  0  0  0
  9  5  1  0  0  0
  5  4  1  0  0  0
  4  1  1  0  0  0
  1  2  1  0  0  0
  1  3  2  0  0  0
  3 10  1  0  0  0
 10 11  1  0  0  0
 11 12  1  0  0  0
 12 13  1  0  0  0
 12 14  2  0  0  0
 14 16  1  0  0  0
M  END
> <minimizedAffinity>
-6.90243

> <CNNscore>
0.6332592368

> <CNNaffinity>
5.6000328064

> <CNN_VS>
3.5462725163

> <CNNaffinity_variance>
0.0173375458

$$$$
/media/chris/experiments/cd1a-new-docking/inputs/ligands/6nux_ligand.pdb


 17 16  0  0  0  0  0  0  0  0999 V2000
  -49.9821   58.4808   61.0649 C   0  0  0  0  0  0  0  0  0  0  0  0
  -50.0690   59.9700   60.8865 C   0  0  0  0  0  0  0  0  0  0  0  0
  -49.5800   57.9837   62.2429 C   0  0  0  0  0  0  0  0  0  0  0  0
  -50.3482   57.5431   59.9338 C   0  0  0  0  0  0  0  0  0  0  0  0
  -49.2178   56.5553   59.6640 C   0  0  0  0  0  0  0  0  0  0  0  0
  -46.5544   57.5332   60.0636 C   0  0  0  0  0  0  0  0  0  0  0  0
  -47.1335   57.4706   58.6832 C   0  0  0  0  0  0  0  0  0  0  0  0
  -46.3130   57.9246   57.5136 C   0  0  0  0  0  0  0  0  0  0  0  0
  -48.3808   57.0153   58.4927 C   0  0  0  0  0  0  0  0  0  0  0  0
  -49.2188   58.9145   63.3776 C   0  0  0  0  0  0  0  0  0  0  0  0
  -47.9340   58.4481   64.0513 C   0  0  0  0  0  0  0  0  0  0  0  0
  -48.2578   57.7150   65.3351 C   0  0  0  0  0  0  0  0  0  0  0  0
  -49.6111   57.8690   65.9568 C   0  0  0  0  0  0  0  0  0  0  0  0
  -47.3449   56.9207   65.9134 C   0  0  0  0  0  0  0  0  0  0  0  0
  -48.0108   54.8211   66.9034 O   0  0  0  0  0  0  0  0  0  0  0  0
  -47.6517   56.1767   67.1930 C   0  0  0  0  0  0  0  0  0  0  0  0
  -48.2052   54.3542   67.7311 H   0  0  0  0  0  0  0  0  0  0  0  0
  6  7  1  0  0  0
 15 16  1  0  0  0
 15 17  1  0  0  0
  7  8  1  0  0  0
  7  9  2  0  0  0
  9  5  1  0  0  0
  5  4  1  0  0  0
  4  1  1  0  0  0
  1  2  1  0  0  0
  1  3  2  0  0  0
  3 10  1  0  0  0
 10 11  1  0  0  0
 11 12  1  0  0  0
 12 13  1  0  0  0
 12 14  2  0  0  0
 14 16  1  0  0  0
M  END
> <minimizedAffinity>
-7.78200

> <CNNscore>
0.6286767721

> <CNNaffinity>
5.9425401688

> <CNN_VS>
3.7359368801

> <CNNaffinity_variance>
0.1063385606

$$$$
/media/chris/experiments/cd1a-new-docking/inputs/ligands/6nux_ligand.pdb


 17 16  0  0  0  0  0  0  0  0999 V2000
  -49.4319   58.9521   63.0646 C   0  0  0  0  0  0  0  0  0  0  0  0
  -49.5752   60.4472   63.0311 C   0  0  0  0  0  0  0  0  0  0  0  0
  -48.9710   58.3130   61.9802 C   0  0  0  0  0  0  0  0  0  0  0  0
  -49.7960   58.1672   64.3071 C   0  0  0  0  0  0  0  0  0  0  0  0
  -48.8683   58.5258   65.4635 C   0  0  0  0  0  0  0  0  0  0  0  0
  -46.1952   59.2829   64.7629 C   0  0  0  0  0  0  0  0  0  0  0  0
  -46.4836   57.8901   65.2337 C   0  0  0  0  0  0  0  0  0  0  0  0
  -45.3668   56.8951   65.3335 C   0  0  0  0  0  0  0  0  0  0  0  0
  -47.7341   57.5316   65.5606 C   0  0  0  0  0  0  0  0  0  0  0  0
  -48.6004   59.0915   60.7389 C   0  0  0  0  0  0  0  0  0  0  0  0
  -47.2220   58.6688   60.2454 C   0  0  0  0  0  0  0  0  0  0  0  0
  -47.3485   57.9009   58.9474 C   0  0  0  0  0  0  0  0  0  0  0  0
  -46.3890   58.1688   57.8298 C   0  0  0  0  0  0  0  0  0  0  0  0
  -48.3071   56.9752   58.7956 C   0  0  0  0  0  0  0  0  0  0  0  0
  -47.9788   54.8536   57.6901 O   0  0  0  0  0  0  0  0  0  0  0  0
  -48.4461   56.1949   57.5085 C   0  0  0  0  0  0  0  0  0  0  0  0
  -48.0727   54.3630   56.8586 H   0  0  0  0  0  0  0  0  0  0  0  0
  6  7  1  0  0  0
 15 16  1  0  0  0
 15 17  1  0  0  0
  7  8  1  0  0  0
  7  9  2  0  0  0
  9  5  1  0  0  0
  5  4  1  0  0  0
  4  1  1  0  0  0
  1  2  1  0  0  0
  1  3  2  0  0  0
  3 10  1  0  0  0
 10 11  1  0  0  0
 11 12  1  0  0  0
 12 13  1  0  0  0
 12 14  2  0  0  0
 14 16  1  0  0  0
M  END
> <minimizedAffinity>
-6.47249

> <CNNscore>
0.6072269678

> <CNNaffinity>
6.0808935165

> <CNN_VS>
3.6924824715

> <CNNaffinity_variance>
0.1510020047

$$$$
/media/chris/experiments/cd1a-new-docking/inputs/ligands/6nux_ligand.pdb


 17 16  0  0  0  0  0  0  0  0999 V2000
  -36.4460   57.9011   62.5751 C   0  0  0  0  0  0  0  0  0  0  0  0
  -35.0908   57.2623   62.4637 C   0  0  0  0  0  0  0  0  0  0  0  0
  -36.6786   58.7779   63.5620 C   0  0  0  0  0  0  0  0  0  0  0  0
  -37.5421   57.5691   61.5847 C   0  0  0  0  0  0  0  0  0  0  0  0
  -38.5365   56.5838   62.1901 C   0  0  0  0  0  0  0  0  0  0  0  0
  -40.3365   57.3880   64.2693 C   0  0  0  0  0  0  0  0  0  0  0  0
  -40.7935   57.3739   62.8425 C   0  0  0  0  0  0  0  0  0  0  0  0
  -42.1976   57.7800   62.5097 C   0  0  0  0  0  0  0  0  0  0  0  0
  -39.9542   56.9959   61.8669 C   0  0  0  0  0  0  0  0  0  0  0  0
  -35.5867   59.1179   64.5502 C   0  0  0  0  0  0  0  0  0  0  0  0
  -34.9070   60.4229   64.1540 C   0  0  0  0  0  0  0  0  0  0  0  0
  -35.5393   61.5825   64.8929 C   0  0  0  0  0  0  0  0  0  0  0  0
  -36.6357   62.3678   64.2427 C   0  0  0  0  0  0  0  0  0  0  0  0
  -35.1316   61.9044   66.1294 C   0  0  0  0  0  0  0  0  0  0  0  0
  -36.4625   62.5709   68.0310 O   0  0  0  0  0  0  0  0  0  0  0  0
  -35.7544   63.0561   66.8849 C   0  0  0  0  0  0  0  0  0  0  0  0
  -36.8574   63.3179   68.5073 H   0  0  0  0  0  0  0  0  0  0  0  0
  6  7  1  0  0  0
 15 16  1  0  0  0
 15 17  1  0  0  0
  7  8  1  0  0  0
  7  9  2  0  0  0
  9  5  1  0  0  0
  5  4  1  0  0  0
  4  1  1  0  0  0
  1  2  1  0  0  0
  1  3  2  0  0  0
  3 10  1  0  0  0
 10 11  1  0  0  0
 11 12  1  0  0  0
 12 13  1  0  0  0
 12 14  2  0  0  0
 14 16  1  0  0  0
M  END
> <minimizedAffinity>
-6.60654

> <CNNscore>
0.5888161659

> <CNNaffinity>
5.4274868965

> <CNN_VS>
3.1957919598

> <CNNaffinity_variance>
0.0776039809

$$$$
/media/chris/experiments/cd1a-new-docking/inputs/ligands/6nux_ligand.pdb


 17 16  0  0  0  0  0  0  0  0999 V2000
  -37.6266   57.2609   63.6066 C   0  0  0  0  0  0  0  0  0  0  0  0
  -38.6242   57.7046   64.6385 C   0  0  0  0  0  0  0  0  0  0  0  0
  -38.0649   56.7844   62.4329 C   0  0  0  0  0  0  0  0  0  0  0  0
  -36.1397   57.3525   63.8777 C   0  0  0  0  0  0  0  0  0  0  0  0
  -35.3467   57.2503   62.5789 C   0  0  0  0  0  0  0  0  0  0  0  0
  -32.6688   56.4630   61.9319 C   0  0  0  0  0  0  0  0  0  0  0  0
  -32.9749   57.8935   62.2553 C   0  0  0  0  0  0  0  0  0  0  0  0
  -31.8723   58.9091   62.2411 C   0  0  0  0  0  0  0  0  0  0  0  0
  -34.2270   58.2653   62.5607 C   0  0  0  0  0  0  0  0  0  0  0  0
  -39.5477   56.6959   62.1541 C   0  0  0  0  0  0  0  0  0  0  0  0
  -39.9186   57.6058   60.9893 C   0  0  0  0  0  0  0  0  0  0  0  0
  -40.1241   59.0219   61.4821 C   0  0  0  0  0  0  0  0  0  0  0  0
  -39.2241   60.1151   60.9959 C   0  0  0  0  0  0  0  0  0  0  0  0
  -41.1131   59.3056   62.3425 C   0  0  0  0  0  0  0  0  0  0  0  0
  -40.8796   60.8392   64.1932 O   0  0  0  0  0  0  0  0  0  0  0  0
  -41.3368   60.7147   62.8420 C   0  0  0  0  0  0  0  0  0  0  0  0
  -41.0281   61.7465   64.5026 H   0  0  0  0  0  0  0  0  0  0  0  0
  6  7  1  0  0  0
 15 16  1  0  0  0
 15 17  1  0  0  0
  7  8  1  0  0  0
  7  9  2  0  0  0
  9  5  1  0  0  0
  5  4  1  0  0  0
  4  1  1  0  0  0
  1  2  1  0  0  0
  1  3  2  0  0  0
  3 10  1  0  0  0
 10 11  1  0  0  0
 11 12  1  0  0  0
 12 13  1  0  0  0
 12 14  2  0  0  0
 14 16  1  0  0  0
M  END
> <minimizedAffinity>
-6.77819

> <CNNscore>
0.5757772326

> <CNNaffinity>
5.4821462631

> <CNN_VS>
3.1564950943

> <CNNaffinity_variance>
0.0575896129

$$$$
/media/chris/experiments/cd1a-new-docking/inputs/ligands/6nux_ligand.pdb


 17 16  0  0  0  0  0  0  0  0999 V2000
  -49.1799   59.2870   61.5217 C   0  0  0  0  0  0  0  0  0  0  0  0
  -49.9751   58.1780   60.8933 C   0  0  0  0  0  0  0  0  0  0  0  0
  -48.9590   59.2680   62.8437 C   0  0  0  0  0  0  0  0  0  0  0  0
  -48.6249   60.4155   60.6785 C   0  0  0  0  0  0  0  0  0  0  0  0
  -47.1483   60.1857   60.3732 C   0  0  0  0  0  0  0  0  0  0  0  0
  -46.1762   57.5031   60.1121 C   0  0  0  0  0  0  0  0  0  0  0  0
  -46.5279   58.2978   58.8917 C   0  0  0  0  0  0  0  0  0  0  0  0
  -46.3657   57.6828   57.5342 C   0  0  0  0  0  0  0  0  0  0  0  0
  -46.9813   59.5547   59.0101 C   0  0  0  0  0  0  0  0  0  0  0  0
  -49.5054   58.1412   63.6899 C   0  0  0  0  0  0  0  0  0  0  0  0
  -49.9672   58.6745   65.0405 C   0  0  0  0  0  0  0  0  0  0  0  0
  -48.8370   58.5952   66.0438 C   0  0  0  0  0  0  0  0  0  0  0  0
  -48.1018   59.8398   66.4338 C   0  0  0  0  0  0  0  0  0  0  0  0
  -48.4967   57.4200   66.5933 C   0  0  0  0  0  0  0  0  0  0  0  0
  -46.5365   56.1998   67.3005 O   0  0  0  0  0  0  0  0  0  0  0  0
  -47.3739   57.3218   67.6007 C   0  0  0  0  0  0  0  0  0  0  0  0
  -45.8205   56.1469   67.9527 H   0  0  0  0  0  0  0  0  0  0  0  0
  6  7  1  0  0  0
 15 16  1  0  0  0
 15 17  1  0  0  0
  7  8  1  0  0  0
  7  9  2  0  0  0
  9  5  1  0  0  0
  5  4  1  0  0  0
  4  1  1  0  0  0
  1  2  1  0  0  0
  1  3  2  0  0  0
  3 10  1  0  0  0
 10 11  1  0  0  0
 11 12  1  0  0  0
 12 13  1  0  0  0
 12 14  2  0  0  0
 14 16  1  0  0  0
M  END
> <minimizedAffinity>
-7.16679

> <CNNscore>
0.5152664185

> <CNNaffinity>
5.7212147713

> <CNN_VS>
2.9479498863

> <CNNaffinity_variance>
0.0704677850

$$$$
