/media/chris/experiments/cd1a-new-docking/inputs/ligands/6nux_ligand.pdb


 17 16  0  0  0  0  0  0  0  0999 V2000
  -38.3404   57.5188   61.4060 C   0  0  0  0  0  0  0  0  0  0  0  0
  -39.3733   58.1797   60.5381 C   0  0  0  0  0  0  0  0  0  0  0  0
  -38.7273   56.6001   62.3021 C   0  0  0  0  0  0  0  0  0  0  0  0
  -36.8749   57.8756   61.2735 C   0  0  0  0  0  0  0  0  0  0  0  0
  -36.0677   57.2783   62.4216 C   0  0  0  0  0  0  0  0  0  0  0  0
  -33.4239   56.4541   61.6863 C   0  0  0  0  0  0  0  0  0  0  0  0
  -33.6365   57.7597   62.3898 C   0  0  0  0  0  0  0  0  0  0  0  0
  -32.4585   58.6303   62.7088 C   0  0  0  0  0  0  0  0  0  0  0  0
  -34.8725   58.1477   62.7373 C   0  0  0  0  0  0  0  0  0  0  0  0
  -40.1880   56.2354   62.4350 C   0  0  0  0  0  0  0  0  0  0  0  0
  -40.6887   56.5724   63.8343 C   0  0  0  0  0  0  0  0  0  0  0  0
  -42.1692   56.8833   63.7948 C   0  0  0  0  0  0  0  0  0  0  0  0
  -42.8047   57.3068   62.5070 C   0  0  0  0  0  0  0  0  0  0  0  0
  -42.9172   56.7719   64.9025 C   0  0  0  0  0  0  0  0  0  0  0  0
  -45.1118   56.1039   65.6567 O   0  0  0  0  0  0  0  0  0  0  0  0
  -44.3983   57.0736   64.8814 C   0  0  0  0  0  0  0  0  0  0  0  0
  -46.0599   56.3075   65.6359 H   0  0  0  0  0  0  0  0  0  0  0  0
  6  7  1  0  0  0
 15 16  1  0  0  0
 15 17  1  0  0  0
  7  8  1  0  0  0
  7  9  2  0  0  0
  9  5  1  0  0  0
  5  4  1  0  0  0
  4  1  1  0  0  0
  1  2  1  0  0  0
  1  3  2  0  0  0
  3 10  1  0  0  0
 10 11  1  0  0  0
 11 12  1  0  0  0
 12 13  1  0  0  0
 12 14  2  0  0  0
 14 16  1  0  0  0
M  END
> <minimizedAffinity>
-7.04477

> <CNNscore>
0.7019796968

> <CNNaffinity>
5.7732496262

> <CNN_VS>
4.0527038574

> <CNNaffinity_variance>
0.0356599540

$$$$
/media/chris/experiments/cd1a-new-docking/inputs/ligands/6nux_ligand.pdb


 17 16  0  0  0  0  0  0  0  0999 V2000
  -39.5658   57.2181   61.4682 C   0  0  0  0  0  0  0  0  0  0  0  0
  -39.1529   58.2748   60.4836 C   0  0  0  0  0  0  0  0  0  0  0  0
  -38.6486   56.6989   62.2964 C   0  0  0  0  0  0  0  0  0  0  0  0
  -41.0016   56.7419   61.5361 C   0  0  0  0  0  0  0  0  0  0  0  0
  -41.8765   57.7650   62.2532 C   0  0  0  0  0  0  0  0  0  0  0  0
  -41.5270   57.8775   65.0948 C   0  0  0  0  0  0  0  0  0  0  0  0
  -42.6852   57.1295   64.5083 C   0  0  0  0  0  0  0  0  0  0  0  0
  -43.6577   56.4386   65.4163 C   0  0  0  0  0  0  0  0  0  0  0  0
  -42.8507   57.0730   63.1785 C   0  0  0  0  0  0  0  0  0  0  0  0
  -37.2151   57.1741   62.2374 C   0  0  0  0  0  0  0  0  0  0  0  0
  -36.6390   57.2825   63.6440 C   0  0  0  0  0  0  0  0  0  0  0  0
  -35.1878   57.7069   63.5793 C   0  0  0  0  0  0  0  0  0  0  0  0
  -34.5136   58.2358   64.8070 C   0  0  0  0  0  0  0  0  0  0  0  0
  -34.4993   57.6024   62.4330 C   0  0  0  0  0  0  0  0  0  0  0  0
  -32.9481   59.4300   62.1417 O   0  0  0  0  0  0  0  0  0  0  0  0
  -33.0479   58.0168   62.3502 C   0  0  0  0  0  0  0  0  0  0  0  0
  -32.0133   59.6839   62.0903 H   0  0  0  0  0  0  0  0  0  0  0  0
  6  7  1  0  0  0
 15 16  1  0  0  0
 15 17  1  0  0  0
  7  8  1  0  0  0
  7  9  2  0  0  0
  9  5  1  0  0  0
  5  4  1  0  0  0
  4  1  1  0  0  0
  1  2  1  0  0  0
  1  3  2  0  0  0
  3 10  1  0  0  0
 10 11  1  0  0  0
 11 12  1  0  0  0
 12 13  1  0  0  0
 12 14  2  0  0  0
 14 16  1  0  0  0
M  END
> <minimizedAffinity>
-6.73607

> <CNNscore>
0.6815081835

> <CNNaffinity>
5.7644476891

> <CNN_VS>
3.9285182953

> <CNNaffinity_variance>
0.0112618338

$$$$
/media/chris/experiments/cd1a-new-docking/inputs/ligands/6nux_ligand.pdb


 17 16  0  0  0  0  0  0  0  0999 V2000
  -49.7449   58.9466   61.4792 C   0  0  0  0  0  0  0  0  0  0  0  0
  -49.6662   60.4037   61.1220 C   0  0  0  0  0  0  0  0  0  0  0  0
  -49.4623   58.5621   62.7318 C   0  0  0  0  0  0  0  0  0  0  0  0
  -50.1437   57.9162   60.4438 C   0  0  0  0  0  0  0  0  0  0  0  0
  -49.0435   56.8749   60.2664 C   0  0  0  0  0  0  0  0  0  0  0  0
  -46.3668   57.8967   60.2885 C   0  0  0  0  0  0  0  0  0  0  0  0
  -47.0424   57.5853   58.9880 C   0  0  0  0  0  0  0  0  0  0  0  0
  -46.3112   57.8139   57.6994 C   0  0  0  0  0  0  0  0  0  0  0  0
  -48.2962   57.1089   58.9738 C   0  0  0  0  0  0  0  0  0  0  0  0
  -49.0693   59.5864   63.7713 C   0  0  0  0  0  0  0  0  0  0  0  0
  -49.6673   59.2188   65.1238 C   0  0  0  0  0  0  0  0  0  0  0  0
  -48.6709   58.4145   65.9304 C   0  0  0  0  0  0  0  0  0  0  0  0
  -47.3569   59.0244   66.3083 C   0  0  0  0  0  0  0  0  0  0  0  0
  -48.9614   57.1637   66.3176 C   0  0  0  0  0  0  0  0  0  0  0  0
  -47.4302   55.2964   66.3249 O   0  0  0  0  0  0  0  0  0  0  0  0
  -47.9809   56.3466   67.1277 C   0  0  0  0  0  0  0  0  0  0  0  0
  -46.8032   54.7795   66.8547 H   0  0  0  0  0  0  0  0  0  0  0  0
  6  7  1  0  0  0
 15 16  1  0  0  0
 15 17  1  0  0  0
  7  8  1  0  0  0
  7  9  2  0  0  0
  9  5  1  0  0  0
  5  4  1  0  0  0
  4  1  1  0  0  0
  1  2  1  0  0  0
  1  3  2  0  0  0
  3 10  1  0  0  0
 10 11  1  0  0  0
 11 12  1  0  0  0
 12 13  1  0  0  0
 12 14  2  0  0  0
 14 16  1  0  0  0
M  END
> <minimizedAffinity>
-7.23697

> <CNNscore>
0.6745449901

> <CNNaffinity>
5.9749932289

> <CNN_VS>
4.0304017067

> <CNNaffinity_variance>
0.1681982577

$$$$
/media/chris/experiments/cd1a-new-docking/inputs/ligands/6nux_ligand.pdb


 17 16  0  0  0  0  0  0  0  0999 V2000
  -34.7864   58.2863   63.0809 C   0  0  0  0  0  0  0  0  0  0  0  0
  -33.2949   58.3906   62.9345 C   0  0  0  0  0  0  0  0  0  0  0  0
  -35.4420   59.2137   63.7928 C   0  0  0  0  0  0  0  0  0  0  0  0
  -35.5507   57.1526   62.4303 C   0  0  0  0  0  0  0  0  0  0  0  0
  -36.7651   57.6832   61.6753 C   0  0  0  0  0  0  0  0  0  0  0  0
  -39.2988   58.2867   60.4815 C   0  0  0  0  0  0  0  0  0  0  0  0
  -39.2108   57.2888   61.5956 C   0  0  0  0  0  0  0  0  0  0  0  0
  -40.4556   56.6106   62.0833 C   0  0  0  0  0  0  0  0  0  0  0  0
  -38.0267   57.0054   62.1582 C   0  0  0  0  0  0  0  0  0  0  0  0
  -34.6855   60.3510   64.4397 C   0  0  0  0  0  0  0  0  0  0  0  0
  -35.1340   61.6829   63.8507 C   0  0  0  0  0  0  0  0  0  0  0  0
  -35.0310   62.7733   64.8952 C   0  0  0  0  0  0  0  0  0  0  0  0
  -33.8918   63.7436   64.8454 C   0  0  0  0  0  0  0  0  0  0  0  0
  -35.9583   62.8825   65.8579 C   0  0  0  0  0  0  0  0  0  0  0  0
  -36.6453   63.6039   68.0577 O   0  0  0  0  0  0  0  0  0  0  0  0
  -35.8748   63.9678   66.9068 C   0  0  0  0  0  0  0  0  0  0  0  0
  -36.5842   64.3070   68.7232 H   0  0  0  0  0  0  0  0  0  0  0  0
  6  7  1  0  0  0
 15 16  1  0  0  0
 15 17  1  0  0  0
  7  8  1  0  0  0
  7  9  2  0  0  0
  9  5  1  0  0  0
  5  4  1  0  0  0
  4  1  1  0  0  0
  1  2  1  0  0  0
  1  3  2  0  0  0
  3 10  1  0  0  0
 10 11  1  0  0  0
 11 12  1  0  0  0
 12 13  1  0  0  0
 12 14  2  0  0  0
 14 16  1  0  0  0
M  END
> <minimizedAffinity>
-6.96523

> <CNNscore>
0.6680201292

> <CNNaffinity>
5.3841848373

> <CNN_VS>
3.5967438221

> <CNNaffinity_variance>
0.0579039939

$$$$
/media/chris/experiments/cd1a-new-docking/inputs/ligands/6nux_ligand.pdb


 17 16  0  0  0  0  0  0  0  0999 V2000
  -48.5954   57.9966   65.1914 C   0  0  0  0  0  0  0  0  0  0  0  0
  -50.0032   58.0607   65.7117 C   0  0  0  0  0  0  0  0  0  0  0  0
  -48.3829   58.0331   63.8684 C   0  0  0  0  0  0  0  0  0  0  0  0
  -47.4220   57.8976   66.1432 C   0  0  0  0  0  0  0  0  0  0  0  0
  -46.6533   59.2140   66.1916 C   0  0  0  0  0  0  0  0  0  0  0  0
  -44.1671   59.7009   64.8532 C   0  0  0  0  0  0  0  0  0  0  0  0
  -44.1770   59.2644   66.2864 C   0  0  0  0  0  0  0  0  0  0  0  0
  -42.8794   59.0815   67.0146 C   0  0  0  0  0  0  0  0  0  0  0  0
  -45.3389   59.0335   66.9155 C   0  0  0  0  0  0  0  0  0  0  0  0
  -49.5496   58.1377   62.9134 C   0  0  0  0  0  0  0  0  0  0  0  0
  -49.1259   58.8663   61.6438 C   0  0  0  0  0  0  0  0  0  0  0  0
  -49.2887   57.9572   60.4449 C   0  0  0  0  0  0  0  0  0  0  0  0
  -50.6599   57.6443   59.9313 C   0  0  0  0  0  0  0  0  0  0  0  0
  -48.2134   57.4390   59.8334 C   0  0  0  0  0  0  0  0  0  0  0  0
  -48.2158   55.1634   59.0256 O   0  0  0  0  0  0  0  0  0  0  0  0
  -48.3560   56.5330   58.6318 C   0  0  0  0  0  0  0  0  0  0  0  0
  -48.3091   54.5920   58.2472 H   0  0  0  0  0  0  0  0  0  0  0  0
  6  7  1  0  0  0
 15 16  1  0  0  0
 15 17  1  0  0  0
  7  8  1  0  0  0
  7  9  2  0  0  0
  9  5  1  0  0  0
  5  4  1  0  0  0
  4  1  1  0  0  0
  1  2  1  0  0  0
  1  3  2  0  0  0
  3 10  1  0  0  0
 10 11  1  0  0  0
 11 12  1  0  0  0
 12 13  1  0  0  0
 12 14  2  0  0  0
 14 16  1  0  0  0
M  END
> <minimizedAffinity>
-6.64364

> <CNNscore>
0.6471007466

> <CNNaffinity>
6.0299911499

> <CNN_VS>
3.9020118713

> <CNNaffinity_variance>
0.3946901262

$$$$
/media/chris/experiments/cd1a-new-docking/inputs/ligands/6nux_ligand.pdb


 17 16  0  0  0  0  0  0  0  0999 V2000
  -42.7777   56.6358   63.4544 C   0  0  0  0  0  0  0  0  0  0  0  0
  -43.3634   57.6114   62.4735 C   0  0  0  0  0  0  0  0  0  0  0  0
  -43.4111   56.4119   64.6143 C   0  0  0  0  0  0  0  0  0  0  0  0
  -41.4893   55.9040   63.1429 C   0  0  0  0  0  0  0  0  0  0  0  0
  -40.7647   56.5606   61.9724 C   0  0  0  0  0  0  0  0  0  0  0  0
  -39.0840   58.3400   60.4830 C   0  0  0  0  0  0  0  0  0  0  0  0
  -38.4940   57.4541   61.5375 C   0  0  0  0  0  0  0  0  0  0  0  0
  -37.0201   57.5023   61.8066 C   0  0  0  0  0  0  0  0  0  0  0  0
  -39.2775   56.6184   62.2351 C   0  0  0  0  0  0  0  0  0  0  0  0
  -44.7006   57.1349   64.9286 C   0  0  0  0  0  0  0  0  0  0  0  0
  -45.2045   56.7346   66.3099 C   0  0  0  0  0  0  0  0  0  0  0  0
  -46.6729   57.0747   66.4454 C   0  0  0  0  0  0  0  0  0  0  0  0
  -47.6669   55.9845   66.7001 C   0  0  0  0  0  0  0  0  0  0  0  0
  -47.0880   58.3465   66.3494 C   0  0  0  0  0  0  0  0  0  0  0  0
  -48.6966   59.8823   67.2900 O   0  0  0  0  0  0  0  0  0  0  0  0
  -48.5498   58.7060   66.4867 C   0  0  0  0  0  0  0  0  0  0  0  0
  -49.6376   60.1032   67.3709 H   0  0  0  0  0  0  0  0  0  0  0  0
  6  7  1  0  0  0
 15 16  1  0  0  0
 15 17  1  0  0  0
  7  8  1  0  0  0
  7  9  2  0  0  0
  9  5  1  0  0  0
  5  4  1  0  0  0
  4  1  1  0  0  0
  1  2  1  0  0  0
  1  3  2  0  0  0
  3 10  1  0  0  0
 10 11  1  0  0  0
 11 12  1  0  0  0
 12 13  1  0  0  0
 12 14  2  0  0  0
 14 16  1  0  0  0
M  END
> <minimizedAffinity>
-6.88761

> <CNNscore>
0.6454352736

> <CNNaffinity>
5.6662874222

> <CNN_VS>
3.6572217941

> <CNNaffinity_variance>
0.2538323104

$$$$
/media/chris/experiments/cd1a-new-docking/inputs/ligands/6nux_ligand.pdb


 17 16  0  0  0  0  0  0  0  0999 V2000
  -37.7797   57.2456   62.6607 C   0  0  0  0  0  0  0  0  0  0  0  0
  -37.9472   57.5835   64.1149 C   0  0  0  0  0  0  0  0  0  0  0  0
  -38.7969   56.6774   61.9980 C   0  0  0  0  0  0  0  0  0  0  0  0
  -36.4816   57.5449   61.9410 C   0  0  0  0  0  0  0  0  0  0  0  0
  -35.2844   57.1622   62.8050 C   0  0  0  0  0  0  0  0  0  0  0  0
  -32.6311   56.5039   61.9468 C   0  0  0  0  0  0  0  0  0  0  0  0
  -32.9724   57.9137   62.3219 C   0  0  0  0  0  0  0  0  0  0  0  0
  -31.9176   58.9764   62.2481 C   0  0  0  0  0  0  0  0  0  0  0  0
  -34.2129   58.2251   62.7260 C   0  0  0  0  0  0  0  0  0  0  0  0
  -40.0972   56.3815   62.7093 C   0  0  0  0  0  0  0  0  0  0  0  0
  -41.2732   56.9069   61.8950 C   0  0  0  0  0  0  0  0  0  0  0  0
  -42.0677   57.9018   62.7131 C   0  0  0  0  0  0  0  0  0  0  0  0
  -43.5498   57.7373   62.8469 C   0  0  0  0  0  0  0  0  0  0  0  0
  -41.4520   58.9229   63.3272 C   0  0  0  0  0  0  0  0  0  0  0  0
  -41.4144   61.0672   64.4370 O   0  0  0  0  0  0  0  0  0  0  0  0
  -42.2281   59.9238   64.1524 C   0  0  0  0  0  0  0  0  0  0  0  0
  -41.9224   61.7018   64.9663 H   0  0  0  0  0  0  0  0  0  0  0  0
  6  7  1  0  0  0
 15 16  1  0  0  0
 15 17  1  0  0  0
  7  8  1  0  0  0
  7  9  2  0  0  0
  9  5  1  0  0  0
  5  4  1  0  0  0
  4  1  1  0  0  0
  1  2  1  0  0  0
  1  3  2  0  0  0
  3 10  1  0  0  0
 10 11  1  0  0  0
 11 12  1  0  0  0
 12 13  1  0  0  0
 12 14  2  0  0  0
 14 16  1  0  0  0
M  END
> <minimizedAffinity>
-6.68099

> <CNNscore>
0.6417129040

> <CNNaffinity>
5.6358141899

> <CNN_VS>
3.6165747643

> <CNNaffinity_variance>
0.0657879561

$$$$
/media/chris/experiments/cd1a-new-docking/inputs/ligands/6nux_ligand.pdb


 17 16  0  0  0  0  0  0  0  0999 V2000
  -37.6896   57.3421   63.7768 C   0  0  0  0  0  0  0  0  0  0  0  0
  -38.2796   56.9657   62.4475 C   0  0  0  0  0  0  0  0  0  0  0  0
  -38.5010   57.7498   64.7627 C   0  0  0  0  0  0  0  0  0  0  0  0
  -36.1961   57.2599   64.0120 C   0  0  0  0  0  0  0  0  0  0  0  0
  -35.4446   57.1759   62.6875 C   0  0  0  0  0  0  0  0  0  0  0  0
  -32.8139   56.4421   61.8209 C   0  0  0  0  0  0  0  0  0  0  0  0
  -33.1034   57.8526   62.2351 C   0  0  0  0  0  0  0  0  0  0  0  0
  -32.0087   58.8762   62.1960 C   0  0  0  0  0  0  0  0  0  0  0  0
  -34.3331   58.1992   62.6433 C   0  0  0  0  0  0  0  0  0  0  0  0
  -39.9932   57.8285   64.5359 C   0  0  0  0  0  0  0  0  0  0  0  0
  -40.6101   58.8759   65.4550 C   0  0  0  0  0  0  0  0  0  0  0  0
  -41.9618   58.4043   65.9457 C   0  0  0  0  0  0  0  0  0  0  0  0
  -42.6947   59.2000   66.9808 C   0  0  0  0  0  0  0  0  0  0  0  0
  -42.5118   57.2851   65.4521 C   0  0  0  0  0  0  0  0  0  0  0  0
  -44.8502   57.0174   64.9119 O   0  0  0  0  0  0  0  0  0  0  0  0
  -43.8630   56.8010   65.9264 C   0  0  0  0  0  0  0  0  0  0  0  0
  -45.7120   56.7032   65.2271 H   0  0  0  0  0  0  0  0  0  0  0  0
  6  7  1  0  0  0
 15 16  1  0  0  0
 15 17  1  0  0  0
  7  8  1  0  0  0
  7  9  2  0  0  0
  9  5  1  0  0  0
  5  4  1  0  0  0
  4  1  1  0  0  0
  1  2  1  0  0  0
  1  3  2  0  0  0
  3 10  1  0  0  0
 10 11  1  0  0  0
 11 12  1  0  0  0
 12 13  1  0  0  0
 12 14  2  0  0  0
 14 16  1  0  0  0
M  END
> <minimizedAffinity>
-6.60643

> <CNNscore>
0.6308345795

> <CNNaffinity>
5.5296721458

> <CNN_VS>
3.4883084297

> <CNNaffinity_variance>
0.0406222194

$$$$
/media/chris/experiments/cd1a-new-docking/inputs/ligands/6nux_ligand.pdb


 17 16  0  0  0  0  0  0  0  0999 V2000
  -38.3904   57.5454   61.3949 C   0  0  0  0  0  0  0  0  0  0  0  0
  -39.4305   58.2263   60.5514 C   0  0  0  0  0  0  0  0  0  0  0  0
  -38.7722   56.6221   62.2884 C   0  0  0  0  0  0  0  0  0  0  0  0
  -36.9235   57.8875   61.2408 C   0  0  0  0  0  0  0  0  0  0  0  0
  -36.0992   57.2430   62.3505 C   0  0  0  0  0  0  0  0  0  0  0  0
  -34.5198   59.0621   63.9016 C   0  0  0  0  0  0  0  0  0  0  0  0
  -33.8852   58.2597   62.8070 C   0  0  0  0  0  0  0  0  0  0  0  0
  -32.4209   58.4160   62.5267 C   0  0  0  0  0  0  0  0  0  0  0  0
  -34.6220   57.4087   62.0776 C   0  0  0  0  0  0  0  0  0  0  0  0
  -40.2344   56.2721   62.4428 C   0  0  0  0  0  0  0  0  0  0  0  0
  -40.6679   56.4532   63.8924 C   0  0  0  0  0  0  0  0  0  0  0  0
  -40.8329   57.9247   64.2048 C   0  0  0  0  0  0  0  0  0  0  0  0
  -41.8140   58.7437   63.4248 C   0  0  0  0  0  0  0  0  0  0  0  0
  -40.1144   58.4972   65.1820 C   0  0  0  0  0  0  0  0  0  0  0  0
  -39.1599   60.4141   66.2979 O   0  0  0  0  0  0  0  0  0  0  0  0
  -40.2689   59.9643   65.5116 C   0  0  0  0  0  0  0  0  0  0  0  0
  -39.2699   61.3558   66.5030 H   0  0  0  0  0  0  0  0  0  0  0  0
  6  7  1  0  0  0
 15 16  1  0  0  0
 15 17  1  0  0  0
  7  8  1  0  0  0
  7  9  2  0  0  0
  9  5  1  0  0  0
  5  4  1  0  0  0
  4  1  1  0  0  0
  1  2  1  0  0  0
  1  3  2  0  0  0
  3 10  1  0  0  0
 10 11  1  0  0  0
 11 12  1  0  0  0
 12 13  1  0  0  0
 12 14  2  0  0  0
 14 16  1  0  0  0
M  END
> <minimizedAffinity>
-6.85636

> <CNNscore>
0.5925987959

> <CNNaffinity>
5.5645346642

> <CNN_VS>
3.2975366116

> <CNNaffinity_variance>
0.0174599066

$$$$
