/media/chris/experiments/cd1a-new-docking/inputs/ligands/6nux_ligand.pdb


 17 16  0  0  0  0  0  0  0  0999 V2000
  -50.0504   58.6174   61.0493 C   0  0  0  0  0  0  0  0  0  0  0  0
  -49.9489   60.1163   61.0521 C   0  0  0  0  0  0  0  0  0  0  0  0
  -49.5949   57.9272   62.1042 C   0  0  0  0  0  0  0  0  0  0  0  0
  -50.6644   57.8853   59.8747 C   0  0  0  0  0  0  0  0  0  0  0  0
  -49.6874   56.8615   59.3061 C   0  0  0  0  0  0  0  0  0  0  0  0
  -47.2720   55.3812   58.8772 C   0  0  0  0  0  0  0  0  0  0  0  0
  -47.3158   56.8501   58.5856 C   0  0  0  0  0  0  0  0  0  0  0  0
  -46.0887   57.5407   58.0711 C   0  0  0  0  0  0  0  0  0  0  0  0
  -48.4442   57.5467   58.7872 C   0  0  0  0  0  0  0  0  0  0  0  0
  -48.9863   58.6526   63.2823 C   0  0  0  0  0  0  0  0  0  0  0  0
  -49.7650   58.3365   64.5535 C   0  0  0  0  0  0  0  0  0  0  0  0
  -48.8421   58.3816   65.7520 C   0  0  0  0  0  0  0  0  0  0  0  0
  -48.9345   59.5221   66.7176 C   0  0  0  0  0  0  0  0  0  0  0  0
  -47.9500   57.4021   65.9605 C   0  0  0  0  0  0  0  0  0  0  0  0
  -46.0522   56.3804   67.0493 O   0  0  0  0  0  0  0  0  0  0  0  0
  -47.0233   57.4274   67.1546 C   0  0  0  0  0  0  0  0  0  0  0  0
  -45.4638   56.4064   67.8201 H   0  0  0  0  0  0  0  0  0  0  0  0
  6  7  1  0  0  0
 15 16  1  0  0  0
 15 17  1  0  0  0
  7  8  1  0  0  0
  7  9  2  0  0  0
  9  5  1  0  0  0
  5  4  1  0  0  0
  4  1  1  0  0  0
  1  2  1  0  0  0
  1  3  2  0  0  0
  3 10  1  0  0  0
 10 11  1  0  0  0
 11 12  1  0  0  0
 12 13  1  0  0  0
 12 14  2  0  0  0
 14 16  1  0  0  0
M  END
> <minimizedAffinity>
-7.39243

> <CNNscore>
0.7996492386

> <CNNaffinity>
6.0562953949

> <CNN_VS>
4.8429121971

> <CNNaffinity_variance>
0.1734608710

$$$$
/media/chris/experiments/cd1a-new-docking/inputs/ligands/6nux_ligand.pdb


 17 16  0  0  0  0  0  0  0  0999 V2000
  -49.4911   58.6011   62.5901 C   0  0  0  0  0  0  0  0  0  0  0  0
  -49.5329   60.0522   62.2033 C   0  0  0  0  0  0  0  0  0  0  0  0
  -49.5891   58.2641   63.8838 C   0  0  0  0  0  0  0  0  0  0  0  0
  -49.3458   57.5231   61.5368 C   0  0  0  0  0  0  0  0  0  0  0  0
  -49.3850   58.1272   60.1369 C   0  0  0  0  0  0  0  0  0  0  0  0
  -46.9681   59.5192   59.4811 C   0  0  0  0  0  0  0  0  0  0  0  0
  -47.2089   58.1391   58.9502 C   0  0  0  0  0  0  0  0  0  0  0  0
  -46.1800   57.4924   58.0725 C   0  0  0  0  0  0  0  0  0  0  0  0
  -48.3402   57.4852   59.2535 C   0  0  0  0  0  0  0  0  0  0  0  0
  -49.7401   59.3352   64.9393 C   0  0  0  0  0  0  0  0  0  0  0  0
  -49.5804   58.7302   66.3288 C   0  0  0  0  0  0  0  0  0  0  0  0
  -48.1288   58.3834   66.5800 C   0  0  0  0  0  0  0  0  0  0  0  0
  -47.0839   59.4517   66.4892 C   0  0  0  0  0  0  0  0  0  0  0  0
  -47.7740   57.1286   66.8936 C   0  0  0  0  0  0  0  0  0  0  0  0
  -45.7575   56.1543   65.9905 O   0  0  0  0  0  0  0  0  0  0  0  0
  -46.3300   56.7642   67.1527 C   0  0  0  0  0  0  0  0  0  0  0  0
  -44.8319   55.9250   66.1685 H   0  0  0  0  0  0  0  0  0  0  0  0
  6  7  1  0  0  0
 15 16  1  0  0  0
 15 17  1  0  0  0
  7  8  1  0  0  0
  7  9  2  0  0  0
  9  5  1  0  0  0
  5  4  1  0  0  0
  4  1  1  0  0  0
  1  2  1  0  0  0
  1  3  2  0  0  0
  3 10  1  0  0  0
 10 11  1  0  0  0
 11 12  1  0  0  0
 12 13  1  0  0  0
 12 14  2  0  0  0
 14 16  1  0  0  0
M  END
> <minimizedAffinity>
-7.11143

> <CNNscore>
0.7437512875

> <CNNaffinity>
6.0085897446

> <CNN_VS>
4.4688963890

> <CNNaffinity_variance>
0.2719401717

$$$$
/media/chris/experiments/cd1a-new-docking/inputs/ligands/6nux_ligand.pdb


 17 16  0  0  0  0  0  0  0  0999 V2000
  -38.2614   57.6222   62.0533 C   0  0  0  0  0  0  0  0  0  0  0  0
  -38.4912   57.5152   63.5341 C   0  0  0  0  0  0  0  0  0  0  0  0
  -39.3149   57.7381   61.2328 C   0  0  0  0  0  0  0  0  0  0  0  0
  -36.8582   57.6060   61.4846 C   0  0  0  0  0  0  0  0  0  0  0  0
  -35.8529   57.1568   62.5399 C   0  0  0  0  0  0  0  0  0  0  0  0
  -33.1730   56.4783   61.7873 C   0  0  0  0  0  0  0  0  0  0  0  0
  -33.4825   57.8457   62.3156 C   0  0  0  0  0  0  0  0  0  0  0  0
  -32.3823   58.8550   62.4505 C   0  0  0  0  0  0  0  0  0  0  0  0
  -34.7357   58.1662   62.6709 C   0  0  0  0  0  0  0  0  0  0  0  0
  -40.7177   57.7607   61.7949 C   0  0  0  0  0  0  0  0  0  0  0  0
  -41.3712   56.3936   61.6326 C   0  0  0  0  0  0  0  0  0  0  0  0
  -41.8181   55.8688   62.9799 C   0  0  0  0  0  0  0  0  0  0  0  0
  -41.5107   54.4551   63.3650 C   0  0  0  0  0  0  0  0  0  0  0  0
  -42.4778   56.6644   63.8347 C   0  0  0  0  0  0  0  0  0  0  0  0
  -44.3460   55.9615   65.1936 O   0  0  0  0  0  0  0  0  0  0  0  0
  -42.9278   56.1595   65.1866 C   0  0  0  0  0  0  0  0  0  0  0  0
  -44.6229   55.6379   66.0652 H   0  0  0  0  0  0  0  0  0  0  0  0
  6  7  1  0  0  0
 15 16  1  0  0  0
 15 17  1  0  0  0
  7  8  1  0  0  0
  7  9  2  0  0  0
  9  5  1  0  0  0
  5  4  1  0  0  0
  4  1  1  0  0  0
  1  2  1  0  0  0
  1  3  2  0  0  0
  3 10  1  0  0  0
 10 11  1  0  0  0
 11 12  1  0  0  0
 12 13  1  0  0  0
 12 14  2  0  0  0
 14 16  1  0  0  0
M  END
> <minimizedAffinity>
-6.95669

> <CNNscore>
0.6788203120

> <CNNaffinity>
5.7036519051

> <CNN_VS>
3.8717548847

> <CNNaffinity_variance>
0.0062214579

$$$$
/media/chris/experiments/cd1a-new-docking/inputs/ligands/6nux_ligand.pdb


 17 16  0  0  0  0  0  0  0  0999 V2000
  -38.5649   57.7541   61.2717 C   0  0  0  0  0  0  0  0  0  0  0  0
  -38.3110   58.8837   60.3145 C   0  0  0  0  0  0  0  0  0  0  0  0
  -37.5326   57.2061   61.9281 C   0  0  0  0  0  0  0  0  0  0  0  0
  -39.9689   57.2367   61.5038 C   0  0  0  0  0  0  0  0  0  0  0  0
  -40.0609   56.5048   62.8386 C   0  0  0  0  0  0  0  0  0  0  0  0
  -39.0378   58.0435   65.0283 C   0  0  0  0  0  0  0  0  0  0  0  0
  -40.5156   57.9509   64.7997 C   0  0  0  0  0  0  0  0  0  0  0  0
  -41.4550   58.6652   65.7241 C   0  0  0  0  0  0  0  0  0  0  0  0
  -40.9982   57.2297   63.7768 C   0  0  0  0  0  0  0  0  0  0  0  0
  -36.1296   57.7219   61.7052 C   0  0  0  0  0  0  0  0  0  0  0  0
  -35.1780   57.1168   62.7301 C   0  0  0  0  0  0  0  0  0  0  0  0
  -33.7479   57.4690   62.3819 C   0  0  0  0  0  0  0  0  0  0  0  0
  -32.8385   56.4171   61.8269 C   0  0  0  0  0  0  0  0  0  0  0  0
  -33.2934   58.7186   62.5571 C   0  0  0  0  0  0  0  0  0  0  0  0
  -31.7420   60.5126   62.1034 O   0  0  0  0  0  0  0  0  0  0  0  0
  -31.8698   59.0903   62.2105 C   0  0  0  0  0  0  0  0  0  0  0  0
  -30.8254   60.7389   61.8809 H   0  0  0  0  0  0  0  0  0  0  0  0
  6  7  1  0  0  0
 15 16  1  0  0  0
 15 17  1  0  0  0
  7  8  1  0  0  0
  7  9  2  0  0  0
  9  5  1  0  0  0
  5  4  1  0  0  0
  4  1  1  0  0  0
  1  2  1  0  0  0
  1  3  2  0  0  0
  3 10  1  0  0  0
 10 11  1  0  0  0
 11 12  1  0  0  0
 12 13  1  0  0  0
 12 14  2  0  0  0
 14 16  1  0  0  0
M  END
> <minimizedAffinity>
-7.06147

> <CNNscore>
0.6548964381

> <CNNaffinity>
5.7365751266

> <CNN_VS>
3.7568626404

> <CNNaffinity_variance>
0.0464985631

$$$$
/media/chris/experiments/cd1a-new-docking/inputs/ligands/6nux_ligand.pdb


 17 16  0  0  0  0  0  0  0  0999 V2000
  -37.8920   59.2011   61.8081 C   0  0  0  0  0  0  0  0  0  0  0  0
  -39.0809   59.8383   61.1467 C   0  0  0  0  0  0  0  0  0  0  0  0
  -37.2902   59.8335   62.8252 C   0  0  0  0  0  0  0  0  0  0  0  0
  -37.3751   57.8565   61.3418 C   0  0  0  0  0  0  0  0  0  0  0  0
  -36.4534   57.2397   62.3888 C   0  0  0  0  0  0  0  0  0  0  0  0
  -34.4678   58.1679   64.2340 C   0  0  0  0  0  0  0  0  0  0  0  0
  -34.0811   57.8040   62.8330 C   0  0  0  0  0  0  0  0  0  0  0  0
  -32.6509   57.9308   62.4020 C   0  0  0  0  0  0  0  0  0  0  0  0
  -35.0084   57.3711   61.9659 C   0  0  0  0  0  0  0  0  0  0  0  0
  -37.8051   61.1732   63.2991 C   0  0  0  0  0  0  0  0  0  0  0  0
  -36.6395   62.0911   63.6469 C   0  0  0  0  0  0  0  0  0  0  0  0
  -36.5795   62.3094   65.1433 C   0  0  0  0  0  0  0  0  0  0  0  0
  -37.0389   61.2272   66.0703 C   0  0  0  0  0  0  0  0  0  0  0  0
  -36.1078   63.4607   65.6441 C   0  0  0  0  0  0  0  0  0  0  0  0
  -34.7511   63.3073   67.6358 O   0  0  0  0  0  0  0  0  0  0  0  0
  -36.0357   63.6950   67.1358 C   0  0  0  0  0  0  0  0  0  0  0  0
  -34.7166   63.4619   68.5928 H   0  0  0  0  0  0  0  0  0  0  0  0
  6  7  1  0  0  0
 15 16  1  0  0  0
 15 17  1  0  0  0
  7  8  1  0  0  0
  7  9  2  0  0  0
  9  5  1  0  0  0
  5  4  1  0  0  0
  4  1  1  0  0  0
  1  2  1  0  0  0
  1  3  2  0  0  0
  3 10  1  0  0  0
 10 11  1  0  0  0
 11 12  1  0  0  0
 12 13  1  0  0  0
 12 14  2  0  0  0
 14 16  1  0  0  0
M  END
> <minimizedAffinity>
-6.57989

> <CNNscore>
0.6526286602

> <CNNaffinity>
5.3600897789

> <CNN_VS>
3.4981482029

> <CNNaffinity_variance>
0.0431664363

$$$$
/media/chris/experiments/cd1a-new-docking/inputs/ligands/6nux_ligand.pdb


 17 16  0  0  0  0  0  0  0  0999 V2000
  -41.7251   55.7249   63.9063 C   0  0  0  0  0  0  0  0  0  0  0  0
  -41.5614   54.3145   63.4155 C   0  0  0  0  0  0  0  0  0  0  0  0
  -40.8565   56.6638   63.5054 C   0  0  0  0  0  0  0  0  0  0  0  0
  -42.8593   56.0931   64.8394 C   0  0  0  0  0  0  0  0  0  0  0  0
  -43.2308   57.5640   64.6836 C   0  0  0  0  0  0  0  0  0  0  0  0
  -41.3802   59.5299   65.6426 C   0  0  0  0  0  0  0  0  0  0  0  0
  -42.5548   59.1299   66.4822 C   0  0  0  0  0  0  0  0  0  0  0  0
  -42.7545   59.7617   67.8269 C   0  0  0  0  0  0  0  0  0  0  0  0
  -43.4221   58.2084   66.0373 C   0  0  0  0  0  0  0  0  0  0  0  0
  -39.7257   56.3037   62.5695 C   0  0  0  0  0  0  0  0  0  0  0  0
  -39.6666   57.2927   61.4116 C   0  0  0  0  0  0  0  0  0  0  0  0
  -38.2483   57.7855   61.2219 C   0  0  0  0  0  0  0  0  0  0  0  0
  -37.9611   58.8477   60.2067 C   0  0  0  0  0  0  0  0  0  0  0  0
  -37.2496   57.2849   61.9640 C   0  0  0  0  0  0  0  0  0  0  0  0
  -35.5723   58.8745   62.6646 O   0  0  0  0  0  0  0  0  0  0  0  0
  -35.8276   57.7680   61.7922 C   0  0  0  0  0  0  0  0  0  0  0  0
  -34.6579   59.1757   62.5456 H   0  0  0  0  0  0  0  0  0  0  0  0
  6  7  1  0  0  0
 15 16  1  0  0  0
 15 17  1  0  0  0
  7  8  1  0  0  0
  7  9  2  0  0  0
  9  5  1  0  0  0
  5  4  1  0  0  0
  4  1  1  0  0  0
  1  2  1  0  0  0
  1  3  2  0  0  0
  3 10  1  0  0  0
 10 11  1  0  0  0
 11 12  1  0  0  0
 12 13  1  0  0  0
 12 14  2  0  0  0
 14 16  1  0  0  0
M  END
> <minimizedAffinity>
-6.83121

> <CNNscore>
0.6239771843

> <CNNaffinity>
5.4929604530

> <CNN_VS>
3.4274818897

> <CNNaffinity_variance>
0.0175160207

$$$$
/media/chris/experiments/cd1a-new-docking/inputs/ligands/6nux_ligand.pdb


 17 16  0  0  0  0  0  0  0  0999 V2000
  -37.4368   57.2736   63.6936 C   0  0  0  0  0  0  0  0  0  0  0  0
  -38.3998   57.6816   64.7720 C   0  0  0  0  0  0  0  0  0  0  0  0
  -37.9133   56.8561   62.5124 C   0  0  0  0  0  0  0  0  0  0  0  0
  -35.9420   57.3350   63.9268 C   0  0  0  0  0  0  0  0  0  0  0  0
  -35.1842   57.2070   62.6095 C   0  0  0  0  0  0  0  0  0  0  0  0
  -32.4544   56.5104   62.0877 C   0  0  0  0  0  0  0  0  0  0  0  0
  -32.8450   57.9469   62.2570 C   0  0  0  0  0  0  0  0  0  0  0  0
  -31.7995   59.0164   62.1546 C   0  0  0  0  0  0  0  0  0  0  0  0
  -34.1216   58.2766   62.5034 C   0  0  0  0  0  0  0  0  0  0  0  0
  -39.4043   56.7981   62.2714 C   0  0  0  0  0  0  0  0  0  0  0  0
  -39.7693   57.6129   61.0366 C   0  0  0  0  0  0  0  0  0  0  0  0
  -40.1468   59.0225   61.4379 C   0  0  0  0  0  0  0  0  0  0  0  0
  -39.7118   60.1773   60.5902 C   0  0  0  0  0  0  0  0  0  0  0  0
  -40.8768   59.2429   62.5412 C   0  0  0  0  0  0  0  0  0  0  0  0
  -41.0159   60.8344   64.3520 O   0  0  0  0  0  0  0  0  0  0  0  0
  -41.2676   60.6432   62.9553 C   0  0  0  0  0  0  0  0  0  0  0  0
  -41.2703   61.7353   64.6059 H   0  0  0  0  0  0  0  0  0  0  0  0
  6  7  1  0  0  0
 15 16  1  0  0  0
 15 17  1  0  0  0
  7  8  1  0  0  0
  7  9  2  0  0  0
  9  5  1  0  0  0
  5  4  1  0  0  0
  4  1  1  0  0  0
  1  2  1  0  0  0
  1  3  2  0  0  0
  3 10  1  0  0  0
 10 11  1  0  0  0
 11 12  1  0  0  0
 12 13  1  0  0  0
 12 14  2  0  0  0
 14 16  1  0  0  0
M  END
> <minimizedAffinity>
-6.83692

> <CNNscore>
0.6173077822

> <CNNaffinity>
5.4997172356

> <CNN_VS>
3.3950183392

> <CNNaffinity_variance>
0.0585533902

$$$$
/media/chris/experiments/cd1a-new-docking/inputs/ligands/6nux_ligand.pdb


 17 16  0  0  0  0  0  0  0  0999 V2000
  -38.3292   57.5551   61.4016 C   0  0  0  0  0  0  0  0  0  0  0  0
  -39.3657   58.2458   60.5617 C   0  0  0  0  0  0  0  0  0  0  0  0
  -38.7160   56.6307   62.2919 C   0  0  0  0  0  0  0  0  0  0  0  0
  -36.8603   57.8885   61.2475 C   0  0  0  0  0  0  0  0  0  0  0  0
  -36.0493   57.2988   62.3966 C   0  0  0  0  0  0  0  0  0  0  0  0
  -33.4063   56.4532   61.6832 C   0  0  0  0  0  0  0  0  0  0  0  0
  -33.6163   57.7711   62.3642 C   0  0  0  0  0  0  0  0  0  0  0  0
  -32.4362   58.6427   62.6722 C   0  0  0  0  0  0  0  0  0  0  0  0
  -34.8520   58.1692   62.7015 C   0  0  0  0  0  0  0  0  0  0  0  0
  -40.1802   56.2894   62.4463 C   0  0  0  0  0  0  0  0  0  0  0  0
  -40.6107   56.4648   63.8975 C   0  0  0  0  0  0  0  0  0  0  0  0
  -40.7726   57.9353   64.2166 C   0  0  0  0  0  0  0  0  0  0  0  0
  -41.7746   58.7527   63.4620 C   0  0  0  0  0  0  0  0  0  0  0  0
  -40.0326   58.5081   65.1774 C   0  0  0  0  0  0  0  0  0  0  0  0
  -39.0897   60.4102   66.3280 O   0  0  0  0  0  0  0  0  0  0  0  0
  -40.1837   59.9741   65.5135 C   0  0  0  0  0  0  0  0  0  0  0  0
  -39.1974   61.3512   66.5372 H   0  0  0  0  0  0  0  0  0  0  0  0
  6  7  1  0  0  0
 15 16  1  0  0  0
 15 17  1  0  0  0
  7  8  1  0  0  0
  7  9  2  0  0  0
  9  5  1  0  0  0
  5  4  1  0  0  0
  4  1  1  0  0  0
  1  2  1  0  0  0
  1  3  2  0  0  0
  3 10  1  0  0  0
 10 11  1  0  0  0
 11 12  1  0  0  0
 12 13  1  0  0  0
 12 14  2  0  0  0
 14 16  1  0  0  0
M  END
> <minimizedAffinity>
-6.89494

> <CNNscore>
0.6032376885

> <CNNaffinity>
5.5622510910

> <CNN_VS>
3.3553595543

> <CNNaffinity_variance>
0.0304991994

$$$$
/media/chris/experiments/cd1a-new-docking/inputs/ligands/6nux_ligand.pdb


 17 16  0  0  0  0  0  0  0  0999 V2000
  -42.1951   56.3703   63.0878 C   0  0  0  0  0  0  0  0  0  0  0  0
  -42.2310   55.3038   64.1453 C   0  0  0  0  0  0  0  0  0  0  0  0
  -42.8075   57.5407   63.3157 C   0  0  0  0  0  0  0  0  0  0  0  0
  -41.4728   56.1374   61.7776 C   0  0  0  0  0  0  0  0  0  0  0  0
  -40.4855   57.2656   61.4973 C   0  0  0  0  0  0  0  0  0  0  0  0
  -38.1211   58.5450   60.5065 C   0  0  0  0  0  0  0  0  0  0  0  0
  -38.0253   57.5430   61.6162 C   0  0  0  0  0  0  0  0  0  0  0  0
  -36.6860   57.2121   62.2028 C   0  0  0  0  0  0  0  0  0  0  0  0
  -39.1299   56.9406   62.0812 C   0  0  0  0  0  0  0  0  0  0  0  0
  -43.5253   57.7814   64.6238 C   0  0  0  0  0  0  0  0  0  0  0  0
  -45.0293   57.8600   64.3915 C   0  0  0  0  0  0  0  0  0  0  0  0
  -45.7682   57.6182   65.6899 C   0  0  0  0  0  0  0  0  0  0  0  0
  -45.6703   58.6208   66.7975 C   0  0  0  0  0  0  0  0  0  0  0  0
  -46.5182   56.5180   65.8508 C   0  0  0  0  0  0  0  0  0  0  0  0
  -47.9465   55.0028   67.0736 O   0  0  0  0  0  0  0  0  0  0  0  0
  -47.2674   56.2618   67.1385 C   0  0  0  0  0  0  0  0  0  0  0  0
  -48.4232   54.8494   67.9043 H   0  0  0  0  0  0  0  0  0  0  0  0
  6  7  1  0  0  0
 15 16  1  0  0  0
 15 17  1  0  0  0
  7  8  1  0  0  0
  7  9  2  0  0  0
  9  5  1  0  0  0
  5  4  1  0  0  0
  4  1  1  0  0  0
  1  2  1  0  0  0
  1  3  2  0  0  0
  3 10  1  0  0  0
 10 11  1  0  0  0
 11 12  1  0  0  0
 12 13  1  0  0  0
 12 14  2  0  0  0
 14 16  1  0  0  0
M  END
> <minimizedAffinity>
-6.68930

> <CNNscore>
0.5287119150

> <CNNaffinity>
5.6052436829

> <CNN_VS>
2.9635591507

> <CNNaffinity_variance>
0.2240690738

$$$$
