/media/chris/experiments/cd1a-new-docking/inputs/ligands/6nux_ligand.pdb


 17 16  0  0  0  0  0  0  0  0999 V2000
  -38.1682   58.0360   61.9024 C   0  0  0  0  0  0  0  0  0  0  0  0
  -38.1446   59.2527   62.7833 C   0  0  0  0  0  0  0  0  0  0  0  0
  -37.2280   57.0938   62.0600 C   0  0  0  0  0  0  0  0  0  0  0  0
  -39.2418   57.8641   60.8486 C   0  0  0  0  0  0  0  0  0  0  0  0
  -40.6267   57.8420   61.4872 C   0  0  0  0  0  0  0  0  0  0  0  0
  -40.7806   56.8892   64.1849 C   0  0  0  0  0  0  0  0  0  0  0  0
  -41.1251   55.9798   63.0452 C   0  0  0  0  0  0  0  0  0  0  0  0
  -41.5477   54.5688   63.3242 C   0  0  0  0  0  0  0  0  0  0  0  0
  -41.0521   56.4218   61.7808 C   0  0  0  0  0  0  0  0  0  0  0  0
  -36.1572   57.2569   63.1140 C   0  0  0  0  0  0  0  0  0  0  0  0
  -34.7756   57.1885   62.4746 C   0  0  0  0  0  0  0  0  0  0  0  0
  -34.0206   58.4748   62.7316 C   0  0  0  0  0  0  0  0  0  0  0  0
  -32.5878   58.5906   62.3136 C   0  0  0  0  0  0  0  0  0  0  0  0
  -34.6293   59.5141   63.3214 C   0  0  0  0  0  0  0  0  0  0  0  0
  -34.3117   61.8121   62.6506 O   0  0  0  0  0  0  0  0  0  0  0  0
  -33.8930   60.8085   63.5821 C   0  0  0  0  0  0  0  0  0  0  0  0
  -33.8332   62.6371   62.8274 H   0  0  0  0  0  0  0  0  0  0  0  0
  6  7  1  0  0  0
 15 16  1  0  0  0
 15 17  1  0  0  0
  7  8  1  0  0  0
  7  9  2  0  0  0
  9  5  1  0  0  0
  5  4  1  0  0  0
  4  1  1  0  0  0
  1  2  1  0  0  0
  1  3  2  0  0  0
  3 10  1  0  0  0
 10 11  1  0  0  0
 11 12  1  0  0  0
 12 13  1  0  0  0
 12 14  2  0  0  0
 14 16  1  0  0  0
M  END
> <minimizedAffinity>
-6.38256

> <CNNscore>
0.7529954314

> <CNNaffinity>
5.8271875381

> <CNN_VS>
4.3878455162

> <CNNaffinity_variance>
0.0094932215

$$$$
/media/chris/experiments/cd1a-new-docking/inputs/ligands/6nux_ligand.pdb


 17 16  0  0  0  0  0  0  0  0999 V2000
  -41.8944   55.6128   63.7550 C   0  0  0  0  0  0  0  0  0  0  0  0
  -41.5512   54.2005   63.3747 C   0  0  0  0  0  0  0  0  0  0  0  0
  -41.2045   56.6248   63.2104 C   0  0  0  0  0  0  0  0  0  0  0  0
  -43.0098   55.9005   64.7378 C   0  0  0  0  0  0  0  0  0  0  0  0
  -43.1076   57.3959   65.0208 C   0  0  0  0  0  0  0  0  0  0  0  0
  -43.3420   59.3076   67.1421 C   0  0  0  0  0  0  0  0  0  0  0  0
  -44.5647   58.6340   66.5981 C   0  0  0  0  0  0  0  0  0  0  0  0
  -45.9100   58.9638   67.1715 C   0  0  0  0  0  0  0  0  0  0  0  0
  -44.4585   57.7370   65.6064 C   0  0  0  0  0  0  0  0  0  0  0  0
  -40.0940   56.3443   62.2243 C   0  0  0  0  0  0  0  0  0  0  0  0
  -39.9078   57.5337   61.2900 C   0  0  0  0  0  0  0  0  0  0  0  0
  -38.4389   57.8805   61.1779 C   0  0  0  0  0  0  0  0  0  0  0  0
  -37.9909   58.8974   60.1746 C   0  0  0  0  0  0  0  0  0  0  0  0
  -37.5382   57.2911   61.9778 C   0  0  0  0  0  0  0  0  0  0  0  0
  -35.3745   57.1458   63.0403 O   0  0  0  0  0  0  0  0  0  0  0  0
  -36.0675   57.6281   61.8837 C   0  0  0  0  0  0  0  0  0  0  0  0
  -34.4329   57.3675   62.9688 H   0  0  0  0  0  0  0  0  0  0  0  0
  6  7  1  0  0  0
 15 16  1  0  0  0
 15 17  1  0  0  0
  7  8  1  0  0  0
  7  9  2  0  0  0
  9  5  1  0  0  0
  5  4  1  0  0  0
  4  1  1  0  0  0
  1  2  1  0  0  0
  1  3  2  0  0  0
  3 10  1  0  0  0
 10 11  1  0  0  0
 11 12  1  0  0  0
 12 13  1  0  0  0
 12 14  2  0  0  0
 14 16  1  0  0  0
M  END
> <minimizedAffinity>
-6.71172

> <CNNscore>
0.7233253717

> <CNNaffinity>
5.7930188179

> <CNN_VS>
4.1902375221

> <CNNaffinity_variance>
0.2053453475

$$$$
/media/chris/experiments/cd1a-new-docking/inputs/ligands/6nux_ligand.pdb


 17 16  0  0  0  0  0  0  0  0999 V2000
  -38.4648   57.5430   61.3796 C   0  0  0  0  0  0  0  0  0  0  0  0
  -39.5022   58.2317   60.5391 C   0  0  0  0  0  0  0  0  0  0  0  0
  -38.8469   56.5957   62.2474 C   0  0  0  0  0  0  0  0  0  0  0  0
  -36.9999   57.9042   61.2510 C   0  0  0  0  0  0  0  0  0  0  0  0
  -36.1737   57.1975   62.3205 C   0  0  0  0  0  0  0  0  0  0  0  0
  -34.5912   58.4716   64.3408 C   0  0  0  0  0  0  0  0  0  0  0  0
  -33.9610   58.0425   63.0511 C   0  0  0  0  0  0  0  0  0  0  0  0
  -32.4995   58.2860   62.8230 C   0  0  0  0  0  0  0  0  0  0  0  0
  -34.6992   57.4476   62.1022 C   0  0  0  0  0  0  0  0  0  0  0  0
  -40.3069   56.2266   62.3762 C   0  0  0  0  0  0  0  0  0  0  0  0
  -40.7602   56.3726   63.8238 C   0  0  0  0  0  0  0  0  0  0  0  0
  -40.9085   57.8369   64.1760 C   0  0  0  0  0  0  0  0  0  0  0  0
  -41.9056   58.6794   63.4430 C   0  0  0  0  0  0  0  0  0  0  0  0
  -40.1605   58.3818   65.1467 C   0  0  0  0  0  0  0  0  0  0  0  0
  -39.2638   60.6093   64.8899 O   0  0  0  0  0  0  0  0  0  0  0  0
  -40.2977   59.8414   65.5158 C   0  0  0  0  0  0  0  0  0  0  0  0
  -39.3619   61.5430   65.1336 H   0  0  0  0  0  0  0  0  0  0  0  0
  6  7  1  0  0  0
 15 16  1  0  0  0
 15 17  1  0  0  0
  7  8  1  0  0  0
  7  9  2  0  0  0
  9  5  1  0  0  0
  5  4  1  0  0  0
  4  1  1  0  0  0
  1  2  1  0  0  0
  1  3  2  0  0  0
  3 10  1  0  0  0
 10 11  1  0  0  0
 11 12  1  0  0  0
 12 13  1  0  0  0
 12 14  2  0  0  0
 14 16  1  0  0  0
M  END
> <minimizedAffinity>
-6.81448

> <CNNscore>
0.6874665022

> <CNNaffinity>
5.6332654953

> <CNN_VS>
3.8726813793

> <CNNaffinity_variance>
0.0324309357

$$$$
/media/chris/experiments/cd1a-new-docking/inputs/ligands/6nux_ligand.pdb


 17 16  0  0  0  0  0  0  0  0999 V2000
  -43.7401   57.0972   63.9653 C   0  0  0  0  0  0  0  0  0  0  0  0
  -43.3305   56.0536   64.9653 C   0  0  0  0  0  0  0  0  0  0  0  0
  -42.8455   57.5309   63.0662 C   0  0  0  0  0  0  0  0  0  0  0  0
  -45.1477   57.6552   63.9612 C   0  0  0  0  0  0  0  0  0  0  0  0
  -45.6964   57.7467   65.3813 C   0  0  0  0  0  0  0  0  0  0  0  0
  -47.7819   56.0849   66.4292 C   0  0  0  0  0  0  0  0  0  0  0  0
  -48.1082   57.4310   65.8580 C   0  0  0  0  0  0  0  0  0  0  0  0
  -49.5313   57.9017   65.8355 C   0  0  0  0  0  0  0  0  0  0  0  0
  -47.1346   58.2108   65.3646 C   0  0  0  0  0  0  0  0  0  0  0  0
  -41.4406   56.9736   63.0615 C   0  0  0  0  0  0  0  0  0  0  0  0
  -40.9835   56.7126   61.6313 C   0  0  0  0  0  0  0  0  0  0  0  0
  -39.5937   57.2731   61.4203 C   0  0  0  0  0  0  0  0  0  0  0  0
  -38.4497   56.7447   62.2286 C   0  0  0  0  0  0  0  0  0  0  0  0
  -39.3786   58.2317   60.5074 C   0  0  0  0  0  0  0  0  0  0  0  0
  -37.8713   60.0712   60.9273 O   0  0  0  0  0  0  0  0  0  0  0  0
  -37.9966   58.8005   60.2792 C   0  0  0  0  0  0  0  0  0  0  0  0
  -36.9817   60.4259   60.7742 H   0  0  0  0  0  0  0  0  0  0  0  0
  6  7  1  0  0  0
 15 16  1  0  0  0
 15 17  1  0  0  0
  7  8  1  0  0  0
  7  9  2  0  0  0
  9  5  1  0  0  0
  5  4  1  0  0  0
  4  1  1  0  0  0
  1  2  1  0  0  0
  1  3  2  0  0  0
  3 10  1  0  0  0
 10 11  1  0  0  0
 11 12  1  0  0  0
 12 13  1  0  0  0
 12 14  2  0  0  0
 14 16  1  0  0  0
M  END
> <minimizedAffinity>
-6.79948

> <CNNscore>
0.6835403442

> <CNNaffinity>
5.9985160828

> <CNN_VS>
4.1002278328

> <CNNaffinity_variance>
0.6886986494

$$$$
/media/chris/experiments/cd1a-new-docking/inputs/ligands/6nux_ligand.pdb


 17 16  0  0  0  0  0  0  0  0999 V2000
  -42.2588   57.0422   63.9762 C   0  0  0  0  0  0  0  0  0  0  0  0
  -43.1459   57.4954   62.8516 C   0  0  0  0  0  0  0  0  0  0  0  0
  -42.8133   56.5211   65.0797 C   0  0  0  0  0  0  0  0  0  0  0  0
  -40.7532   57.1632   63.8714 C   0  0  0  0  0  0  0  0  0  0  0  0
  -40.2310   56.3832   62.6694 C   0  0  0  0  0  0  0  0  0  0  0  0
  -39.4441   58.1729   60.5749 C   0  0  0  0  0  0  0  0  0  0  0  0
  -38.4073   57.5351   61.4484 C   0  0  0  0  0  0  0  0  0  0  0  0
  -36.9570   57.8365   61.2185 C   0  0  0  0  0  0  0  0  0  0  0  0
  -38.7719   56.6951   62.4285 C   0  0  0  0  0  0  0  0  0  0  0  0
  -44.3153   56.3922   65.1879 C   0  0  0  0  0  0  0  0  0  0  0  0
  -44.7847   56.8528   66.5625 C   0  0  0  0  0  0  0  0  0  0  0  0
  -46.2504   57.2264   66.5121 C   0  0  0  0  0  0  0  0  0  0  0  0
  -47.2493   56.2433   65.9856 C   0  0  0  0  0  0  0  0  0  0  0  0
  -46.6612   58.4273   66.9453 C   0  0  0  0  0  0  0  0  0  0  0  0
  -48.2544   60.2420   66.9386 O   0  0  0  0  0  0  0  0  0  0  0  0
  -48.1215   58.8166   66.9072 C   0  0  0  0  0  0  0  0  0  0  0  0
  -49.1945   60.4796   66.9137 H   0  0  0  0  0  0  0  0  0  0  0  0
  6  7  1  0  0  0
 15 16  1  0  0  0
 15 17  1  0  0  0
  7  8  1  0  0  0
  7  9  2  0  0  0
  9  5  1  0  0  0
  5  4  1  0  0  0
  4  1  1  0  0  0
  1  2  1  0  0  0
  1  3  2  0  0  0
  3 10  1  0  0  0
 10 11  1  0  0  0
 11 12  1  0  0  0
 12 13  1  0  0  0
 12 14  2  0  0  0
 14 16  1  0  0  0
M  END
> <minimizedAffinity>
-6.69482

> <CNNscore>
0.5944946408

> <CNNaffinity>
5.5636978149

> <CNN_VS>
3.3075885773

> <CNNaffinity_variance>
0.1419958323

$$$$
/media/chris/experiments/cd1a-new-docking/inputs/ligands/6nux_ligand.pdb


 17 16  0  0  0  0  0  0  0  0999 V2000
  -38.0726   57.5879   61.8019 C   0  0  0  0  0  0  0  0  0  0  0  0
  -39.1288   57.9674   60.8033 C   0  0  0  0  0  0  0  0  0  0  0  0
  -38.4423   57.1662   63.0193 C   0  0  0  0  0  0  0  0  0  0  0  0
  -36.6036   57.6721   61.4447 C   0  0  0  0  0  0  0  0  0  0  0  0
  -35.7343   57.3233   62.6483 C   0  0  0  0  0  0  0  0  0  0  0  0
  -33.1261   56.5097   61.7856 C   0  0  0  0  0  0  0  0  0  0  0  0
  -33.3403   57.8855   62.3385 C   0  0  0  0  0  0  0  0  0  0  0  0
  -32.1824   58.8323   62.4401 C   0  0  0  0  0  0  0  0  0  0  0  0
  -34.5595   58.2692   62.7453 C   0  0  0  0  0  0  0  0  0  0  0  0
  -39.9072   57.0744   63.3800 C   0  0  0  0  0  0  0  0  0  0  0  0
  -40.1676   57.7813   64.7047 C   0  0  0  0  0  0  0  0  0  0  0  0
  -39.5030   59.1409   64.7068 C   0  0  0  0  0  0  0  0  0  0  0  0
  -40.0778   60.2493   63.8808 C   0  0  0  0  0  0  0  0  0  0  0  0
  -38.4096   59.3620   65.4513 C   0  0  0  0  0  0  0  0  0  0  0  0
  -37.7492   61.2565   66.7953 O   0  0  0  0  0  0  0  0  0  0  0  0
  -37.7347   60.7147   65.4699 C   0  0  0  0  0  0  0  0  0  0  0  0
  -37.3140   62.1234   66.7949 H   0  0  0  0  0  0  0  0  0  0  0  0
  6  7  1  0  0  0
 15 16  1  0  0  0
 15 17  1  0  0  0
  7  8  1  0  0  0
  7  9  2  0  0  0
  9  5  1  0  0  0
  5  4  1  0  0  0
  4  1  1  0  0  0
  1  2  1  0  0  0
  1  3  2  0  0  0
  3 10  1  0  0  0
 10 11  1  0  0  0
 11 12  1  0  0  0
 12 13  1  0  0  0
 12 14  2  0  0  0
 14 16  1  0  0  0
M  END
> <minimizedAffinity>
-6.74896

> <CNNscore>
0.5661439300

> <CNNaffinity>
5.4446811676

> <CNN_VS>
3.0824732780

> <CNNaffinity_variance>
0.0795942098

$$$$
/media/chris/experiments/cd1a-new-docking/inputs/ligands/6nux_ligand.pdb


 17 16  0  0  0  0  0  0  0  0999 V2000
  -38.4400   57.5396   61.3684 C   0  0  0  0  0  0  0  0  0  0  0  0
  -39.4729   58.2440   60.5355 C   0  0  0  0  0  0  0  0  0  0  0  0
  -38.8307   56.6019   62.2429 C   0  0  0  0  0  0  0  0  0  0  0  0
  -36.9702   57.8742   61.2249 C   0  0  0  0  0  0  0  0  0  0  0  0
  -36.1581   57.2304   62.3438 C   0  0  0  0  0  0  0  0  0  0  0  0
  -34.6313   58.8160   64.1779 C   0  0  0  0  0  0  0  0  0  0  0  0
  -33.9681   58.1979   62.9852 C   0  0  0  0  0  0  0  0  0  0  0  0
  -32.5027   58.4158   62.7558 C   0  0  0  0  0  0  0  0  0  0  0  0
  -34.6801   57.4566   62.1233 C   0  0  0  0  0  0  0  0  0  0  0  0
  -40.2957   56.2593   62.3867 C   0  0  0  0  0  0  0  0  0  0  0  0
  -40.7470   56.4741   63.8263 C   0  0  0  0  0  0  0  0  0  0  0  0
  -40.8807   57.9540   64.1129 C   0  0  0  0  0  0  0  0  0  0  0  0
  -39.9762   58.6007   65.1153 C   0  0  0  0  0  0  0  0  0  0  0  0
  -41.7965   58.6914   63.4677 C   0  0  0  0  0  0  0  0  0  0  0  0
  -43.3198   60.5051   63.9387 O   0  0  0  0  0  0  0  0  0  0  0  0
  -41.9419   60.1719   63.7372 C   0  0  0  0  0  0  0  0  0  0  0  0
  -43.4006   61.4563   64.1106 H   0  0  0  0  0  0  0  0  0  0  0  0
  6  7  1  0  0  0
 15 16  1  0  0  0
 15 17  1  0  0  0
  7  8  1  0  0  0
  7  9  2  0  0  0
  9  5  1  0  0  0
  5  4  1  0  0  0
  4  1  1  0  0  0
  1  2  1  0  0  0
  1  3  2  0  0  0
  3 10  1  0  0  0
 10 11  1  0  0  0
 11 12  1  0  0  0
 12 13  1  0  0  0
 12 14  2  0  0  0
 14 16  1  0  0  0
M  END
> <minimizedAffinity>
-6.63104

> <CNNscore>
0.5367072225

> <CNNaffinity>
5.5476870537

> <CNN_VS>
2.9774837494

> <CNNaffinity_variance>
0.0368364155

$$$$
/media/chris/experiments/cd1a-new-docking/inputs/ligands/6nux_ligand.pdb


 17 16  0  0  0  0  0  0  0  0999 V2000
  -50.0793   58.3803   60.8601 C   0  0  0  0  0  0  0  0  0  0  0  0
  -49.9502   59.8748   60.7782 C   0  0  0  0  0  0  0  0  0  0  0  0
  -49.9004   57.7703   62.0401 C   0  0  0  0  0  0  0  0  0  0  0  0
  -50.4133   57.5636   59.6296 C   0  0  0  0  0  0  0  0  0  0  0  0
  -49.1422   57.0536   58.9586 C   0  0  0  0  0  0  0  0  0  0  0  0
  -46.7132   58.4657   58.3974 C   0  0  0  0  0  0  0  0  0  0  0  0
  -46.8596   57.6998   59.6767 C   0  0  0  0  0  0  0  0  0  0  0  0
  -45.7277   57.6745   60.6593 C   0  0  0  0  0  0  0  0  0  0  0  0
  -47.9946   57.0359   59.9418 C   0  0  0  0  0  0  0  0  0  0  0  0
  -49.5725   58.5805   63.2731 C   0  0  0  0  0  0  0  0  0  0  0  0
  -48.2872   58.0687   63.9120 C   0  0  0  0  0  0  0  0  0  0  0  0
  -48.5741   57.5333   65.2982 C   0  0  0  0  0  0  0  0  0  0  0  0
  -49.7953   57.9919   66.0329 C   0  0  0  0  0  0  0  0  0  0  0  0
  -47.7479   56.6437   65.8679 C   0  0  0  0  0  0  0  0  0  0  0  0
  -47.1062   56.6591   68.1959 O   0  0  0  0  0  0  0  0  0  0  0  0
  -48.0205   56.0942   67.2497 C   0  0  0  0  0  0  0  0  0  0  0  0
  -47.2904   56.2997   69.0778 H   0  0  0  0  0  0  0  0  0  0  0  0
  6  7  1  0  0  0
 15 16  1  0  0  0
 15 17  1  0  0  0
  7  8  1  0  0  0
  7  9  2  0  0  0
  9  5  1  0  0  0
  5  4  1  0  0  0
  4  1  1  0  0  0
  1  2  1  0  0  0
  1  3  2  0  0  0
  3 10  1  0  0  0
 10 11  1  0  0  0
 11 12  1  0  0  0
 12 13  1  0  0  0
 12 14  2  0  0  0
 14 16  1  0  0  0
M  END
> <minimizedAffinity>
-7.49453

> <CNNscore>
0.5156623125

> <CNNaffinity>
5.7852520943

> <CNN_VS>
2.9832365513

> <CNNaffinity_variance>
0.0584869087

$$$$
/media/chris/experiments/cd1a-new-docking/inputs/ligands/6nux_ligand.pdb


 17 16  0  0  0  0  0  0  0  0999 V2000
  -49.7617   58.7426   64.7686 C   0  0  0  0  0  0  0  0  0  0  0  0
  -49.7722   60.2419   64.6738 C   0  0  0  0  0  0  0  0  0  0  0  0
  -49.4166   58.0199   63.6937 C   0  0  0  0  0  0  0  0  0  0  0  0
  -50.1300   58.0461   66.0616 C   0  0  0  0  0  0  0  0  0  0  0  0
  -48.9460   57.2518   66.6033 C   0  0  0  0  0  0  0  0  0  0  0  0
  -46.2791   56.9018   65.6163 C   0  0  0  0  0  0  0  0  0  0  0  0
  -46.5888   58.0171   66.5675 C   0  0  0  0  0  0  0  0  0  0  0  0
  -45.4955   58.9464   67.0016 C   0  0  0  0  0  0  0  0  0  0  0  0
  -47.8358   58.1827   67.0332 C   0  0  0  0  0  0  0  0  0  0  0  0
  -49.0423   58.7095   62.4019 C   0  0  0  0  0  0  0  0  0  0  0  0
  -49.7461   58.0418   61.2267 C   0  0  0  0  0  0  0  0  0  0  0  0
  -48.7589   57.2134   60.4332 C   0  0  0  0  0  0  0  0  0  0  0  0
  -49.1538   55.8545   59.9447 C   0  0  0  0  0  0  0  0  0  0  0  0
  -47.5372   57.6926   60.1562 C   0  0  0  0  0  0  0  0  0  0  0  0
  -46.0927   57.6261   58.2221 O   0  0  0  0  0  0  0  0  0  0  0  0
  -46.5393   56.8819   59.3610 C   0  0  0  0  0  0  0  0  0  0  0  0
  -45.4536   57.0965   57.7203 H   0  0  0  0  0  0  0  0  0  0  0  0
  6  7  1  0  0  0
 15 16  1  0  0  0
 15 17  1  0  0  0
  7  8  1  0  0  0
  7  9  2  0  0  0
  9  5  1  0  0  0
  5  4  1  0  0  0
  4  1  1  0  0  0
  1  2  1  0  0  0
  1  3  2  0  0  0
  3 10  1  0  0  0
 10 11  1  0  0  0
 11 12  1  0  0  0
 12 13  1  0  0  0
 12 14  2  0  0  0
 14 16  1  0  0  0
M  END
> <minimizedAffinity>
-6.55400

> <CNNscore>
0.5142315626

> <CNNaffinity>
5.8283853531

> <CNN_VS>
2.9971396923

> <CNNaffinity_variance>
0.1095982343

$$$$
