/media/chris/experiments/cd1a-new-docking/inputs/ligands/7sh4_ligand.pdb


 56 55  0  0  0  0  0  0  0  0999 V2000
  -38.2874   60.3888   65.4873 C   0  0  0  0  0  0  0  0  0  0  0  0
  -37.9374   58.9397   65.2997 C   0  0  0  0  0  0  0  0  0  0  0  0
  -36.7004   58.9725   64.5569 O   0  0  0  0  0  0  0  0  0  0  0  0
  -36.0401   59.7789   62.5788 O   0  0  0  0  0  0  0  0  0  0  0  0
  -36.7934   59.1103   63.2341 C   0  0  0  0  0  0  0  0  0  0  0  0
  -37.8718   58.2299   62.6712 C   0  0  0  0  0  0  0  0  0  0  0  0
  -39.0164   58.9887   62.0214 C   0  0  0  0  0  0  0  0  0  0  0  0
  -38.8152   59.1926   60.5346 C   0  0  0  0  0  0  0  0  0  0  0  0
  -37.9798   58.1218   59.8702 C   0  0  0  0  0  0  0  0  0  0  0  0
  -37.3287   58.5898   58.5844 C   0  0  0  0  0  0  0  0  0  0  0  0
  -37.1293   57.4800   57.5815 C   0  0  0  0  0  0  0  0  0  0  0  0
  -36.2046   56.3992   58.0760 C   0  0  0  0  0  0  0  0  0  0  0  0
  -34.7439   56.7887   58.0243 C   0  0  0  0  0  0  0  0  0  0  0  0
  -34.0656   56.6976   59.3762 C   0  0  0  0  0  0  0  0  0  0  0  0
  -34.9981   56.3324   60.5122 C   0  0  0  0  0  0  0  0  0  0  0  0
  -34.4336   56.6380   61.8950 C   0  0  0  0  0  0  0  0  0  0  0  0
  -32.9802   57.0713   61.8852 C   0  0  0  0  0  0  0  0  0  0  0  0
  -32.7522   58.4281   62.5195 C   0  0  0  0  0  0  0  0  0  0  0  0
  -31.4343   59.0758   62.1179 C   0  0  0  0  0  0  0  0  0  0  0  0
  -31.4773   60.5934   62.1210 C   0  0  0  0  0  0  0  0  0  0  0  0
  -28.9766   60.8786   62.1606 C   0  0  0  0  0  0  0  0  0  0  0  0
  -30.2737   61.2637   61.4860 C   0  0  0  0  0  0  0  0  0  0  0  0
  -37.2160   61.1374   66.2380 C   0  0  0  0  0  0  0  0  0  0  0  0
  -36.8334   62.2987   65.4677 O   0  0  0  0  0  0  0  0  0  0  0  0
  -36.1406   63.5843   66.1228 P   0  0  0  0  0  0  0  0  0  0  0  0
  -36.4625   64.7568   65.2811 O   0  0  0  0  0  0  0  0  0  0  0  0
  -36.4999   63.6197   67.5609 O   0  0  0  0  0  0  0  0  0  0  0  0
  -37.4522   63.7801   67.6524 H   0  0  0  0  0  0  0  0  0  0  0  0
  -34.5717   63.3192   66.0163 O   0  0  0  0  0  0  0  0  0  0  0  0
  -33.9250   63.3249   64.7272 C   0  0  0  0  0  0  0  0  0  0  0  0
  -33.8786   65.5952   63.9617 O   0  0  0  0  0  0  0  0  0  0  0  0
  -33.1027   64.5849   64.6131 C   0  0  0  0  0  0  0  0  0  0  0  0
  -34.1816   65.2656   63.1012 H   0  0  0  0  0  0  0  0  0  0  0  0
  -31.2144   64.9236   66.0753 O   0  0  0  0  0  0  0  0  0  0  0  0
  -32.6223   65.0816   65.9556 C   0  0  0  0  0  0  0  0  0  0  0  0
  -30.9253   65.2475   66.9427 H   0  0  0  0  0  0  0  0  0  0  0  0
  -39.5822   60.4662   66.1708 O   0  0  0  0  0  0  0  0  0  0  0  0
  -40.8845   60.9753   64.4088 O   0  0  0  0  0  0  0  0  0  0  0  0
  -40.6843   60.3390   65.4071 C   0  0  0  0  0  0  0  0  0  0  0  0
  -41.6191   59.2982   65.9409 C   0  0  0  0  0  0  0  0  0  0  0  0
  -42.9042   59.2284   65.1221 C   0  0  0  0  0  0  0  0  0  0  0  0
  -43.9095   58.2120   65.6382 C   0  0  0  0  0  0  0  0  0  0  0  0
  -45.0967   58.8404   66.3590 C   0  0  0  0  0  0  0  0  0  0  0  0
  -46.2383   59.2340   65.4402 C   0  0  0  0  0  0  0  0  0  0  0  0
  -47.4892   59.7438   66.1614 C   0  0  0  0  0  0  0  0  0  0  0  0
  -48.7974   59.5941   65.3818 C   0  0  0  0  0  0  0  0  0  0  0  0
  -48.7496   60.2966   64.0581 C   0  0  0  0  0  0  0  0  0  0  0  0
  -49.4912   60.0332   62.9998 C   0  0  0  0  0  0  0  0  0  0  0  0
  -50.5420   58.9729   62.8999 C   0  0  0  0  0  0  0  0  0  0  0  0
  -50.0670   57.7547   62.1134 C   0  0  0  0  0  0  0  0  0  0  0  0
  -50.9637   57.3987   60.9406 C   0  0  0  0  0  0  0  0  0  0  0  0
  -50.2271   57.3087   59.6152 C   0  0  0  0  0  0  0  0  0  0  0  0
  -48.8228   57.8891   59.6345 C   0  0  0  0  0  0  0  0  0  0  0  0
  -47.9353   57.3647   58.5160 C   0  0  0  0  0  0  0  0  0  0  0  0
  -46.4977   57.1156   58.9275 C   0  0  0  0  0  0  0  0  0  0  0  0
  -45.5307   58.0518   58.2580 C   0  0  0  0  0  0  0  0  0  0  0  0
 21 22  1  0  0  0
  4  5  2  0  0  0
 25 24  1  0  0  0
 25 26  2  0  0  0
 25 27  1  0  0  0
 25 29  1  0  0  0
 22 20  1  0  0  0
  3  5  1  0  0  0
  3  2  1  0  0  0
 20 19  1  0  0  0
 24 23  1  0  0  0
 19 18  1  0  0  0
 18 17  1  0  0  0
 27 28  1  0  0  0
 17 16  1  0  0  0
 29 30  1  0  0  0
 16 15  1  0  0  0
 34 35  1  0  0  0
 34 36  1  0  0  0
 15 14  1  0  0  0
 31 32  1  0  0  0
 31 33  1  0  0  0
 14 13  1  0  0  0
 37  1  1  0  0  0
 37 39  1  0  0  0
 13 12  1  0  0  0
 38 39  2  0  0  0
 12 11  1  0  0  0
 11 10  1  0  0  0
 10  9  1  0  0  0
  9  8  1  0  0  0
  8  7  1  0  0  0
  7  6  1  0  0  0
  6  5  1  0  0  0
  2  1  1  0  0  0
  1 23  1  0  0  0
 30 32  1  0  0  0
 32 35  1  0  0  0
 39 40  1  0  0  0
 40 41  1  0  0  0
 41 42  1  0  0  0
 42 43  1  0  0  0
 43 44  1  0  0  0
 44 45  1  0  0  0
 45 46  1  0  0  0
 46 47  1  0  0  0
 47 48  2  0  0  0
 48 49  1  0  0  0
 49 50  1  0  0  0
 50 51  1  0  0  0
 51 52  1  0  0  0
 52 53  1  0  0  0
 53 54  1  0  0  0
 54 55  1  0  0  0
 55 56  1  0  0  0
M  CHG 1  26  -1
M  END
> <minimizedAffinity>
-9.13373

> <CNNscore>
0.7942984104

> <CNNaffinity>
7.7113771439

> <CNN_VS>
6.1251344681

> <CNNaffinity_variance>
0.4122900963

$$$$
/media/chris/experiments/cd1a-new-docking/inputs/ligands/7sh4_ligand.pdb


 56 55  0  0  0  0  0  0  0  0999 V2000
  -39.1366   59.3434   63.6610 C   0  0  0  0  0  0  0  0  0  0  0  0
  -38.9981   58.7630   62.2820 C   0  0  0  0  0  0  0  0  0  0  0  0
  -39.2119   59.8897   61.4058 O   0  0  0  0  0  0  0  0  0  0  0  0
  -39.4200   60.3421   59.2261 O   0  0  0  0  0  0  0  0  0  0  0  0
  -38.9099   59.7197   60.1184 C   0  0  0  0  0  0  0  0  0  0  0  0
  -37.7746   58.7513   59.9506 C   0  0  0  0  0  0  0  0  0  0  0  0
  -37.5295   58.3255   58.5129 C   0  0  0  0  0  0  0  0  0  0  0  0
  -36.6266   57.1147   58.4060 C   0  0  0  0  0  0  0  0  0  0  0  0
  -35.2546   57.4130   57.8451 C   0  0  0  0  0  0  0  0  0  0  0  0
  -34.1759   56.5061   58.4021 C   0  0  0  0  0  0  0  0  0  0  0  0
  -34.6140   55.7471   59.6306 C   0  0  0  0  0  0  0  0  0  0  0  0
  -33.9245   56.2115   60.8862 C   0  0  0  0  0  0  0  0  0  0  0  0
  -34.6292   57.3636   61.5672 C   0  0  0  0  0  0  0  0  0  0  0  0
  -33.9037   57.8423   62.8085 C   0  0  0  0  0  0  0  0  0  0  0  0
  -32.4088   58.0030   62.6272 C   0  0  0  0  0  0  0  0  0  0  0  0
  -32.0124   59.2653   61.8698 C   0  0  0  0  0  0  0  0  0  0  0  0
  -30.7009   59.8730   62.3290 C   0  0  0  0  0  0  0  0  0  0  0  0
  -30.1994   60.9783   61.4223 C   0  0  0  0  0  0  0  0  0  0  0  0
  -29.8475   62.2616   62.1617 C   0  0  0  0  0  0  0  0  0  0  0  0
  -31.0343   62.9106   62.8512 C   0  0  0  0  0  0  0  0  0  0  0  0
  -31.8195   63.7412   65.0939 C   0  0  0  0  0  0  0  0  0  0  0  0
  -30.6875   63.7113   64.0921 C   0  0  0  0  0  0  0  0  0  0  0  0
  -37.8059   59.4738   64.3567 C   0  0  0  0  0  0  0  0  0  0  0  0
  -36.8001   59.8142   63.3764 O   0  0  0  0  0  0  0  0  0  0  0  0
  -36.2553   61.3057   63.1746 P   0  0  0  0  0  0  0  0  0  0  0  0
  -34.7857   61.2823   63.3369 O   0  0  0  0  0  0  0  0  0  0  0  0
  -36.8243   61.8380   61.9130 O   0  0  0  0  0  0  0  0  0  0  0  0
  -36.4650   61.3413   61.1613 H   0  0  0  0  0  0  0  0  0  0  0  0
  -36.8695   62.1468   64.3822 O   0  0  0  0  0  0  0  0  0  0  0  0
  -36.3253   63.4416   64.7098 C   0  0  0  0  0  0  0  0  0  0  0  0
  -36.9940   64.1675   66.8934 O   0  0  0  0  0  0  0  0  0  0  0  0
  -35.9800   63.4548   66.1786 C   0  0  0  0  0  0  0  0  0  0  0  0
  -37.0861   65.0586   66.5216 H   0  0  0  0  0  0  0  0  0  0  0  0
  -34.5773   61.5004   66.3549 O   0  0  0  0  0  0  0  0  0  0  0  0
  -35.8231   62.0640   66.7448 C   0  0  0  0  0  0  0  0  0  0  0  0
  -34.4951   60.6087   66.7275 H   0  0  0  0  0  0  0  0  0  0  0  0
  -40.0664   58.5045   64.4236 O   0  0  0  0  0  0  0  0  0  0  0  0
  -41.0910   60.3325   65.2412 O   0  0  0  0  0  0  0  0  0  0  0  0
  -41.0184   59.1388   65.1346 C   0  0  0  0  0  0  0  0  0  0  0  0
  -41.9837   58.1798   65.7594 C   0  0  0  0  0  0  0  0  0  0  0  0
  -43.2436   58.8907   66.2433 C   0  0  0  0  0  0  0  0  0  0  0  0
  -44.2788   59.1199   65.1543 C   0  0  0  0  0  0  0  0  0  0  0  0
  -45.6624   58.5853   65.5061 C   0  0  0  0  0  0  0  0  0  0  0  0
  -46.7689   59.6178   65.3967 C   0  0  0  0  0  0  0  0  0  0  0  0
  -48.0118   59.3105   66.2367 C   0  0  0  0  0  0  0  0  0  0  0  0
  -48.8879   58.1711   65.7115 C   0  0  0  0  0  0  0  0  0  0  0  0
  -50.2492   58.6479   65.3024 C   0  0  0  0  0  0  0  0  0  0  0  0
  -50.7273   58.7050   64.0745 C   0  0  0  0  0  0  0  0  0  0  0  0
  -50.0065   58.3019   62.8269 C   0  0  0  0  0  0  0  0  0  0  0  0
  -50.9619   57.9290   61.6971 C   0  0  0  0  0  0  0  0  0  0  0  0
  -50.2681   57.6799   60.3694 C   0  0  0  0  0  0  0  0  0  0  0  0
  -49.0820   56.7360   60.4688 C   0  0  0  0  0  0  0  0  0  0  0  0
  -47.7322   57.3943   60.2364 C   0  0  0  0  0  0  0  0  0  0  0  0
  -47.4278   57.6498   58.7682 C   0  0  0  0  0  0  0  0  0  0  0  0
  -47.3380   56.3940   57.9239 C   0  0  0  0  0  0  0  0  0  0  0  0
  -47.7621   56.6194   56.4995 C   0  0  0  0  0  0  0  0  0  0  0  0
 21 22  1  0  0  0
  4  5  2  0  0  0
 25 24  1  0  0  0
 25 26  2  0  0  0
 25 27  1  0  0  0
 25 29  1  0  0  0
 22 20  1  0  0  0
  3  5  1  0  0  0
  3  2  1  0  0  0
 20 19  1  0  0  0
 24 23  1  0  0  0
 19 18  1  0  0  0
 18 17  1  0  0  0
 27 28  1  0  0  0
 17 16  1  0  0  0
 29 30  1  0  0  0
 16 15  1  0  0  0
 34 35  1  0  0  0
 34 36  1  0  0  0
 15 14  1  0  0  0
 31 32  1  0  0  0
 31 33  1  0  0  0
 14 13  1  0  0  0
 37  1  1  0  0  0
 37 39  1  0  0  0
 13 12  1  0  0  0
 38 39  2  0  0  0
 12 11  1  0  0  0
 11 10  1  0  0  0
 10  9  1  0  0  0
  9  8  1  0  0  0
  8  7  1  0  0  0
  7  6  1  0  0  0
  6  5  1  0  0  0
  2  1  1  0  0  0
  1 23  1  0  0  0
 30 32  1  0  0  0
 32 35  1  0  0  0
 39 40  1  0  0  0
 40 41  1  0  0  0
 41 42  1  0  0  0
 42 43  1  0  0  0
 43 44  1  0  0  0
 44 45  1  0  0  0
 45 46  1  0  0  0
 46 47  1  0  0  0
 47 48  2  0  0  0
 48 49  1  0  0  0
 49 50  1  0  0  0
 50 51  1  0  0  0
 51 52  1  0  0  0
 52 53  1  0  0  0
 53 54  1  0  0  0
 54 55  1  0  0  0
 55 56  1  0  0  0
M  CHG 1  26  -1
M  END
> <minimizedAffinity>
-8.80592

> <CNNscore>
0.7581427097

> <CNNaffinity>
7.4166450500

> <CNN_VS>
5.6228752136

> <CNNaffinity_variance>
0.4255732596

$$$$
/media/chris/experiments/cd1a-new-docking/inputs/ligands/7sh4_ligand.pdb


 56 55  0  0  0  0  0  0  0  0999 V2000
  -37.6854   59.8462   64.5130 C   0  0  0  0  0  0  0  0  0  0  0  0
  -38.6983   59.1526   65.3794 C   0  0  0  0  0  0  0  0  0  0  0  0
  -39.9601   59.4414   64.7410 O   0  0  0  0  0  0  0  0  0  0  0  0
  -40.6916   60.9793   66.1897 O   0  0  0  0  0  0  0  0  0  0  0  0
  -40.8965   60.0244   65.4898 C   0  0  0  0  0  0  0  0  0  0  0  0
  -42.2460   59.4129   65.2446 C   0  0  0  0  0  0  0  0  0  0  0  0
  -42.7681   58.5773   66.4010 C   0  0  0  0  0  0  0  0  0  0  0  0
  -43.9595   57.7252   66.0175 C   0  0  0  0  0  0  0  0  0  0  0  0
  -44.7367   58.2462   64.8299 C   0  0  0  0  0  0  0  0  0  0  0  0
  -46.2377   58.1596   65.0189 C   0  0  0  0  0  0  0  0  0  0  0  0
  -46.8847   59.5019   65.2570 C   0  0  0  0  0  0  0  0  0  0  0  0
  -47.9314   59.4670   66.3391 C   0  0  0  0  0  0  0  0  0  0  0  0
  -49.3237   59.1864   65.8189 C   0  0  0  0  0  0  0  0  0  0  0  0
  -49.5768   59.8064   64.4595 C   0  0  0  0  0  0  0  0  0  0  0  0
  -51.0160   59.7158   63.9972 C   0  0  0  0  0  0  0  0  0  0  0  0
  -51.1711   59.2517   62.5534 C   0  0  0  0  0  0  0  0  0  0  0  0
  -50.7617   57.8097   62.3224 C   0  0  0  0  0  0  0  0  0  0  0  0
  -50.9546   57.3510   60.8915 C   0  0  0  0  0  0  0  0  0  0  0  0
  -49.6896   56.7944   60.2532 C   0  0  0  0  0  0  0  0  0  0  0  0
  -48.5421   57.7877   60.2123 C   0  0  0  0  0  0  0  0  0  0  0  0
  -46.9829   57.8374   58.2368 C   0  0  0  0  0  0  0  0  0  0  0  0
  -47.2604   57.2520   59.6029 C   0  0  0  0  0  0  0  0  0  0  0  0
  -37.1461   61.0953   65.1616 C   0  0  0  0  0  0  0  0  0  0  0  0
  -37.0880   62.1458   64.1708 O   0  0  0  0  0  0  0  0  0  0  0  0
  -35.7202   62.6177   63.4863 P   0  0  0  0  0  0  0  0  0  0  0  0
  -34.7190   61.5463   63.6775 O   0  0  0  0  0  0  0  0  0  0  0  0
  -36.0261   63.0690   62.1074 O   0  0  0  0  0  0  0  0  0  0  0  0
  -36.3181   62.3115   61.5765 H   0  0  0  0  0  0  0  0  0  0  0  0
  -35.2453   63.8889   64.3238 O   0  0  0  0  0  0  0  0  0  0  0  0
  -34.2177   63.7496   65.3261 C   0  0  0  0  0  0  0  0  0  0  0  0
  -33.7447   62.4761   67.3002 O   0  0  0  0  0  0  0  0  0  0  0  0
  -34.8053   63.0253   66.5123 C   0  0  0  0  0  0  0  0  0  0  0  0
  -33.1935   61.9023   66.7454 H   0  0  0  0  0  0  0  0  0  0  0  0
  -36.9246   64.1570   66.7262 O   0  0  0  0  0  0  0  0  0  0  0  0
  -35.6742   63.9222   67.3609 C   0  0  0  0  0  0  0  0  0  0  0  0
  -37.4678   64.7341   67.2856 H   0  0  0  0  0  0  0  0  0  0  0  0
  -38.3068   60.1341   63.2165 O   0  0  0  0  0  0  0  0  0  0  0  0
  -37.5064   60.4120   61.1327 O   0  0  0  0  0  0  0  0  0  0  0  0
  -37.6376   59.7372   62.1171 C   0  0  0  0  0  0  0  0  0  0  0  0
  -37.0624   58.3640   62.2764 C   0  0  0  0  0  0  0  0  0  0  0  0
  -37.8967   57.3198   61.5413 C   0  0  0  0  0  0  0  0  0  0  0  0
  -37.2345   56.7732   60.2872 C   0  0  0  0  0  0  0  0  0  0  0  0
  -37.4970   57.6142   59.0431 C   0  0  0  0  0  0  0  0  0  0  0  0
  -36.2459   57.9609   58.2576 C   0  0  0  0  0  0  0  0  0  0  0  0
  -35.4352   56.7509   57.7850 C   0  0  0  0  0  0  0  0  0  0  0  0
  -33.9769   56.7226   58.2477 C   0  0  0  0  0  0  0  0  0  0  0  0
  -33.7666   55.7806   59.3951 C   0  0  0  0  0  0  0  0  0  0  0  0
  -33.6622   56.1032   60.6696 C   0  0  0  0  0  0  0  0  0  0  0  0
  -33.7337   57.4848   61.2392 C   0  0  0  0  0  0  0  0  0  0  0  0
  -32.9488   57.6195   62.5407 C   0  0  0  0  0  0  0  0  0  0  0  0
  -32.3927   59.0129   62.7758 C   0  0  0  0  0  0  0  0  0  0  0  0
  -31.5908   59.5549   61.6051 C   0  0  0  0  0  0  0  0  0  0  0  0
  -30.2956   60.2473   61.9958 C   0  0  0  0  0  0  0  0  0  0  0  0
  -30.5093   61.5711   62.7138 C   0  0  0  0  0  0  0  0  0  0  0  0
  -30.7553   62.7474   61.7897 C   0  0  0  0  0  0  0  0  0  0  0  0
  -32.1377   63.3201   61.9328 C   0  0  0  0  0  0  0  0  0  0  0  0
 21 22  1  0  0  0
  4  5  2  0  0  0
 25 24  1  0  0  0
 25 26  2  0  0  0
 25 27  1  0  0  0
 25 29  1  0  0  0
 22 20  1  0  0  0
  3  5  1  0  0  0
  3  2  1  0  0  0
 20 19  1  0  0  0
 24 23  1  0  0  0
 19 18  1  0  0  0
 18 17  1  0  0  0
 27 28  1  0  0  0
 17 16  1  0  0  0
 29 30  1  0  0  0
 16 15  1  0  0  0
 34 35  1  0  0  0
 34 36  1  0  0  0
 15 14  1  0  0  0
 31 32  1  0  0  0
 31 33  1  0  0  0
 14 13  1  0  0  0
 37  1  1  0  0  0
 37 39  1  0  0  0
 13 12  1  0  0  0
 38 39  2  0  0  0
 12 11  1  0  0  0
 11 10  1  0  0  0
 10  9  1  0  0  0
  9  8  1  0  0  0
  8  7  1  0  0  0
  7  6  1  0  0  0
  6  5  1  0  0  0
  2  1  1  0  0  0
  1 23  1  0  0  0
 30 32  1  0  0  0
 32 35  1  0  0  0
 39 40  1  0  0  0
 40 41  1  0  0  0
 41 42  1  0  0  0
 42 43  1  0  0  0
 43 44  1  0  0  0
 44 45  1  0  0  0
 45 46  1  0  0  0
 46 47  1  0  0  0
 47 48  2  0  0  0
 48 49  1  0  0  0
 49 50  1  0  0  0
 50 51  1  0  0  0
 51 52  1  0  0  0
 52 53  1  0  0  0
 53 54  1  0  0  0
 54 55  1  0  0  0
 55 56  1  0  0  0
M  CHG 1  26  -1
M  END
> <minimizedAffinity>
-8.94064

> <CNNscore>
0.7444471717

> <CNNaffinity>
7.4242439270

> <CNN_VS>
5.5269575119

> <CNNaffinity_variance>
0.5739482641

$$$$
/media/chris/experiments/cd1a-new-docking/inputs/ligands/7sh4_ligand.pdb


 56 55  0  0  0  0  0  0  0  0999 V2000
  -38.0421   60.3750   62.3025 C   0  0  0  0  0  0  0  0  0  0  0  0
  -39.5203   60.2721   62.5513 C   0  0  0  0  0  0  0  0  0  0  0  0
  -39.6145   59.8720   63.9349 O   0  0  0  0  0  0  0  0  0  0  0  0
  -39.4146   57.6858   63.5109 O   0  0  0  0  0  0  0  0  0  0  0  0
  -39.8573   58.5833   64.1759 C   0  0  0  0  0  0  0  0  0  0  0  0
  -40.6412   58.4068   65.4444 C   0  0  0  0  0  0  0  0  0  0  0  0
  -42.0011   59.0841   65.4329 C   0  0  0  0  0  0  0  0  0  0  0  0
  -42.8258   58.7641   66.6617 C   0  0  0  0  0  0  0  0  0  0  0  0
  -44.3196   58.8510   66.4449 C   0  0  0  0  0  0  0  0  0  0  0  0
  -44.7140   58.7518   64.9851 C   0  0  0  0  0  0  0  0  0  0  0  0
  -46.0676   58.1180   64.7774 C   0  0  0  0  0  0  0  0  0  0  0  0
  -46.7664   57.7859   66.0694 C   0  0  0  0  0  0  0  0  0  0  0  0
  -48.0747   58.5229   66.2510 C   0  0  0  0  0  0  0  0  0  0  0  0
  -49.2522   57.7825   65.6497 C   0  0  0  0  0  0  0  0  0  0  0  0
  -50.3232   58.6865   65.0762 C   0  0  0  0  0  0  0  0  0  0  0  0
  -50.0245   59.1761   63.6637 C   0  0  0  0  0  0  0  0  0  0  0  0
  -51.1239   58.8773   62.6627 C   0  0  0  0  0  0  0  0  0  0  0  0
  -50.7889   57.7373   61.7228 C   0  0  0  0  0  0  0  0  0  0  0  0
  -49.5543   57.9925   60.8696 C   0  0  0  0  0  0  0  0  0  0  0  0
  -49.5379   57.2028   59.5730 C   0  0  0  0  0  0  0  0  0  0  0  0
  -48.1030   55.6190   58.2431 C   0  0  0  0  0  0  0  0  0  0  0  0
  -48.6769   55.9542   59.6011 C   0  0  0  0  0  0  0  0  0  0  0  0
  -37.3764   61.3484   63.2412 C   0  0  0  0  0  0  0  0  0  0  0  0
  -36.1037   61.7397   62.6796 O   0  0  0  0  0  0  0  0  0  0  0  0
  -35.3852   63.1238   63.0403 P   0  0  0  0  0  0  0  0  0  0  0  0
  -34.4043   63.4219   61.9746 O   0  0  0  0  0  0  0  0  0  0  0  0
  -36.4367   64.1250   63.3410 O   0  0  0  0  0  0  0  0  0  0  0  0
  -36.9433   64.3136   62.5355 H   0  0  0  0  0  0  0  0  0  0  0  0
  -34.5777   62.8423   64.3863 O   0  0  0  0  0  0  0  0  0  0  0  0
  -34.2873   63.9254   65.2934 C   0  0  0  0  0  0  0  0  0  0  0  0
  -34.2032   64.4922   67.6202 O   0  0  0  0  0  0  0  0  0  0  0  0
  -34.5184   63.4401   66.7033 C   0  0  0  0  0  0  0  0  0  0  0  0
  -33.2921   64.7896   67.4702 H   0  0  0  0  0  0  0  0  0  0  0  0
  -36.8659   63.8948   66.3855 O   0  0  0  0  0  0  0  0  0  0  0  0
  -35.9345   62.9645   66.9228 C   0  0  0  0  0  0  0  0  0  0  0  0
  -37.7682   63.5724   66.5361 H   0  0  0  0  0  0  0  0  0  0  0  0
  -37.8350   60.7477   60.8996 O   0  0  0  0  0  0  0  0  0  0  0  0
  -39.4277   60.3977   59.3501 O   0  0  0  0  0  0  0  0  0  0  0  0
  -38.4756   60.0114   59.9714 C   0  0  0  0  0  0  0  0  0  0  0  0
  -37.8482   58.6635   59.7942 C   0  0  0  0  0  0  0  0  0  0  0  0
  -36.9579   58.6197   58.5564 C   0  0  0  0  0  0  0  0  0  0  0  0
  -37.1581   57.3825   57.6966 C   0  0  0  0  0  0  0  0  0  0  0  0
  -36.1646   56.2654   57.9950 C   0  0  0  0  0  0  0  0  0  0  0  0
  -34.8263   56.7534   58.5177 C   0  0  0  0  0  0  0  0  0  0  0  0
  -34.0446   55.7179   59.3310 C   0  0  0  0  0  0  0  0  0  0  0  0
  -33.9041   56.0314   60.8222 C   0  0  0  0  0  0  0  0  0  0  0  0
  -34.7255   57.2177   61.2297 C   0  0  0  0  0  0  0  0  0  0  0  0
  -34.3889   58.1451   62.1050 C   0  0  0  0  0  0  0  0  0  0  0  0
  -33.1089   58.2074   62.8770 C   0  0  0  0  0  0  0  0  0  0  0  0
  -31.9219   58.6063   62.0052 C   0  0  0  0  0  0  0  0  0  0  0  0
  -31.5737   60.0822   62.0877 C   0  0  0  0  0  0  0  0  0  0  0  0
  -30.0852   60.3646   61.9787 C   0  0  0  0  0  0  0  0  0  0  0  0
  -29.7152   61.8358   62.0684 C   0  0  0  0  0  0  0  0  0  0  0  0
  -30.8987   62.7709   61.8725 C   0  0  0  0  0  0  0  0  0  0  0  0
  -30.9929   63.8793   62.9023 C   0  0  0  0  0  0  0  0  0  0  0  0
  -30.7737   63.3888   64.3063 C   0  0  0  0  0  0  0  0  0  0  0  0
 21 22  1  0  0  0
  4  5  2  0  0  0
 25 24  1  0  0  0
 25 26  2  0  0  0
 25 27  1  0  0  0
 25 29  1  0  0  0
 22 20  1  0  0  0
  3  5  1  0  0  0
  3  2  1  0  0  0
 20 19  1  0  0  0
 24 23  1  0  0  0
 19 18  1  0  0  0
 18 17  1  0  0  0
 27 28  1  0  0  0
 17 16  1  0  0  0
 29 30  1  0  0  0
 16 15  1  0  0  0
 34 35  1  0  0  0
 34 36  1  0  0  0
 15 14  1  0  0  0
 31 32  1  0  0  0
 31 33  1  0  0  0
 14 13  1  0  0  0
 37  1  1  0  0  0
 37 39  1  0  0  0
 13 12  1  0  0  0
 38 39  2  0  0  0
 12 11  1  0  0  0
 11 10  1  0  0  0
 10  9  1  0  0  0
  9  8  1  0  0  0
  8  7  1  0  0  0
  7  6  1  0  0  0
  6  5  1  0  0  0
  2  1  1  0  0  0
  1 23  1  0  0  0
 30 32  1  0  0  0
 32 35  1  0  0  0
 39 40  1  0  0  0
 40 41  1  0  0  0
 41 42  1  0  0  0
 42 43  1  0  0  0
 43 44  1  0  0  0
 44 45  1  0  0  0
 45 46  1  0  0  0
 46 47  1  0  0  0
 47 48  2  0  0  0
 48 49  1  0  0  0
 49 50  1  0  0  0
 50 51  1  0  0  0
 51 52  1  0  0  0
 52 53  1  0  0  0
 53 54  1  0  0  0
 54 55  1  0  0  0
 55 56  1  0  0  0
M  CHG 1  26  -1
M  END
> <minimizedAffinity>
-8.95451

> <CNNscore>
0.7238967419

> <CNNaffinity>
7.2690191269

> <CNN_VS>
5.2620191574

> <CNNaffinity_variance>
0.8955326080

$$$$
/media/chris/experiments/cd1a-new-docking/inputs/ligands/7sh4_ligand.pdb


 56 55  0  0  0  0  0  0  0  0999 V2000
  -38.3209   59.0551   63.8372 C   0  0  0  0  0  0  0  0  0  0  0  0
  -38.9249   58.8936   65.2035 C   0  0  0  0  0  0  0  0  0  0  0  0
  -40.2546   58.3974   64.9410 O   0  0  0  0  0  0  0  0  0  0  0  0
  -41.3150   60.2209   65.6823 O   0  0  0  0  0  0  0  0  0  0  0  0
  -41.2643   59.0288   65.5405 C   0  0  0  0  0  0  0  0  0  0  0  0
  -42.3682   58.0741   65.8938 C   0  0  0  0  0  0  0  0  0  0  0  0
  -43.7645   58.6312   65.6742 C   0  0  0  0  0  0  0  0  0  0  0  0
  -44.8478   57.7378   66.2407 C   0  0  0  0  0  0  0  0  0  0  0  0
  -45.9828   57.4568   65.2822 C   0  0  0  0  0  0  0  0  0  0  0  0
  -47.3182   57.9764   65.7752 C   0  0  0  0  0  0  0  0  0  0  0  0
  -47.7046   59.2991   65.1602 C   0  0  0  0  0  0  0  0  0  0  0  0
  -48.3729   59.1514   63.8188 C   0  0  0  0  0  0  0  0  0  0  0  0
  -49.7623   59.7474   63.7713 C   0  0  0  0  0  0  0  0  0  0  0  0
  -50.5404   59.3213   62.5428 C   0  0  0  0  0  0  0  0  0  0  0  0
  -50.4482   57.8413   62.2356 C   0  0  0  0  0  0  0  0  0  0  0  0
  -50.9547   57.4677   60.8470 C   0  0  0  0  0  0  0  0  0  0  0  0
  -49.8770   56.9401   59.9194 C   0  0  0  0  0  0  0  0  0  0  0  0
  -48.6783   57.8594   59.8048 C   0  0  0  0  0  0  0  0  0  0  0  0
  -47.3891   57.1382   59.4372 C   0  0  0  0  0  0  0  0  0  0  0  0
  -46.8825   57.4708   58.0451 C   0  0  0  0  0  0  0  0  0  0  0  0
  -47.4707   55.2253   57.0715 C   0  0  0  0  0  0  0  0  0  0  0  0
  -47.5784   56.7259   56.9217 C   0  0  0  0  0  0  0  0  0  0  0  0
  -37.6620   60.3996   63.6648 C   0  0  0  0  0  0  0  0  0  0  0  0
  -37.7038   61.1033   64.9263 O   0  0  0  0  0  0  0  0  0  0  0  0
  -36.3852   61.5881   65.6933 P   0  0  0  0  0  0  0  0  0  0  0  0
  -36.7369   61.8120   67.1121 O   0  0  0  0  0  0  0  0  0  0  0  0
  -35.2900   60.6417   65.3716 O   0  0  0  0  0  0  0  0  0  0  0  0
  -35.4910   59.7729   65.7533 H   0  0  0  0  0  0  0  0  0  0  0  0
  -36.0172   63.0000   65.0498 O   0  0  0  0  0  0  0  0  0  0  0  0
  -34.6443   63.4402   65.0128 C   0  0  0  0  0  0  0  0  0  0  0  0
  -33.4115   65.2313   64.0056 O   0  0  0  0  0  0  0  0  0  0  0  0
  -34.4441   64.2697   63.7684 C   0  0  0  0  0  0  0  0  0  0  0  0
  -33.6406   65.7672   64.7810 H   0  0  0  0  0  0  0  0  0  0  0  0
  -35.1454   63.4853   61.5979 O   0  0  0  0  0  0  0  0  0  0  0  0
  -34.1035   63.4259   62.5635 C   0  0  0  0  0  0  0  0  0  0  0  0
  -34.9086   62.9380   60.8328 H   0  0  0  0  0  0  0  0  0  0  0  0
  -39.3720   58.8349   62.8389 O   0  0  0  0  0  0  0  0  0  0  0  0
  -40.1871   60.9205   62.6240 O   0  0  0  0  0  0  0  0  0  0  0  0
  -39.7747   59.9069   62.1298 C   0  0  0  0  0  0  0  0  0  0  0  0
  -39.6292   59.6903   60.6554 C   0  0  0  0  0  0  0  0  0  0  0  0
  -38.1738   59.8079   60.2141 C   0  0  0  0  0  0  0  0  0  0  0  0
  -37.5108   58.4734   59.9147 C   0  0  0  0  0  0  0  0  0  0  0  0
  -37.1163   58.3031   58.4521 C   0  0  0  0  0  0  0  0  0  0  0  0
  -36.6146   56.9135   58.1062 C   0  0  0  0  0  0  0  0  0  0  0  0
  -36.6471   55.9173   59.2686 C   0  0  0  0  0  0  0  0  0  0  0  0
  -35.3254   55.1984   59.5478 C   0  0  0  0  0  0  0  0  0  0  0  0
  -34.1688   56.1500   59.6183 C   0  0  0  0  0  0  0  0  0  0  0  0
  -33.8843   56.9712   60.6103 C   0  0  0  0  0  0  0  0  0  0  0  0
  -34.6604   57.1238   61.8802 C   0  0  0  0  0  0  0  0  0  0  0  0
  -34.0492   58.1634   62.8149 C   0  0  0  0  0  0  0  0  0  0  0  0
  -32.5629   58.3833   62.5936 C   0  0  0  0  0  0  0  0  0  0  0  0
  -32.1673   59.8481   62.5213 C   0  0  0  0  0  0  0  0  0  0  0  0
  -30.9130   60.1221   61.7083 C   0  0  0  0  0  0  0  0  0  0  0  0
  -29.8110   60.8029   62.5057 C   0  0  0  0  0  0  0  0  0  0  0  0
  -29.6353   62.2756   62.1923 C   0  0  0  0  0  0  0  0  0  0  0  0
  -30.3603   63.1669   63.1616 C   0  0  0  0  0  0  0  0  0  0  0  0
 21 22  1  0  0  0
  4  5  2  0  0  0
 25 24  1  0  0  0
 25 26  2  0  0  0
 25 27  1  0  0  0
 25 29  1  0  0  0
 22 20  1  0  0  0
  3  5  1  0  0  0
  3  2  1  0  0  0
 20 19  1  0  0  0
 24 23  1  0  0  0
 19 18  1  0  0  0
 18 17  1  0  0  0
 27 28  1  0  0  0
 17 16  1  0  0  0
 29 30  1  0  0  0
 16 15  1  0  0  0
 34 35  1  0  0  0
 34 36  1  0  0  0
 15 14  1  0  0  0
 31 32  1  0  0  0
 31 33  1  0  0  0
 14 13  1  0  0  0
 37  1  1  0  0  0
 37 39  1  0  0  0
 13 12  1  0  0  0
 38 39  2  0  0  0
 12 11  1  0  0  0
 11 10  1  0  0  0
 10  9  1  0  0  0
  9  8  1  0  0  0
  8  7  1  0  0  0
  7  6  1  0  0  0
  6  5  1  0  0  0
  2  1  1  0  0  0
  1 23  1  0  0  0
 30 32  1  0  0  0
 32 35  1  0  0  0
 39 40  1  0  0  0
 40 41  1  0  0  0
 41 42  1  0  0  0
 42 43  1  0  0  0
 43 44  1  0  0  0
 44 45  1  0  0  0
 45 46  1  0  0  0
 46 47  1  0  0  0
 47 48  2  0  0  0
 48 49  1  0  0  0
 49 50  1  0  0  0
 50 51  1  0  0  0
 51 52  1  0  0  0
 52 53  1  0  0  0
 53 54  1  0  0  0
 54 55  1  0  0  0
 55 56  1  0  0  0
M  CHG 1  26  -1
M  END
> <minimizedAffinity>
-8.49790

> <CNNscore>
0.6251271963

> <CNNaffinity>
7.3503236771

> <CNN_VS>
4.5948872566

> <CNNaffinity_variance>
1.1449769735

$$$$
/media/chris/experiments/cd1a-new-docking/inputs/ligands/7sh4_ligand.pdb


 56 55  0  0  0  0  0  0  0  0999 V2000
  -38.2560   58.8269   62.0216 C   0  0  0  0  0  0  0  0  0  0  0  0
  -39.4823   59.6573   62.2754 C   0  0  0  0  0  0  0  0  0  0  0  0
  -40.0772   59.0535   63.4436 O   0  0  0  0  0  0  0  0  0  0  0  0
  -40.7348   61.0644   64.1667 O   0  0  0  0  0  0  0  0  0  0  0  0
  -40.6778   59.8724   64.3074 C   0  0  0  0  0  0  0  0  0  0  0  0
  -41.3703   59.1017   65.3942 C   0  0  0  0  0  0  0  0  0  0  0  0
  -42.8813   59.0423   65.2467 C   0  0  0  0  0  0  0  0  0  0  0  0
  -43.5799   58.6394   66.5282 C   0  0  0  0  0  0  0  0  0  0  0  0
  -45.0889   58.6983   66.4557 C   0  0  0  0  0  0  0  0  0  0  0  0
  -45.6001   59.1762   65.1117 C   0  0  0  0  0  0  0  0  0  0  0  0
  -46.9097   58.5403   64.7141 C   0  0  0  0  0  0  0  0  0  0  0  0
  -48.0948   59.1414   65.4225 C   0  0  0  0  0  0  0  0  0  0  0  0
  -49.0852   58.1106   65.9167 C   0  0  0  0  0  0  0  0  0  0  0  0
  -50.4727   58.3086   65.3406 C   0  0  0  0  0  0  0  0  0  0  0  0
  -50.6210   59.5614   64.5029 C   0  0  0  0  0  0  0  0  0  0  0  0
  -51.3930   59.3473   63.2058 C   0  0  0  0  0  0  0  0  0  0  0  0
  -50.8912   58.1816   62.3754 C   0  0  0  0  0  0  0  0  0  0  0  0
  -49.4988   58.3950   61.8177 C   0  0  0  0  0  0  0  0  0  0  0  0
  -49.4739   58.6376   60.3150 C   0  0  0  0  0  0  0  0  0  0  0  0
  -49.2508   57.3765   59.4996 C   0  0  0  0  0  0  0  0  0  0  0  0
  -47.6287   55.6673   58.6144 C   0  0  0  0  0  0  0  0  0  0  0  0
  -47.8486   56.8042   59.5864 C   0  0  0  0  0  0  0  0  0  0  0  0
  -37.3189   58.8255   63.2021 C   0  0  0  0  0  0  0  0  0  0  0  0
  -36.1551   59.6166   62.8730 O   0  0  0  0  0  0  0  0  0  0  0  0
  -35.4771   60.6335   63.9065 P   0  0  0  0  0  0  0  0  0  0  0  0
  -34.7968   59.8386   64.9515 O   0  0  0  0  0  0  0  0  0  0  0  0
  -34.6845   61.6186   63.1319 O   0  0  0  0  0  0  0  0  0  0  0  0
  -33.9388   61.1691   62.7043 H   0  0  0  0  0  0  0  0  0  0  0  0
  -36.6894   61.4105   64.5917 O   0  0  0  0  0  0  0  0  0  0  0  0
  -36.6501   61.7087   66.0022 C   0  0  0  0  0  0  0  0  0  0  0  0
  -36.9216   63.9177   66.8903 O   0  0  0  0  0  0  0  0  0  0  0  0
  -36.0151   63.0653   66.1842 C   0  0  0  0  0  0  0  0  0  0  0  0
  -37.7649   63.9592   66.4127 H   0  0  0  0  0  0  0  0  0  0  0  0
  -34.3598   64.2506   67.4778 O   0  0  0  0  0  0  0  0  0  0  0  0
  -34.6957   62.9892   66.9143 C   0  0  0  0  0  0  0  0  0  0  0  0
  -33.5107   64.1817   67.9417 H   0  0  0  0  0  0  0  0  0  0  0  0
  -37.6005   59.3301   60.8103 O   0  0  0  0  0  0  0  0  0  0  0  0
  -38.3928   59.0968   58.7180 O   0  0  0  0  0  0  0  0  0  0  0  0
  -37.8166   58.6463   59.6702 C   0  0  0  0  0  0  0  0  0  0  0  0
  -37.2372   57.2668   59.7256 C   0  0  0  0  0  0  0  0  0  0  0  0
  -35.7156   57.3033   59.8267 C   0  0  0  0  0  0  0  0  0  0  0  0
  -35.0957   55.9891   60.2724 C   0  0  0  0  0  0  0  0  0  0  0  0
  -33.9332   56.1617   61.2435 C   0  0  0  0  0  0  0  0  0  0  0  0
  -33.6749   57.6015   61.6468 C   0  0  0  0  0  0  0  0  0  0  0  0
  -32.2842   57.8584   62.2340 C   0  0  0  0  0  0  0  0  0  0  0  0
  -32.0065   59.3070   62.6417 C   0  0  0  0  0  0  0  0  0  0  0  0
  -31.3689   60.0927   61.5353 C   0  0  0  0  0  0  0  0  0  0  0  0
  -30.4536   61.0335   61.6640 C   0  0  0  0  0  0  0  0  0  0  0  0
  -29.8564   61.5143   62.9487 C   0  0  0  0  0  0  0  0  0  0  0  0
  -30.3514   62.9045   63.3367 C   0  0  0  0  0  0  0  0  0  0  0  0
  -30.8756   63.7142   62.1637 C   0  0  0  0  0  0  0  0  0  0  0  0
  -32.2642   64.2870   62.3902 C   0  0  0  0  0  0  0  0  0  0  0  0
  -32.7767   64.1514   63.8144 C   0  0  0  0  0  0  0  0  0  0  0  0
  -33.4216   65.4208   64.3494 C   0  0  0  0  0  0  0  0  0  0  0  0
  -32.4334   66.4842   64.7859 C   0  0  0  0  0  0  0  0  0  0  0  0
  -32.8238   67.8627   64.3309 C   0  0  0  0  0  0  0  0  0  0  0  0
 21 22  1  0  0  0
  4  5  2  0  0  0
 25 24  1  0  0  0
 25 26  2  0  0  0
 25 27  1  0  0  0
 25 29  1  0  0  0
 22 20  1  0  0  0
  3  5  1  0  0  0
  3  2  1  0  0  0
 20 19  1  0  0  0
 24 23  1  0  0  0
 19 18  1  0  0  0
 18 17  1  0  0  0
 27 28  1  0  0  0
 17 16  1  0  0  0
 29 30  1  0  0  0
 16 15  1  0  0  0
 34 35  1  0  0  0
 34 36  1  0  0  0
 15 14  1  0  0  0
 31 32  1  0  0  0
 31 33  1  0  0  0
 14 13  1  0  0  0
 37  1  1  0  0  0
 37 39  1  0  0  0
 13 12  1  0  0  0
 38 39  2  0  0  0
 12 11  1  0  0  0
 11 10  1  0  0  0
 10  9  1  0  0  0
  9  8  1  0  0  0
  8  7  1  0  0  0
  7  6  1  0  0  0
  6  5  1  0  0  0
  2  1  1  0  0  0
  1 23  1  0  0  0
 30 32  1  0  0  0
 32 35  1  0  0  0
 39 40  1  0  0  0
 40 41  1  0  0  0
 41 42  1  0  0  0
 42 43  1  0  0  0
 43 44  1  0  0  0
 44 45  1  0  0  0
 45 46  1  0  0  0
 46 47  1  0  0  0
 47 48  2  0  0  0
 48 49  1  0  0  0
 49 50  1  0  0  0
 50 51  1  0  0  0
 51 52  1  0  0  0
 52 53  1  0  0  0
 53 54  1  0  0  0
 54 55  1  0  0  0
 55 56  1  0  0  0
M  CHG 1  26  -1
M  END
> <minimizedAffinity>
-8.32827

> <CNNscore>
0.6001785398

> <CNNaffinity>
7.0095596313

> <CNN_VS>
4.2069873810

> <CNNaffinity_variance>
0.5749762058

$$$$
/media/chris/experiments/cd1a-new-docking/inputs/ligands/7sh4_ligand.pdb


 56 55  0  0  0  0  0  0  0  0999 V2000
  -37.4924   60.5115   64.4238 C   0  0  0  0  0  0  0  0  0  0  0  0
  -38.1124   60.2935   65.7750 C   0  0  0  0  0  0  0  0  0  0  0  0
  -39.2788   59.4897   65.4985 O   0  0  0  0  0  0  0  0  0  0  0  0
  -40.6331   61.1202   66.2100 O   0  0  0  0  0  0  0  0  0  0  0  0
  -40.4547   59.9731   65.9000 C   0  0  0  0  0  0  0  0  0  0  0  0
  -41.5340   58.9347   65.7915 C   0  0  0  0  0  0  0  0  0  0  0  0
  -42.8724   59.3685   66.3648 C   0  0  0  0  0  0  0  0  0  0  0  0
  -43.7334   58.1990   66.7931 C   0  0  0  0  0  0  0  0  0  0  0  0
  -43.3881   56.8938   66.1125 C   0  0  0  0  0  0  0  0  0  0  0  0
  -44.5348   56.3266   65.3005 C   0  0  0  0  0  0  0  0  0  0  0  0
  -45.7751   57.1852   65.3438 C   0  0  0  0  0  0  0  0  0  0  0  0
  -46.8756   56.5876   66.1801 C   0  0  0  0  0  0  0  0  0  0  0  0
  -48.2085   57.2802   66.0022 C   0  0  0  0  0  0  0  0  0  0  0  0
  -48.4077   57.8147   64.5983 C   0  0  0  0  0  0  0  0  0  0  0  0
  -49.3970   58.9576   64.5068 C   0  0  0  0  0  0  0  0  0  0  0  0
  -50.7413   58.5622   63.9066 C   0  0  0  0  0  0  0  0  0  0  0  0
  -51.0382   59.2206   62.5729 C   0  0  0  0  0  0  0  0  0  0  0  0
  -50.2215   58.6569   61.4282 C   0  0  0  0  0  0  0  0  0  0  0  0
  -50.7954   57.3743   60.8427 C   0  0  0  0  0  0  0  0  0  0  0  0
  -49.7358   56.3915   60.3774 C   0  0  0  0  0  0  0  0  0  0  0  0
  -47.9518   55.8888   58.6742 C   0  0  0  0  0  0  0  0  0  0  0  0
  -48.7206   56.9649   59.4070 C   0  0  0  0  0  0  0  0  0  0  0  0
  -36.3538   61.4976   64.4758 C   0  0  0  0  0  0  0  0  0  0  0  0
  -35.8573   61.5637   65.8314 O   0  0  0  0  0  0  0  0  0  0  0  0
  -35.4648   62.9416   66.5451 P   0  0  0  0  0  0  0  0  0  0  0  0
  -36.7072   63.7118   66.7685 O   0  0  0  0  0  0  0  0  0  0  0  0
  -34.6016   62.6286   67.7095 O   0  0  0  0  0  0  0  0  0  0  0  0
  -35.1177   62.1458   68.3740 H   0  0  0  0  0  0  0  0  0  0  0  0
  -34.5813   63.7328   65.4791 O   0  0  0  0  0  0  0  0  0  0  0  0
  -33.1527   63.5386   65.4397 C   0  0  0  0  0  0  0  0  0  0  0  0
  -31.0802   64.6939   65.7751 O   0  0  0  0  0  0  0  0  0  0  0  0
  -32.4855   64.8842   65.5853 C   0  0  0  0  0  0  0  0  0  0  0  0
  -30.9325   64.1169   66.5407 H   0  0  0  0  0  0  0  0  0  0  0  0
  -34.0561   66.3030   64.4284 O   0  0  0  0  0  0  0  0  0  0  0  0
  -32.7340   65.7809   64.3963 C   0  0  0  0  0  0  0  0  0  0  0  0
  -34.1965   66.8754   63.6580 H   0  0  0  0  0  0  0  0  0  0  0  0
  -38.5435   60.9461   63.4985 O   0  0  0  0  0  0  0  0  0  0  0  0
  -39.7299   60.2674   61.7119 O   0  0  0  0  0  0  0  0  0  0  0  0
  -38.7626   60.1737   62.4171 C   0  0  0  0  0  0  0  0  0  0  0  0
  -37.6490   59.1991   62.1895 C   0  0  0  0  0  0  0  0  0  0  0  0
  -38.1742   57.8571   61.6894 C   0  0  0  0  0  0  0  0  0  0  0  0
  -37.5454   57.3966   60.3846 C   0  0  0  0  0  0  0  0  0  0  0  0
  -37.5739   58.4546   59.2874 C   0  0  0  0  0  0  0  0  0  0  0  0
  -36.7174   58.1159   58.0815 C   0  0  0  0  0  0  0  0  0  0  0  0
  -36.0816   56.7235   58.1230 C   0  0  0  0  0  0  0  0  0  0  0  0
  -34.5538   56.7070   58.2076 C   0  0  0  0  0  0  0  0  0  0  0  0
  -34.0578   55.7947   59.2891 C   0  0  0  0  0  0  0  0  0  0  0  0
  -33.7534   56.1336   60.5268 C   0  0  0  0  0  0  0  0  0  0  0  0
  -33.8417   57.5073   61.1130 C   0  0  0  0  0  0  0  0  0  0  0  0
  -32.6769   57.8170   62.0487 C   0  0  0  0  0  0  0  0  0  0  0  0
  -32.7563   59.1931   62.6861 C   0  0  0  0  0  0  0  0  0  0  0  0
  -31.8501   60.2216   62.0315 C   0  0  0  0  0  0  0  0  0  0  0  0
  -30.3645   59.9580   62.2128 C   0  0  0  0  0  0  0  0  0  0  0  0
  -29.5834   61.1815   62.6675 C   0  0  0  0  0  0  0  0  0  0  0  0
  -30.4501   62.3541   63.0820 C   0  0  0  0  0  0  0  0  0  0  0  0
  -29.9935   63.6551   62.4831 C   0  0  0  0  0  0  0  0  0  0  0  0
 21 22  1  0  0  0
  4  5  2  0  0  0
 25 24  1  0  0  0
 25 26  2  0  0  0
 25 27  1  0  0  0
 25 29  1  0  0  0
 22 20  1  0  0  0
  3  5  1  0  0  0
  3  2  1  0  0  0
 20 19  1  0  0  0
 24 23  1  0  0  0
 19 18  1  0  0  0
 18 17  1  0  0  0
 27 28  1  0  0  0
 17 16  1  0  0  0
 29 30  1  0  0  0
 16 15  1  0  0  0
 34 35  1  0  0  0
 34 36  1  0  0  0
 15 14  1  0  0  0
 31 32  1  0  0  0
 31 33  1  0  0  0
 14 13  1  0  0  0
 37  1  1  0  0  0
 37 39  1  0  0  0
 13 12  1  0  0  0
 38 39  2  0  0  0
 12 11  1  0  0  0
 11 10  1  0  0  0
 10  9  1  0  0  0
  9  8  1  0  0  0
  8  7  1  0  0  0
  7  6  1  0  0  0
  6  5  1  0  0  0
  2  1  1  0  0  0
  1 23  1  0  0  0
 30 32  1  0  0  0
 32 35  1  0  0  0
 39 40  1  0  0  0
 40 41  1  0  0  0
 41 42  1  0  0  0
 42 43  1  0  0  0
 43 44  1  0  0  0
 44 45  1  0  0  0
 45 46  1  0  0  0
 46 47  1  0  0  0
 47 48  2  0  0  0
 48 49  1  0  0  0
 49 50  1  0  0  0
 50 51  1  0  0  0
 51 52  1  0  0  0
 52 53  1  0  0  0
 53 54  1  0  0  0
 54 55  1  0  0  0
 55 56  1  0  0  0
M  CHG 1  26  -1
M  END
> <minimizedAffinity>
-8.90916

> <CNNscore>
0.5978420973

> <CNNaffinity>
7.2579855919

> <CNN_VS>
4.3391294479

> <CNNaffinity_variance>
0.3587026596

$$$$
/media/chris/experiments/cd1a-new-docking/inputs/ligands/7sh4_ligand.pdb


 56 55  0  0  0  0  0  0  0  0999 V2000
  -37.5103   60.5198   65.1754 C   0  0  0  0  0  0  0  0  0  0  0  0
  -38.6085   59.7227   65.8205 C   0  0  0  0  0  0  0  0  0  0  0  0
  -39.6725   60.6801   66.0056 O   0  0  0  0  0  0  0  0  0  0  0  0
  -41.5183   60.9306   64.7689 O   0  0  0  0  0  0  0  0  0  0  0  0
  -40.8874   60.3210   65.5900 C   0  0  0  0  0  0  0  0  0  0  0  0
  -41.2972   59.0044   66.1845 C   0  0  0  0  0  0  0  0  0  0  0  0
  -42.6938   59.0015   66.7828 C   0  0  0  0  0  0  0  0  0  0  0  0
  -43.7039   58.2872   65.9100 C   0  0  0  0  0  0  0  0  0  0  0  0
  -44.7414   59.1968   65.2920 C   0  0  0  0  0  0  0  0  0  0  0  0
  -46.0897   59.1114   65.9783 C   0  0  0  0  0  0  0  0  0  0  0  0
  -47.2168   58.7733   65.0335 C   0  0  0  0  0  0  0  0  0  0  0  0
  -48.1183   57.6870   65.5577 C   0  0  0  0  0  0  0  0  0  0  0  0
  -49.5841   58.0592   65.5332 C   0  0  0  0  0  0  0  0  0  0  0  0
  -49.9023   59.1166   64.4954 C   0  0  0  0  0  0  0  0  0  0  0  0
  -50.8362   58.6462   63.4000 C   0  0  0  0  0  0  0  0  0  0  0  0
  -50.1190   58.0702   62.1843 C   0  0  0  0  0  0  0  0  0  0  0  0
  -51.0450   57.4256   61.1708 C   0  0  0  0  0  0  0  0  0  0  0  0
  -50.4216   57.2708   59.7987 C   0  0  0  0  0  0  0  0  0  0  0  0
  -49.0446   57.9086   59.6786 C   0  0  0  0  0  0  0  0  0  0  0  0
  -48.1211   57.1837   58.7159 C   0  0  0  0  0  0  0  0  0  0  0  0
  -45.7632   57.4445   59.5575 C   0  0  0  0  0  0  0  0  0  0  0  0
  -46.7734   57.8481   58.5075 C   0  0  0  0  0  0  0  0  0  0  0  0
  -36.7198   61.3138   66.1835 C   0  0  0  0  0  0  0  0  0  0  0  0
  -36.0664   62.4090   65.5039 O   0  0  0  0  0  0  0  0  0  0  0  0
  -35.8139   63.8311   66.1938 P   0  0  0  0  0  0  0  0  0  0  0  0
  -36.0911   64.8821   65.1911 O   0  0  0  0  0  0  0  0  0  0  0  0
  -36.5545   63.8588   67.4781 O   0  0  0  0  0  0  0  0  0  0  0  0
  -37.5081   63.8369   67.3020 H   0  0  0  0  0  0  0  0  0  0  0  0
  -34.2548   63.8685   66.5264 O   0  0  0  0  0  0  0  0  0  0  0  0
  -33.2891   63.8943   65.4556 C   0  0  0  0  0  0  0  0  0  0  0  0
  -31.0405   64.6275   65.0699 O   0  0  0  0  0  0  0  0  0  0  0  0
  -32.2430   64.9312   65.7833 C   0  0  0  0  0  0  0  0  0  0  0  0
  -30.7556   63.7258   65.2855 H   0  0  0  0  0  0  0  0  0  0  0  0
  -33.7493   66.3092   64.4987 O   0  0  0  0  0  0  0  0  0  0  0  0
  -32.7013   66.3328   65.4593 C   0  0  0  0  0  0  0  0  0  0  0  0
  -34.0297   67.2171   64.3038 H   0  0  0  0  0  0  0  0  0  0  0  0
  -38.1072   61.3844   64.1527 O   0  0  0  0  0  0  0  0  0  0  0  0
  -37.0018   61.1270   62.2105 O   0  0  0  0  0  0  0  0  0  0  0  0
  -37.9935   60.9834   62.8719 C   0  0  0  0  0  0  0  0  0  0  0  0
  -39.2430   60.3218   62.3788 C   0  0  0  0  0  0  0  0  0  0  0  0
  -38.9759   59.4790   61.1358 C   0  0  0  0  0  0  0  0  0  0  0  0
  -38.4054   58.1025   61.4353 C   0  0  0  0  0  0  0  0  0  0  0  0
  -37.5370   57.5450   60.3132 C   0  0  0  0  0  0  0  0  0  0  0  0
  -37.5135   58.4074   59.0649 C   0  0  0  0  0  0  0  0  0  0  0  0
  -37.2827   57.6360   57.7624 C   0  0  0  0  0  0  0  0  0  0  0  0
  -36.2527   56.5075   57.8472 C   0  0  0  0  0  0  0  0  0  0  0  0
  -34.8454   57.0233   57.8109 C   0  0  0  0  0  0  0  0  0  0  0  0
  -33.8291   56.5897   58.5310 C   0  0  0  0  0  0  0  0  0  0  0  0
  -33.8692   55.4849   59.5390 C   0  0  0  0  0  0  0  0  0  0  0  0
  -33.8407   56.0041   60.9735 C   0  0  0  0  0  0  0  0  0  0  0  0
  -33.8221   57.5194   61.0730 C   0  0  0  0  0  0  0  0  0  0  0  0
  -33.6712   58.0354   62.4937 C   0  0  0  0  0  0  0  0  0  0  0  0
  -32.3584   58.7501   62.7679 C   0  0  0  0  0  0  0  0  0  0  0  0
  -31.8101   59.4941   61.5597 C   0  0  0  0  0  0  0  0  0  0  0  0
  -31.0099   60.7348   61.9037 C   0  0  0  0  0  0  0  0  0  0  0  0
  -29.5766   60.4283   62.2376 C   0  0  0  0  0  0  0  0  0  0  0  0
 21 22  1  0  0  0
  4  5  2  0  0  0
 25 24  1  0  0  0
 25 26  2  0  0  0
 25 27  1  0  0  0
 25 29  1  0  0  0
 22 20  1  0  0  0
  3  5  1  0  0  0
  3  2  1  0  0  0
 20 19  1  0  0  0
 24 23  1  0  0  0
 19 18  1  0  0  0
 18 17  1  0  0  0
 27 28  1  0  0  0
 17 16  1  0  0  0
 29 30  1  0  0  0
 16 15  1  0  0  0
 34 35  1  0  0  0
 34 36  1  0  0  0
 15 14  1  0  0  0
 31 32  1  0  0  0
 31 33  1  0  0  0
 14 13  1  0  0  0
 37  1  1  0  0  0
 37 39  1  0  0  0
 13 12  1  0  0  0
 38 39  2  0  0  0
 12 11  1  0  0  0
 11 10  1  0  0  0
 10  9  1  0  0  0
  9  8  1  0  0  0
  8  7  1  0  0  0
  7  6  1  0  0  0
  6  5  1  0  0  0
  2  1  1  0  0  0
  1 23  1  0  0  0
 30 32  1  0  0  0
 32 35  1  0  0  0
 39 40  1  0  0  0
 40 41  1  0  0  0
 41 42  1  0  0  0
 42 43  1  0  0  0
 43 44  1  0  0  0
 44 45  1  0  0  0
 45 46  1  0  0  0
 46 47  1  0  0  0
 47 48  2  0  0  0
 48 49  1  0  0  0
 49 50  1  0  0  0
 50 51  1  0  0  0
 51 52  1  0  0  0
 52 53  1  0  0  0
 53 54  1  0  0  0
 54 55  1  0  0  0
 55 56  1  0  0  0
M  CHG 1  26  -1
M  END
> <minimizedAffinity>
-9.32431

> <CNNscore>
0.5807561278

> <CNNaffinity>
7.2842407227

> <CNN_VS>
4.2303676605

> <CNNaffinity_variance>
0.6197848320

$$$$
/media/chris/experiments/cd1a-new-docking/inputs/ligands/7sh4_ligand.pdb


 56 55  0  0  0  0  0  0  0  0999 V2000
  -36.7617   61.2578   63.4259 C   0  0  0  0  0  0  0  0  0  0  0  0
  -38.1849   60.7899   63.3103 C   0  0  0  0  0  0  0  0  0  0  0  0
  -38.7822   61.1751   64.5665 O   0  0  0  0  0  0  0  0  0  0  0  0
  -38.1733   60.2638   66.5153 O   0  0  0  0  0  0  0  0  0  0  0  0
  -38.8427   60.2429   65.5177 C   0  0  0  0  0  0  0  0  0  0  0  0
  -39.9334   59.2500   65.2358 C   0  0  0  0  0  0  0  0  0  0  0  0
  -41.2514   59.5640   65.9234 C   0  0  0  0  0  0  0  0  0  0  0  0
  -42.4122   58.7769   65.3529 C   0  0  0  0  0  0  0  0  0  0  0  0
  -42.7079   57.4891   66.0877 C   0  0  0  0  0  0  0  0  0  0  0  0
  -44.1884   57.2655   66.3208 C   0  0  0  0  0  0  0  0  0  0  0  0
  -44.9400   58.5374   66.6284 C   0  0  0  0  0  0  0  0  0  0  0  0
  -46.3562   58.2902   67.0768 C   0  0  0  0  0  0  0  0  0  0  0  0
  -46.8678   56.9127   66.7182 C   0  0  0  0  0  0  0  0  0  0  0  0
  -48.1073   56.9569   65.8476 C   0  0  0  0  0  0  0  0  0  0  0  0
  -48.4510   58.3385   65.3313 C   0  0  0  0  0  0  0  0  0  0  0  0
  -49.9396   58.5492   65.0792 C   0  0  0  0  0  0  0  0  0  0  0  0
  -50.2466   59.6657   64.0998 C   0  0  0  0  0  0  0  0  0  0  0  0
  -51.4023   59.3518   63.1718 C   0  0  0  0  0  0  0  0  0  0  0  0
  -51.1137   58.2158   62.2004 C   0  0  0  0  0  0  0  0  0  0  0  0
  -49.9058   58.4655   61.3152 C   0  0  0  0  0  0  0  0  0  0  0  0
  -49.5373   56.2597   60.1599 C   0  0  0  0  0  0  0  0  0  0  0  0
  -49.9182   57.7138   59.9976 C   0  0  0  0  0  0  0  0  0  0  0  0
  -36.4305   62.3198   62.4089 C   0  0  0  0  0  0  0  0  0  0  0  0
  -35.7093   63.3851   63.0671 O   0  0  0  0  0  0  0  0  0  0  0  0
  -34.1291   63.3373   63.3175 P   0  0  0  0  0  0  0  0  0  0  0  0
  -33.5789   62.1965   62.5542 O   0  0  0  0  0  0  0  0  0  0  0  0
  -33.5810   64.6922   63.0676 O   0  0  0  0  0  0  0  0  0  0  0  0
  -33.6744   64.9103   62.1271 H   0  0  0  0  0  0  0  0  0  0  0  0
  -33.9568   63.0180   64.8703 O   0  0  0  0  0  0  0  0  0  0  0  0
  -33.7702   64.0944   65.8119 C   0  0  0  0  0  0  0  0  0  0  0  0
  -34.3171   64.7598   68.0481 O   0  0  0  0  0  0  0  0  0  0  0  0
  -34.6595   63.8427   67.0047 C   0  0  0  0  0  0  0  0  0  0  0  0
  -33.3741   64.6733   68.2581 H   0  0  0  0  0  0  0  0  0  0  0  0
  -36.6141   62.7504   66.1074 O   0  0  0  0  0  0  0  0  0  0  0  0
  -36.1255   63.9639   66.6646 C   0  0  0  0  0  0  0  0  0  0  0  0
  -37.5557   62.8479   65.8959 H   0  0  0  0  0  0  0  0  0  0  0  0
  -35.8810   60.0924   63.2984 O   0  0  0  0  0  0  0  0  0  0  0  0
  -34.9601   60.1803   65.3488 O   0  0  0  0  0  0  0  0  0  0  0  0
  -35.4228   59.5455   64.4408 C   0  0  0  0  0  0  0  0  0  0  0  0
  -35.5764   58.0561   64.4501 C   0  0  0  0  0  0  0  0  0  0  0  0
  -36.1895   57.5493   63.1486 C   0  0  0  0  0  0  0  0  0  0  0  0
  -37.6515   57.1519   63.2696 C   0  0  0  0  0  0  0  0  0  0  0  0
  -38.4738   57.4662   62.0250 C   0  0  0  0  0  0  0  0  0  0  0  0
  -37.6906   57.3735   60.7286 C   0  0  0  0  0  0  0  0  0  0  0  0
  -37.5137   58.7060   59.9951 C   0  0  0  0  0  0  0  0  0  0  0  0
  -37.2011   58.5911   58.5015 C   0  0  0  0  0  0  0  0  0  0  0  0
  -37.1098   57.1637   58.0518 C   0  0  0  0  0  0  0  0  0  0  0  0
  -36.0058   56.4701   57.8526 C   0  0  0  0  0  0  0  0  0  0  0  0
  -34.6064   56.9660   58.0366 C   0  0  0  0  0  0  0  0  0  0  0  0
  -33.7787   56.0532   58.9366 C   0  0  0  0  0  0  0  0  0  0  0  0
  -34.2792   55.9928   60.3691 C   0  0  0  0  0  0  0  0  0  0  0  0
  -33.2727   56.4980   61.3885 C   0  0  0  0  0  0  0  0  0  0  0  0
  -33.1881   58.0117   61.4930 C   0  0  0  0  0  0  0  0  0  0  0  0
  -31.9495   58.4997   62.2289 C   0  0  0  0  0  0  0  0  0  0  0  0
  -31.3257   59.7481   61.6371 C   0  0  0  0  0  0  0  0  0  0  0  0
  -30.1221   60.2172   62.4057 C   0  0  0  0  0  0  0  0  0  0  0  0
 21 22  1  0  0  0
  4  5  2  0  0  0
 25 24  1  0  0  0
 25 26  2  0  0  0
 25 27  1  0  0  0
 25 29  1  0  0  0
 22 20  1  0  0  0
  3  5  1  0  0  0
  3  2  1  0  0  0
 20 19  1  0  0  0
 24 23  1  0  0  0
 19 18  1  0  0  0
 18 17  1  0  0  0
 27 28  1  0  0  0
 17 16  1  0  0  0
 29 30  1  0  0  0
 16 15  1  0  0  0
 34 35  1  0  0  0
 34 36  1  0  0  0
 15 14  1  0  0  0
 31 32  1  0  0  0
 31 33  1  0  0  0
 14 13  1  0  0  0
 37  1  1  0  0  0
 37 39  1  0  0  0
 13 12  1  0  0  0
 38 39  2  0  0  0
 12 11  1  0  0  0
 11 10  1  0  0  0
 10  9  1  0  0  0
  9  8  1  0  0  0
  8  7  1  0  0  0
  7  6  1  0  0  0
  6  5  1  0  0  0
  2  1  1  0  0  0
  1 23  1  0  0  0
 30 32  1  0  0  0
 32 35  1  0  0  0
 39 40  1  0  0  0
 40 41  1  0  0  0
 41 42  1  0  0  0
 42 43  1  0  0  0
 43 44  1  0  0  0
 44 45  1  0  0  0
 45 46  1  0  0  0
 46 47  1  0  0  0
 47 48  2  0  0  0
 48 49  1  0  0  0
 49 50  1  0  0  0
 50 51  1  0  0  0
 51 52  1  0  0  0
 52 53  1  0  0  0
 53 54  1  0  0  0
 54 55  1  0  0  0
 55 56  1  0  0  0
M  CHG 1  26  -1
M  END
> <minimizedAffinity>
-8.71960

> <CNNscore>
0.5439419746

> <CNNaffinity>
7.2868218422

> <CNN_VS>
3.9636082649

> <CNNaffinity_variance>
0.6861057281

$$$$
