/media/chris/experiments/cd1a-new-docking/inputs/ligands/7sh4_ligand.pdb


 56 55  0  0  0  0  0  0  0  0999 V2000
  -37.2127   60.5008   64.6600 C   0  0  0  0  0  0  0  0  0  0  0  0
  -38.3473   60.6527   65.6333 C   0  0  0  0  0  0  0  0  0  0  0  0
  -39.3616   59.7578   65.1297 O   0  0  0  0  0  0  0  0  0  0  0  0
  -41.0699   61.0738   64.5388 O   0  0  0  0  0  0  0  0  0  0  0  0
  -40.6257   60.1756   65.2018 C   0  0  0  0  0  0  0  0  0  0  0  0
  -41.4347   59.3014   66.1162 C   0  0  0  0  0  0  0  0  0  0  0  0
  -42.9133   59.2433   65.7715 C   0  0  0  0  0  0  0  0  0  0  0  0
  -43.4570   57.8302   65.7578 C   0  0  0  0  0  0  0  0  0  0  0  0
  -44.8938   57.7239   65.2993 C   0  0  0  0  0  0  0  0  0  0  0  0
  -45.6314   59.0466   65.3477 C   0  0  0  0  0  0  0  0  0  0  0  0
  -46.7921   59.0447   66.3122 C   0  0  0  0  0  0  0  0  0  0  0  0
  -47.7993   57.9645   66.0186 C   0  0  0  0  0  0  0  0  0  0  0  0
  -49.1351   58.4996   65.5526 C   0  0  0  0  0  0  0  0  0  0  0  0
  -49.3695   58.2795   64.0718 C   0  0  0  0  0  0  0  0  0  0  0  0
  -50.7021   58.7978   63.5733 C   0  0  0  0  0  0  0  0  0  0  0  0
  -51.1040   58.2514   62.2080 C   0  0  0  0  0  0  0  0  0  0  0  0
  -49.9586   58.1637   61.2179 C   0  0  0  0  0  0  0  0  0  0  0  0
  -50.0470   56.9617   60.2999 C   0  0  0  0  0  0  0  0  0  0  0  0
  -49.2836   57.1336   58.9941 C   0  0  0  0  0  0  0  0  0  0  0  0
  -47.8143   57.4635   59.1881 C   0  0  0  0  0  0  0  0  0  0  0  0
  -47.5573   56.6758   56.8112 C   0  0  0  0  0  0  0  0  0  0  0  0
  -47.0120   57.5661   57.9048 C   0  0  0  0  0  0  0  0  0  0  0  0
  -37.0566   61.7135   63.7787 C   0  0  0  0  0  0  0  0  0  0  0  0
  -35.7386   61.6915   63.1865 O   0  0  0  0  0  0  0  0  0  0  0  0
  -34.9243   63.0233   62.8326 P   0  0  0  0  0  0  0  0  0  0  0  0
  -33.5094   62.6514   62.6176 O   0  0  0  0  0  0  0  0  0  0  0  0
  -35.6473   63.7320   61.7491 O   0  0  0  0  0  0  0  0  0  0  0  0
  -35.6149   63.2012   60.9378 H   0  0  0  0  0  0  0  0  0  0  0  0
  -35.0008   63.9263   64.1446 O   0  0  0  0  0  0  0  0  0  0  0  0
  -34.0643   63.7157   65.2211 C   0  0  0  0  0  0  0  0  0  0  0  0
  -33.7300   62.4230   67.2109 O   0  0  0  0  0  0  0  0  0  0  0  0
  -34.7088   62.8110   66.2423 C   0  0  0  0  0  0  0  0  0  0  0  0
  -32.9782   62.0060   66.7616 H   0  0  0  0  0  0  0  0  0  0  0  0
  -36.3665   62.6476   67.9870 O   0  0  0  0  0  0  0  0  0  0  0  0
  -35.8876   63.4626   66.9248 C   0  0  0  0  0  0  0  0  0  0  0  0
  -37.1222   63.0821   68.4125 H   0  0  0  0  0  0  0  0  0  0  0  0
  -37.4396   59.2848   63.8728 O   0  0  0  0  0  0  0  0  0  0  0  0
  -35.4831   58.4134   64.5605 O   0  0  0  0  0  0  0  0  0  0  0  0
  -36.5488   58.2857   64.0222 C   0  0  0  0  0  0  0  0  0  0  0  0
  -37.0531   56.9954   63.4540 C   0  0  0  0  0  0  0  0  0  0  0  0
  -38.1328   57.2318   62.4029 C   0  0  0  0  0  0  0  0  0  0  0  0
  -37.6226   57.1776   60.9722 C   0  0  0  0  0  0  0  0  0  0  0  0
  -38.1018   58.3396   60.1096 C   0  0  0  0  0  0  0  0  0  0  0  0
  -37.2194   58.6204   58.9075 C   0  0  0  0  0  0  0  0  0  0  0  0
  -37.3169   57.5793   57.7889 C   0  0  0  0  0  0  0  0  0  0  0  0
  -36.2617   56.4720   57.8355 C   0  0  0  0  0  0  0  0  0  0  0  0
  -34.8665   57.0208   57.8302 C   0  0  0  0  0  0  0  0  0  0  0  0
  -33.9294   56.7983   58.7312 C   0  0  0  0  0  0  0  0  0  0  0  0
  -34.0644   55.9451   59.9528 C   0  0  0  0  0  0  0  0  0  0  0  0
  -34.0030   56.7598   61.2417 C   0  0  0  0  0  0  0  0  0  0  0  0
  -32.6414   56.7353   61.9139 C   0  0  0  0  0  0  0  0  0  0  0  0
  -32.4585   57.8208   62.9605 C   0  0  0  0  0  0  0  0  0  0  0  0
  -32.7612   59.2266   62.4691 C   0  0  0  0  0  0  0  0  0  0  0  0
  -31.6506   59.8229   61.6179 C   0  0  0  0  0  0  0  0  0  0  0  0
  -30.2999   59.8734   62.3040 C   0  0  0  0  0  0  0  0  0  0  0  0
  -29.7373   61.2654   62.3787 C   0  0  0  0  0  0  0  0  0  0  0  0
 21 22  1  0  0  0
  4  5  2  0  0  0
 25 24  1  0  0  0
 25 26  2  0  0  0
 25 27  1  0  0  0
 25 29  1  0  0  0
 22 20  1  0  0  0
  3  5  1  0  0  0
  3  2  1  0  0  0
 20 19  1  0  0  0
 24 23  1  0  0  0
 19 18  1  0  0  0
 18 17  1  0  0  0
 27 28  1  0  0  0
 17 16  1  0  0  0
 29 30  1  0  0  0
 16 15  1  0  0  0
 34 35  1  0  0  0
 34 36  1  0  0  0
 15 14  1  0  0  0
 31 32  1  0  0  0
 31 33  1  0  0  0
 14 13  1  0  0  0
 37  1  1  0  0  0
 37 39  1  0  0  0
 13 12  1  0  0  0
 38 39  2  0  0  0
 12 11  1  0  0  0
 11 10  1  0  0  0
 10  9  1  0  0  0
  9  8  1  0  0  0
  8  7  1  0  0  0
  7  6  1  0  0  0
  6  5  1  0  0  0
  2  1  1  0  0  0
  1 23  1  0  0  0
 30 32  1  0  0  0
 32 35  1  0  0  0
 39 40  1  0  0  0
 40 41  1  0  0  0
 41 42  1  0  0  0
 42 43  1  0  0  0
 43 44  1  0  0  0
 44 45  1  0  0  0
 45 46  1  0  0  0
 46 47  1  0  0  0
 47 48  2  0  0  0
 48 49  1  0  0  0
 49 50  1  0  0  0
 50 51  1  0  0  0
 51 52  1  0  0  0
 52 53  1  0  0  0
 53 54  1  0  0  0
 54 55  1  0  0  0
 55 56  1  0  0  0
M  CHG 1  26  -1
M  END
> <minimizedAffinity>
-9.03480

> <CNNscore>
0.7250937223

> <CNNaffinity>
7.5681228638

> <CNN_VS>
5.4875984192

> <CNNaffinity_variance>
0.5479994416

$$$$
/media/chris/experiments/cd1a-new-docking/inputs/ligands/7sh4_ligand.pdb


 56 55  0  0  0  0  0  0  0  0999 V2000
  -38.7549   60.6432   63.9877 C   0  0  0  0  0  0  0  0  0  0  0  0
  -39.1338   60.0420   62.6639 C   0  0  0  0  0  0  0  0  0  0  0  0
  -38.0261   59.1732   62.3452 O   0  0  0  0  0  0  0  0  0  0  0  0
  -38.9820   57.2422   62.9425 O   0  0  0  0  0  0  0  0  0  0  0  0
  -38.3007   57.8784   62.1844 C   0  0  0  0  0  0  0  0  0  0  0  0
  -37.7565   57.3660   60.8821 C   0  0  0  0  0  0  0  0  0  0  0  0
  -37.3329   58.4577   59.9140 C   0  0  0  0  0  0  0  0  0  0  0  0
  -37.3380   57.9968   58.4718 C   0  0  0  0  0  0  0  0  0  0  0  0
  -36.5186   56.7521   58.2166 C   0  0  0  0  0  0  0  0  0  0  0  0
  -35.1351   57.0528   57.6766 C   0  0  0  0  0  0  0  0  0  0  0  0
  -34.0281   56.6395   58.6152 C   0  0  0  0  0  0  0  0  0  0  0  0
  -34.4617   55.6003   59.6150 C   0  0  0  0  0  0  0  0  0  0  0  0
  -34.2496   56.0237   61.0516 C   0  0  0  0  0  0  0  0  0  0  0  0
  -33.9678   57.5063   61.1893 C   0  0  0  0  0  0  0  0  0  0  0  0
  -33.9476   58.0011   62.6203 C   0  0  0  0  0  0  0  0  0  0  0  0
  -32.6202   58.6235   63.0383 C   0  0  0  0  0  0  0  0  0  0  0  0
  -31.8314   59.2220   61.8895 C   0  0  0  0  0  0  0  0  0  0  0  0
  -30.5837   59.9573   62.3344 C   0  0  0  0  0  0  0  0  0  0  0  0
  -30.1505   61.0587   61.3770 C   0  0  0  0  0  0  0  0  0  0  0  0
  -29.7777   62.3561   62.0720 C   0  0  0  0  0  0  0  0  0  0  0  0
  -31.9341   63.6525   62.0013 C   0  0  0  0  0  0  0  0  0  0  0  0
  -30.8964   62.9887   62.8778 C   0  0  0  0  0  0  0  0  0  0  0  0
  -37.2814   60.9494   64.0696 C   0  0  0  0  0  0  0  0  0  0  0  0
  -37.0398   62.2386   63.4628 O   0  0  0  0  0  0  0  0  0  0  0  0
  -35.5739   62.7583   63.0848 P   0  0  0  0  0  0  0  0  0  0  0  0
  -34.6463   61.6094   63.1636 O   0  0  0  0  0  0  0  0  0  0  0  0
  -35.6660   63.5136   61.8121 O   0  0  0  0  0  0  0  0  0  0  0  0
  -35.9050   62.9078   61.0932 H   0  0  0  0  0  0  0  0  0  0  0  0
  -35.1802   63.7873   64.2376 O   0  0  0  0  0  0  0  0  0  0  0  0
  -34.1130   63.4700   65.1544 C   0  0  0  0  0  0  0  0  0  0  0  0
  -33.7882   62.1990   67.1598 O   0  0  0  0  0  0  0  0  0  0  0  0
  -34.7242   63.0244   66.4602 C   0  0  0  0  0  0  0  0  0  0  0  0
  -33.5274   61.4552   66.5945 H   0  0  0  0  0  0  0  0  0  0  0  0
  -36.4390   63.9731   67.8664 O   0  0  0  0  0  0  0  0  0  0  0  0
  -35.1415   64.1886   67.3263 C   0  0  0  0  0  0  0  0  0  0  0  0
  -36.6891   64.7301   68.4189 H   0  0  0  0  0  0  0  0  0  0  0  0
  -39.1769   59.7245   65.0496 O   0  0  0  0  0  0  0  0  0  0  0  0
  -40.7071   60.9951   66.1005 O   0  0  0  0  0  0  0  0  0  0  0  0
  -40.3816   59.9493   65.6084 C   0  0  0  0  0  0  0  0  0  0  0  0
  -41.2708   58.7474   65.5260 C   0  0  0  0  0  0  0  0  0  0  0  0
  -42.7446   59.1401   65.5464 C   0  0  0  0  0  0  0  0  0  0  0  0
  -43.6841   57.9911   65.8740 C   0  0  0  0  0  0  0  0  0  0  0  0
  -45.0520   58.4448   66.3706 C   0  0  0  0  0  0  0  0  0  0  0  0
  -45.7652   59.3977   65.4293 C   0  0  0  0  0  0  0  0  0  0  0  0
  -47.1712   59.8043   65.8797 C   0  0  0  0  0  0  0  0  0  0  0  0
  -48.3157   59.2228   65.0469 C   0  0  0  0  0  0  0  0  0  0  0  0
  -48.6042   60.0483   63.8290 C   0  0  0  0  0  0  0  0  0  0  0  0
  -49.6795   59.9804   63.0684 C   0  0  0  0  0  0  0  0  0  0  0  0
  -50.8431   59.0608   63.2651 C   0  0  0  0  0  0  0  0  0  0  0  0
  -51.0461   58.1175   62.0829 C   0  0  0  0  0  0  0  0  0  0  0  0
  -49.9615   58.2236   61.0252 C   0  0  0  0  0  0  0  0  0  0  0  0
  -50.2145   57.3577   59.8033 C   0  0  0  0  0  0  0  0  0  0  0  0
  -48.9744   56.6802   59.2440 C   0  0  0  0  0  0  0  0  0  0  0  0
  -47.6935   57.4625   59.4910 C   0  0  0  0  0  0  0  0  0  0  0  0
  -46.9486   57.8506   58.2292 C   0  0  0  0  0  0  0  0  0  0  0  0
  -47.2133   56.9118   57.0855 C   0  0  0  0  0  0  0  0  0  0  0  0
 21 22  1  0  0  0
  4  5  2  0  0  0
 25 24  1  0  0  0
 25 26  2  0  0  0
 25 27  1  0  0  0
 25 29  1  0  0  0
 22 20  1  0  0  0
  3  5  1  0  0  0
  3  2  1  0  0  0
 20 19  1  0  0  0
 24 23  1  0  0  0
 19 18  1  0  0  0
 18 17  1  0  0  0
 27 28  1  0  0  0
 17 16  1  0  0  0
 29 30  1  0  0  0
 16 15  1  0  0  0
 34 35  1  0  0  0
 34 36  1  0  0  0
 15 14  1  0  0  0
 31 32  1  0  0  0
 31 33  1  0  0  0
 14 13  1  0  0  0
 37  1  1  0  0  0
 37 39  1  0  0  0
 13 12  1  0  0  0
 38 39  2  0  0  0
 12 11  1  0  0  0
 11 10  1  0  0  0
 10  9  1  0  0  0
  9  8  1  0  0  0
  8  7  1  0  0  0
  7  6  1  0  0  0
  6  5  1  0  0  0
  2  1  1  0  0  0
  1 23  1  0  0  0
 30 32  1  0  0  0
 32 35  1  0  0  0
 39 40  1  0  0  0
 40 41  1  0  0  0
 41 42  1  0  0  0
 42 43  1  0  0  0
 43 44  1  0  0  0
 44 45  1  0  0  0
 45 46  1  0  0  0
 46 47  1  0  0  0
 47 48  2  0  0  0
 48 49  1  0  0  0
 49 50  1  0  0  0
 50 51  1  0  0  0
 51 52  1  0  0  0
 52 53  1  0  0  0
 53 54  1  0  0  0
 54 55  1  0  0  0
 55 56  1  0  0  0
M  CHG 1  26  -1
M  END
> <minimizedAffinity>
-8.92269

> <CNNscore>
0.7179985046

> <CNNaffinity>
7.3445692062

> <CNN_VS>
5.2733898163

> <CNNaffinity_variance>
0.5241423845

$$$$
/media/chris/experiments/cd1a-new-docking/inputs/ligands/7sh4_ligand.pdb


 56 55  0  0  0  0  0  0  0  0999 V2000
  -38.0167   60.1545   62.2914 C   0  0  0  0  0  0  0  0  0  0  0  0
  -39.4286   60.6051   62.5382 C   0  0  0  0  0  0  0  0  0  0  0  0
  -40.0117   59.5259   63.2988 O   0  0  0  0  0  0  0  0  0  0  0  0
  -40.4970   60.9317   64.9683 O   0  0  0  0  0  0  0  0  0  0  0  0
  -40.4391   59.8152   64.5281 C   0  0  0  0  0  0  0  0  0  0  0  0
  -40.9488   58.5884   65.2281 C   0  0  0  0  0  0  0  0  0  0  0  0
  -42.1622   58.8353   66.1085 C   0  0  0  0  0  0  0  0  0  0  0  0
  -43.4293   59.0608   65.3109 C   0  0  0  0  0  0  0  0  0  0  0  0
  -44.4403   57.9424   65.4251 C   0  0  0  0  0  0  0  0  0  0  0  0
  -45.7928   58.3038   64.8456 C   0  0  0  0  0  0  0  0  0  0  0  0
  -46.3939   59.5410   65.4665 C   0  0  0  0  0  0  0  0  0  0  0  0
  -47.7708   59.8527   64.9427 C   0  0  0  0  0  0  0  0  0  0  0  0
  -48.2956   58.8130   63.9774 C   0  0  0  0  0  0  0  0  0  0  0  0
  -49.6371   58.2477   64.3982 C   0  0  0  0  0  0  0  0  0  0  0  0
  -50.8048   58.7493   63.5748 C   0  0  0  0  0  0  0  0  0  0  0  0
  -50.5227   58.8086   62.0779 C   0  0  0  0  0  0  0  0  0  0  0  0
  -50.9862   57.5828   61.3145 C   0  0  0  0  0  0  0  0  0  0  0  0
  -49.8511   56.7982   60.6891 C   0  0  0  0  0  0  0  0  0  0  0  0
  -49.2191   57.4904   59.4895 C   0  0  0  0  0  0  0  0  0  0  0  0
  -47.7518   57.1514   59.2958 C   0  0  0  0  0  0  0  0  0  0  0  0
  -47.0336   56.5344   56.9636 C   0  0  0  0  0  0  0  0  0  0  0  0
  -47.1550   57.6386   57.9891 C   0  0  0  0  0  0  0  0  0  0  0  0
  -37.0521   60.7425   63.2892 C   0  0  0  0  0  0  0  0  0  0  0  0
  -36.9788   62.1704   63.0795 O   0  0  0  0  0  0  0  0  0  0  0  0
  -35.5918   62.9556   62.9327 P   0  0  0  0  0  0  0  0  0  0  0  0
  -34.4996   62.0275   63.2966 O   0  0  0  0  0  0  0  0  0  0  0  0
  -35.5647   63.5987   61.5968 O   0  0  0  0  0  0  0  0  0  0  0  0
  -35.5342   62.9149   60.9094 H   0  0  0  0  0  0  0  0  0  0  0  0
  -35.6416   64.1102   64.0313 O   0  0  0  0  0  0  0  0  0  0  0  0
  -36.0123   63.7982   65.3897 C   0  0  0  0  0  0  0  0  0  0  0  0
  -34.1774   62.5599   66.3072 O   0  0  0  0  0  0  0  0  0  0  0  0
  -34.7723   63.8595   66.2474 C   0  0  0  0  0  0  0  0  0  0  0  0
  -34.8292   61.9207   66.6353 H   0  0  0  0  0  0  0  0  0  0  0  0
  -32.4453   64.4665   66.0603 O   0  0  0  0  0  0  0  0  0  0  0  0
  -33.7707   64.8682   65.7383 C   0  0  0  0  0  0  0  0  0  0  0  0
  -31.8173   65.1256   65.7256 H   0  0  0  0  0  0  0  0  0  0  0  0
  -37.6538   60.5066   60.9150 O   0  0  0  0  0  0  0  0  0  0  0  0
  -39.1253   60.2968   59.2266 O   0  0  0  0  0  0  0  0  0  0  0  0
  -38.2710   59.8285   59.9285 C   0  0  0  0  0  0  0  0  0  0  0  0
  -37.7525   58.4297   59.8003 C   0  0  0  0  0  0  0  0  0  0  0  0
  -37.2195   58.1576   58.3973 C   0  0  0  0  0  0  0  0  0  0  0  0
  -36.4075   56.8777   58.2838 C   0  0  0  0  0  0  0  0  0  0  0  0
  -34.9581   57.1096   57.8729 C   0  0  0  0  0  0  0  0  0  0  0  0
  -33.9501   56.3379   58.7041 C   0  0  0  0  0  0  0  0  0  0  0  0
  -34.5505   55.5823   59.8930 C   0  0  0  0  0  0  0  0  0  0  0  0
  -34.0703   56.0466   61.2698 C   0  0  0  0  0  0  0  0  0  0  0  0
  -34.8235   57.2488   61.7549 C   0  0  0  0  0  0  0  0  0  0  0  0
  -34.3323   58.2607   62.4436 C   0  0  0  0  0  0  0  0  0  0  0  0
  -32.9119   58.4208   62.8853 C   0  0  0  0  0  0  0  0  0  0  0  0
  -32.0201   58.9872   61.7842 C   0  0  0  0  0  0  0  0  0  0  0  0
  -31.4353   60.3495   62.1139 C   0  0  0  0  0  0  0  0  0  0  0  0
  -29.9330   60.4346   61.9064 C   0  0  0  0  0  0  0  0  0  0  0  0
  -29.3453   61.8195   62.1212 C   0  0  0  0  0  0  0  0  0  0  0  0
  -30.2824   62.7683   62.8527 C   0  0  0  0  0  0  0  0  0  0  0  0
  -30.5919   64.0441   62.0949 C   0  0  0  0  0  0  0  0  0  0  0  0
  -32.0666   64.2624   61.9017 C   0  0  0  0  0  0  0  0  0  0  0  0
 21 22  1  0  0  0
  4  5  2  0  0  0
 25 24  1  0  0  0
 25 26  2  0  0  0
 25 27  1  0  0  0
 25 29  1  0  0  0
 22 20  1  0  0  0
  3  5  1  0  0  0
  3  2  1  0  0  0
 20 19  1  0  0  0
 24 23  1  0  0  0
 19 18  1  0  0  0
 18 17  1  0  0  0
 27 28  1  0  0  0
 17 16  1  0  0  0
 29 30  1  0  0  0
 16 15  1  0  0  0
 34 35  1  0  0  0
 34 36  1  0  0  0
 15 14  1  0  0  0
 31 32  1  0  0  0
 31 33  1  0  0  0
 14 13  1  0  0  0
 37  1  1  0  0  0
 37 39  1  0  0  0
 13 12  1  0  0  0
 38 39  2  0  0  0
 12 11  1  0  0  0
 11 10  1  0  0  0
 10  9  1  0  0  0
  9  8  1  0  0  0
  8  7  1  0  0  0
  7  6  1  0  0  0
  6  5  1  0  0  0
  2  1  1  0  0  0
  1 23  1  0  0  0
 30 32  1  0  0  0
 32 35  1  0  0  0
 39 40  1  0  0  0
 40 41  1  0  0  0
 41 42  1  0  0  0
 42 43  1  0  0  0
 43 44  1  0  0  0
 44 45  1  0  0  0
 45 46  1  0  0  0
 46 47  1  0  0  0
 47 48  2  0  0  0
 48 49  1  0  0  0
 49 50  1  0  0  0
 50 51  1  0  0  0
 51 52  1  0  0  0
 52 53  1  0  0  0
 53 54  1  0  0  0
 54 55  1  0  0  0
 55 56  1  0  0  0
M  CHG 1  26  -1
M  END
> <minimizedAffinity>
-9.06273

> <CNNscore>
0.7111557126

> <CNNaffinity>
7.2746977806

> <CNN_VS>
5.1734428406

> <CNNaffinity_variance>
0.6427362561

$$$$
/media/chris/experiments/cd1a-new-docking/inputs/ligands/7sh4_ligand.pdb


 56 55  0  0  0  0  0  0  0  0999 V2000
  -39.6094   59.6001   65.2412 C   0  0  0  0  0  0  0  0  0  0  0  0
  -39.5345   58.2518   64.5823 C   0  0  0  0  0  0  0  0  0  0  0  0
  -38.3833   58.3493   63.7173 O   0  0  0  0  0  0  0  0  0  0  0  0
  -39.4540   59.1074   61.9067 O   0  0  0  0  0  0  0  0  0  0  0  0
  -38.6161   58.4055   62.4057 C   0  0  0  0  0  0  0  0  0  0  0  0
  -37.6197   57.5816   61.6420 C   0  0  0  0  0  0  0  0  0  0  0  0
  -37.6893   57.7633   60.1351 C   0  0  0  0  0  0  0  0  0  0  0  0
  -36.7668   56.8233   59.3880 C   0  0  0  0  0  0  0  0  0  0  0  0
  -35.9196   55.9466   60.2821 C   0  0  0  0  0  0  0  0  0  0  0  0
  -34.4747   55.8623   59.8337 C   0  0  0  0  0  0  0  0  0  0  0  0
  -33.4947   56.2672   60.9075 C   0  0  0  0  0  0  0  0  0  0  0  0
  -34.1423   57.0131   62.0441 C   0  0  0  0  0  0  0  0  0  0  0  0
  -33.2319   58.0359   62.6870 C   0  0  0  0  0  0  0  0  0  0  0  0
  -32.3957   58.7932   61.6753 C   0  0  0  0  0  0  0  0  0  0  0  0
  -31.7097   60.0213   62.2359 C   0  0  0  0  0  0  0  0  0  0  0  0
  -30.2100   60.0664   61.9659 C   0  0  0  0  0  0  0  0  0  0  0  0
  -29.4967   61.2216   62.6418 C   0  0  0  0  0  0  0  0  0  0  0  0
  -29.8438   62.5725   62.0504 C   0  0  0  0  0  0  0  0  0  0  0  0
  -30.0984   63.6492   63.0960 C   0  0  0  0  0  0  0  0  0  0  0  0
  -31.5544   64.0682   63.1948 C   0  0  0  0  0  0  0  0  0  0  0  0
  -33.6882   63.4181   62.0286 C   0  0  0  0  0  0  0  0  0  0  0  0
  -32.3151   64.0341   61.8829 C   0  0  0  0  0  0  0  0  0  0  0  0
  -38.3358   59.9458   65.9694 C   0  0  0  0  0  0  0  0  0  0  0  0
  -37.9549   61.2965   65.6246 O   0  0  0  0  0  0  0  0  0  0  0  0
  -36.8892   61.6315   64.4784 P   0  0  0  0  0  0  0  0  0  0  0  0
  -35.6261   60.9381   64.8107 O   0  0  0  0  0  0  0  0  0  0  0  0
  -37.5244   61.3643   63.1654 O   0  0  0  0  0  0  0  0  0  0  0  0
  -37.6921   60.4131   63.0749 H   0  0  0  0  0  0  0  0  0  0  0  0
  -36.6310   63.2012   64.5872 O   0  0  0  0  0  0  0  0  0  0  0  0
  -36.0793   63.7595   65.7972 C   0  0  0  0  0  0  0  0  0  0  0  0
  -34.7465   65.3639   64.6175 O   0  0  0  0  0  0  0  0  0  0  0  0
  -34.6802   64.2426   65.5034 C   0  0  0  0  0  0  0  0  0  0  0  0
  -35.2332   65.1146   63.8163 H   0  0  0  0  0  0  0  0  0  0  0  0
  -32.8384   65.4779   66.4523 O   0  0  0  0  0  0  0  0  0  0  0  0
  -33.9250   64.6132   66.7574 C   0  0  0  0  0  0  0  0  0  0  0  0
  -32.3663   65.7046   67.2688 H   0  0  0  0  0  0  0  0  0  0  0  0
  -40.7674   59.6106   66.1405 O   0  0  0  0  0  0  0  0  0  0  0  0
  -42.2808   60.1725   64.5741 O   0  0  0  0  0  0  0  0  0  0  0  0
  -41.9856   59.5666   65.5677 C   0  0  0  0  0  0  0  0  0  0  0  0
  -42.9199   58.6593   66.3066 C   0  0  0  0  0  0  0  0  0  0  0  0
  -43.9273   58.0075   65.3649 C   0  0  0  0  0  0  0  0  0  0  0  0
  -44.7045   56.8613   65.9913 C   0  0  0  0  0  0  0  0  0  0  0  0
  -46.2103   57.0952   66.0302 C   0  0  0  0  0  0  0  0  0  0  0  0
  -46.6153   58.5430   65.8241 C   0  0  0  0  0  0  0  0  0  0  0  0
  -46.9666   58.9063   64.3786 C   0  0  0  0  0  0  0  0  0  0  0  0
  -48.3175   58.3836   63.8852 C   0  0  0  0  0  0  0  0  0  0  0  0
  -49.0964   59.4344   63.1524 C   0  0  0  0  0  0  0  0  0  0  0  0
  -50.1030   59.2342   62.3242 C   0  0  0  0  0  0  0  0  0  0  0  0
  -50.6817   57.9083   61.9426 C   0  0  0  0  0  0  0  0  0  0  0  0
  -50.3274   57.5080   60.5133 C   0  0  0  0  0  0  0  0  0  0  0  0
  -49.7442   56.1104   60.3986 C   0  0  0  0  0  0  0  0  0  0  0  0
  -48.6539   55.9890   59.3481 C   0  0  0  0  0  0  0  0  0  0  0  0
  -48.0825   57.3163   58.8775 C   0  0  0  0  0  0  0  0  0  0  0  0
  -46.5727   57.4151   59.0335 C   0  0  0  0  0  0  0  0  0  0  0  0
  -45.8798   58.1685   57.9155 C   0  0  0  0  0  0  0  0  0  0  0  0
  -44.3832   58.1708   58.0562 C   0  0  0  0  0  0  0  0  0  0  0  0
 21 22  1  0  0  0
  4  5  2  0  0  0
 25 24  1  0  0  0
 25 26  2  0  0  0
 25 27  1  0  0  0
 25 29  1  0  0  0
 22 20  1  0  0  0
  3  5  1  0  0  0
  3  2  1  0  0  0
 20 19  1  0  0  0
 24 23  1  0  0  0
 19 18  1  0  0  0
 18 17  1  0  0  0
 27 28  1  0  0  0
 17 16  1  0  0  0
 29 30  1  0  0  0
 16 15  1  0  0  0
 34 35  1  0  0  0
 34 36  1  0  0  0
 15 14  1  0  0  0
 31 32  1  0  0  0
 31 33  1  0  0  0
 14 13  1  0  0  0
 37  1  1  0  0  0
 37 39  1  0  0  0
 13 12  1  0  0  0
 38 39  2  0  0  0
 12 11  1  0  0  0
 11 10  1  0  0  0
 10  9  1  0  0  0
  9  8  1  0  0  0
  8  7  1  0  0  0
  7  6  1  0  0  0
  6  5  1  0  0  0
  2  1  1  0  0  0
  1 23  1  0  0  0
 30 32  1  0  0  0
 32 35  1  0  0  0
 39 40  1  0  0  0
 40 41  1  0  0  0
 41 42  1  0  0  0
 42 43  1  0  0  0
 43 44  1  0  0  0
 44 45  1  0  0  0
 45 46  1  0  0  0
 46 47  1  0  0  0
 47 48  2  0  0  0
 48 49  1  0  0  0
 49 50  1  0  0  0
 50 51  1  0  0  0
 51 52  1  0  0  0
 52 53  1  0  0  0
 53 54  1  0  0  0
 54 55  1  0  0  0
 55 56  1  0  0  0
M  CHG 1  26  -1
M  END
> <minimizedAffinity>
-8.19446

> <CNNscore>
0.5422510505

> <CNNaffinity>
7.1753463745

> <CNN_VS>
3.8908390999

> <CNNaffinity_variance>
0.4825170040

$$$$
/media/chris/experiments/cd1a-new-docking/inputs/ligands/7sh4_ligand.pdb


 56 55  0  0  0  0  0  0  0  0999 V2000
  -38.3677   60.0798   64.8116 C   0  0  0  0  0  0  0  0  0  0  0  0
  -37.8923   58.6667   64.9984 C   0  0  0  0  0  0  0  0  0  0  0  0
  -38.0604   58.0668   63.6965 O   0  0  0  0  0  0  0  0  0  0  0  0
  -36.0395   57.1173   63.5787 O   0  0  0  0  0  0  0  0  0  0  0  0
  -36.9521   57.6967   63.0542 C   0  0  0  0  0  0  0  0  0  0  0  0
  -37.0550   57.9854   61.5842 C   0  0  0  0  0  0  0  0  0  0  0  0
  -38.4424   58.4064   61.1301 C   0  0  0  0  0  0  0  0  0  0  0  0
  -38.4665   58.8985   59.6983 C   0  0  0  0  0  0  0  0  0  0  0  0
  -37.1638   58.7061   58.9554 C   0  0  0  0  0  0  0  0  0  0  0  0
  -37.2333   57.6120   57.9094 C   0  0  0  0  0  0  0  0  0  0  0  0
  -36.2493   56.4940   58.1529 C   0  0  0  0  0  0  0  0  0  0  0  0
  -34.8205   56.9052   57.9143 C   0  0  0  0  0  0  0  0  0  0  0  0
  -33.8268   56.1440   58.7636 C   0  0  0  0  0  0  0  0  0  0  0  0
  -34.3637   55.8188   60.1428 C   0  0  0  0  0  0  0  0  0  0  0  0
  -33.5314   56.3781   61.2776 C   0  0  0  0  0  0  0  0  0  0  0  0
  -33.4594   57.9007   61.2965 C   0  0  0  0  0  0  0  0  0  0  0  0
  -32.4481   58.4576   62.2799 C   0  0  0  0  0  0  0  0  0  0  0  0
  -31.3841   59.3167   61.6278 C   0  0  0  0  0  0  0  0  0  0  0  0
  -30.5980   60.1684   62.6147 C   0  0  0  0  0  0  0  0  0  0  0  0
  -29.3654   60.8172   62.0104 C   0  0  0  0  0  0  0  0  0  0  0  0
  -30.7817   62.8976   62.0504 C   0  0  0  0  0  0  0  0  0  0  0  0
  -29.3792   62.3340   62.0159 C   0  0  0  0  0  0  0  0  0  0  0  0
  -37.2408   61.0750   64.9181 C   0  0  0  0  0  0  0  0  0  0  0  0
  -37.3201   61.7319   66.2028 O   0  0  0  0  0  0  0  0  0  0  0  0
  -36.2683   62.8416   66.6761 P   0  0  0  0  0  0  0  0  0  0  0  0
  -36.8230   64.1707   66.3410 O   0  0  0  0  0  0  0  0  0  0  0  0
  -35.9001   62.5576   68.0842 O   0  0  0  0  0  0  0  0  0  0  0  0
  -36.6733   62.6929   68.6541 H   0  0  0  0  0  0  0  0  0  0  0  0
  -34.9738   62.6083   65.7748 O   0  0  0  0  0  0  0  0  0  0  0  0
  -33.6633   62.8887   66.3078 C   0  0  0  0  0  0  0  0  0  0  0  0
  -31.7178   64.1708   65.7481 O   0  0  0  0  0  0  0  0  0  0  0  0
  -33.1454   64.1489   65.6591 C   0  0  0  0  0  0  0  0  0  0  0  0
  -31.4504   64.0899   66.6770 H   0  0  0  0  0  0  0  0  0  0  0  0
  -34.8623   64.8817   64.1315 O   0  0  0  0  0  0  0  0  0  0  0  0
  -33.5798   64.2740   64.2184 C   0  0  0  0  0  0  0  0  0  0  0  0
  -35.1237   64.9534   63.2001 H   0  0  0  0  0  0  0  0  0  0  0  0
  -39.4206   60.3465   65.7965 O   0  0  0  0  0  0  0  0  0  0  0  0
  -41.2278   60.9606   64.6062 O   0  0  0  0  0  0  0  0  0  0  0  0
  -40.6944   60.2131   65.3797 C   0  0  0  0  0  0  0  0  0  0  0  0
  -41.3582   59.0132   65.9811 C   0  0  0  0  0  0  0  0  0  0  0  0
  -42.5336   59.4107   66.8684 C   0  0  0  0  0  0  0  0  0  0  0  0
  -43.8217   58.6675   66.5545 C   0  0  0  0  0  0  0  0  0  0  0  0
  -44.5001   59.1378   65.2730 C   0  0  0  0  0  0  0  0  0  0  0  0
  -45.9289   58.6511   65.1169 C   0  0  0  0  0  0  0  0  0  0  0  0
  -46.8015   58.8279   66.3626 C   0  0  0  0  0  0  0  0  0  0  0  0
  -47.9578   59.8190   66.2129 C   0  0  0  0  0  0  0  0  0  0  0  0
  -48.0726   60.3460   64.8140 C   0  0  0  0  0  0  0  0  0  0  0  0
  -49.0109   60.0503   63.9357 C   0  0  0  0  0  0  0  0  0  0  0  0
  -50.1643   59.1228   64.1548 C   0  0  0  0  0  0  0  0  0  0  0  0
  -50.5521   58.3663   62.8876 C   0  0  0  0  0  0  0  0  0  0  0  0
  -49.3733   58.0416   61.9868 C   0  0  0  0  0  0  0  0  0  0  0  0
  -49.5720   58.4720   60.5437 C   0  0  0  0  0  0  0  0  0  0  0  0
  -49.6716   57.3244   59.5525 C   0  0  0  0  0  0  0  0  0  0  0  0
  -48.3728   56.5493   59.3908 C   0  0  0  0  0  0  0  0  0  0  0  0
  -47.1521   57.4203   59.1699 C   0  0  0  0  0  0  0  0  0  0  0  0
  -46.7984   57.5681   57.7164 C   0  0  0  0  0  0  0  0  0  0  0  0
 21 22  1  0  0  0
  4  5  2  0  0  0
 25 24  1  0  0  0
 25 26  2  0  0  0
 25 27  1  0  0  0
 25 29  1  0  0  0
 22 20  1  0  0  0
  3  5  1  0  0  0
  3  2  1  0  0  0
 20 19  1  0  0  0
 24 23  1  0  0  0
 19 18  1  0  0  0
 18 17  1  0  0  0
 27 28  1  0  0  0
 17 16  1  0  0  0
 29 30  1  0  0  0
 16 15  1  0  0  0
 34 35  1  0  0  0
 34 36  1  0  0  0
 15 14  1  0  0  0
 31 32  1  0  0  0
 31 33  1  0  0  0
 14 13  1  0  0  0
 37  1  1  0  0  0
 37 39  1  0  0  0
 13 12  1  0  0  0
 38 39  2  0  0  0
 12 11  1  0  0  0
 11 10  1  0  0  0
 10  9  1  0  0  0
  9  8  1  0  0  0
  8  7  1  0  0  0
  7  6  1  0  0  0
  6  5  1  0  0  0
  2  1  1  0  0  0
  1 23  1  0  0  0
 30 32  1  0  0  0
 32 35  1  0  0  0
 39 40  1  0  0  0
 40 41  1  0  0  0
 41 42  1  0  0  0
 42 43  1  0  0  0
 43 44  1  0  0  0
 44 45  1  0  0  0
 45 46  1  0  0  0
 46 47  1  0  0  0
 47 48  2  0  0  0
 48 49  1  0  0  0
 49 50  1  0  0  0
 50 51  1  0  0  0
 51 52  1  0  0  0
 52 53  1  0  0  0
 53 54  1  0  0  0
 54 55  1  0  0  0
 55 56  1  0  0  0
M  CHG 1  26  -1
M  END
> <minimizedAffinity>
-8.96550

> <CNNscore>
0.5374560356

> <CNNaffinity>
7.2131605148

> <CNN_VS>
3.8767566681

> <CNNaffinity_variance>
0.8018094301

$$$$
/media/chris/experiments/cd1a-new-docking/inputs/ligands/7sh4_ligand.pdb


 56 55  0  0  0  0  0  0  0  0999 V2000
  -40.6271   59.8966   65.8175 C   0  0  0  0  0  0  0  0  0  0  0  0
  -41.1061   60.4826   64.5195 C   0  0  0  0  0  0  0  0  0  0  0  0
  -40.5282   59.6234   63.5141 O   0  0  0  0  0  0  0  0  0  0  0  0
  -40.6804   61.2461   61.9834 O   0  0  0  0  0  0  0  0  0  0  0  0
  -40.2631   60.1737   62.3289 C   0  0  0  0  0  0  0  0  0  0  0  0
  -39.2853   59.3411   61.5507 C   0  0  0  0  0  0  0  0  0  0  0  0
  -39.3553   59.5454   60.0468 C   0  0  0  0  0  0  0  0  0  0  0  0
  -37.9907   59.5434   59.3907 C   0  0  0  0  0  0  0  0  0  0  0  0
  -37.2456   58.2337   59.5153 C   0  0  0  0  0  0  0  0  0  0  0  0
  -36.5955   57.7953   58.2187 C   0  0  0  0  0  0  0  0  0  0  0  0
  -36.3984   56.3018   58.1282 C   0  0  0  0  0  0  0  0  0  0  0  0
  -36.2671   55.6429   59.4758 C   0  0  0  0  0  0  0  0  0  0  0  0
  -34.8603   55.1797   59.7831 C   0  0  0  0  0  0  0  0  0  0  0  0
  -34.0578   56.2128   60.5479 C   0  0  0  0  0  0  0  0  0  0  0  0
  -34.7820   56.7975   61.7424 C   0  0  0  0  0  0  0  0  0  0  0  0
  -34.0423   57.9535   62.4061 C   0  0  0  0  0  0  0  0  0  0  0  0
  -32.5323   57.8616   62.2987 C   0  0  0  0  0  0  0  0  0  0  0  0
  -31.8970   59.0891   61.6783 C   0  0  0  0  0  0  0  0  0  0  0  0
  -32.2359   60.3841   62.4034 C   0  0  0  0  0  0  0  0  0  0  0  0
  -31.1108   61.4034   62.3847 C   0  0  0  0  0  0  0  0  0  0  0  0
  -30.3149   63.6743   63.1233 C   0  0  0  0  0  0  0  0  0  0  0  0
  -31.5109   62.7986   62.8254 C   0  0  0  0  0  0  0  0  0  0  0  0
  -39.1508   59.5943   65.7915 C   0  0  0  0  0  0  0  0  0  0  0  0
  -38.4254   60.7854   66.1703 O   0  0  0  0  0  0  0  0  0  0  0  0
  -37.0680   61.2390   65.4536 P   0  0  0  0  0  0  0  0  0  0  0  0
  -36.2591   60.0281   65.1966 O   0  0  0  0  0  0  0  0  0  0  0  0
  -37.4203   62.1162   64.3111 O   0  0  0  0  0  0  0  0  0  0  0  0
  -37.8918   61.5987   63.6396 H   0  0  0  0  0  0  0  0  0  0  0  0
  -36.2967   62.1251   66.5318 O   0  0  0  0  0  0  0  0  0  0  0  0
  -36.0774   63.5295   66.2879 C   0  0  0  0  0  0  0  0  0  0  0  0
  -34.2264   62.7987   67.6228 O   0  0  0  0  0  0  0  0  0  0  0  0
  -34.8188   63.9468   67.0082 C   0  0  0  0  0  0  0  0  0  0  0  0
  -34.8727   62.3769   68.2104 H   0  0  0  0  0  0  0  0  0  0  0  0
  -32.6290   63.8537   66.0010 O   0  0  0  0  0  0  0  0  0  0  0  0
  -33.8256   64.6166   66.0890 C   0  0  0  0  0  0  0  0  0  0  0  0
  -32.0045   64.2991   65.4072 H   0  0  0  0  0  0  0  0  0  0  0  0
  -41.4207   58.6972   66.1030 O   0  0  0  0  0  0  0  0  0  0  0  0
  -42.5881   59.6074   67.7967 O   0  0  0  0  0  0  0  0  0  0  0  0
  -42.5234   58.8604   66.8589 C   0  0  0  0  0  0  0  0  0  0  0  0
  -43.6618   58.0141   66.3796 C   0  0  0  0  0  0  0  0  0  0  0  0
  -44.1018   58.4129   64.9746 C   0  0  0  0  0  0  0  0  0  0  0  0
  -45.3823   57.7357   64.5142 C   0  0  0  0  0  0  0  0  0  0  0  0
  -46.0070   56.8308   65.5699 C   0  0  0  0  0  0  0  0  0  0  0  0
  -47.3491   57.3178   66.0840 C   0  0  0  0  0  0  0  0  0  0  0  0
  -47.3085   58.6830   66.7762 C   0  0  0  0  0  0  0  0  0  0  0  0
  -48.3714   59.6810   66.3116 C   0  0  0  0  0  0  0  0  0  0  0  0
  -48.2598   59.9845   64.8475 C   0  0  0  0  0  0  0  0  0  0  0  0
  -49.0890   59.5977   63.8977 C   0  0  0  0  0  0  0  0  0  0  0  0
  -50.3224   58.7718   64.0854 C   0  0  0  0  0  0  0  0  0  0  0  0
  -51.1293   58.6296   62.7980 C   0  0  0  0  0  0  0  0  0  0  0  0
  -50.2732   58.5765   61.5448 C   0  0  0  0  0  0  0  0  0  0  0  0
  -50.6118   57.4170   60.6238 C   0  0  0  0  0  0  0  0  0  0  0  0
  -49.7741   57.3535   59.3574 C   0  0  0  0  0  0  0  0  0  0  0  0
  -48.2880   57.5653   59.6031 C   0  0  0  0  0  0  0  0  0  0  0  0
  -47.3885   56.9252   58.5644 C   0  0  0  0  0  0  0  0  0  0  0  0
  -46.3984   57.8921   57.9774 C   0  0  0  0  0  0  0  0  0  0  0  0
 21 22  1  0  0  0
  4  5  2  0  0  0
 25 24  1  0  0  0
 25 26  2  0  0  0
 25 27  1  0  0  0
 25 29  1  0  0  0
 22 20  1  0  0  0
  3  5  1  0  0  0
  3  2  1  0  0  0
 20 19  1  0  0  0
 24 23  1  0  0  0
 19 18  1  0  0  0
 18 17  1  0  0  0
 27 28  1  0  0  0
 17 16  1  0  0  0
 29 30  1  0  0  0
 16 15  1  0  0  0
 34 35  1  0  0  0
 34 36  1  0  0  0
 15 14  1  0  0  0
 31 32  1  0  0  0
 31 33  1  0  0  0
 14 13  1  0  0  0
 37  1  1  0  0  0
 37 39  1  0  0  0
 13 12  1  0  0  0
 38 39  2  0  0  0
 12 11  1  0  0  0
 11 10  1  0  0  0
 10  9  1  0  0  0
  9  8  1  0  0  0
  8  7  1  0  0  0
  7  6  1  0  0  0
  6  5  1  0  0  0
  2  1  1  0  0  0
  1 23  1  0  0  0
 30 32  1  0  0  0
 32 35  1  0  0  0
 39 40  1  0  0  0
 40 41  1  0  0  0
 41 42  1  0  0  0
 42 43  1  0  0  0
 43 44  1  0  0  0
 44 45  1  0  0  0
 45 46  1  0  0  0
 46 47  1  0  0  0
 47 48  2  0  0  0
 48 49  1  0  0  0
 49 50  1  0  0  0
 50 51  1  0  0  0
 51 52  1  0  0  0
 52 53  1  0  0  0
 53 54  1  0  0  0
 54 55  1  0  0  0
 55 56  1  0  0  0
M  CHG 1  26  -1
M  END
> <minimizedAffinity>
-8.72243

> <CNNscore>
0.5312378407

> <CNNaffinity>
7.2809591293

> <CNN_VS>
3.8679211140

> <CNNaffinity_variance>
0.5998083949

$$$$
/media/chris/experiments/cd1a-new-docking/inputs/ligands/7sh4_ligand.pdb


 56 55  0  0  0  0  0  0  0  0999 V2000
  -37.2718   60.9446   63.9531 C   0  0  0  0  0  0  0  0  0  0  0  0
  -38.7234   60.9033   63.5676 C   0  0  0  0  0  0  0  0  0  0  0  0
  -39.3972   60.5190   64.7848 O   0  0  0  0  0  0  0  0  0  0  0  0
  -41.4423   61.1361   64.1245 O   0  0  0  0  0  0  0  0  0  0  0  0
  -40.7224   60.3848   64.7252 C   0  0  0  0  0  0  0  0  0  0  0  0
  -41.1699   59.1169   65.3938 C   0  0  0  0  0  0  0  0  0  0  0  0
  -42.2034   59.3238   66.4880 C   0  0  0  0  0  0  0  0  0  0  0  0
  -43.4299   58.4542   66.3081 C   0  0  0  0  0  0  0  0  0  0  0  0
  -44.2221   58.7525   65.0554 C   0  0  0  0  0  0  0  0  0  0  0  0
  -45.5130   59.4959   65.3327 C   0  0  0  0  0  0  0  0  0  0  0  0
  -46.3792   58.8174   66.3656 C   0  0  0  0  0  0  0  0  0  0  0  0
  -47.8520   58.9823   66.0985 C   0  0  0  0  0  0  0  0  0  0  0  0
  -48.4279   57.8956   65.2179 C   0  0  0  0  0  0  0  0  0  0  0  0
  -48.8677   58.4119   63.8629 C   0  0  0  0  0  0  0  0  0  0  0  0
  -50.3658   58.3769   63.6447 C   0  0  0  0  0  0  0  0  0  0  0  0
  -50.7870   58.6814   62.2115 C   0  0  0  0  0  0  0  0  0  0  0  0
  -50.9469   57.4496   61.3414 C   0  0  0  0  0  0  0  0  0  0  0  0
  -49.8810   57.3254   60.2720 C   0  0  0  0  0  0  0  0  0  0  0  0
  -49.3452   55.9102   60.1059 C   0  0  0  0  0  0  0  0  0  0  0  0
  -48.2618   55.7907   59.0489 C   0  0  0  0  0  0  0  0  0  0  0  0
  -47.7047   56.6262   56.7407 C   0  0  0  0  0  0  0  0  0  0  0  0
  -48.1203   57.0008   58.1453 C   0  0  0  0  0  0  0  0  0  0  0  0
  -36.6362   62.2711   63.6244 C   0  0  0  0  0  0  0  0  0  0  0  0
  -35.4323   62.4176   64.4104 O   0  0  0  0  0  0  0  0  0  0  0  0
  -35.4513   62.8201   65.9594 P   0  0  0  0  0  0  0  0  0  0  0  0
  -36.7085   63.5511   66.2271 O   0  0  0  0  0  0  0  0  0  0  0  0
  -35.1498   61.6060   66.7555 O   0  0  0  0  0  0  0  0  0  0  0  0
  -35.8738   60.9677   66.6584 H   0  0  0  0  0  0  0  0  0  0  0  0
  -34.2406   63.8410   66.1454 O   0  0  0  0  0  0  0  0  0  0  0  0
  -32.9323   63.5090   65.6372 C   0  0  0  0  0  0  0  0  0  0  0  0
  -30.7947   64.4929   65.1844 O   0  0  0  0  0  0  0  0  0  0  0  0
  -32.1786   64.7925   65.3887 C   0  0  0  0  0  0  0  0  0  0  0  0
  -30.4546   63.9998   65.9474 H   0  0  0  0  0  0  0  0  0  0  0  0
  -33.9720   66.1613   64.5352 O   0  0  0  0  0  0  0  0  0  0  0  0
  -32.7251   65.5607   64.2092 C   0  0  0  0  0  0  0  0  0  0  0  0
  -34.3065   66.6495   63.7666 H   0  0  0  0  0  0  0  0  0  0  0  0
  -36.5851   59.8346   63.2851 O   0  0  0  0  0  0  0  0  0  0  0  0
  -35.0348   59.2883   64.8207 O   0  0  0  0  0  0  0  0  0  0  0  0
  -35.9164   58.9689   64.0708 C   0  0  0  0  0  0  0  0  0  0  0  0
  -36.4155   57.5663   63.9109 C   0  0  0  0  0  0  0  0  0  0  0  0
  -37.7603   57.5301   63.1920 C   0  0  0  0  0  0  0  0  0  0  0  0
  -37.6919   56.9593   61.7850 C   0  0  0  0  0  0  0  0  0  0  0  0
  -38.1897   57.9209   60.7121 C   0  0  0  0  0  0  0  0  0  0  0  0
  -37.0909   58.4817   59.8284 C   0  0  0  0  0  0  0  0  0  0  0  0
  -37.1949   58.0840   58.3533 C   0  0  0  0  0  0  0  0  0  0  0  0
  -36.5119   56.7653   57.9843 C   0  0  0  0  0  0  0  0  0  0  0  0
  -35.0171   56.8790   58.0022 C   0  0  0  0  0  0  0  0  0  0  0  0
  -34.2021   56.4026   58.9232 C   0  0  0  0  0  0  0  0  0  0  0  0
  -34.6025   55.6433   60.1486 C   0  0  0  0  0  0  0  0  0  0  0  0
  -33.9806   56.2173   61.4184 C   0  0  0  0  0  0  0  0  0  0  0  0
  -33.6918   57.7060   61.3364 C   0  0  0  0  0  0  0  0  0  0  0  0
  -32.4338   58.1248   62.0775 C   0  0  0  0  0  0  0  0  0  0  0  0
  -31.9537   59.5309   61.7583 C   0  0  0  0  0  0  0  0  0  0  0  0
  -30.7120   59.9382   62.5366 C   0  0  0  0  0  0  0  0  0  0  0  0
  -29.7364   60.7907   61.7497 C   0  0  0  0  0  0  0  0  0  0  0  0
  -28.3028   60.5145   62.1076 C   0  0  0  0  0  0  0  0  0  0  0  0
 21 22  1  0  0  0
  4  5  2  0  0  0
 25 24  1  0  0  0
 25 26  2  0  0  0
 25 27  1  0  0  0
 25 29  1  0  0  0
 22 20  1  0  0  0
  3  5  1  0  0  0
  3  2  1  0  0  0
 20 19  1  0  0  0
 24 23  1  0  0  0
 19 18  1  0  0  0
 18 17  1  0  0  0
 27 28  1  0  0  0
 17 16  1  0  0  0
 29 30  1  0  0  0
 16 15  1  0  0  0
 34 35  1  0  0  0
 34 36  1  0  0  0
 15 14  1  0  0  0
 31 32  1  0  0  0
 31 33  1  0  0  0
 14 13  1  0  0  0
 37  1  1  0  0  0
 37 39  1  0  0  0
 13 12  1  0  0  0
 38 39  2  0  0  0
 12 11  1  0  0  0
 11 10  1  0  0  0
 10  9  1  0  0  0
  9  8  1  0  0  0
  8  7  1  0  0  0
  7  6  1  0  0  0
  6  5  1  0  0  0
  2  1  1  0  0  0
  1 23  1  0  0  0
 30 32  1  0  0  0
 32 35  1  0  0  0
 39 40  1  0  0  0
 40 41  1  0  0  0
 41 42  1  0  0  0
 42 43  1  0  0  0
 43 44  1  0  0  0
 44 45  1  0  0  0
 45 46  1  0  0  0
 46 47  1  0  0  0
 47 48  2  0  0  0
 48 49  1  0  0  0
 49 50  1  0  0  0
 50 51  1  0  0  0
 51 52  1  0  0  0
 52 53  1  0  0  0
 53 54  1  0  0  0
 54 55  1  0  0  0
 55 56  1  0  0  0
M  CHG 1  26  -1
M  END
> <minimizedAffinity>
-9.11857

> <CNNscore>
0.4855840504

> <CNNaffinity>
7.0885024071

> <CNN_VS>
3.4420638084

> <CNNaffinity_variance>
0.6343390346

$$$$
/media/chris/experiments/cd1a-new-docking/inputs/ligands/7sh4_ligand.pdb


 56 55  0  0  0  0  0  0  0  0999 V2000
  -39.7711   60.3024   63.3823 C   0  0  0  0  0  0  0  0  0  0  0  0
  -39.8374   60.4410   61.8876 C   0  0  0  0  0  0  0  0  0  0  0  0
  -38.7366   59.6370   61.4132 O   0  0  0  0  0  0  0  0  0  0  0  0
  -39.1523   60.1851   59.2857 O   0  0  0  0  0  0  0  0  0  0  0  0
  -38.6438   59.4574   60.0953 C   0  0  0  0  0  0  0  0  0  0  0  0
  -37.7269   58.3144   59.7669 C   0  0  0  0  0  0  0  0  0  0  0  0
  -37.2685   58.2830   58.3187 C   0  0  0  0  0  0  0  0  0  0  0  0
  -36.1832   57.2571   58.0693 C   0  0  0  0  0  0  0  0  0  0  0  0
  -36.5670   55.8448   58.4487 C   0  0  0  0  0  0  0  0  0  0  0  0
  -35.7036   55.2719   59.5542 C   0  0  0  0  0  0  0  0  0  0  0  0
  -34.2848   55.7854   59.5265 C   0  0  0  0  0  0  0  0  0  0  0  0
  -33.7972   56.2404   60.8765 C   0  0  0  0  0  0  0  0  0  0  0  0
  -34.2765   57.6249   61.2527 C   0  0  0  0  0  0  0  0  0  0  0  0
  -33.5491   58.1891   62.4564 C   0  0  0  0  0  0  0  0  0  0  0  0
  -32.0711   58.4281   62.2292 C   0  0  0  0  0  0  0  0  0  0  0  0
  -31.6950   59.9014   62.1191 C   0  0  0  0  0  0  0  0  0  0  0  0
  -30.2004   60.1539   62.0708 C   0  0  0  0  0  0  0  0  0  0  0  0
  -29.8392   61.6247   62.0322 C   0  0  0  0  0  0  0  0  0  0  0  0
  -31.0195   62.5350   61.7231 C   0  0  0  0  0  0  0  0  0  0  0  0
  -31.2155   63.6433   62.7423 C   0  0  0  0  0  0  0  0  0  0  0  0
  -31.6679   64.2903   65.1324 C   0  0  0  0  0  0  0  0  0  0  0  0
  -31.6609   63.1729   64.1139 C   0  0  0  0  0  0  0  0  0  0  0  0
  -38.6210   59.4319   63.8197 C   0  0  0  0  0  0  0  0  0  0  0  0
  -37.7215   60.2217   64.6293 O   0  0  0  0  0  0  0  0  0  0  0  0
  -36.3613   60.8438   64.0596 P   0  0  0  0  0  0  0  0  0  0  0  0
  -35.2534   60.3986   64.9319 O   0  0  0  0  0  0  0  0  0  0  0  0
  -36.2897   60.5457   62.6087 O   0  0  0  0  0  0  0  0  0  0  0  0
  -36.1955   59.5889   62.4795 H   0  0  0  0  0  0  0  0  0  0  0  0
  -36.5153   62.4220   64.2283 O   0  0  0  0  0  0  0  0  0  0  0  0
  -35.3468   63.2671   64.2090 C   0  0  0  0  0  0  0  0  0  0  0  0
  -36.7529   65.0170   65.0475 O   0  0  0  0  0  0  0  0  0  0  0  0
  -35.5142   64.3344   65.2625 C   0  0  0  0  0  0  0  0  0  0  0  0
  -36.7733   65.3736   64.1457 H   0  0  0  0  0  0  0  0  0  0  0  0
  -36.6754   63.0941   66.9747 O   0  0  0  0  0  0  0  0  0  0  0  0
  -35.4652   63.7723   66.6631 C   0  0  0  0  0  0  0  0  0  0  0  0
  -36.6250   62.7406   67.8766 H   0  0  0  0  0  0  0  0  0  0  0  0
  -41.0567   59.7791   63.8548 O   0  0  0  0  0  0  0  0  0  0  0  0
  -40.9752   60.7427   65.8858 O   0  0  0  0  0  0  0  0  0  0  0  0
  -41.2814   59.8192   65.1822 C   0  0  0  0  0  0  0  0  0  0  0  0
  -41.9738   58.5848   65.6709 C   0  0  0  0  0  0  0  0  0  0  0  0
  -43.4306   58.8645   66.0260 C   0  0  0  0  0  0  0  0  0  0  0  0
  -44.3757   57.7203   65.6976 C   0  0  0  0  0  0  0  0  0  0  0  0
  -45.2384   57.9762   64.4671 C   0  0  0  0  0  0  0  0  0  0  0  0
  -46.7145   58.1487   64.7736 C   0  0  0  0  0  0  0  0  0  0  0  0
  -47.1029   59.5443   65.2700 C   0  0  0  0  0  0  0  0  0  0  0  0
  -48.4012   59.6107   66.0773 C   0  0  0  0  0  0  0  0  0  0  0  0
  -49.2872   58.4289   65.8205 C   0  0  0  0  0  0  0  0  0  0  0  0
  -50.4127   58.4231   65.1329 C   0  0  0  0  0  0  0  0  0  0  0  0
  -51.0422   59.6021   64.4605 C   0  0  0  0  0  0  0  0  0  0  0  0
  -51.2590   59.3737   62.9673 C   0  0  0  0  0  0  0  0  0  0  0  0
  -49.9893   59.4897   62.1423 C   0  0  0  0  0  0  0  0  0  0  0  0
  -49.3746   58.1495   61.7774 C   0  0  0  0  0  0  0  0  0  0  0  0
  -50.2678   57.2563   60.9325 C   0  0  0  0  0  0  0  0  0  0  0  0
  -50.0356   57.4083   59.4370 C   0  0  0  0  0  0  0  0  0  0  0  0
  -48.5939   57.2184   59.0090 C   0  0  0  0  0  0  0  0  0  0  0  0
  -48.1355   55.7916   59.1264 C   0  0  0  0  0  0  0  0  0  0  0  0
 21 22  1  0  0  0
  4  5  2  0  0  0
 25 24  1  0  0  0
 25 26  2  0  0  0
 25 27  1  0  0  0
 25 29  1  0  0  0
 22 20  1  0  0  0
  3  5  1  0  0  0
  3  2  1  0  0  0
 20 19  1  0  0  0
 24 23  1  0  0  0
 19 18  1  0  0  0
 18 17  1  0  0  0
 27 28  1  0  0  0
 17 16  1  0  0  0
 29 30  1  0  0  0
 16 15  1  0  0  0
 34 35  1  0  0  0
 34 36  1  0  0  0
 15 14  1  0  0  0
 31 32  1  0  0  0
 31 33  1  0  0  0
 14 13  1  0  0  0
 37  1  1  0  0  0
 37 39  1  0  0  0
 13 12  1  0  0  0
 38 39  2  0  0  0
 12 11  1  0  0  0
 11 10  1  0  0  0
 10  9  1  0  0  0
  9  8  1  0  0  0
  8  7  1  0  0  0
  7  6  1  0  0  0
  6  5  1  0  0  0
  2  1  1  0  0  0
  1 23  1  0  0  0
 30 32  1  0  0  0
 32 35  1  0  0  0
 39 40  1  0  0  0
 40 41  1  0  0  0
 41 42  1  0  0  0
 42 43  1  0  0  0
 43 44  1  0  0  0
 44 45  1  0  0  0
 45 46  1  0  0  0
 46 47  1  0  0  0
 47 48  2  0  0  0
 48 49  1  0  0  0
 49 50  1  0  0  0
 50 51  1  0  0  0
 51 52  1  0  0  0
 52 53  1  0  0  0
 53 54  1  0  0  0
 54 55  1  0  0  0
 55 56  1  0  0  0
M  CHG 1  26  -1
M  END
> <minimizedAffinity>
-8.75993

> <CNNscore>
0.4625602961

> <CNNaffinity>
6.9770784378

> <CNN_VS>
3.2273194790

> <CNNaffinity_variance>
0.9922435880

$$$$
/media/chris/experiments/cd1a-new-docking/inputs/ligands/7sh4_ligand.pdb


 56 55  0  0  0  0  0  0  0  0999 V2000
  -35.2515   61.7208   63.4070 C   0  0  0  0  0  0  0  0  0  0  0  0
  -33.7807   61.9771   63.5763 C   0  0  0  0  0  0  0  0  0  0  0  0
  -33.3625   62.4756   62.2880 O   0  0  0  0  0  0  0  0  0  0  0  0
  -32.1671   64.2607   61.6686 O   0  0  0  0  0  0  0  0  0  0  0  0
  -32.2549   63.2172   62.2577 C   0  0  0  0  0  0  0  0  0  0  0  0
  -31.1924   62.6422   63.1495 C   0  0  0  0  0  0  0  0  0  0  0  0
  -30.0784   61.9257   62.4052 C   0  0  0  0  0  0  0  0  0  0  0  0
  -30.5922   60.8349   61.4893 C   0  0  0  0  0  0  0  0  0  0  0  0
  -30.8933   59.5292   62.1895 C   0  0  0  0  0  0  0  0  0  0  0  0
  -32.2720   58.9883   61.8692 C   0  0  0  0  0  0  0  0  0  0  0  0
  -32.6025   57.7216   62.6200 C   0  0  0  0  0  0  0  0  0  0  0  0
  -33.6050   56.8569   61.9025 C   0  0  0  0  0  0  0  0  0  0  0  0
  -33.6710   57.1222   60.4148 C   0  0  0  0  0  0  0  0  0  0  0  0
  -34.1714   55.9272   59.6288 C   0  0  0  0  0  0  0  0  0  0  0  0
  -35.6271   55.5908   59.8756 C   0  0  0  0  0  0  0  0  0  0  0  0
  -36.5049   55.7049   58.6344 C   0  0  0  0  0  0  0  0  0  0  0  0
  -36.3557   57.0194   57.8929 C   0  0  0  0  0  0  0  0  0  0  0  0
  -37.5135   57.9708   58.1151 C   0  0  0  0  0  0  0  0  0  0  0  0
  -37.6402   58.4522   59.5538 C   0  0  0  0  0  0  0  0  0  0  0  0
  -38.2313   59.8452   59.6787 C   0  0  0  0  0  0  0  0  0  0  0  0
  -39.6645   59.6312   61.7368 C   0  0  0  0  0  0  0  0  0  0  0  0
  -39.6368   59.8897   60.2474 C   0  0  0  0  0  0  0  0  0  0  0  0
  -36.0849   62.9017   63.8344 C   0  0  0  0  0  0  0  0  0  0  0  0
  -36.5652   62.6702   65.1776 O   0  0  0  0  0  0  0  0  0  0  0  0
  -35.9120   63.3634   66.4639 P   0  0  0  0  0  0  0  0  0  0  0  0
  -36.9499   64.1921   67.1141 O   0  0  0  0  0  0  0  0  0  0  0  0
  -35.2367   62.3118   67.2619 O   0  0  0  0  0  0  0  0  0  0  0  0
  -35.9004   61.7025   67.6214 H   0  0  0  0  0  0  0  0  0  0  0  0
  -34.7895   64.3413   65.8925 O   0  0  0  0  0  0  0  0  0  0  0  0
  -33.4178   64.1878   66.3108 C   0  0  0  0  0  0  0  0  0  0  0  0
  -31.2677   65.0503   65.6982 O   0  0  0  0  0  0  0  0  0  0  0  0
  -32.6445   65.4031   65.8614 C   0  0  0  0  0  0  0  0  0  0  0  0
  -30.9295   64.6756   66.5266 H   0  0  0  0  0  0  0  0  0  0  0  0
  -32.1288   66.4380   63.7445 O   0  0  0  0  0  0  0  0  0  0  0  0
  -33.1878   65.9887   64.5801 C   0  0  0  0  0  0  0  0  0  0  0  0
  -32.4969   66.8101   62.9278 H   0  0  0  0  0  0  0  0  0  0  0  0
  -35.5990   60.5117   64.1600 O   0  0  0  0  0  0  0  0  0  0  0  0
  -35.8453   59.3578   62.2449 O   0  0  0  0  0  0  0  0  0  0  0  0
  -35.8566   59.3999   63.4448 C   0  0  0  0  0  0  0  0  0  0  0  0
  -36.1400   58.2212   64.3236 C   0  0  0  0  0  0  0  0  0  0  0  0
  -37.5561   57.6947   64.1130 C   0  0  0  0  0  0  0  0  0  0  0  0
  -38.5108   58.0223   65.2494 C   0  0  0  0  0  0  0  0  0  0  0  0
  -38.9429   59.4838   65.2805 C   0  0  0  0  0  0  0  0  0  0  0  0
  -40.4018   59.6881   65.6445 C   0  0  0  0  0  0  0  0  0  0  0  0
  -41.2858   58.4530   65.4495 C   0  0  0  0  0  0  0  0  0  0  0  0
  -42.2242   58.1328   66.6149 C   0  0  0  0  0  0  0  0  0  0  0  0
  -43.3860   57.2864   66.1886 C   0  0  0  0  0  0  0  0  0  0  0  0
  -44.5041   57.7076   65.6301 C   0  0  0  0  0  0  0  0  0  0  0  0
  -44.8469   59.1266   65.3023 C   0  0  0  0  0  0  0  0  0  0  0  0
  -46.3457   59.3993   65.3924 C   0  0  0  0  0  0  0  0  0  0  0  0
  -47.0796   58.4640   66.3374 C   0  0  0  0  0  0  0  0  0  0  0  0
  -48.0562   57.5341   65.6384 C   0  0  0  0  0  0  0  0  0  0  0  0
  -49.4895   58.0381   65.6024 C   0  0  0  0  0  0  0  0  0  0  0  0
  -49.7976   58.9014   64.3886 C   0  0  0  0  0  0  0  0  0  0  0  0
  -51.1219   59.6346   64.4668 C   0  0  0  0  0  0  0  0  0  0  0  0
  -51.7784   59.7943   63.1239 C   0  0  0  0  0  0  0  0  0  0  0  0
 21 22  1  0  0  0
  4  5  2  0  0  0
 25 24  1  0  0  0
 25 26  2  0  0  0
 25 27  1  0  0  0
 25 29  1  0  0  0
 22 20  1  0  0  0
  3  5  1  0  0  0
  3  2  1  0  0  0
 20 19  1  0  0  0
 24 23  1  0  0  0
 19 18  1  0  0  0
 18 17  1  0  0  0
 27 28  1  0  0  0
 17 16  1  0  0  0
 29 30  1  0  0  0
 16 15  1  0  0  0
 34 35  1  0  0  0
 34 36  1  0  0  0
 15 14  1  0  0  0
 31 32  1  0  0  0
 31 33  1  0  0  0
 14 13  1  0  0  0
 37  1  1  0  0  0
 37 39  1  0  0  0
 13 12  1  0  0  0
 38 39  2  0  0  0
 12 11  1  0  0  0
 11 10  1  0  0  0
 10  9  1  0  0  0
  9  8  1  0  0  0
  8  7  1  0  0  0
  7  6  1  0  0  0
  6  5  1  0  0  0
  2  1  1  0  0  0
  1 23  1  0  0  0
 30 32  1  0  0  0
 32 35  1  0  0  0
 39 40  1  0  0  0
 40 41  1  0  0  0
 41 42  1  0  0  0
 42 43  1  0  0  0
 43 44  1  0  0  0
 44 45  1  0  0  0
 45 46  1  0  0  0
 46 47  1  0  0  0
 47 48  2  0  0  0
 48 49  1  0  0  0
 49 50  1  0  0  0
 50 51  1  0  0  0
 51 52  1  0  0  0
 52 53  1  0  0  0
 53 54  1  0  0  0
 54 55  1  0  0  0
 55 56  1  0  0  0
M  CHG 1  26  -1
M  END
> <minimizedAffinity>
-8.55661

> <CNNscore>
0.4534052610

> <CNNaffinity>
7.1568770409

> <CNN_VS>
3.2449657917

> <CNNaffinity_variance>
1.5807516575

$$$$
