/media/chris/experiments/cd1a-new-docking/inputs/ligands/7sh4_ligand.pdb


 56 55  0  0  0  0  0  0  0  0999 V2000
  -37.8094   59.4870   62.0777 C   0  0  0  0  0  0  0  0  0  0  0  0
  -39.0946   59.0406   62.7152 C   0  0  0  0  0  0  0  0  0  0  0  0
  -39.1563   59.7965   63.9432 O   0  0  0  0  0  0  0  0  0  0  0  0
  -41.0274   60.8653   64.5400 O   0  0  0  0  0  0  0  0  0  0  0  0
  -40.3440   59.8771   64.5439 C   0  0  0  0  0  0  0  0  0  0  0  0
  -40.7585   58.5482   65.1071 C   0  0  0  0  0  0  0  0  0  0  0  0
  -41.9991   58.6049   65.9824 C   0  0  0  0  0  0  0  0  0  0  0  0
  -42.7950   57.3171   65.9554 C   0  0  0  0  0  0  0  0  0  0  0  0
  -44.2403   57.4735   66.3710 C   0  0  0  0  0  0  0  0  0  0  0  0
  -45.2141   57.2184   65.2385 C   0  0  0  0  0  0  0  0  0  0  0  0
  -46.1151   58.3952   64.9534 C   0  0  0  0  0  0  0  0  0  0  0  0
  -47.4891   57.9862   64.4925 C   0  0  0  0  0  0  0  0  0  0  0  0
  -48.3808   57.5054   65.6157 C   0  0  0  0  0  0  0  0  0  0  0  0
  -49.7256   58.2033   65.6350 C   0  0  0  0  0  0  0  0  0  0  0  0
  -49.7824   59.4590   64.7903 C   0  0  0  0  0  0  0  0  0  0  0  0
  -51.1854   59.8183   64.3145 C   0  0  0  0  0  0  0  0  0  0  0  0
  -51.4879   59.3738   62.8964 C   0  0  0  0  0  0  0  0  0  0  0  0
  -50.2472   59.1780   62.0494 C   0  0  0  0  0  0  0  0  0  0  0  0
  -50.0165   57.7330   61.6298 C   0  0  0  0  0  0  0  0  0  0  0  0
  -50.5376   57.4132   60.2401 C   0  0  0  0  0  0  0  0  0  0  0  0
  -48.0701   57.3877   59.7431 C   0  0  0  0  0  0  0  0  0  0  0  0
  -49.4618   57.1429   59.2054 C   0  0  0  0  0  0  0  0  0  0  0  0
  -36.9403   60.2598   63.0365 C   0  0  0  0  0  0  0  0  0  0  0  0
  -36.7300   61.5878   62.5068 O   0  0  0  0  0  0  0  0  0  0  0  0
  -35.9354   62.7245   63.3058 P   0  0  0  0  0  0  0  0  0  0  0  0
  -34.5954   62.1966   63.6413 O   0  0  0  0  0  0  0  0  0  0  0  0
  -36.0308   63.9854   62.5316 O   0  0  0  0  0  0  0  0  0  0  0  0
  -35.5479   63.8890   61.6959 H   0  0  0  0  0  0  0  0  0  0  0  0
  -36.7396   62.9240   64.6681 O   0  0  0  0  0  0  0  0  0  0  0  0
  -36.3372   62.2102   65.8548 C   0  0  0  0  0  0  0  0  0  0  0  0
  -36.2618   62.5818   68.2210 O   0  0  0  0  0  0  0  0  0  0  0  0
  -36.0816   63.2152   66.9509 C   0  0  0  0  0  0  0  0  0  0  0  0
  -37.1501   62.1950   68.2662 H   0  0  0  0  0  0  0  0  0  0  0  0
  -33.7323   62.8276   66.5650 O   0  0  0  0  0  0  0  0  0  0  0  0
  -34.7024   63.8235   66.8630 C   0  0  0  0  0  0  0  0  0  0  0  0
  -32.8544   63.2368   66.5126 H   0  0  0  0  0  0  0  0  0  0  0  0
  -38.1352   60.2761   60.8856 O   0  0  0  0  0  0  0  0  0  0  0  0
  -39.2003   59.8568   58.9491 O   0  0  0  0  0  0  0  0  0  0  0  0
  -38.3346   59.5971   59.7397 C   0  0  0  0  0  0  0  0  0  0  0  0
  -37.3381   58.4938   59.5612 C   0  0  0  0  0  0  0  0  0  0  0  0
  -37.2511   58.0498   58.1045 C   0  0  0  0  0  0  0  0  0  0  0  0
  -36.3272   56.8647   57.8756 C   0  0  0  0  0  0  0  0  0  0  0  0
  -34.8585   57.1768   58.1388 C   0  0  0  0  0  0  0  0  0  0  0  0
  -34.1018   56.0529   58.8220 C   0  0  0  0  0  0  0  0  0  0  0  0
  -34.1621   56.0826   60.3518 C   0  0  0  0  0  0  0  0  0  0  0  0
  -34.0017   57.4670   60.9835 C   0  0  0  0  0  0  0  0  0  0  0  0
  -33.2045   57.4200   62.2525 C   0  0  0  0  0  0  0  0  0  0  0  0
  -32.3414   58.3239   62.6740 C   0  0  0  0  0  0  0  0  0  0  0  0
  -31.9777   59.5929   61.9699 C   0  0  0  0  0  0  0  0  0  0  0  0
  -30.4796   59.8786   62.0214 C   0  0  0  0  0  0  0  0  0  0  0  0
  -30.1172   61.3023   61.6367 C   0  0  0  0  0  0  0  0  0  0  0  0
  -31.2015   62.3160   61.9591 C   0  0  0  0  0  0  0  0  0  0  0  0
  -31.1854   62.8207   63.3925 C   0  0  0  0  0  0  0  0  0  0  0  0
  -31.1562   64.3377   63.5000 C   0  0  0  0  0  0  0  0  0  0  0  0
  -32.5194   64.9747   63.6828 C   0  0  0  0  0  0  0  0  0  0  0  0
  -32.5314   66.0235   64.7597 C   0  0  0  0  0  0  0  0  0  0  0  0
 21 22  1  0  0  0
  4  5  2  0  0  0
 25 24  1  0  0  0
 25 26  2  0  0  0
 25 27  1  0  0  0
 25 29  1  0  0  0
 22 20  1  0  0  0
  3  5  1  0  0  0
  3  2  1  0  0  0
 20 19  1  0  0  0
 24 23  1  0  0  0
 19 18  1  0  0  0
 18 17  1  0  0  0
 27 28  1  0  0  0
 17 16  1  0  0  0
 29 30  1  0  0  0
 16 15  1  0  0  0
 34 35  1  0  0  0
 34 36  1  0  0  0
 15 14  1  0  0  0
 31 32  1  0  0  0
 31 33  1  0  0  0
 14 13  1  0  0  0
 37  1  1  0  0  0
 37 39  1  0  0  0
 13 12  1  0  0  0
 38 39  2  0  0  0
 12 11  1  0  0  0
 11 10  1  0  0  0
 10  9  1  0  0  0
  9  8  1  0  0  0
  8  7  1  0  0  0
  7  6  1  0  0  0
  6  5  1  0  0  0
  2  1  1  0  0  0
  1 23  1  0  0  0
 30 32  1  0  0  0
 32 35  1  0  0  0
 39 40  1  0  0  0
 40 41  1  0  0  0
 41 42  1  0  0  0
 42 43  1  0  0  0
 43 44  1  0  0  0
 44 45  1  0  0  0
 45 46  1  0  0  0
 46 47  1  0  0  0
 47 48  2  0  0  0
 48 49  1  0  0  0
 49 50  1  0  0  0
 50 51  1  0  0  0
 51 52  1  0  0  0
 52 53  1  0  0  0
 53 54  1  0  0  0
 54 55  1  0  0  0
 55 56  1  0  0  0
M  CHG 1  26  -1
M  END
> <minimizedAffinity>
-8.96245

> <CNNscore>
0.8708450794

> <CNNaffinity>
7.4570093155

> <CNN_VS>
6.4938998222

> <CNNaffinity_variance>
0.5628258586

$$$$
/media/chris/experiments/cd1a-new-docking/inputs/ligands/7sh4_ligand.pdb


 56 55  0  0  0  0  0  0  0  0999 V2000
  -39.0162   58.4652   64.1296 C   0  0  0  0  0  0  0  0  0  0  0  0
  -38.9043   57.8432   62.7665 C   0  0  0  0  0  0  0  0  0  0  0  0
  -38.9997   58.9641   61.8623 O   0  0  0  0  0  0  0  0  0  0  0  0
  -36.8595   59.4029   61.3862 O   0  0  0  0  0  0  0  0  0  0  0  0
  -37.9786   59.1544   61.0262 C   0  0  0  0  0  0  0  0  0  0  0  0
  -38.3858   58.8946   59.6044 C   0  0  0  0  0  0  0  0  0  0  0  0
  -37.2217   58.8022   58.6324 C   0  0  0  0  0  0  0  0  0  0  0  0
  -37.2632   57.5478   57.7856 C   0  0  0  0  0  0  0  0  0  0  0  0
  -36.2021   56.5290   58.1355 C   0  0  0  0  0  0  0  0  0  0  0  0
  -36.5041   55.7730   59.4135 C   0  0  0  0  0  0  0  0  0  0  0  0
  -35.5954   56.1526   60.5570 C   0  0  0  0  0  0  0  0  0  0  0  0
  -34.1439   55.8678   60.2748 C   0  0  0  0  0  0  0  0  0  0  0  0
  -33.2072   56.4311   61.3204 C   0  0  0  0  0  0  0  0  0  0  0  0
  -33.6019   57.8229   61.7710 C   0  0  0  0  0  0  0  0  0  0  0  0
  -32.5129   58.5621   62.5201 C   0  0  0  0  0  0  0  0  0  0  0  0
  -31.5843   59.3687   61.6195 C   0  0  0  0  0  0  0  0  0  0  0  0
  -30.4862   60.1019   62.3656 C   0  0  0  0  0  0  0  0  0  0  0  0
  -30.1319   61.4409   61.7519 C   0  0  0  0  0  0  0  0  0  0  0  0
  -31.1939   62.5104   61.9657 C   0  0  0  0  0  0  0  0  0  0  0  0
  -30.6445   63.8078   62.5314 C   0  0  0  0  0  0  0  0  0  0  0  0
  -31.8986   63.1982   64.6269 C   0  0  0  0  0  0  0  0  0  0  0  0
  -30.7031   63.9163   64.0433 C   0  0  0  0  0  0  0  0  0  0  0  0
  -37.7417   58.3255   64.9221 C   0  0  0  0  0  0  0  0  0  0  0  0
  -36.8914   59.4592   64.6392 O   0  0  0  0  0  0  0  0  0  0  0  0
  -37.3187   60.9667   64.9657 P   0  0  0  0  0  0  0  0  0  0  0  0
  -38.0594   61.4953   63.8000 O   0  0  0  0  0  0  0  0  0  0  0  0
  -37.9765   60.9826   66.2944 O   0  0  0  0  0  0  0  0  0  0  0  0
  -38.8135   60.4947   66.2467 H   0  0  0  0  0  0  0  0  0  0  0  0
  -35.9507   61.7769   65.0866 O   0  0  0  0  0  0  0  0  0  0  0  0
  -35.3697   62.0226   66.3835 C   0  0  0  0  0  0  0  0  0  0  0  0
  -34.4147   64.0224   67.2953 O   0  0  0  0  0  0  0  0  0  0  0  0
  -35.6141   63.4662   66.7485 C   0  0  0  0  0  0  0  0  0  0  0  0
  -34.1260   63.4878   68.0514 H   0  0  0  0  0  0  0  0  0  0  0  0
  -34.9796   64.6387   64.7383 O   0  0  0  0  0  0  0  0  0  0  0  0
  -36.0785   64.2867   65.5692 C   0  0  0  0  0  0  0  0  0  0  0  0
  -35.2973   65.1644   63.9875 H   0  0  0  0  0  0  0  0  0  0  0  0
  -40.1549   57.8551   64.8232 O   0  0  0  0  0  0  0  0  0  0  0  0
  -40.8171   59.8667   65.5817 O   0  0  0  0  0  0  0  0  0  0  0  0
  -41.0119   58.6902   65.4415 C   0  0  0  0  0  0  0  0  0  0  0  0
  -42.2422   57.9806   65.9157 C   0  0  0  0  0  0  0  0  0  0  0  0
  -43.3271   58.9656   66.3393 C   0  0  0  0  0  0  0  0  0  0  0  0
  -44.4876   59.0620   65.3624 C   0  0  0  0  0  0  0  0  0  0  0  0
  -45.8554   59.0061   66.0330 C   0  0  0  0  0  0  0  0  0  0  0  0
  -46.4278   57.6058   66.1512 C   0  0  0  0  0  0  0  0  0  0  0  0
  -47.9353   57.5107   65.8997 C   0  0  0  0  0  0  0  0  0  0  0  0
  -48.3958   57.9763   64.5167 C   0  0  0  0  0  0  0  0  0  0  0  0
  -49.8451   58.3601   64.5034 C   0  0  0  0  0  0  0  0  0  0  0  0
  -50.5891   58.5895   63.4388 C   0  0  0  0  0  0  0  0  0  0  0  0
  -50.1390   58.5120   62.0141 C   0  0  0  0  0  0  0  0  0  0  0  0
  -50.9046   57.4592   61.2180 C   0  0  0  0  0  0  0  0  0  0  0  0
  -50.0256   56.6363   60.2926 C   0  0  0  0  0  0  0  0  0  0  0  0
  -49.3141   57.4614   59.2341 C   0  0  0  0  0  0  0  0  0  0  0  0
  -47.7977   57.4415   59.3344 C   0  0  0  0  0  0  0  0  0  0  0  0
  -47.1013   57.4488   57.9821 C   0  0  0  0  0  0  0  0  0  0  0  0
  -47.8027   56.6298   56.9168 C   0  0  0  0  0  0  0  0  0  0  0  0
  -47.6673   55.1491   57.1386 C   0  0  0  0  0  0  0  0  0  0  0  0
 21 22  1  0  0  0
  4  5  2  0  0  0
 25 24  1  0  0  0
 25 26  2  0  0  0
 25 27  1  0  0  0
 25 29  1  0  0  0
 22 20  1  0  0  0
  3  5  1  0  0  0
  3  2  1  0  0  0
 20 19  1  0  0  0
 24 23  1  0  0  0
 19 18  1  0  0  0
 18 17  1  0  0  0
 27 28  1  0  0  0
 17 16  1  0  0  0
 29 30  1  0  0  0
 16 15  1  0  0  0
 34 35  1  0  0  0
 34 36  1  0  0  0
 15 14  1  0  0  0
 31 32  1  0  0  0
 31 33  1  0  0  0
 14 13  1  0  0  0
 37  1  1  0  0  0
 37 39  1  0  0  0
 13 12  1  0  0  0
 38 39  2  0  0  0
 12 11  1  0  0  0
 11 10  1  0  0  0
 10  9  1  0  0  0
  9  8  1  0  0  0
  8  7  1  0  0  0
  7  6  1  0  0  0
  6  5  1  0  0  0
  2  1  1  0  0  0
  1 23  1  0  0  0
 30 32  1  0  0  0
 32 35  1  0  0  0
 39 40  1  0  0  0
 40 41  1  0  0  0
 41 42  1  0  0  0
 42 43  1  0  0  0
 43 44  1  0  0  0
 44 45  1  0  0  0
 45 46  1  0  0  0
 46 47  1  0  0  0
 47 48  2  0  0  0
 48 49  1  0  0  0
 49 50  1  0  0  0
 50 51  1  0  0  0
 51 52  1  0  0  0
 52 53  1  0  0  0
 53 54  1  0  0  0
 54 55  1  0  0  0
 55 56  1  0  0  0
M  CHG 1  26  -1
M  END
> <minimizedAffinity>
-8.82296

> <CNNscore>
0.8532437086

> <CNNaffinity>
7.5500855446

> <CNN_VS>
6.4420628548

> <CNNaffinity_variance>
0.3612276316

$$$$
/media/chris/experiments/cd1a-new-docking/inputs/ligands/7sh4_ligand.pdb


 56 55  0  0  0  0  0  0  0  0999 V2000
  -38.5384   60.3189   63.2697 C   0  0  0  0  0  0  0  0  0  0  0  0
  -39.0057   59.4770   62.1163 C   0  0  0  0  0  0  0  0  0  0  0  0
  -37.7835   59.0309   61.4917 O   0  0  0  0  0  0  0  0  0  0  0  0
  -38.1529   56.8767   61.9630 O   0  0  0  0  0  0  0  0  0  0  0  0
  -37.6640   57.7226   61.2637 C   0  0  0  0  0  0  0  0  0  0  0  0
  -36.9551   57.4604   59.9662 C   0  0  0  0  0  0  0  0  0  0  0  0
  -36.4848   56.0259   59.7949 C   0  0  0  0  0  0  0  0  0  0  0  0
  -34.9760   55.9005   59.7862 C   0  0  0  0  0  0  0  0  0  0  0  0
  -34.2586   57.0030   60.5319 C   0  0  0  0  0  0  0  0  0  0  0  0
  -34.0811   56.7035   62.0067 C   0  0  0  0  0  0  0  0  0  0  0  0
  -32.9563   57.4852   62.6403 C   0  0  0  0  0  0  0  0  0  0  0  0
  -32.4668   58.6172   61.7763 C   0  0  0  0  0  0  0  0  0  0  0  0
  -31.1834   59.2424   62.2763 C   0  0  0  0  0  0  0  0  0  0  0  0
  -30.8825   60.5713   61.6132 C   0  0  0  0  0  0  0  0  0  0  0  0
  -29.7769   61.3600   62.2832 C   0  0  0  0  0  0  0  0  0  0  0  0
  -30.0110   62.8663   62.2885 C   0  0  0  0  0  0  0  0  0  0  0  0
  -31.4176   63.2727   61.8930 C   0  0  0  0  0  0  0  0  0  0  0  0
  -31.9870   64.3838   62.7511 C   0  0  0  0  0  0  0  0  0  0  0  0
  -31.3285   64.4968   64.1190 C   0  0  0  0  0  0  0  0  0  0  0  0
  -32.2736   64.2154   65.2734 C   0  0  0  0  0  0  0  0  0  0  0  0
  -32.4916   66.7230   65.2620 C   0  0  0  0  0  0  0  0  0  0  0  0
  -32.7297   65.4456   66.0348 C   0  0  0  0  0  0  0  0  0  0  0  0
  -37.0815   60.6860   63.1489 C   0  0  0  0  0  0  0  0  0  0  0  0
  -36.9488   62.1175   63.2962 O   0  0  0  0  0  0  0  0  0  0  0  0
  -35.5750   62.8934   63.0272 P   0  0  0  0  0  0  0  0  0  0  0  0
  -34.4638   61.9364   63.2174 O   0  0  0  0  0  0  0  0  0  0  0  0
  -35.6911   63.6013   61.7295 O   0  0  0  0  0  0  0  0  0  0  0  0
  -35.7515   62.9520   61.0114 H   0  0  0  0  0  0  0  0  0  0  0  0
  -35.4784   63.9929   64.1780 O   0  0  0  0  0  0  0  0  0  0  0  0
  -36.4316   63.9904   65.2602 C   0  0  0  0  0  0  0  0  0  0  0  0
  -36.2583   64.0181   67.6502 O   0  0  0  0  0  0  0  0  0  0  0  0
  -35.7769   63.3691   66.4695 C   0  0  0  0  0  0  0  0  0  0  0  0
  -36.0955   64.9721   67.5839 H   0  0  0  0  0  0  0  0  0  0  0  0
  -37.4084   61.5930   66.4247 O   0  0  0  0  0  0  0  0  0  0  0  0
  -36.0224   61.8818   66.5556 C   0  0  0  0  0  0  0  0  0  0  0  0
  -37.5459   60.6345   66.4824 H   0  0  0  0  0  0  0  0  0  0  0  0
  -38.8124   59.5915   64.5129 O   0  0  0  0  0  0  0  0  0  0  0  0
  -40.2242   60.8723   65.7072 O   0  0  0  0  0  0  0  0  0  0  0  0
  -39.9835   59.8496   65.1259 C   0  0  0  0  0  0  0  0  0  0  0  0
  -40.9538   58.7184   64.9802 C   0  0  0  0  0  0  0  0  0  0  0  0
  -42.3921   59.1873   65.1754 C   0  0  0  0  0  0  0  0  0  0  0  0
  -43.1384   58.4462   66.2726 C   0  0  0  0  0  0  0  0  0  0  0  0
  -44.1187   57.4039   65.7466 C   0  0  0  0  0  0  0  0  0  0  0  0
  -45.2703   57.9872   64.9492 C   0  0  0  0  0  0  0  0  0  0  0  0
  -46.6581   57.6892   65.5237 C   0  0  0  0  0  0  0  0  0  0  0  0
  -47.8328   58.0661   64.6184 C   0  0  0  0  0  0  0  0  0  0  0  0
  -49.1427   58.0263   65.3466 C   0  0  0  0  0  0  0  0  0  0  0  0
  -50.2084   58.7599   65.0906 C   0  0  0  0  0  0  0  0  0  0  0  0
  -50.3331   59.7895   64.0123 C   0  0  0  0  0  0  0  0  0  0  0  0
  -51.4405   59.4583   63.0161 C   0  0  0  0  0  0  0  0  0  0  0  0
  -51.2358   58.1382   62.2938 C   0  0  0  0  0  0  0  0  0  0  0  0
  -50.0339   58.1312   61.3649 C   0  0  0  0  0  0  0  0  0  0  0  0
  -49.9584   56.9260   60.4422 C   0  0  0  0  0  0  0  0  0  0  0  0
  -49.6566   57.2885   58.9961 C   0  0  0  0  0  0  0  0  0  0  0  0
  -48.2971   56.8272   58.5098 C   0  0  0  0  0  0  0  0  0  0  0  0
  -47.1714   57.3230   59.3740 C   0  0  0  0  0  0  0  0  0  0  0  0
 21 22  1  0  0  0
  4  5  2  0  0  0
 25 24  1  0  0  0
 25 26  2  0  0  0
 25 27  1  0  0  0
 25 29  1  0  0  0
 22 20  1  0  0  0
  3  5  1  0  0  0
  3  2  1  0  0  0
 20 19  1  0  0  0
 24 23  1  0  0  0
 19 18  1  0  0  0
 18 17  1  0  0  0
 27 28  1  0  0  0
 17 16  1  0  0  0
 29 30  1  0  0  0
 16 15  1  0  0  0
 34 35  1  0  0  0
 34 36  1  0  0  0
 15 14  1  0  0  0
 31 32  1  0  0  0
 31 33  1  0  0  0
 14 13  1  0  0  0
 37  1  1  0  0  0
 37 39  1  0  0  0
 13 12  1  0  0  0
 38 39  2  0  0  0
 12 11  1  0  0  0
 11 10  1  0  0  0
 10  9  1  0  0  0
  9  8  1  0  0  0
  8  7  1  0  0  0
  7  6  1  0  0  0
  6  5  1  0  0  0
  2  1  1  0  0  0
  1 23  1  0  0  0
 30 32  1  0  0  0
 32 35  1  0  0  0
 39 40  1  0  0  0
 40 41  1  0  0  0
 41 42  1  0  0  0
 42 43  1  0  0  0
 43 44  1  0  0  0
 44 45  1  0  0  0
 45 46  1  0  0  0
 46 47  1  0  0  0
 47 48  2  0  0  0
 48 49  1  0  0  0
 49 50  1  0  0  0
 50 51  1  0  0  0
 51 52  1  0  0  0
 52 53  1  0  0  0
 53 54  1  0  0  0
 54 55  1  0  0  0
 55 56  1  0  0  0
M  CHG 1  26  -1
M  END
> <minimizedAffinity>
-8.51379

> <CNNscore>
0.8290950656

> <CNNaffinity>
7.2990846634

> <CNN_VS>
6.0516352654

> <CNNaffinity_variance>
0.3158651292

$$$$
/media/chris/experiments/cd1a-new-docking/inputs/ligands/7sh4_ligand.pdb


 56 55  0  0  0  0  0  0  0  0999 V2000
  -37.7757   60.1830   63.9284 C   0  0  0  0  0  0  0  0  0  0  0  0
  -38.2615   60.4842   65.3180 C   0  0  0  0  0  0  0  0  0  0  0  0
  -39.2442   59.4587   65.5743 O   0  0  0  0  0  0  0  0  0  0  0  0
  -40.7681   60.9656   66.2119 O   0  0  0  0  0  0  0  0  0  0  0  0
  -40.4904   59.8642   65.8202 C   0  0  0  0  0  0  0  0  0  0  0  0
  -41.4900   58.8154   65.4258 C   0  0  0  0  0  0  0  0  0  0  0  0
  -42.3182   58.2814   66.5823 C   0  0  0  0  0  0  0  0  0  0  0  0
  -43.7546   58.7587   66.5443 C   0  0  0  0  0  0  0  0  0  0  0  0
  -44.3576   58.7984   65.1584 C   0  0  0  0  0  0  0  0  0  0  0  0
  -45.8578   58.5853   65.1578 C   0  0  0  0  0  0  0  0  0  0  0  0
  -46.6377   59.8515   65.4151 C   0  0  0  0  0  0  0  0  0  0  0  0
  -47.9908   59.5956   66.0243 C   0  0  0  0  0  0  0  0  0  0  0  0
  -48.4603   58.1665   65.8654 C   0  0  0  0  0  0  0  0  0  0  0  0
  -49.9660   58.0560   65.7359 C   0  0  0  0  0  0  0  0  0  0  0  0
  -50.5591   58.9328   64.6529 C   0  0  0  0  0  0  0  0  0  0  0  0
  -50.4460   58.3428   63.2519 C   0  0  0  0  0  0  0  0  0  0  0  0
  -49.4663   59.0725   62.3532 C   0  0  0  0  0  0  0  0  0  0  0  0
  -49.6975   58.8173   60.8779 C   0  0  0  0  0  0  0  0  0  0  0  0
  -50.2381   57.4264   60.5766 C   0  0  0  0  0  0  0  0  0  0  0  0
  -49.2280   56.5146   59.9032 C   0  0  0  0  0  0  0  0  0  0  0  0
  -46.9170   57.1681   59.1495 C   0  0  0  0  0  0  0  0  0  0  0  0
  -48.3935   57.1787   58.8245 C   0  0  0  0  0  0  0  0  0  0  0  0
  -36.3343   60.5783   63.7344 C   0  0  0  0  0  0  0  0  0  0  0  0
  -36.2627   61.5815   62.6966 O   0  0  0  0  0  0  0  0  0  0  0  0
  -35.4412   62.9450   62.8635 P   0  0  0  0  0  0  0  0  0  0  0  0
  -34.0885   62.6072   63.3564 O   0  0  0  0  0  0  0  0  0  0  0  0
  -35.5682   63.7176   61.6044 O   0  0  0  0  0  0  0  0  0  0  0  0
  -35.1166   63.2446   60.8879 H   0  0  0  0  0  0  0  0  0  0  0  0
  -36.1945   63.7541   64.0127 O   0  0  0  0  0  0  0  0  0  0  0  0
  -35.4365   64.4039   65.0534 C   0  0  0  0  0  0  0  0  0  0  0  0
  -33.7804   63.3877   66.4561 O   0  0  0  0  0  0  0  0  0  0  0  0
  -35.1781   63.4010   66.1508 C   0  0  0  0  0  0  0  0  0  0  0  0
  -33.2752   63.2000   65.6496 H   0  0  0  0  0  0  0  0  0  0  0  0
  -36.2974   62.4878   68.0826 O   0  0  0  0  0  0  0  0  0  0  0  0
  -35.9807   63.6921   67.3962 C   0  0  0  0  0  0  0  0  0  0  0  0
  -36.8121   62.6950   68.8783 H   0  0  0  0  0  0  0  0  0  0  0  0
  -38.6570   60.8628   62.9739 O   0  0  0  0  0  0  0  0  0  0  0  0
  -40.7263   60.2767   62.3146 O   0  0  0  0  0  0  0  0  0  0  0  0
  -39.5392   60.0963   62.3045 C   0  0  0  0  0  0  0  0  0  0  0  0
  -38.8623   59.0058   61.5332 C   0  0  0  0  0  0  0  0  0  0  0  0
  -38.2205   59.5399   60.2567 C   0  0  0  0  0  0  0  0  0  0  0  0
  -37.5050   58.4791   59.4362 C   0  0  0  0  0  0  0  0  0  0  0  0
  -37.2238   57.1963   60.2103 C   0  0  0  0  0  0  0  0  0  0  0  0
  -36.6013   56.0945   59.3731 C   0  0  0  0  0  0  0  0  0  0  0  0
  -35.5743   56.5785   58.3455 C   0  0  0  0  0  0  0  0  0  0  0  0
  -34.2054   56.9516   58.9184 C   0  0  0  0  0  0  0  0  0  0  0  0
  -33.8320   56.0965   60.0920 C   0  0  0  0  0  0  0  0  0  0  0  0
  -33.5323   56.5140   61.3067 C   0  0  0  0  0  0  0  0  0  0  0  0
  -33.5045   57.9365   61.7693 C   0  0  0  0  0  0  0  0  0  0  0  0
  -32.1020   58.3952   62.1579 C   0  0  0  0  0  0  0  0  0  0  0  0
  -31.8985   59.8959   62.0458 C   0  0  0  0  0  0  0  0  0  0  0  0
  -30.4702   60.2948   61.7170 C   0  0  0  0  0  0  0  0  0  0  0  0
  -29.8104   61.1861   62.7563 C   0  0  0  0  0  0  0  0  0  0  0  0
  -30.5610   62.4857   63.0036 C   0  0  0  0  0  0  0  0  0  0  0  0
  -30.5141   63.4614   61.8445 C   0  0  0  0  0  0  0  0  0  0  0  0
  -31.5445   64.5501   61.9589 C   0  0  0  0  0  0  0  0  0  0  0  0
 21 22  1  0  0  0
  4  5  2  0  0  0
 25 24  1  0  0  0
 25 26  2  0  0  0
 25 27  1  0  0  0
 25 29  1  0  0  0
 22 20  1  0  0  0
  3  5  1  0  0  0
  3  2  1  0  0  0
 20 19  1  0  0  0
 24 23  1  0  0  0
 19 18  1  0  0  0
 18 17  1  0  0  0
 27 28  1  0  0  0
 17 16  1  0  0  0
 29 30  1  0  0  0
 16 15  1  0  0  0
 34 35  1  0  0  0
 34 36  1  0  0  0
 15 14  1  0  0  0
 31 32  1  0  0  0
 31 33  1  0  0  0
 14 13  1  0  0  0
 37  1  1  0  0  0
 37 39  1  0  0  0
 13 12  1  0  0  0
 38 39  2  0  0  0
 12 11  1  0  0  0
 11 10  1  0  0  0
 10  9  1  0  0  0
  9  8  1  0  0  0
  8  7  1  0  0  0
  7  6  1  0  0  0
  6  5  1  0  0  0
  2  1  1  0  0  0
  1 23  1  0  0  0
 30 32  1  0  0  0
 32 35  1  0  0  0
 39 40  1  0  0  0
 40 41  1  0  0  0
 41 42  1  0  0  0
 42 43  1  0  0  0
 43 44  1  0  0  0
 44 45  1  0  0  0
 45 46  1  0  0  0
 46 47  1  0  0  0
 47 48  2  0  0  0
 48 49  1  0  0  0
 49 50  1  0  0  0
 50 51  1  0  0  0
 51 52  1  0  0  0
 52 53  1  0  0  0
 53 54  1  0  0  0
 54 55  1  0  0  0
 55 56  1  0  0  0
M  CHG 1  26  -1
M  END
> <minimizedAffinity>
-8.84654

> <CNNscore>
0.8169409633

> <CNNaffinity>
7.5506181717

> <CNN_VS>
6.1684093475

> <CNNaffinity_variance>
0.5318857431

$$$$
/media/chris/experiments/cd1a-new-docking/inputs/ligands/7sh4_ligand.pdb


 56 55  0  0  0  0  0  0  0  0999 V2000
  -38.9154   60.6526   63.1258 C   0  0  0  0  0  0  0  0  0  0  0  0
  -39.5189   60.4325   61.7675 C   0  0  0  0  0  0  0  0  0  0  0  0
  -38.8400   59.2602   61.2695 O   0  0  0  0  0  0  0  0  0  0  0  0
  -39.0029   60.0200   59.1729 O   0  0  0  0  0  0  0  0  0  0  0  0
  -38.5655   59.2295   59.9650 C   0  0  0  0  0  0  0  0  0  0  0  0
  -37.5521   58.1676   59.6486 C   0  0  0  0  0  0  0  0  0  0  0  0
  -37.3094   57.9643   58.1627 C   0  0  0  0  0  0  0  0  0  0  0  0
  -36.3177   56.8566   57.8767 C   0  0  0  0  0  0  0  0  0  0  0  0
  -34.8768   57.3124   57.8287 C   0  0  0  0  0  0  0  0  0  0  0  0
  -33.9409   56.4028   58.5986 C   0  0  0  0  0  0  0  0  0  0  0  0
  -34.6470   55.5662   59.6375 C   0  0  0  0  0  0  0  0  0  0  0  0
  -34.7769   56.2637   60.9657 C   0  0  0  0  0  0  0  0  0  0  0  0
  -33.7834   57.3890   61.1526 C   0  0  0  0  0  0  0  0  0  0  0  0
  -33.5281   57.7080   62.6118 C   0  0  0  0  0  0  0  0  0  0  0  0
  -32.1817   58.3481   62.8779 C   0  0  0  0  0  0  0  0  0  0  0  0
  -31.7259   59.3031   61.7806 C   0  0  0  0  0  0  0  0  0  0  0  0
  -30.5653   60.1933   62.1813 C   0  0  0  0  0  0  0  0  0  0  0  0
  -30.5027   61.4893   61.3993 C   0  0  0  0  0  0  0  0  0  0  0  0
  -31.0114   62.6958   62.1758 C   0  0  0  0  0  0  0  0  0  0  0  0
  -30.4887   62.7665   63.5995 C   0  0  0  0  0  0  0  0  0  0  0  0
  -32.2514   64.5579   63.7407 C   0  0  0  0  0  0  0  0  0  0  0  0
  -31.2035   63.7658   64.4892 C   0  0  0  0  0  0  0  0  0  0  0  0
  -37.4089   60.6639   63.0810 C   0  0  0  0  0  0  0  0  0  0  0  0
  -36.9747   61.8162   62.3246 O   0  0  0  0  0  0  0  0  0  0  0  0
  -35.8763   62.8462   62.8672 P   0  0  0  0  0  0  0  0  0  0  0  0
  -34.6444   62.0854   63.1682 O   0  0  0  0  0  0  0  0  0  0  0  0
  -35.7981   63.9811   61.9162 O   0  0  0  0  0  0  0  0  0  0  0  0
  -35.4447   63.6688   61.0685 H   0  0  0  0  0  0  0  0  0  0  0  0
  -36.4600   63.4000   64.2438 O   0  0  0  0  0  0  0  0  0  0  0  0
  -35.7791   64.4634   64.9406 C   0  0  0  0  0  0  0  0  0  0  0  0
  -36.9415   64.0209   66.9889 O   0  0  0  0  0  0  0  0  0  0  0  0
  -35.6426   64.0708   66.3912 C   0  0  0  0  0  0  0  0  0  0  0  0
  -37.3844   64.8758   66.8716 H   0  0  0  0  0  0  0  0  0  0  0  0
  -34.1975   62.7269   67.7782 O   0  0  0  0  0  0  0  0  0  0  0  0
  -34.9380   62.7467   66.5645 C   0  0  0  0  0  0  0  0  0  0  0  0
  -33.7528   61.8699   67.8717 H   0  0  0  0  0  0  0  0  0  0  0  0
  -39.4226   59.6154   64.0297 O   0  0  0  0  0  0  0  0  0  0  0  0
  -39.4070   60.6519   66.0261 O   0  0  0  0  0  0  0  0  0  0  0  0
  -39.9887   60.0307   65.1790 C   0  0  0  0  0  0  0  0  0  0  0  0
  -41.4322   59.6418   65.2655 C   0  0  0  0  0  0  0  0  0  0  0  0
  -41.5943   58.1891   65.7012 C   0  0  0  0  0  0  0  0  0  0  0  0
  -43.0084   57.8269   66.1249 C   0  0  0  0  0  0  0  0  0  0  0  0
  -44.0327   58.9150   65.8237 C   0  0  0  0  0  0  0  0  0  0  0  0
  -45.1975   58.4468   64.9714 C   0  0  0  0  0  0  0  0  0  0  0  0
  -46.2072   57.5595   65.7049 C   0  0  0  0  0  0  0  0  0  0  0  0
  -47.6389   57.6205   65.1684 C   0  0  0  0  0  0  0  0  0  0  0  0
  -47.9273   58.9179   64.4745 C   0  0  0  0  0  0  0  0  0  0  0  0
  -48.9029   59.1531   63.6186 C   0  0  0  0  0  0  0  0  0  0  0  0
  -49.9321   58.1684   63.1609 C   0  0  0  0  0  0  0  0  0  0  0  0
  -50.5724   58.5691   61.8351 C   0  0  0  0  0  0  0  0  0  0  0  0
  -50.9119   57.3895   60.9410 C   0  0  0  0  0  0  0  0  0  0  0  0
  -50.2108   57.4236   59.5939 C   0  0  0  0  0  0  0  0  0  0  0  0
  -48.7155   57.1587   59.6555 C   0  0  0  0  0  0  0  0  0  0  0  0
  -48.3341   55.7436   59.2486 C   0  0  0  0  0  0  0  0  0  0  0  0
  -47.3980   55.6695   58.0586 C   0  0  0  0  0  0  0  0  0  0  0  0
  -47.9092   56.4322   56.8683 C   0  0  0  0  0  0  0  0  0  0  0  0
 21 22  1  0  0  0
  4  5  2  0  0  0
 25 24  1  0  0  0
 25 26  2  0  0  0
 25 27  1  0  0  0
 25 29  1  0  0  0
 22 20  1  0  0  0
  3  5  1  0  0  0
  3  2  1  0  0  0
 20 19  1  0  0  0
 24 23  1  0  0  0
 19 18  1  0  0  0
 18 17  1  0  0  0
 27 28  1  0  0  0
 17 16  1  0  0  0
 29 30  1  0  0  0
 16 15  1  0  0  0
 34 35  1  0  0  0
 34 36  1  0  0  0
 15 14  1  0  0  0
 31 32  1  0  0  0
 31 33  1  0  0  0
 14 13  1  0  0  0
 37  1  1  0  0  0
 37 39  1  0  0  0
 13 12  1  0  0  0
 38 39  2  0  0  0
 12 11  1  0  0  0
 11 10  1  0  0  0
 10  9  1  0  0  0
  9  8  1  0  0  0
  8  7  1  0  0  0
  7  6  1  0  0  0
  6  5  1  0  0  0
  2  1  1  0  0  0
  1 23  1  0  0  0
 30 32  1  0  0  0
 32 35  1  0  0  0
 39 40  1  0  0  0
 40 41  1  0  0  0
 41 42  1  0  0  0
 42 43  1  0  0  0
 43 44  1  0  0  0
 44 45  1  0  0  0
 45 46  1  0  0  0
 46 47  1  0  0  0
 47 48  2  0  0  0
 48 49  1  0  0  0
 49 50  1  0  0  0
 50 51  1  0  0  0
 51 52  1  0  0  0
 52 53  1  0  0  0
 53 54  1  0  0  0
 54 55  1  0  0  0
 55 56  1  0  0  0
M  CHG 1  26  -1
M  END
> <minimizedAffinity>
-9.08596

> <CNNscore>
0.7724862695

> <CNNaffinity>
7.4724044800

> <CNN_VS>
5.7723298073

> <CNNaffinity_variance>
0.5864953995

$$$$
/media/chris/experiments/cd1a-new-docking/inputs/ligands/7sh4_ligand.pdb


 56 55  0  0  0  0  0  0  0  0999 V2000
  -37.0181   60.0857   64.2283 C   0  0  0  0  0  0  0  0  0  0  0  0
  -38.1487   60.9289   63.7103 C   0  0  0  0  0  0  0  0  0  0  0  0
  -39.1348   60.8755   64.7628 O   0  0  0  0  0  0  0  0  0  0  0  0
  -40.7564   60.0265   63.4787 O   0  0  0  0  0  0  0  0  0  0  0  0
  -40.2105   60.1182   64.5450 C   0  0  0  0  0  0  0  0  0  0  0  0
  -40.5622   59.3124   65.7623 C   0  0  0  0  0  0  0  0  0  0  0  0
  -41.7733   58.4128   65.5824 C   0  0  0  0  0  0  0  0  0  0  0  0
  -43.0669   59.0811   65.9977 C   0  0  0  0  0  0  0  0  0  0  0  0
  -44.3128   58.3497   65.5517 C   0  0  0  0  0  0  0  0  0  0  0  0
  -45.5347   59.2436   65.4880 C   0  0  0  0  0  0  0  0  0  0  0  0
  -46.7252   58.5772   64.8429 C   0  0  0  0  0  0  0  0  0  0  0  0
  -48.0297   59.2503   65.1783 C   0  0  0  0  0  0  0  0  0  0  0  0
  -48.4018   60.3535   64.2125 C   0  0  0  0  0  0  0  0  0  0  0  0
  -49.7790   60.1637   63.6096 C   0  0  0  0  0  0  0  0  0  0  0  0
  -50.3361   58.7646   63.7694 C   0  0  0  0  0  0  0  0  0  0  0  0
  -50.9368   58.1911   62.4910 C   0  0  0  0  0  0  0  0  0  0  0  0
  -49.9262   57.5146   61.5848 C   0  0  0  0  0  0  0  0  0  0  0  0
  -50.3996   57.3767   60.1524 C   0  0  0  0  0  0  0  0  0  0  0  0
  -49.2670   57.3454   59.1357 C   0  0  0  0  0  0  0  0  0  0  0  0
  -47.8888   57.2418   59.7643 C   0  0  0  0  0  0  0  0  0  0  0  0
  -46.9996   57.1545   57.4111 C   0  0  0  0  0  0  0  0  0  0  0  0
  -46.7401   57.5880   58.8361 C   0  0  0  0  0  0  0  0  0  0  0  0
  -35.7143   60.8415   64.2552 C   0  0  0  0  0  0  0  0  0  0  0  0
  -35.6824   61.7539   63.1349 O   0  0  0  0  0  0  0  0  0  0  0  0
  -35.0531   63.2225   63.2301 P   0  0  0  0  0  0  0  0  0  0  0  0
  -34.1966   63.4315   62.0429 O   0  0  0  0  0  0  0  0  0  0  0  0
  -36.1541   64.1805   63.4916 O   0  0  0  0  0  0  0  0  0  0  0  0
  -36.7427   64.2147   62.7213 H   0  0  0  0  0  0  0  0  0  0  0  0
  -34.1111   63.1959   64.5164 O   0  0  0  0  0  0  0  0  0  0  0  0
  -34.1706   64.2702   65.4767 C   0  0  0  0  0  0  0  0  0  0  0  0
  -34.3089   64.6818   67.8334 O   0  0  0  0  0  0  0  0  0  0  0  0
  -34.5025   63.6837   66.8268 C   0  0  0  0  0  0  0  0  0  0  0  0
  -33.4009   65.0192   67.7838 H   0  0  0  0  0  0  0  0  0  0  0  0
  -36.8564   64.1890   66.6791 O   0  0  0  0  0  0  0  0  0  0  0  0
  -35.9123   63.1469   66.8896 C   0  0  0  0  0  0  0  0  0  0  0  0
  -37.7546   63.8253   66.7230 H   0  0  0  0  0  0  0  0  0  0  0  0
  -36.9269   58.8779   63.4019 O   0  0  0  0  0  0  0  0  0  0  0  0
  -37.6319   57.3837   64.9286 O   0  0  0  0  0  0  0  0  0  0  0  0
  -37.6378   57.8072   63.8051 C   0  0  0  0  0  0  0  0  0  0  0  0
  -38.4487   57.2210   62.6911 C   0  0  0  0  0  0  0  0  0  0  0  0
  -37.9715   57.7190   61.3306 C   0  0  0  0  0  0  0  0  0  0  0  0
  -38.8336   58.8235   60.7415 C   0  0  0  0  0  0  0  0  0  0  0  0
  -38.3045   59.3711   59.4208 C   0  0  0  0  0  0  0  0  0  0  0  0
  -37.0659   58.6591   58.9096 C   0  0  0  0  0  0  0  0  0  0  0  0
  -37.3277   57.6552   57.7833 C   0  0  0  0  0  0  0  0  0  0  0  0
  -36.3315   56.4969   57.6983 C   0  0  0  0  0  0  0  0  0  0  0  0
  -36.4381   55.5725   58.8739 C   0  0  0  0  0  0  0  0  0  0  0  0
  -35.5027   55.3287   59.7711 C   0  0  0  0  0  0  0  0  0  0  0  0
  -34.1327   55.9292   59.8035 C   0  0  0  0  0  0  0  0  0  0  0  0
  -34.0860   57.2308   60.5986 C   0  0  0  0  0  0  0  0  0  0  0  0
  -33.8001   57.0320   62.0768 C   0  0  0  0  0  0  0  0  0  0  0  0
  -32.8553   58.0687   62.6599 C   0  0  0  0  0  0  0  0  0  0  0  0
  -32.1005   58.8859   61.6244 C   0  0  0  0  0  0  0  0  0  0  0  0
  -31.0381   59.7931   62.2260 C   0  0  0  0  0  0  0  0  0  0  0  0
  -31.4487   61.2486   62.3289 C   0  0  0  0  0  0  0  0  0  0  0  0
  -30.3203   62.1417   62.7637 C   0  0  0  0  0  0  0  0  0  0  0  0
 21 22  1  0  0  0
  4  5  2  0  0  0
 25 24  1  0  0  0
 25 26  2  0  0  0
 25 27  1  0  0  0
 25 29  1  0  0  0
 22 20  1  0  0  0
  3  5  1  0  0  0
  3  2  1  0  0  0
 20 19  1  0  0  0
 24 23  1  0  0  0
 19 18  1  0  0  0
 18 17  1  0  0  0
 27 28  1  0  0  0
 17 16  1  0  0  0
 29 30  1  0  0  0
 16 15  1  0  0  0
 34 35  1  0  0  0
 34 36  1  0  0  0
 15 14  1  0  0  0
 31 32  1  0  0  0
 31 33  1  0  0  0
 14 13  1  0  0  0
 37  1  1  0  0  0
 37 39  1  0  0  0
 13 12  1  0  0  0
 38 39  2  0  0  0
 12 11  1  0  0  0
 11 10  1  0  0  0
 10  9  1  0  0  0
  9  8  1  0  0  0
  8  7  1  0  0  0
  7  6  1  0  0  0
  6  5  1  0  0  0
  2  1  1  0  0  0
  1 23  1  0  0  0
 30 32  1  0  0  0
 32 35  1  0  0  0
 39 40  1  0  0  0
 40 41  1  0  0  0
 41 42  1  0  0  0
 42 43  1  0  0  0
 43 44  1  0  0  0
 44 45  1  0  0  0
 45 46  1  0  0  0
 46 47  1  0  0  0
 47 48  2  0  0  0
 48 49  1  0  0  0
 49 50  1  0  0  0
 50 51  1  0  0  0
 51 52  1  0  0  0
 52 53  1  0  0  0
 53 54  1  0  0  0
 54 55  1  0  0  0
 55 56  1  0  0  0
M  CHG 1  26  -1
M  END
> <minimizedAffinity>
-8.98555

> <CNNscore>
0.7696282864

> <CNNaffinity>
7.7554216385

> <CNN_VS>
5.9687919617

> <CNNaffinity_variance>
0.6428309679

$$$$
/media/chris/experiments/cd1a-new-docking/inputs/ligands/7sh4_ligand.pdb


 56 55  0  0  0  0  0  0  0  0999 V2000
  -38.2813   59.9503   60.8312 C   0  0  0  0  0  0  0  0  0  0  0  0
  -37.6765   59.0157   59.8221 C   0  0  0  0  0  0  0  0  0  0  0  0
  -36.5482   58.4386   60.5128 O   0  0  0  0  0  0  0  0  0  0  0  0
  -37.0327   56.2558   60.5161 O   0  0  0  0  0  0  0  0  0  0  0  0
  -36.2787   57.1567   60.2640 C   0  0  0  0  0  0  0  0  0  0  0  0
  -34.9811   57.0090   59.5229 C   0  0  0  0  0  0  0  0  0  0  0  0
  -33.9457   56.1649   60.2466 C   0  0  0  0  0  0  0  0  0  0  0  0
  -33.8013   56.5387   61.7067 C   0  0  0  0  0  0  0  0  0  0  0  0
  -32.5114   57.2546   62.0380 C   0  0  0  0  0  0  0  0  0  0  0  0
  -32.7323   58.5902   62.7189 C   0  0  0  0  0  0  0  0  0  0  0  0
  -32.0535   59.7373   62.0109 C   0  0  0  0  0  0  0  0  0  0  0  0
  -30.5700   59.7901   62.2644 C   0  0  0  0  0  0  0  0  0  0  0  0
  -30.0527   61.1898   62.5122 C   0  0  0  0  0  0  0  0  0  0  0  0
  -30.5891   62.1970   61.5153 C   0  0  0  0  0  0  0  0  0  0  0  0
  -30.6339   63.6183   62.0362 C   0  0  0  0  0  0  0  0  0  0  0  0
  -32.0459   64.1572   62.2353 C   0  0  0  0  0  0  0  0  0  0  0  0
  -32.5972   63.9400   63.6313 C   0  0  0  0  0  0  0  0  0  0  0  0
  -31.5864   64.2110   64.7267 C   0  0  0  0  0  0  0  0  0  0  0  0
  -32.0657   65.2164   65.7644 C   0  0  0  0  0  0  0  0  0  0  0  0
  -33.0304   66.2491   65.2096 C   0  0  0  0  0  0  0  0  0  0  0  0
  -32.1365   67.8821   63.5155 C   0  0  0  0  0  0  0  0  0  0  0  0
  -32.4266   67.6210   64.9761 C   0  0  0  0  0  0  0  0  0  0  0  0
  -37.3500   60.2163   61.9861 C   0  0  0  0  0  0  0  0  0  0  0  0
  -37.3609   61.6320   62.2759 O   0  0  0  0  0  0  0  0  0  0  0  0
  -36.1001   62.4006   62.8936 P   0  0  0  0  0  0  0  0  0  0  0  0
  -35.0684   61.3946   63.2259 O   0  0  0  0  0  0  0  0  0  0  0  0
  -35.7432   63.5116   61.9789 O   0  0  0  0  0  0  0  0  0  0  0  0
  -35.4221   63.1482   61.1387 H   0  0  0  0  0  0  0  0  0  0  0  0
  -36.6215   63.0384   64.2589 O   0  0  0  0  0  0  0  0  0  0  0  0
  -35.9932   64.2240   64.7877 C   0  0  0  0  0  0  0  0  0  0  0  0
  -36.9364   64.0076   66.9800 O   0  0  0  0  0  0  0  0  0  0  0  0
  -35.7051   63.9971   66.2515 C   0  0  0  0  0  0  0  0  0  0  0  0
  -37.4030   64.8417   66.8143 H   0  0  0  0  0  0  0  0  0  0  0  0
  -34.1673   62.7983   67.6714 O   0  0  0  0  0  0  0  0  0  0  0  0
  -34.9648   62.7045   66.4981 C   0  0  0  0  0  0  0  0  0  0  0  0
  -33.7004   61.9599   67.8130 H   0  0  0  0  0  0  0  0  0  0  0  0
  -39.5549   59.3809   61.2825 O   0  0  0  0  0  0  0  0  0  0  0  0
  -39.0101   57.7770   62.7627 O   0  0  0  0  0  0  0  0  0  0  0  0
  -39.5694   58.8068   62.5008 C   0  0  0  0  0  0  0  0  0  0  0  0
  -40.3496   59.6140   63.4917 C   0  0  0  0  0  0  0  0  0  0  0  0
  -40.1235   59.1195   64.9169 C   0  0  0  0  0  0  0  0  0  0  0  0
  -41.3297   58.4241   65.5265 C   0  0  0  0  0  0  0  0  0  0  0  0
  -42.6605   59.0565   65.1352 C   0  0  0  0  0  0  0  0  0  0  0  0
  -43.6436   59.1854   66.2838 C   0  0  0  0  0  0  0  0  0  0  0  0
  -44.9755   58.4617   66.0662 C   0  0  0  0  0  0  0  0  0  0  0  0
  -46.1083   59.3325   65.5187 C   0  0  0  0  0  0  0  0  0  0  0  0
  -47.4580   58.7353   65.7827 C   0  0  0  0  0  0  0  0  0  0  0  0
  -48.5802   59.0146   65.1485 C   0  0  0  0  0  0  0  0  0  0  0  0
  -48.7402   59.9902   64.0256 C   0  0  0  0  0  0  0  0  0  0  0  0
  -49.4583   59.3826   62.8241 C   0  0  0  0  0  0  0  0  0  0  0  0
  -48.6473   58.3209   62.1022 C   0  0  0  0  0  0  0  0  0  0  0  0
  -49.0464   58.1319   60.6488 C   0  0  0  0  0  0  0  0  0  0  0  0
  -48.0170   57.4004   59.8032 C   0  0  0  0  0  0  0  0  0  0  0  0
  -48.5153   57.0533   58.4087 C   0  0  0  0  0  0  0  0  0  0  0  0
  -47.4225   56.6427   57.4419 C   0  0  0  0  0  0  0  0  0  0  0  0
  -47.5135   55.1965   57.0415 C   0  0  0  0  0  0  0  0  0  0  0  0
 21 22  1  0  0  0
  4  5  2  0  0  0
 25 24  1  0  0  0
 25 26  2  0  0  0
 25 27  1  0  0  0
 25 29  1  0  0  0
 22 20  1  0  0  0
  3  5  1  0  0  0
  3  2  1  0  0  0
 20 19  1  0  0  0
 24 23  1  0  0  0
 19 18  1  0  0  0
 18 17  1  0  0  0
 27 28  1  0  0  0
 17 16  1  0  0  0
 29 30  1  0  0  0
 16 15  1  0  0  0
 34 35  1  0  0  0
 34 36  1  0  0  0
 15 14  1  0  0  0
 31 32  1  0  0  0
 31 33  1  0  0  0
 14 13  1  0  0  0
 37  1  1  0  0  0
 37 39  1  0  0  0
 13 12  1  0  0  0
 38 39  2  0  0  0
 12 11  1  0  0  0
 11 10  1  0  0  0
 10  9  1  0  0  0
  9  8  1  0  0  0
  8  7  1  0  0  0
  7  6  1  0  0  0
  6  5  1  0  0  0
  2  1  1  0  0  0
  1 23  1  0  0  0
 30 32  1  0  0  0
 32 35  1  0  0  0
 39 40  1  0  0  0
 40 41  1  0  0  0
 41 42  1  0  0  0
 42 43  1  0  0  0
 43 44  1  0  0  0
 44 45  1  0  0  0
 45 46  1  0  0  0
 46 47  1  0  0  0
 47 48  2  0  0  0
 48 49  1  0  0  0
 49 50  1  0  0  0
 50 51  1  0  0  0
 51 52  1  0  0  0
 52 53  1  0  0  0
 53 54  1  0  0  0
 54 55  1  0  0  0
 55 56  1  0  0  0
M  CHG 1  26  -1
M  END
> <minimizedAffinity>
-8.43393

> <CNNscore>
0.6149742603

> <CNNaffinity>
7.1073288918

> <CNN_VS>
4.3708243370

> <CNNaffinity_variance>
0.5248914361

$$$$
/media/chris/experiments/cd1a-new-docking/inputs/ligands/7sh4_ligand.pdb


 56 55  0  0  0  0  0  0  0  0999 V2000
  -37.2085   60.0901   65.1196 C   0  0  0  0  0  0  0  0  0  0  0  0
  -38.6307   60.1657   65.5986 C   0  0  0  0  0  0  0  0  0  0  0  0
  -39.3457   60.7343   64.4812 O   0  0  0  0  0  0  0  0  0  0  0  0
  -41.1506   60.3135   63.2304 O   0  0  0  0  0  0  0  0  0  0  0  0
  -40.6033   60.3300   64.2999 C   0  0  0  0  0  0  0  0  0  0  0  0
  -41.1880   59.7884   65.5725 C   0  0  0  0  0  0  0  0  0  0  0  0
  -42.5067   59.0570   65.3876 C   0  0  0  0  0  0  0  0  0  0  0  0
  -42.5616   57.7467   66.1444 C   0  0  0  0  0  0  0  0  0  0  0  0
  -43.8571   56.9863   65.9729 C   0  0  0  0  0  0  0  0  0  0  0  0
  -44.8939   57.7527   65.1768 C   0  0  0  0  0  0  0  0  0  0  0  0
  -46.0430   58.2486   66.0202 C   0  0  0  0  0  0  0  0  0  0  0  0
  -46.5879   59.5722   65.5525 C   0  0  0  0  0  0  0  0  0  0  0  0
  -47.8052   59.4402   64.6643 C   0  0  0  0  0  0  0  0  0  0  0  0
  -48.6869   58.2698   65.0498 C   0  0  0  0  0  0  0  0  0  0  0  0
  -49.9504   58.1495   64.2236 C   0  0  0  0  0  0  0  0  0  0  0  0
  -49.7257   58.3220   62.7257 C   0  0  0  0  0  0  0  0  0  0  0  0
  -50.9686   58.0972   61.8863 C   0  0  0  0  0  0  0  0  0  0  0  0
  -50.6827   57.4408   60.5512 C   0  0  0  0  0  0  0  0  0  0  0  0
  -49.6915   56.2887   60.6374 C   0  0  0  0  0  0  0  0  0  0  0  0
  -48.7640   56.1941   59.4391 C   0  0  0  0  0  0  0  0  0  0  0  0
  -46.8742   57.4196   58.3155 C   0  0  0  0  0  0  0  0  0  0  0  0
  -48.2539   57.5267   58.9244 C   0  0  0  0  0  0  0  0  0  0  0  0
  -36.6126   61.4565   64.8970 C   0  0  0  0  0  0  0  0  0  0  0  0
  -36.7995   62.2459   66.0930 O   0  0  0  0  0  0  0  0  0  0  0  0
  -35.9713   63.5835   66.3875 P   0  0  0  0  0  0  0  0  0  0  0  0
  -36.1932   64.5166   65.2620 O   0  0  0  0  0  0  0  0  0  0  0  0
  -36.2969   64.0349   67.7618 O   0  0  0  0  0  0  0  0  0  0  0  0
  -37.2269   64.3080   67.8006 H   0  0  0  0  0  0  0  0  0  0  0  0
  -34.4385   63.1446   66.3664 O   0  0  0  0  0  0  0  0  0  0  0  0
  -33.5364   63.7200   65.3994 C   0  0  0  0  0  0  0  0  0  0  0  0
  -31.3907   64.6830   65.8590 O   0  0  0  0  0  0  0  0  0  0  0  0
  -32.7966   64.8587   66.0575 C   0  0  0  0  0  0  0  0  0  0  0  0
  -31.1223   63.8150   66.1987 H   0  0  0  0  0  0  0  0  0  0  0  0
  -33.8180   66.0786   64.2446 O   0  0  0  0  0  0  0  0  0  0  0  0
  -33.2323   66.2062   65.5339 C   0  0  0  0  0  0  0  0  0  0  0  0
  -34.0911   66.9531   63.9256 H   0  0  0  0  0  0  0  0  0  0  0  0
  -37.1752   59.2792   63.8984 O   0  0  0  0  0  0  0  0  0  0  0  0
  -36.8429   57.2458   64.8012 O   0  0  0  0  0  0  0  0  0  0  0  0
  -37.4243   57.9624   64.0329 C   0  0  0  0  0  0  0  0  0  0  0  0
  -38.5231   57.5041   63.1248 C   0  0  0  0  0  0  0  0  0  0  0  0
  -38.1157   57.6073   61.6585 C   0  0  0  0  0  0  0  0  0  0  0  0
  -38.7085   58.8067   60.9371 C   0  0  0  0  0  0  0  0  0  0  0  0
  -37.8411   59.3202   59.7935 C   0  0  0  0  0  0  0  0  0  0  0  0
  -37.9077   58.4697   58.5387 C   0  0  0  0  0  0  0  0  0  0  0  0
  -36.5465   58.1403   57.9196 C   0  0  0  0  0  0  0  0  0  0  0  0
  -36.2902   56.6539   57.6621 C   0  0  0  0  0  0  0  0  0  0  0  0
  -36.5924   55.8119   58.8653 C   0  0  0  0  0  0  0  0  0  0  0  0
  -35.7184   55.3211   59.7225 C   0  0  0  0  0  0  0  0  0  0  0  0
  -34.2345   55.5054   59.6731 C   0  0  0  0  0  0  0  0  0  0  0  0
  -33.6820   56.1266   60.9527 C   0  0  0  0  0  0  0  0  0  0  0  0
  -34.1413   57.5555   61.1842 C   0  0  0  0  0  0  0  0  0  0  0  0
  -33.9442   58.0357   62.6118 C   0  0  0  0  0  0  0  0  0  0  0  0
  -33.0983   59.2915   62.7425 C   0  0  0  0  0  0  0  0  0  0  0  0
  -31.8072   59.2380   61.9400 C   0  0  0  0  0  0  0  0  0  0  0  0
  -31.0941   60.5701   61.8195 C   0  0  0  0  0  0  0  0  0  0  0  0
  -29.6893   60.5281   62.3532 C   0  0  0  0  0  0  0  0  0  0  0  0
 21 22  1  0  0  0
  4  5  2  0  0  0
 25 24  1  0  0  0
 25 26  2  0  0  0
 25 27  1  0  0  0
 25 29  1  0  0  0
 22 20  1  0  0  0
  3  5  1  0  0  0
  3  2  1  0  0  0
 20 19  1  0  0  0
 24 23  1  0  0  0
 19 18  1  0  0  0
 18 17  1  0  0  0
 27 28  1  0  0  0
 17 16  1  0  0  0
 29 30  1  0  0  0
 16 15  1  0  0  0
 34 35  1  0  0  0
 34 36  1  0  0  0
 15 14  1  0  0  0
 31 32  1  0  0  0
 31 33  1  0  0  0
 14 13  1  0  0  0
 37  1  1  0  0  0
 37 39  1  0  0  0
 13 12  1  0  0  0
 38 39  2  0  0  0
 12 11  1  0  0  0
 11 10  1  0  0  0
 10  9  1  0  0  0
  9  8  1  0  0  0
  8  7  1  0  0  0
  7  6  1  0  0  0
  6  5  1  0  0  0
  2  1  1  0  0  0
  1 23  1  0  0  0
 30 32  1  0  0  0
 32 35  1  0  0  0
 39 40  1  0  0  0
 40 41  1  0  0  0
 41 42  1  0  0  0
 42 43  1  0  0  0
 43 44  1  0  0  0
 44 45  1  0  0  0
 45 46  1  0  0  0
 46 47  1  0  0  0
 47 48  2  0  0  0
 48 49  1  0  0  0
 49 50  1  0  0  0
 50 51  1  0  0  0
 51 52  1  0  0  0
 52 53  1  0  0  0
 53 54  1  0  0  0
 54 55  1  0  0  0
 55 56  1  0  0  0
M  CHG 1  26  -1
M  END
> <minimizedAffinity>
-9.02964

> <CNNscore>
0.6096166372

> <CNNaffinity>
7.5194716454

> <CNN_VS>
4.5839948654

> <CNNaffinity_variance>
0.6506417394

$$$$
/media/chris/experiments/cd1a-new-docking/inputs/ligands/7sh4_ligand.pdb


 56 55  0  0  0  0  0  0  0  0999 V2000
  -39.1853   60.7347   63.5031 C   0  0  0  0  0  0  0  0  0  0  0  0
  -39.8059   60.4781   62.1589 C   0  0  0  0  0  0  0  0  0  0  0  0
  -38.6940   60.5501   61.2415 O   0  0  0  0  0  0  0  0  0  0  0  0
  -39.9267   60.3207   59.3902 O   0  0  0  0  0  0  0  0  0  0  0  0
  -38.9089   60.1220   59.9971 C   0  0  0  0  0  0  0  0  0  0  0  0
  -37.6785   59.4798   59.4241 C   0  0  0  0  0  0  0  0  0  0  0  0
  -37.9647   58.3738   58.4226 C   0  0  0  0  0  0  0  0  0  0  0  0
  -36.7044   57.7653   57.8449 C   0  0  0  0  0  0  0  0  0  0  0  0
  -36.6774   56.2538   57.8729 C   0  0  0  0  0  0  0  0  0  0  0  0
  -36.0415   55.6950   59.1297 C   0  0  0  0  0  0  0  0  0  0  0  0
  -34.9367   56.5670   59.6745 C   0  0  0  0  0  0  0  0  0  0  0  0
  -33.8196   55.7771   60.3036 C   0  0  0  0  0  0  0  0  0  0  0  0
  -33.2427   56.4322   61.5389 C   0  0  0  0  0  0  0  0  0  0  0  0
  -33.1075   57.9346   61.3958 C   0  0  0  0  0  0  0  0  0  0  0  0
  -32.8191   58.6558   62.6958 C   0  0  0  0  0  0  0  0  0  0  0  0
  -33.9027   59.6474   63.1036 C   0  0  0  0  0  0  0  0  0  0  0  0
  -34.6439   59.2640   64.3700 C   0  0  0  0  0  0  0  0  0  0  0  0
  -34.3450   57.8549   64.8392 C   0  0  0  0  0  0  0  0  0  0  0  0
  -35.4652   56.8652   64.5511 C   0  0  0  0  0  0  0  0  0  0  0  0
  -36.7185   57.5126   63.9896 C   0  0  0  0  0  0  0  0  0  0  0  0
  -38.3344   57.0604   62.1134 C   0  0  0  0  0  0  0  0  0  0  0  0
  -36.9000   57.3513   62.4923 C   0  0  0  0  0  0  0  0  0  0  0  0
  -37.6896   60.8982   63.4142 C   0  0  0  0  0  0  0  0  0  0  0  0
  -37.3010   62.0530   64.1913 O   0  0  0  0  0  0  0  0  0  0  0  0
  -36.1373   63.0531   63.7359 P   0  0  0  0  0  0  0  0  0  0  0  0
  -35.7832   62.7363   62.3355 O   0  0  0  0  0  0  0  0  0  0  0  0
  -36.5596   64.4349   64.0686 O   0  0  0  0  0  0  0  0  0  0  0  0
  -37.3225   64.6803   63.5220 H   0  0  0  0  0  0  0  0  0  0  0  0
  -34.8847   62.6895   64.6532 O   0  0  0  0  0  0  0  0  0  0  0  0
  -33.5678   63.1549   64.2940 C   0  0  0  0  0  0  0  0  0  0  0  0
  -31.5724   64.0564   65.2677 O   0  0  0  0  0  0  0  0  0  0  0  0
  -32.9739   63.8674   65.4842 C   0  0  0  0  0  0  0  0  0  0  0  0
  -31.1532   63.1987   65.0962 H   0  0  0  0  0  0  0  0  0  0  0  0
  -34.0148   65.8251   64.5342 O   0  0  0  0  0  0  0  0  0  0  0  0
  -33.6432   65.1939   65.7529 C   0  0  0  0  0  0  0  0  0  0  0  0
  -34.4424   66.6741   64.7271 H   0  0  0  0  0  0  0  0  0  0  0  0
  -39.5578   59.6367   64.4005 O   0  0  0  0  0  0  0  0  0  0  0  0
  -40.6786   60.9307   65.8598 O   0  0  0  0  0  0  0  0  0  0  0  0
  -40.5371   59.8822   65.2920 C   0  0  0  0  0  0  0  0  0  0  0  0
  -41.4370   58.6996   65.4761 C   0  0  0  0  0  0  0  0  0  0  0  0
  -42.7558   59.0976   66.1312 C   0  0  0  0  0  0  0  0  0  0  0  0
  -43.9830   58.7618   65.2997 C   0  0  0  0  0  0  0  0  0  0  0  0
  -45.2803   58.7606   66.1003 C   0  0  0  0  0  0  0  0  0  0  0  0
  -46.5315   58.6636   65.2473 C   0  0  0  0  0  0  0  0  0  0  0  0
  -47.8381   58.5756   66.0410 C   0  0  0  0  0  0  0  0  0  0  0  0
  -49.0403   58.0413   65.2597 C   0  0  0  0  0  0  0  0  0  0  0  0
  -50.0752   59.0998   65.0220 C   0  0  0  0  0  0  0  0  0  0  0  0
  -50.8498   59.2196   63.9612 C   0  0  0  0  0  0  0  0  0  0  0  0
  -50.8580   58.3173   62.7679 C   0  0  0  0  0  0  0  0  0  0  0  0
  -49.9897   58.8477   61.6307 C   0  0  0  0  0  0  0  0  0  0  0  0
  -48.9683   57.8443   61.1247 C   0  0  0  0  0  0  0  0  0  0  0  0
  -48.5361   58.0855   59.6886 C   0  0  0  0  0  0  0  0  0  0  0  0
  -47.4704   57.1274   59.1825 C   0  0  0  0  0  0  0  0  0  0  0  0
  -46.9275   57.4958   57.8101 C   0  0  0  0  0  0  0  0  0  0  0  0
  -47.4144   56.6008   56.6878 C   0  0  0  0  0  0  0  0  0  0  0  0
  -47.5612   55.1657   57.1106 C   0  0  0  0  0  0  0  0  0  0  0  0
 21 22  1  0  0  0
  4  5  2  0  0  0
 25 24  1  0  0  0
 25 26  2  0  0  0
 25 27  1  0  0  0
 25 29  1  0  0  0
 22 20  1  0  0  0
  3  5  1  0  0  0
  3  2  1  0  0  0
 20 19  1  0  0  0
 24 23  1  0  0  0
 19 18  1  0  0  0
 18 17  1  0  0  0
 27 28  1  0  0  0
 17 16  1  0  0  0
 29 30  1  0  0  0
 16 15  1  0  0  0
 34 35  1  0  0  0
 34 36  1  0  0  0
 15 14  1  0  0  0
 31 32  1  0  0  0
 31 33  1  0  0  0
 14 13  1  0  0  0
 37  1  1  0  0  0
 37 39  1  0  0  0
 13 12  1  0  0  0
 38 39  2  0  0  0
 12 11  1  0  0  0
 11 10  1  0  0  0
 10  9  1  0  0  0
  9  8  1  0  0  0
  8  7  1  0  0  0
  7  6  1  0  0  0
  6  5  1  0  0  0
  2  1  1  0  0  0
  1 23  1  0  0  0
 30 32  1  0  0  0
 32 35  1  0  0  0
 39 40  1  0  0  0
 40 41  1  0  0  0
 41 42  1  0  0  0
 42 43  1  0  0  0
 43 44  1  0  0  0
 44 45  1  0  0  0
 45 46  1  0  0  0
 46 47  1  0  0  0
 47 48  2  0  0  0
 48 49  1  0  0  0
 49 50  1  0  0  0
 50 51  1  0  0  0
 51 52  1  0  0  0
 52 53  1  0  0  0
 53 54  1  0  0  0
 54 55  1  0  0  0
 55 56  1  0  0  0
M  CHG 1  26  -1
M  END
> <minimizedAffinity>
-8.79424

> <CNNscore>
0.6070682406

> <CNNaffinity>
7.5952811241

> <CNN_VS>
4.6108541489

> <CNNaffinity_variance>
0.8518004417

$$$$
