/media/chris/experiments/cd1a-new-docking/inputs/ligands/7sh4_ligand.pdb


 56 55  0  0  0  0  0  0  0  0999 V2000
  -37.7965   60.4684   63.6843 C   0  0  0  0  0  0  0  0  0  0  0  0
  -36.7746   59.6593   64.4319 C   0  0  0  0  0  0  0  0  0  0  0  0
  -36.8479   58.3538   63.8208 O   0  0  0  0  0  0  0  0  0  0  0  0
  -38.2598   57.3679   65.2468 O   0  0  0  0  0  0  0  0  0  0  0  0
  -37.9086   57.6042   64.1224 C   0  0  0  0  0  0  0  0  0  0  0  0
  -38.6632   57.2091   62.8858 C   0  0  0  0  0  0  0  0  0  0  0  0
  -37.9411   57.5317   61.5886 C   0  0  0  0  0  0  0  0  0  0  0  0
  -38.5984   58.6554   60.8154 C   0  0  0  0  0  0  0  0  0  0  0  0
  -37.7540   59.2098   59.6906 C   0  0  0  0  0  0  0  0  0  0  0  0
  -37.7533   58.3274   58.4586 C   0  0  0  0  0  0  0  0  0  0  0  0
  -36.4322   58.3269   57.7291 C   0  0  0  0  0  0  0  0  0  0  0  0
  -35.6759   57.0337   57.8825 C   0  0  0  0  0  0  0  0  0  0  0  0
  -36.5323   55.8935   58.3873 C   0  0  0  0  0  0  0  0  0  0  0  0
  -35.9714   55.2502   59.6393 C   0  0  0  0  0  0  0  0  0  0  0  0
  -34.5421   55.6435   59.9489 C   0  0  0  0  0  0  0  0  0  0  0  0
  -34.3315   56.1230   61.3807 C   0  0  0  0  0  0  0  0  0  0  0  0
  -33.3379   57.2616   61.5093 C   0  0  0  0  0  0  0  0  0  0  0  0
  -33.7913   58.3518   62.4585 C   0  0  0  0  0  0  0  0  0  0  0  0
  -32.7489   59.4385   62.6822 C   0  0  0  0  0  0  0  0  0  0  0  0
  -31.5256   59.2991   61.7938 C   0  0  0  0  0  0  0  0  0  0  0  0
  -30.3602   61.5111   61.5022 C   0  0  0  0  0  0  0  0  0  0  0  0
  -30.3478   60.1670   62.1946 C   0  0  0  0  0  0  0  0  0  0  0  0
  -37.1674   61.5964   62.9073 C   0  0  0  0  0  0  0  0  0  0  0  0
  -35.8815   61.9030   63.4912 O   0  0  0  0  0  0  0  0  0  0  0  0
  -35.0294   63.1950   63.0831 P   0  0  0  0  0  0  0  0  0  0  0  0
  -33.6982   62.7402   62.6271 O   0  0  0  0  0  0  0  0  0  0  0  0
  -35.8526   64.0202   62.1666 O   0  0  0  0  0  0  0  0  0  0  0  0
  -35.9877   63.5417   61.3338 H   0  0  0  0  0  0  0  0  0  0  0  0
  -34.8313   64.0150   64.4362 O   0  0  0  0  0  0  0  0  0  0  0  0
  -35.9782   64.5362   65.1385 C   0  0  0  0  0  0  0  0  0  0  0  0
  -36.8926   62.6391   66.2819 O   0  0  0  0  0  0  0  0  0  0  0  0
  -36.0961   63.8144   66.4584 C   0  0  0  0  0  0  0  0  0  0  0  0
  -37.7542   62.8850   65.9104 H   0  0  0  0  0  0  0  0  0  0  0  0
  -34.2285   64.5223   67.8108 O   0  0  0  0  0  0  0  0  0  0  0  0
  -34.7498   63.4498   67.0365 C   0  0  0  0  0  0  0  0  0  0  0  0
  -33.3649   64.2696   68.1730 H   0  0  0  0  0  0  0  0  0  0  0  0
  -38.7888   60.9601   64.6453 O   0  0  0  0  0  0  0  0  0  0  0  0
  -40.6685   60.4959   63.5001 O   0  0  0  0  0  0  0  0  0  0  0  0
  -40.0431   60.4844   64.5251 C   0  0  0  0  0  0  0  0  0  0  0  0
  -40.5561   59.9240   65.8153 C   0  0  0  0  0  0  0  0  0  0  0  0
  -41.5598   58.8004   65.5768 C   0  0  0  0  0  0  0  0  0  0  0  0
  -42.8753   58.9817   66.3161 C   0  0  0  0  0  0  0  0  0  0  0  0
  -44.0832   59.0928   65.3930 C   0  0  0  0  0  0  0  0  0  0  0  0
  -45.4080   58.7991   66.0722 C   0  0  0  0  0  0  0  0  0  0  0  0
  -46.6174   58.7924   65.1329 C   0  0  0  0  0  0  0  0  0  0  0  0
  -47.8666   59.4910   65.6743 C   0  0  0  0  0  0  0  0  0  0  0  0
  -49.0667   58.5923   65.6613 C   0  0  0  0  0  0  0  0  0  0  0  0
  -50.1605   58.7496   64.9413 C   0  0  0  0  0  0  0  0  0  0  0  0
  -50.4319   59.8637   63.9803 C   0  0  0  0  0  0  0  0  0  0  0  0
  -51.4645   59.4826   62.9235 C   0  0  0  0  0  0  0  0  0  0  0  0
  -51.1778   58.1562   62.2417 C   0  0  0  0  0  0  0  0  0  0  0  0
  -50.0712   58.2306   61.2039 C   0  0  0  0  0  0  0  0  0  0  0  0
  -50.3452   57.4427   59.9336 C   0  0  0  0  0  0  0  0  0  0  0  0
  -49.0867   56.8992   59.2747 C   0  0  0  0  0  0  0  0  0  0  0  0
  -47.8051   57.5613   59.7404 C   0  0  0  0  0  0  0  0  0  0  0  0
  -46.7428   57.5843   58.6770 C   0  0  0  0  0  0  0  0  0  0  0  0
 21 22  1  0  0  0
  4  5  2  0  0  0
 25 24  1  0  0  0
 25 26  2  0  0  0
 25 27  1  0  0  0
 25 29  1  0  0  0
 22 20  1  0  0  0
  3  5  1  0  0  0
  3  2  1  0  0  0
 20 19  1  0  0  0
 24 23  1  0  0  0
 19 18  1  0  0  0
 18 17  1  0  0  0
 27 28  1  0  0  0
 17 16  1  0  0  0
 29 30  1  0  0  0
 16 15  1  0  0  0
 34 35  1  0  0  0
 34 36  1  0  0  0
 15 14  1  0  0  0
 31 32  1  0  0  0
 31 33  1  0  0  0
 14 13  1  0  0  0
 37  1  1  0  0  0
 37 39  1  0  0  0
 13 12  1  0  0  0
 38 39  2  0  0  0
 12 11  1  0  0  0
 11 10  1  0  0  0
 10  9  1  0  0  0
  9  8  1  0  0  0
  8  7  1  0  0  0
  7  6  1  0  0  0
  6  5  1  0  0  0
  2  1  1  0  0  0
  1 23  1  0  0  0
 30 32  1  0  0  0
 32 35  1  0  0  0
 39 40  1  0  0  0
 40 41  1  0  0  0
 41 42  1  0  0  0
 42 43  1  0  0  0
 43 44  1  0  0  0
 44 45  1  0  0  0
 45 46  1  0  0  0
 46 47  1  0  0  0
 47 48  2  0  0  0
 48 49  1  0  0  0
 49 50  1  0  0  0
 50 51  1  0  0  0
 51 52  1  0  0  0
 52 53  1  0  0  0
 53 54  1  0  0  0
 54 55  1  0  0  0
 55 56  1  0  0  0
M  CHG 1  26  -1
M  END
> <minimizedAffinity>
-8.90151

> <CNNscore>
0.7094455957

> <CNNaffinity>
7.5450592041

> <CNN_VS>
5.3528089523

> <CNNaffinity_variance>
0.7060726881

$$$$
/media/chris/experiments/cd1a-new-docking/inputs/ligands/7sh4_ligand.pdb


 56 55  0  0  0  0  0  0  0  0999 V2000
  -37.5297   60.5095   65.1913 C   0  0  0  0  0  0  0  0  0  0  0  0
  -38.6603   59.6857   65.7397 C   0  0  0  0  0  0  0  0  0  0  0  0
  -39.7769   60.5999   65.7676 O   0  0  0  0  0  0  0  0  0  0  0  0
  -41.3384   59.9341   64.3124 O   0  0  0  0  0  0  0  0  0  0  0  0
  -40.9716   60.1043   65.4438 C   0  0  0  0  0  0  0  0  0  0  0  0
  -41.7316   59.6775   66.6666 C   0  0  0  0  0  0  0  0  0  0  0  0
  -42.4945   58.3744   66.4996 C   0  0  0  0  0  0  0  0  0  0  0  0
  -43.9962   58.5667   66.5257 C   0  0  0  0  0  0  0  0  0  0  0  0
  -44.5886   58.9967   65.2029 C   0  0  0  0  0  0  0  0  0  0  0  0
  -46.0687   59.3096   65.2892 C   0  0  0  0  0  0  0  0  0  0  0  0
  -46.8541   58.2631   66.0413 C   0  0  0  0  0  0  0  0  0  0  0  0
  -47.8990   57.5886   65.1923 C   0  0  0  0  0  0  0  0  0  0  0  0
  -48.9059   58.5509   64.6020 C   0  0  0  0  0  0  0  0  0  0  0  0
  -49.2052   58.2637   63.1446 C   0  0  0  0  0  0  0  0  0  0  0  0
  -50.6793   58.2941   62.7989 C   0  0  0  0  0  0  0  0  0  0  0  0
  -51.0045   57.6963   61.4347 C   0  0  0  0  0  0  0  0  0  0  0  0
  -49.9370   56.7599   60.9020 C   0  0  0  0  0  0  0  0  0  0  0  0
  -49.5218   57.0682   59.4780 C   0  0  0  0  0  0  0  0  0  0  0  0
  -48.1595   57.7394   59.3713 C   0  0  0  0  0  0  0  0  0  0  0  0
  -47.0438   56.7897   58.9735 C   0  0  0  0  0  0  0  0  0  0  0  0
  -47.4494   55.2847   56.9970 C   0  0  0  0  0  0  0  0  0  0  0  0
  -47.5096   55.4255   58.5012 C   0  0  0  0  0  0  0  0  0  0  0  0
  -36.8757   61.3531   66.2554 C   0  0  0  0  0  0  0  0  0  0  0  0
  -35.9184   62.2346   65.6271 O   0  0  0  0  0  0  0  0  0  0  0  0
  -35.9592   63.8252   65.8015 P   0  0  0  0  0  0  0  0  0  0  0  0
  -36.2221   64.4246   64.4755 O   0  0  0  0  0  0  0  0  0  0  0  0
  -36.8772   64.1433   66.9217 O   0  0  0  0  0  0  0  0  0  0  0  0
  -37.7834   63.8996   66.6763 H   0  0  0  0  0  0  0  0  0  0  0  0
  -34.4844   64.2395   66.2440 O   0  0  0  0  0  0  0  0  0  0  0  0
  -33.3449   63.7365   65.5169 C   0  0  0  0  0  0  0  0  0  0  0  0
  -31.0044   64.2117   65.3209 O   0  0  0  0  0  0  0  0  0  0  0  0
  -32.2916   64.8163   65.4772 C   0  0  0  0  0  0  0  0  0  0  0  0
  -30.8588   63.5716   66.0350 H   0  0  0  0  0  0  0  0  0  0  0  0
  -33.8826   66.2702   64.3940 O   0  0  0  0  0  0  0  0  0  0  0  0
  -32.5351   65.8166   64.3727 C   0  0  0  0  0  0  0  0  0  0  0  0
  -34.0194   66.9107   63.6786 H   0  0  0  0  0  0  0  0  0  0  0  0
  -38.0475   61.3300   64.0919 O   0  0  0  0  0  0  0  0  0  0  0  0
  -36.7304   61.7455   62.3162 O   0  0  0  0  0  0  0  0  0  0  0  0
  -37.5651   61.0754   62.8604 C   0  0  0  0  0  0  0  0  0  0  0  0
  -38.1797   59.8491   62.2602 C   0  0  0  0  0  0  0  0  0  0  0  0
  -39.4143   60.1907   61.4321 C   0  0  0  0  0  0  0  0  0  0  0  0
  -39.2606   59.9010   59.9480 C   0  0  0  0  0  0  0  0  0  0  0  0
  -37.8600   59.4427   59.5581 C   0  0  0  0  0  0  0  0  0  0  0  0
  -37.8345   58.4273   58.4308 C   0  0  0  0  0  0  0  0  0  0  0  0
  -36.4501   58.1858   57.8225 C   0  0  0  0  0  0  0  0  0  0  0  0
  -35.9169   56.7583   57.9627 C   0  0  0  0  0  0  0  0  0  0  0  0
  -34.5011   56.7301   58.4553 C   0  0  0  0  0  0  0  0  0  0  0  0
  -34.1023   56.5130   59.6936 C   0  0  0  0  0  0  0  0  0  0  0  0
  -34.9856   56.2464   60.8713 C   0  0  0  0  0  0  0  0  0  0  0  0
  -35.4197   57.5285   61.5758 C   0  0  0  0  0  0  0  0  0  0  0  0
  -34.8539   57.6752   62.9774 C   0  0  0  0  0  0  0  0  0  0  0  0
  -33.7847   58.7476   63.0944 C   0  0  0  0  0  0  0  0  0  0  0  0
  -32.4067   58.3175   62.6194 C   0  0  0  0  0  0  0  0  0  0  0  0
  -31.7808   59.2821   61.6237 C   0  0  0  0  0  0  0  0  0  0  0  0
  -31.4685   60.6507   62.1955 C   0  0  0  0  0  0  0  0  0  0  0  0
  -30.3339   61.3333   61.4836 C   0  0  0  0  0  0  0  0  0  0  0  0
 21 22  1  0  0  0
  4  5  2  0  0  0
 25 24  1  0  0  0
 25 26  2  0  0  0
 25 27  1  0  0  0
 25 29  1  0  0  0
 22 20  1  0  0  0
  3  5  1  0  0  0
  3  2  1  0  0  0
 20 19  1  0  0  0
 24 23  1  0  0  0
 19 18  1  0  0  0
 18 17  1  0  0  0
 27 28  1  0  0  0
 17 16  1  0  0  0
 29 30  1  0  0  0
 16 15  1  0  0  0
 34 35  1  0  0  0
 34 36  1  0  0  0
 15 14  1  0  0  0
 31 32  1  0  0  0
 31 33  1  0  0  0
 14 13  1  0  0  0
 37  1  1  0  0  0
 37 39  1  0  0  0
 13 12  1  0  0  0
 38 39  2  0  0  0
 12 11  1  0  0  0
 11 10  1  0  0  0
 10  9  1  0  0  0
  9  8  1  0  0  0
  8  7  1  0  0  0
  7  6  1  0  0  0
  6  5  1  0  0  0
  2  1  1  0  0  0
  1 23  1  0  0  0
 30 32  1  0  0  0
 32 35  1  0  0  0
 39 40  1  0  0  0
 40 41  1  0  0  0
 41 42  1  0  0  0
 42 43  1  0  0  0
 43 44  1  0  0  0
 44 45  1  0  0  0
 45 46  1  0  0  0
 46 47  1  0  0  0
 47 48  2  0  0  0
 48 49  1  0  0  0
 49 50  1  0  0  0
 50 51  1  0  0  0
 51 52  1  0  0  0
 52 53  1  0  0  0
 53 54  1  0  0  0
 54 55  1  0  0  0
 55 56  1  0  0  0
M  CHG 1  26  -1
M  END
> <minimizedAffinity>
-9.15572

> <CNNscore>
0.6876524687

> <CNNaffinity>
7.4878492355

> <CNN_VS>
5.1490378380

> <CNNaffinity_variance>
0.7530016899

$$$$
/media/chris/experiments/cd1a-new-docking/inputs/ligands/7sh4_ligand.pdb


 56 55  0  0  0  0  0  0  0  0999 V2000
  -40.8759   60.1314   65.4475 C   0  0  0  0  0  0  0  0  0  0  0  0
  -41.3852   59.5347   64.1660 C   0  0  0  0  0  0  0  0  0  0  0  0
  -40.2336   59.5410   63.2960 O   0  0  0  0  0  0  0  0  0  0  0  0
  -40.5747   61.5109   62.2949 O   0  0  0  0  0  0  0  0  0  0  0  0
  -40.2824   60.3471   62.2350 C   0  0  0  0  0  0  0  0  0  0  0  0
  -39.8069   59.6435   60.9966 C   0  0  0  0  0  0  0  0  0  0  0  0
  -38.4188   60.0601   60.5405 C   0  0  0  0  0  0  0  0  0  0  0  0
  -37.5039   58.8793   60.2934 C   0  0  0  0  0  0  0  0  0  0  0  0
  -37.6636   57.7530   61.2891 C   0  0  0  0  0  0  0  0  0  0  0  0
  -37.3131   56.3965   60.7119 C   0  0  0  0  0  0  0  0  0  0  0  0
  -36.2338   56.4599   59.6589 C   0  0  0  0  0  0  0  0  0  0  0  0
  -35.1595   55.4229   59.8542 C   0  0  0  0  0  0  0  0  0  0  0  0
  -33.7935   56.0161   60.1195 C   0  0  0  0  0  0  0  0  0  0  0  0
  -33.8654   57.4030   60.7258 C   0  0  0  0  0  0  0  0  0  0  0  0
  -33.7639   57.4228   62.2367 C   0  0  0  0  0  0  0  0  0  0  0  0
  -32.6768   58.3497   62.7689 C   0  0  0  0  0  0  0  0  0  0  0  0
  -31.9140   59.0897   61.6869 C   0  0  0  0  0  0  0  0  0  0  0  0
  -30.7475   59.8975   62.2179 C   0  0  0  0  0  0  0  0  0  0  0  0
  -30.6672   61.3044   61.6421 C   0  0  0  0  0  0  0  0  0  0  0  0
  -31.7644   62.2282   62.1397 C   0  0  0  0  0  0  0  0  0  0  0  0
  -31.6280   64.3379   63.5061 C   0  0  0  0  0  0  0  0  0  0  0  0
  -31.5146   62.8302   63.5095 C   0  0  0  0  0  0  0  0  0  0  0  0
  -39.5656   59.5214   65.8746 C   0  0  0  0  0  0  0  0  0  0  0  0
  -38.5741   60.5685   65.9699 O   0  0  0  0  0  0  0  0  0  0  0  0
  -37.3964   60.7477   64.9009 P   0  0  0  0  0  0  0  0  0  0  0  0
  -37.0020   59.4044   64.4246 O   0  0  0  0  0  0  0  0  0  0  0  0
  -37.8267   61.7586   63.9052 O   0  0  0  0  0  0  0  0  0  0  0  0
  -38.5730   61.4104   63.3926 H   0  0  0  0  0  0  0  0  0  0  0  0
  -36.1717   61.3573   65.7200 O   0  0  0  0  0  0  0  0  0  0  0  0
  -36.4172   62.1942   66.8688 C   0  0  0  0  0  0  0  0  0  0  0  0
  -34.5376   63.4614   67.6458 O   0  0  0  0  0  0  0  0  0  0  0  0
  -35.6200   63.4656   66.7102 C   0  0  0  0  0  0  0  0  0  0  0  0
  -34.8866   63.3467   68.5436 H   0  0  0  0  0  0  0  0  0  0  0  0
  -35.1632   65.0079   64.9128 O   0  0  0  0  0  0  0  0  0  0  0  0
  -35.0944   63.6432   65.3060 C   0  0  0  0  0  0  0  0  0  0  0  0
  -34.8219   65.1018   64.0098 H   0  0  0  0  0  0  0  0  0  0  0  0
  -41.9094   59.9691   66.4749 O   0  0  0  0  0  0  0  0  0  0  0  0
  -41.9693   57.7372   66.7493 O   0  0  0  0  0  0  0  0  0  0  0  0
  -42.5314   58.7758   66.5321 C   0  0  0  0  0  0  0  0  0  0  0  0
  -44.0069   58.9017   66.3114 C   0  0  0  0  0  0  0  0  0  0  0  0
  -44.5489   57.7419   65.4819 C   0  0  0  0  0  0  0  0  0  0  0  0
  -45.6109   56.9191   66.1928 C   0  0  0  0  0  0  0  0  0  0  0  0
  -46.9787   57.5908   66.2306 C   0  0  0  0  0  0  0  0  0  0  0  0
  -47.3524   58.3024   64.9436 C   0  0  0  0  0  0  0  0  0  0  0  0
  -47.9535   59.6973   65.1386 C   0  0  0  0  0  0  0  0  0  0  0  0
  -49.4107   59.8464   64.6959 C   0  0  0  0  0  0  0  0  0  0  0  0
  -49.5246   60.2892   63.2679 C   0  0  0  0  0  0  0  0  0  0  0  0
  -49.7496   59.5200   62.2205 C   0  0  0  0  0  0  0  0  0  0  0  0
  -49.9409   58.0362   62.2400 C   0  0  0  0  0  0  0  0  0  0  0  0
  -50.8917   57.5573   61.1468 C   0  0  0  0  0  0  0  0  0  0  0  0
  -50.1869   57.1202   59.8746 C   0  0  0  0  0  0  0  0  0  0  0  0
  -49.4266   55.8130   60.0169 C   0  0  0  0  0  0  0  0  0  0  0  0
  -48.1478   55.7360   59.1996 C   0  0  0  0  0  0  0  0  0  0  0  0
  -48.2565   56.4090   57.8399 C   0  0  0  0  0  0  0  0  0  0  0  0
  -46.9268   56.8288   57.2454 C   0  0  0  0  0  0  0  0  0  0  0  0
  -46.4153   58.1208   57.8190 C   0  0  0  0  0  0  0  0  0  0  0  0
 21 22  1  0  0  0
  4  5  2  0  0  0
 25 24  1  0  0  0
 25 26  2  0  0  0
 25 27  1  0  0  0
 25 29  1  0  0  0
 22 20  1  0  0  0
  3  5  1  0  0  0
  3  2  1  0  0  0
 20 19  1  0  0  0
 24 23  1  0  0  0
 19 18  1  0  0  0
 18 17  1  0  0  0
 27 28  1  0  0  0
 17 16  1  0  0  0
 29 30  1  0  0  0
 16 15  1  0  0  0
 34 35  1  0  0  0
 34 36  1  0  0  0
 15 14  1  0  0  0
 31 32  1  0  0  0
 31 33  1  0  0  0
 14 13  1  0  0  0
 37  1  1  0  0  0
 37 39  1  0  0  0
 13 12  1  0  0  0
 38 39  2  0  0  0
 12 11  1  0  0  0
 11 10  1  0  0  0
 10  9  1  0  0  0
  9  8  1  0  0  0
  8  7  1  0  0  0
  7  6  1  0  0  0
  6  5  1  0  0  0
  2  1  1  0  0  0
  1 23  1  0  0  0
 30 32  1  0  0  0
 32 35  1  0  0  0
 39 40  1  0  0  0
 40 41  1  0  0  0
 41 42  1  0  0  0
 42 43  1  0  0  0
 43 44  1  0  0  0
 44 45  1  0  0  0
 45 46  1  0  0  0
 46 47  1  0  0  0
 47 48  2  0  0  0
 48 49  1  0  0  0
 49 50  1  0  0  0
 50 51  1  0  0  0
 51 52  1  0  0  0
 52 53  1  0  0  0
 53 54  1  0  0  0
 54 55  1  0  0  0
 55 56  1  0  0  0
M  CHG 1  26  -1
M  END
> <minimizedAffinity>
-8.02553

> <CNNscore>
0.6352478266

> <CNNaffinity>
7.4541969299

> <CNN_VS>
4.7352623940

> <CNNaffinity_variance>
0.3870913386

$$$$
/media/chris/experiments/cd1a-new-docking/inputs/ligands/7sh4_ligand.pdb


 56 55  0  0  0  0  0  0  0  0999 V2000
  -39.2788   58.9036   64.5062 C   0  0  0  0  0  0  0  0  0  0  0  0
  -40.2550   57.8169   64.8580 C   0  0  0  0  0  0  0  0  0  0  0  0
  -41.1492   58.4430   65.8022 O   0  0  0  0  0  0  0  0  0  0  0  0
  -42.6059   56.7836   66.1535 O   0  0  0  0  0  0  0  0  0  0  0  0
  -42.3784   57.9354   65.8982 C   0  0  0  0  0  0  0  0  0  0  0  0
  -43.4204   59.0092   65.7713 C   0  0  0  0  0  0  0  0  0  0  0  0
  -44.8375   58.5340   66.0439 C   0  0  0  0  0  0  0  0  0  0  0  0
  -45.6225   58.2732   64.7757 C   0  0  0  0  0  0  0  0  0  0  0  0
  -46.9883   58.9207   64.7486 C   0  0  0  0  0  0  0  0  0  0  0  0
  -47.9892   58.2330   65.6549 C   0  0  0  0  0  0  0  0  0  0  0  0
  -49.2240   59.0613   65.9130 C   0  0  0  0  0  0  0  0  0  0  0  0
  -50.4264   58.5805   65.1442 C   0  0  0  0  0  0  0  0  0  0  0  0
  -51.1007   59.6706   64.3409 C   0  0  0  0  0  0  0  0  0  0  0  0
  -51.4494   59.2299   62.9337 C   0  0  0  0  0  0  0  0  0  0  0  0
  -50.7041   57.9957   62.4702 C   0  0  0  0  0  0  0  0  0  0  0  0
  -51.1985   57.4413   61.1389 C   0  0  0  0  0  0  0  0  0  0  0  0
  -50.0888   56.9836   60.2119 C   0  0  0  0  0  0  0  0  0  0  0  0
  -48.7916   57.7418   60.4054 C   0  0  0  0  0  0  0  0  0  0  0  0
  -47.9546   57.8523   59.1386 C   0  0  0  0  0  0  0  0  0  0  0  0
  -46.9138   56.7556   59.0004 C   0  0  0  0  0  0  0  0  0  0  0  0
  -47.8553   56.1112   56.7566 C   0  0  0  0  0  0  0  0  0  0  0  0
  -47.3087   55.6184   58.0774 C   0  0  0  0  0  0  0  0  0  0  0  0
  -38.0198   58.8224   65.3307 C   0  0  0  0  0  0  0  0  0  0  0  0
  -37.0298   59.7045   64.7562 O   0  0  0  0  0  0  0  0  0  0  0  0
  -36.8129   61.2089   65.2581 P   0  0  0  0  0  0  0  0  0  0  0  0
  -37.1659   62.1178   64.1463 O   0  0  0  0  0  0  0  0  0  0  0  0
  -37.5107   61.3674   66.5567 O   0  0  0  0  0  0  0  0  0  0  0  0
  -38.4680   61.2891   66.4210 H   0  0  0  0  0  0  0  0  0  0  0  0
  -35.2465   61.3437   65.5240 O   0  0  0  0  0  0  0  0  0  0  0  0
  -34.4902   62.3823   64.8687 C   0  0  0  0  0  0  0  0  0  0  0  0
  -33.7194   62.4739   67.1358 O   0  0  0  0  0  0  0  0  0  0  0  0
  -33.8323   63.2322   65.9278 C   0  0  0  0  0  0  0  0  0  0  0  0
  -34.5965   62.1558   67.4011 H   0  0  0  0  0  0  0  0  0  0  0  0
  -32.1079   64.8884   66.2469 O   0  0  0  0  0  0  0  0  0  0  0  0
  -32.4747   63.7356   65.4997 C   0  0  0  0  0  0  0  0  0  0  0  0
  -31.2347   65.1964   65.9582 H   0  0  0  0  0  0  0  0  0  0  0  0
  -39.9499   60.1971   64.6683 O   0  0  0  0  0  0  0  0  0  0  0  0
  -41.3457   61.5421   63.5268 O   0  0  0  0  0  0  0  0  0  0  0  0
  -40.4090   60.7913   63.5501 C   0  0  0  0  0  0  0  0  0  0  0  0
  -39.6016   60.4185   62.3455 C   0  0  0  0  0  0  0  0  0  0  0  0
  -40.4566   60.4039   61.0823 C   0  0  0  0  0  0  0  0  0  0  0  0
  -39.6744   60.1135   59.8119 C   0  0  0  0  0  0  0  0  0  0  0  0
  -38.2335   59.6865   60.0673 C   0  0  0  0  0  0  0  0  0  0  0  0
  -37.6103   58.9041   58.9262 C   0  0  0  0  0  0  0  0  0  0  0  0
  -37.1897   57.4768   59.2879 C   0  0  0  0  0  0  0  0  0  0  0  0
  -36.5941   56.6619   58.1377 C   0  0  0  0  0  0  0  0  0  0  0  0
  -35.1591   57.0124   57.8810 C   0  0  0  0  0  0  0  0  0  0  0  0
  -34.1216   56.6763   58.6226 C   0  0  0  0  0  0  0  0  0  0  0  0
  -34.1611   55.8686   59.8813 C   0  0  0  0  0  0  0  0  0  0  0  0
  -34.0557   56.7352   61.1329 C   0  0  0  0  0  0  0  0  0  0  0  0
  -32.7044   56.6505   61.8207 C   0  0  0  0  0  0  0  0  0  0  0  0
  -32.4150   57.8220   62.7431 C   0  0  0  0  0  0  0  0  0  0  0  0
  -32.1816   59.1430   62.0291 C   0  0  0  0  0  0  0  0  0  0  0  0
  -30.8788   59.8223   62.4226 C   0  0  0  0  0  0  0  0  0  0  0  0
  -30.3409   60.7858   61.3833 C   0  0  0  0  0  0  0  0  0  0  0  0
  -29.9930   62.1294   61.9608 C   0  0  0  0  0  0  0  0  0  0  0  0
 21 22  1  0  0  0
  4  5  2  0  0  0
 25 24  1  0  0  0
 25 26  2  0  0  0
 25 27  1  0  0  0
 25 29  1  0  0  0
 22 20  1  0  0  0
  3  5  1  0  0  0
  3  2  1  0  0  0
 20 19  1  0  0  0
 24 23  1  0  0  0
 19 18  1  0  0  0
 18 17  1  0  0  0
 27 28  1  0  0  0
 17 16  1  0  0  0
 29 30  1  0  0  0
 16 15  1  0  0  0
 34 35  1  0  0  0
 34 36  1  0  0  0
 15 14  1  0  0  0
 31 32  1  0  0  0
 31 33  1  0  0  0
 14 13  1  0  0  0
 37  1  1  0  0  0
 37 39  1  0  0  0
 13 12  1  0  0  0
 38 39  2  0  0  0
 12 11  1  0  0  0
 11 10  1  0  0  0
 10  9  1  0  0  0
  9  8  1  0  0  0
  8  7  1  0  0  0
  7  6  1  0  0  0
  6  5  1  0  0  0
  2  1  1  0  0  0
  1 23  1  0  0  0
 30 32  1  0  0  0
 32 35  1  0  0  0
 39 40  1  0  0  0
 40 41  1  0  0  0
 41 42  1  0  0  0
 42 43  1  0  0  0
 43 44  1  0  0  0
 44 45  1  0  0  0
 45 46  1  0  0  0
 46 47  1  0  0  0
 47 48  2  0  0  0
 48 49  1  0  0  0
 49 50  1  0  0  0
 50 51  1  0  0  0
 51 52  1  0  0  0
 52 53  1  0  0  0
 53 54  1  0  0  0
 54 55  1  0  0  0
 55 56  1  0  0  0
M  CHG 1  26  -1
M  END
> <minimizedAffinity>
-9.09552

> <CNNscore>
0.5497427583

> <CNNaffinity>
7.2744078636

> <CNN_VS>
3.9990530014

> <CNNaffinity_variance>
0.8058677912

$$$$
/media/chris/experiments/cd1a-new-docking/inputs/ligands/7sh4_ligand.pdb


 56 55  0  0  0  0  0  0  0  0999 V2000
  -36.8611   61.4492   63.3710 C   0  0  0  0  0  0  0  0  0  0  0  0
  -36.2142   60.2092   63.9201 C   0  0  0  0  0  0  0  0  0  0  0  0
  -35.8804   59.4401   62.7453 O   0  0  0  0  0  0  0  0  0  0  0  0
  -36.7386   57.4091   63.1163 O   0  0  0  0  0  0  0  0  0  0  0  0
  -35.7944   58.1177   62.8933 C   0  0  0  0  0  0  0  0  0  0  0  0
  -34.4002   57.6308   62.6213 C   0  0  0  0  0  0  0  0  0  0  0  0
  -34.0724   57.4798   61.1455 C   0  0  0  0  0  0  0  0  0  0  0  0
  -34.5319   56.1544   60.5756 C   0  0  0  0  0  0  0  0  0  0  0  0
  -34.1344   55.9289   59.1345 C   0  0  0  0  0  0  0  0  0  0  0  0
  -34.7414   56.9427   58.1859 C   0  0  0  0  0  0  0  0  0  0  0  0
  -36.2470   56.8658   58.1183 C   0  0  0  0  0  0  0  0  0  0  0  0
  -36.9153   58.1943   58.3559 C   0  0  0  0  0  0  0  0  0  0  0  0
  -37.4748   58.3436   59.7533 C   0  0  0  0  0  0  0  0  0  0  0  0
  -38.1592   59.6780   59.9702 C   0  0  0  0  0  0  0  0  0  0  0  0
  -39.6469   59.5738   60.2337 C   0  0  0  0  0  0  0  0  0  0  0  0
  -40.5043   60.3499   59.2404 C   0  0  0  0  0  0  0  0  0  0  0  0
  -41.7759   59.6317   58.8311 C   0  0  0  0  0  0  0  0  0  0  0  0
  -41.8687   59.3737   57.3412 C   0  0  0  0  0  0  0  0  0  0  0  0
  -43.1462   58.6586   56.9241 C   0  0  0  0  0  0  0  0  0  0  0  0
  -44.0300   58.2622   58.0933 C   0  0  0  0  0  0  0  0  0  0  0  0
  -46.3058   57.5182   58.8701 C   0  0  0  0  0  0  0  0  0  0  0  0
  -45.5112   58.1907   57.7736 C   0  0  0  0  0  0  0  0  0  0  0  0
  -36.3459   62.6991   64.0374 C   0  0  0  0  0  0  0  0  0  0  0  0
  -35.6044   62.3240   65.2197 O   0  0  0  0  0  0  0  0  0  0  0  0
  -35.3538   63.3276   66.4411 P   0  0  0  0  0  0  0  0  0  0  0  0
  -36.6668   63.8377   66.8913 O   0  0  0  0  0  0  0  0  0  0  0  0
  -34.4785   62.6470   67.4256 O   0  0  0  0  0  0  0  0  0  0  0  0
  -34.9536   61.8973   67.8169 H   0  0  0  0  0  0  0  0  0  0  0  0
  -34.5378   64.5500   65.8228 O   0  0  0  0  0  0  0  0  0  0  0  0
  -33.3532   64.3034   65.0380 C   0  0  0  0  0  0  0  0  0  0  0  0
  -30.9918   64.7094   64.9990 O   0  0  0  0  0  0  0  0  0  0  0  0
  -32.1530   64.7544   65.8337 C   0  0  0  0  0  0  0  0  0  0  0  0
  -30.8880   63.8154   64.6373 H   0  0  0  0  0  0  0  0  0  0  0  0
  -32.8497   66.0754   67.7277 O   0  0  0  0  0  0  0  0  0  0  0  0
  -32.3302   66.1404   66.4057 C   0  0  0  0  0  0  0  0  0  0  0  0
  -32.9564   66.9738   68.0776 H   0  0  0  0  0  0  0  0  0  0  0  0
  -38.3138   61.3161   63.5189 O   0  0  0  0  0  0  0  0  0  0  0  0
  -38.5510   60.7829   65.6914 O   0  0  0  0  0  0  0  0  0  0  0  0
  -38.7565   60.5470   64.5321 C   0  0  0  0  0  0  0  0  0  0  0  0
  -39.5493   59.3754   64.0415 C   0  0  0  0  0  0  0  0  0  0  0  0
  -39.7122   58.3166   65.1275 C   0  0  0  0  0  0  0  0  0  0  0  0
  -41.1587   58.0236   65.4906 C   0  0  0  0  0  0  0  0  0  0  0  0
  -41.9496   59.2632   65.8926 C   0  0  0  0  0  0  0  0  0  0  0  0
  -43.3683   58.9704   66.3441 C   0  0  0  0  0  0  0  0  0  0  0  0
  -43.8301   57.5310   66.0995 C   0  0  0  0  0  0  0  0  0  0  0  0
  -45.2987   57.3773   65.6981 C   0  0  0  0  0  0  0  0  0  0  0  0
  -45.8132   58.5805   64.9663 C   0  0  0  0  0  0  0  0  0  0  0  0
  -46.9404   59.2233   65.2023 C   0  0  0  0  0  0  0  0  0  0  0  0
  -47.9457   58.8841   66.2572 C   0  0  0  0  0  0  0  0  0  0  0  0
  -48.8175   57.6933   65.8695 C   0  0  0  0  0  0  0  0  0  0  0  0
  -50.2611   58.0642   65.5785 C   0  0  0  0  0  0  0  0  0  0  0  0
  -50.4234   58.9990   64.3923 C   0  0  0  0  0  0  0  0  0  0  0  0
  -50.6754   58.2978   63.0678 C   0  0  0  0  0  0  0  0  0  0  0  0
  -49.4181   58.1116   62.2323 C   0  0  0  0  0  0  0  0  0  0  0  0
  -49.5822   58.4795   60.7709 C   0  0  0  0  0  0  0  0  0  0  0  0
  -50.3716   57.4589   59.9994 C   0  0  0  0  0  0  0  0  0  0  0  0
 21 22  1  0  0  0
  4  5  2  0  0  0
 25 24  1  0  0  0
 25 26  2  0  0  0
 25 27  1  0  0  0
 25 29  1  0  0  0
 22 20  1  0  0  0
  3  5  1  0  0  0
  3  2  1  0  0  0
 20 19  1  0  0  0
 24 23  1  0  0  0
 19 18  1  0  0  0
 18 17  1  0  0  0
 27 28  1  0  0  0
 17 16  1  0  0  0
 29 30  1  0  0  0
 16 15  1  0  0  0
 34 35  1  0  0  0
 34 36  1  0  0  0
 15 14  1  0  0  0
 31 32  1  0  0  0
 31 33  1  0  0  0
 14 13  1  0  0  0
 37  1  1  0  0  0
 37 39  1  0  0  0
 13 12  1  0  0  0
 38 39  2  0  0  0
 12 11  1  0  0  0
 11 10  1  0  0  0
 10  9  1  0  0  0
  9  8  1  0  0  0
  8  7  1  0  0  0
  7  6  1  0  0  0
  6  5  1  0  0  0
  2  1  1  0  0  0
  1 23  1  0  0  0
 30 32  1  0  0  0
 32 35  1  0  0  0
 39 40  1  0  0  0
 40 41  1  0  0  0
 41 42  1  0  0  0
 42 43  1  0  0  0
 43 44  1  0  0  0
 44 45  1  0  0  0
 45 46  1  0  0  0
 46 47  1  0  0  0
 47 48  2  0  0  0
 48 49  1  0  0  0
 49 50  1  0  0  0
 50 51  1  0  0  0
 51 52  1  0  0  0
 52 53  1  0  0  0
 53 54  1  0  0  0
 54 55  1  0  0  0
 55 56  1  0  0  0
M  CHG 1  26  -1
M  END
> <minimizedAffinity>
-8.51099

> <CNNscore>
0.4518239498

> <CNNaffinity>
7.3482322693

> <CNN_VS>
3.3201072216

> <CNNaffinity_variance>
0.7391999960

$$$$
/media/chris/experiments/cd1a-new-docking/inputs/ligands/7sh4_ligand.pdb


 56 55  0  0  0  0  0  0  0  0999 V2000
  -38.5302   58.5752   63.7834 C   0  0  0  0  0  0  0  0  0  0  0  0
  -39.5289   58.0381   64.7693 C   0  0  0  0  0  0  0  0  0  0  0  0
  -40.6964   58.8624   64.5678 O   0  0  0  0  0  0  0  0  0  0  0  0
  -40.7431   60.8165   65.6532 O   0  0  0  0  0  0  0  0  0  0  0  0
  -41.0548   59.6588   65.5753 C   0  0  0  0  0  0  0  0  0  0  0  0
  -41.9903   58.9558   66.5164 C   0  0  0  0  0  0  0  0  0  0  0  0
  -43.1315   58.2269   65.8276 C   0  0  0  0  0  0  0  0  0  0  0  0
  -44.0644   59.1633   65.0890 C   0  0  0  0  0  0  0  0  0  0  0  0
  -45.5102   59.0640   65.5197 C   0  0  0  0  0  0  0  0  0  0  0  0
  -46.3382   58.1715   64.6175 C   0  0  0  0  0  0  0  0  0  0  0  0
  -47.8225   58.4130   64.7434 C   0  0  0  0  0  0  0  0  0  0  0  0
  -48.1900   59.8714   64.6673 C   0  0  0  0  0  0  0  0  0  0  0  0
  -49.1828   60.1840   63.5697 C   0  0  0  0  0  0  0  0  0  0  0  0
  -50.5634   59.6276   63.8536 C   0  0  0  0  0  0  0  0  0  0  0  0
  -51.2532   59.0378   62.6412 C   0  0  0  0  0  0  0  0  0  0  0  0
  -50.5558   57.8065   62.0740 C   0  0  0  0  0  0  0  0  0  0  0  0
  -50.3679   57.8432   60.5695 C   0  0  0  0  0  0  0  0  0  0  0  0
  -48.9181   57.7432   60.1413 C   0  0  0  0  0  0  0  0  0  0  0  0
  -48.5681   56.4193   59.4764 C   0  0  0  0  0  0  0  0  0  0  0  0
  -47.2533   56.4492   58.7177 C   0  0  0  0  0  0  0  0  0  0  0  0
  -45.4453   58.0611   58.0328 C   0  0  0  0  0  0  0  0  0  0  0  0
  -46.9302   57.7773   58.0598 C   0  0  0  0  0  0  0  0  0  0  0  0
  -38.7248   57.9938   62.4066 C   0  0  0  0  0  0  0  0  0  0  0  0
  -39.1942   59.0368   61.5233 O   0  0  0  0  0  0  0  0  0  0  0  0
  -38.2939   59.6511   60.3511 P   0  0  0  0  0  0  0  0  0  0  0  0
  -39.1771   59.9465   59.2024 O   0  0  0  0  0  0  0  0  0  0  0  0
  -37.4778   60.7491   60.9230 O   0  0  0  0  0  0  0  0  0  0  0  0
  -38.0592   61.4769   61.1936 H   0  0  0  0  0  0  0  0  0  0  0  0
  -37.3036   58.4780   59.9202 O   0  0  0  0  0  0  0  0  0  0  0  0
  -37.2973   58.0029   58.5585 C   0  0  0  0  0  0  0  0  0  0  0  0
  -36.8263   56.0408   57.2659 O   0  0  0  0  0  0  0  0  0  0  0  0
  -36.5692   56.6817   58.5190 C   0  0  0  0  0  0  0  0  0  0  0  0
  -37.7835   55.9456   57.1417 H   0  0  0  0  0  0  0  0  0  0  0  0
  -34.8061   57.2886   60.0490 O   0  0  0  0  0  0  0  0  0  0  0  0
  -35.0823   56.8383   58.7289 C   0  0  0  0  0  0  0  0  0  0  0  0
  -33.8477   57.3830   60.1646 H   0  0  0  0  0  0  0  0  0  0  0  0
  -37.1837   58.3084   64.2987 O   0  0  0  0  0  0  0  0  0  0  0  0
  -36.0710   59.8492   63.0953 O   0  0  0  0  0  0  0  0  0  0  0  0
  -36.1481   58.7425   63.5548 C   0  0  0  0  0  0  0  0  0  0  0  0
  -35.0986   57.6882   63.3856 C   0  0  0  0  0  0  0  0  0  0  0  0
  -33.7263   58.1902   63.8234 C   0  0  0  0  0  0  0  0  0  0  0  0
  -32.5973   57.7945   62.8860 C   0  0  0  0  0  0  0  0  0  0  0  0
  -32.3220   58.8228   61.7949 C   0  0  0  0  0  0  0  0  0  0  0  0
  -32.2082   60.2476   62.3044 C   0  0  0  0  0  0  0  0  0  0  0  0
  -30.9115   60.9620   61.9132 C   0  0  0  0  0  0  0  0  0  0  0  0
  -30.9334   62.4840   62.0700 C   0  0  0  0  0  0  0  0  0  0  0  0
  -30.6616   62.9104   63.4814 C   0  0  0  0  0  0  0  0  0  0  0  0
  -31.1857   63.9474   64.1056 C   0  0  0  0  0  0  0  0  0  0  0  0
  -32.1681   64.9189   63.5316 C   0  0  0  0  0  0  0  0  0  0  0  0
  -32.6934   65.9009   64.5747 C   0  0  0  0  0  0  0  0  0  0  0  0
  -32.7906   65.3123   65.9713 C   0  0  0  0  0  0  0  0  0  0  0  0
  -34.0846   64.5593   66.2271 C   0  0  0  0  0  0  0  0  0  0  0  0
  -33.9482   63.0460   66.2024 C   0  0  0  0  0  0  0  0  0  0  0  0
  -34.5757   62.4013   64.9760 C   0  0  0  0  0  0  0  0  0  0  0  0
  -35.6848   63.2177   64.3427 C   0  0  0  0  0  0  0  0  0  0  0  0
  -35.5123   63.3802   62.8582 C   0  0  0  0  0  0  0  0  0  0  0  0
 21 22  1  0  0  0
  4  5  2  0  0  0
 25 24  1  0  0  0
 25 26  2  0  0  0
 25 27  1  0  0  0
 25 29  1  0  0  0
 22 20  1  0  0  0
  3  5  1  0  0  0
  3  2  1  0  0  0
 20 19  1  0  0  0
 24 23  1  0  0  0
 19 18  1  0  0  0
 18 17  1  0  0  0
 27 28  1  0  0  0
 17 16  1  0  0  0
 29 30  1  0  0  0
 16 15  1  0  0  0
 34 35  1  0  0  0
 34 36  1  0  0  0
 15 14  1  0  0  0
 31 32  1  0  0  0
 31 33  1  0  0  0
 14 13  1  0  0  0
 37  1  1  0  0  0
 37 39  1  0  0  0
 13 12  1  0  0  0
 38 39  2  0  0  0
 12 11  1  0  0  0
 11 10  1  0  0  0
 10  9  1  0  0  0
  9  8  1  0  0  0
  8  7  1  0  0  0
  7  6  1  0  0  0
  6  5  1  0  0  0
  2  1  1  0  0  0
  1 23  1  0  0  0
 30 32  1  0  0  0
 32 35  1  0  0  0
 39 40  1  0  0  0
 40 41  1  0  0  0
 41 42  1  0  0  0
 42 43  1  0  0  0
 43 44  1  0  0  0
 44 45  1  0  0  0
 45 46  1  0  0  0
 46 47  1  0  0  0
 47 48  2  0  0  0
 48 49  1  0  0  0
 49 50  1  0  0  0
 50 51  1  0  0  0
 51 52  1  0  0  0
 52 53  1  0  0  0
 53 54  1  0  0  0
 54 55  1  0  0  0
 55 56  1  0  0  0
M  CHG 1  26  -1
M  END
> <minimizedAffinity>
-8.42242

> <CNNscore>
0.3914548755

> <CNNaffinity>
7.0767951012

> <CNN_VS>
2.7702460289

> <CNNaffinity_variance>
0.8487378955

$$$$
/media/chris/experiments/cd1a-new-docking/inputs/ligands/7sh4_ligand.pdb


 56 55  0  0  0  0  0  0  0  0999 V2000
  -40.5125   59.2462   64.3178 C   0  0  0  0  0  0  0  0  0  0  0  0
  -39.7260   57.9753   64.4723 C   0  0  0  0  0  0  0  0  0  0  0  0
  -39.3528   57.6292   63.1217 O   0  0  0  0  0  0  0  0  0  0  0  0
  -37.2285   57.3392   63.7559 O   0  0  0  0  0  0  0  0  0  0  0  0
  -38.0579   57.4118   62.8897 C   0  0  0  0  0  0  0  0  0  0  0  0
  -37.8043   57.1483   61.4333 C   0  0  0  0  0  0  0  0  0  0  0  0
  -37.9343   58.3767   60.5487 C   0  0  0  0  0  0  0  0  0  0  0  0
  -37.4021   58.1504   59.1494 C   0  0  0  0  0  0  0  0  0  0  0  0
  -36.7634   56.7960   58.9412 C   0  0  0  0  0  0  0  0  0  0  0  0
  -35.5598   56.8424   58.0218 C   0  0  0  0  0  0  0  0  0  0  0  0
  -34.2469   56.8948   58.7641 C   0  0  0  0  0  0  0  0  0  0  0  0
  -34.0914   55.7795   59.7639 C   0  0  0  0  0  0  0  0  0  0  0  0
  -33.3820   56.2034   61.0309 C   0  0  0  0  0  0  0  0  0  0  0  0
  -34.2899   56.9478   61.9889 C   0  0  0  0  0  0  0  0  0  0  0  0
  -33.9047   58.3962   62.2058 C   0  0  0  0  0  0  0  0  0  0  0  0
  -32.4425   58.5939   62.5891 C   0  0  0  0  0  0  0  0  0  0  0  0
  -31.7294   59.6543   61.7722 C   0  0  0  0  0  0  0  0  0  0  0  0
  -30.3205   59.9374   62.2519 C   0  0  0  0  0  0  0  0  0  0  0  0
  -30.0130   61.4209   62.4004 C   0  0  0  0  0  0  0  0  0  0  0  0
  -31.2248   62.3149   62.2071 C   0  0  0  0  0  0  0  0  0  0  0  0
  -31.0648   63.7957   64.2364 C   0  0  0  0  0  0  0  0  0  0  0  0
  -31.8895   62.7697   63.4926 C   0  0  0  0  0  0  0  0  0  0  0  0
  -39.6572   60.3850   63.8244 C   0  0  0  0  0  0  0  0  0  0  0  0
  -38.5095   60.5149   64.6930 O   0  0  0  0  0  0  0  0  0  0  0  0
  -37.1373   61.1909   64.2221 P   0  0  0  0  0  0  0  0  0  0  0  0
  -36.0271   60.2993   64.6210 O   0  0  0  0  0  0  0  0  0  0  0  0
  -37.2731   61.5641   62.7935 O   0  0  0  0  0  0  0  0  0  0  0  0
  -37.3487   60.7607   62.2552 H   0  0  0  0  0  0  0  0  0  0  0  0
  -37.0161   62.5357   65.0703 O   0  0  0  0  0  0  0  0  0  0  0  0
  -35.9420   63.4612   64.8058 C   0  0  0  0  0  0  0  0  0  0  0  0
  -36.8537   64.1284   66.9191 O   0  0  0  0  0  0  0  0  0  0  0  0
  -35.7619   64.3402   66.0191 C   0  0  0  0  0  0  0  0  0  0  0  0
  -37.6904   64.2935   66.4570 H   0  0  0  0  0  0  0  0  0  0  0  0
  -34.5323   62.9239   67.5359 O   0  0  0  0  0  0  0  0  0  0  0  0
  -34.4500   64.0873   66.7225 C   0  0  0  0  0  0  0  0  0  0  0  0
  -33.6817   62.7782   67.9787 H   0  0  0  0  0  0  0  0  0  0  0  0
  -41.1413   59.5593   65.6048 O   0  0  0  0  0  0  0  0  0  0  0  0
  -42.3323   58.1034   66.8386 O   0  0  0  0  0  0  0  0  0  0  0  0
  -42.2574   58.8750   65.9216 C   0  0  0  0  0  0  0  0  0  0  0  0
  -43.3958   59.2049   65.0068 C   0  0  0  0  0  0  0  0  0  0  0  0
  -44.7405   58.8723   65.6455 C   0  0  0  0  0  0  0  0  0  0  0  0
  -45.3539   57.5730   65.1498 C   0  0  0  0  0  0  0  0  0  0  0  0
  -46.8256   57.4154   65.5143 C   0  0  0  0  0  0  0  0  0  0  0  0
  -47.2870   58.3356   66.6291 C   0  0  0  0  0  0  0  0  0  0  0  0
  -48.4536   59.2543   66.2546 C   0  0  0  0  0  0  0  0  0  0  0  0
  -49.5270   58.6166   65.3699 C   0  0  0  0  0  0  0  0  0  0  0  0
  -50.6513   59.5635   65.0745 C   0  0  0  0  0  0  0  0  0  0  0  0
  -51.3219   59.6611   63.9431 C   0  0  0  0  0  0  0  0  0  0  0  0
  -51.0999   58.8406   62.7119 C   0  0  0  0  0  0  0  0  0  0  0  0
  -49.8569   59.2734   61.9399 C   0  0  0  0  0  0  0  0  0  0  0  0
  -49.8407   58.8013   60.4966 C   0  0  0  0  0  0  0  0  0  0  0  0
  -50.2545   57.3500   60.3251 C   0  0  0  0  0  0  0  0  0  0  0  0
  -49.1650   56.4454   59.7735 C   0  0  0  0  0  0  0  0  0  0  0  0
  -47.7929   57.1010   59.7399 C   0  0  0  0  0  0  0  0  0  0  0  0
  -46.9477   56.7140   58.5426 C   0  0  0  0  0  0  0  0  0  0  0  0
  -46.1999   57.8795   57.9576 C   0  0  0  0  0  0  0  0  0  0  0  0
 21 22  1  0  0  0
  4  5  2  0  0  0
 25 24  1  0  0  0
 25 26  2  0  0  0
 25 27  1  0  0  0
 25 29  1  0  0  0
 22 20  1  0  0  0
  3  5  1  0  0  0
  3  2  1  0  0  0
 20 19  1  0  0  0
 24 23  1  0  0  0
 19 18  1  0  0  0
 18 17  1  0  0  0
 27 28  1  0  0  0
 17 16  1  0  0  0
 29 30  1  0  0  0
 16 15  1  0  0  0
 34 35  1  0  0  0
 34 36  1  0  0  0
 15 14  1  0  0  0
 31 32  1  0  0  0
 31 33  1  0  0  0
 14 13  1  0  0  0
 37  1  1  0  0  0
 37 39  1  0  0  0
 13 12  1  0  0  0
 38 39  2  0  0  0
 12 11  1  0  0  0
 11 10  1  0  0  0
 10  9  1  0  0  0
  9  8  1  0  0  0
  8  7  1  0  0  0
  7  6  1  0  0  0
  6  5  1  0  0  0
  2  1  1  0  0  0
  1 23  1  0  0  0
 30 32  1  0  0  0
 32 35  1  0  0  0
 39 40  1  0  0  0
 40 41  1  0  0  0
 41 42  1  0  0  0
 42 43  1  0  0  0
 43 44  1  0  0  0
 44 45  1  0  0  0
 45 46  1  0  0  0
 46 47  1  0  0  0
 47 48  2  0  0  0
 48 49  1  0  0  0
 49 50  1  0  0  0
 50 51  1  0  0  0
 51 52  1  0  0  0
 52 53  1  0  0  0
 53 54  1  0  0  0
 54 55  1  0  0  0
 55 56  1  0  0  0
M  CHG 1  26  -1
M  END
> <minimizedAffinity>
-8.87564

> <CNNscore>
0.3881460130

> <CNNaffinity>
6.9477510452

> <CNN_VS>
2.6967418194

> <CNNaffinity_variance>
0.8592495918

$$$$
/media/chris/experiments/cd1a-new-docking/inputs/ligands/7sh4_ligand.pdb


 56 55  0  0  0  0  0  0  0  0999 V2000
  -38.1211   60.3771   65.2659 C   0  0  0  0  0  0  0  0  0  0  0  0
  -37.6171   58.9870   64.9989 C   0  0  0  0  0  0  0  0  0  0  0  0
  -36.2080   59.1693   64.7452 O   0  0  0  0  0  0  0  0  0  0  0  0
  -35.9923   56.9905   64.2919 O   0  0  0  0  0  0  0  0  0  0  0  0
  -35.5106   58.0855   64.4032 C   0  0  0  0  0  0  0  0  0  0  0  0
  -34.0924   58.4392   64.0587 C   0  0  0  0  0  0  0  0  0  0  0  0
  -33.7857   58.3952   62.5714 C   0  0  0  0  0  0  0  0  0  0  0  0
  -32.5358   57.6019   62.2537 C   0  0  0  0  0  0  0  0  0  0  0  0
  -32.7924   56.3184   61.4971 C   0  0  0  0  0  0  0  0  0  0  0  0
  -34.2662   56.0455   61.2744 C   0  0  0  0  0  0  0  0  0  0  0  0
  -34.5660   55.4829   59.9065 C   0  0  0  0  0  0  0  0  0  0  0  0
  -33.5351   55.8610   58.8759 C   0  0  0  0  0  0  0  0  0  0  0  0
  -34.0962   56.6891   57.7411 C   0  0  0  0  0  0  0  0  0  0  0  0
  -34.9972   57.8080   58.2230 C   0  0  0  0  0  0  0  0  0  0  0  0
  -36.4169   57.7259   57.7022 C   0  0  0  0  0  0  0  0  0  0  0  0
  -37.4611   58.2669   58.6723 C   0  0  0  0  0  0  0  0  0  0  0  0
  -37.5231   57.5195   59.9905 C   0  0  0  0  0  0  0  0  0  0  0  0
  -37.1281   58.3674   61.1824 C   0  0  0  0  0  0  0  0  0  0  0  0
  -37.9230   59.6601   61.3018 C   0  0  0  0  0  0  0  0  0  0  0  0
  -39.3357   59.4590   61.8202 C   0  0  0  0  0  0  0  0  0  0  0  0
  -40.3629   60.3282   59.6927 C   0  0  0  0  0  0  0  0  0  0  0  0
  -40.3746   60.3767   61.2039 C   0  0  0  0  0  0  0  0  0  0  0  0
  -37.1130   61.2108   66.0145 C   0  0  0  0  0  0  0  0  0  0  0  0
  -36.9619   62.4780   65.3364 O   0  0  0  0  0  0  0  0  0  0  0  0
  -35.8484   63.5528   65.7445 P   0  0  0  0  0  0  0  0  0  0  0  0
  -36.1209   64.8002   64.9985 O   0  0  0  0  0  0  0  0  0  0  0  0
  -35.7810   63.6084   67.2247 O   0  0  0  0  0  0  0  0  0  0  0  0
  -36.6110   63.9700   67.5728 H   0  0  0  0  0  0  0  0  0  0  0  0
  -34.4691   62.9545   65.2134 O   0  0  0  0  0  0  0  0  0  0  0  0
  -33.2372   63.2656   65.8960 C   0  0  0  0  0  0  0  0  0  0  0  0
  -31.4382   64.8474   65.9562 O   0  0  0  0  0  0  0  0  0  0  0  0
  -32.6614   64.5216   65.2894 C   0  0  0  0  0  0  0  0  0  0  0  0
  -31.6014   64.9313   66.9086 H   0  0  0  0  0  0  0  0  0  0  0  0
  -33.6434   64.5392   63.0864 O   0  0  0  0  0  0  0  0  0  0  0  0
  -32.4255   64.3868   63.8042 C   0  0  0  0  0  0  0  0  0  0  0  0
  -33.4718   64.4496   62.1359 H   0  0  0  0  0  0  0  0  0  0  0  0
  -39.3890   60.2761   65.9954 O   0  0  0  0  0  0  0  0  0  0  0  0
  -40.8300   61.2185   64.5478 O   0  0  0  0  0  0  0  0  0  0  0  0
  -40.5189   60.3055   65.2629 C   0  0  0  0  0  0  0  0  0  0  0  0
  -41.3295   59.0581   65.4324 C   0  0  0  0  0  0  0  0  0  0  0  0
  -42.2592   59.1552   66.6378 C   0  0  0  0  0  0  0  0  0  0  0  0
  -42.8921   57.8320   67.0363 C   0  0  0  0  0  0  0  0  0  0  0  0
  -43.4628   57.0500   65.8589 C   0  0  0  0  0  0  0  0  0  0  0  0
  -44.9791   57.0393   65.8021 C   0  0  0  0  0  0  0  0  0  0  0  0
  -45.6548   58.1418   66.6225 C   0  0  0  0  0  0  0  0  0  0  0  0
  -46.4900   59.1367   65.8137 C   0  0  0  0  0  0  0  0  0  0  0  0
  -47.9040   59.2181   66.3055 C   0  0  0  0  0  0  0  0  0  0  0  0
  -48.9953   58.9617   65.6107 C   0  0  0  0  0  0  0  0  0  0  0  0
  -49.0492   58.5318   64.1787 C   0  0  0  0  0  0  0  0  0  0  0  0
  -49.1119   59.7151   63.2173 C   0  0  0  0  0  0  0  0  0  0  0  0
  -50.2088   59.5952   62.1740 C   0  0  0  0  0  0  0  0  0  0  0  0
  -51.0104   58.3092   62.2768 C   0  0  0  0  0  0  0  0  0  0  0  0
  -50.7259   57.3001   61.1767 C   0  0  0  0  0  0  0  0  0  0  0  0
  -49.9550   57.8849   60.0030 C   0  0  0  0  0  0  0  0  0  0  0  0
  -48.7386   57.0782   59.5939 C   0  0  0  0  0  0  0  0  0  0  0  0
  -48.6716   56.8385   58.1113 C   0  0  0  0  0  0  0  0  0  0  0  0
 21 22  1  0  0  0
  4  5  2  0  0  0
 25 24  1  0  0  0
 25 26  2  0  0  0
 25 27  1  0  0  0
 25 29  1  0  0  0
 22 20  1  0  0  0
  3  5  1  0  0  0
  3  2  1  0  0  0
 20 19  1  0  0  0
 24 23  1  0  0  0
 19 18  1  0  0  0
 18 17  1  0  0  0
 27 28  1  0  0  0
 17 16  1  0  0  0
 29 30  1  0  0  0
 16 15  1  0  0  0
 34 35  1  0  0  0
 34 36  1  0  0  0
 15 14  1  0  0  0
 31 32  1  0  0  0
 31 33  1  0  0  0
 14 13  1  0  0  0
 37  1  1  0  0  0
 37 39  1  0  0  0
 13 12  1  0  0  0
 38 39  2  0  0  0
 12 11  1  0  0  0
 11 10  1  0  0  0
 10  9  1  0  0  0
  9  8  1  0  0  0
  8  7  1  0  0  0
  7  6  1  0  0  0
  6  5  1  0  0  0
  2  1  1  0  0  0
  1 23  1  0  0  0
 30 32  1  0  0  0
 32 35  1  0  0  0
 39 40  1  0  0  0
 40 41  1  0  0  0
 41 42  1  0  0  0
 42 43  1  0  0  0
 43 44  1  0  0  0
 44 45  1  0  0  0
 45 46  1  0  0  0
 46 47  1  0  0  0
 47 48  2  0  0  0
 48 49  1  0  0  0
 49 50  1  0  0  0
 50 51  1  0  0  0
 51 52  1  0  0  0
 52 53  1  0  0  0
 53 54  1  0  0  0
 54 55  1  0  0  0
 55 56  1  0  0  0
M  CHG 1  26  -1
M  END
> <minimizedAffinity>
-8.58917

> <CNNscore>
0.3733823001

> <CNNaffinity>
7.3385887146

> <CNN_VS>
2.7400991917

> <CNNaffinity_variance>
0.9512118101

$$$$
/media/chris/experiments/cd1a-new-docking/inputs/ligands/7sh4_ligand.pdb


 56 55  0  0  0  0  0  0  0  0999 V2000
  -37.1407   61.0643   62.9579 C   0  0  0  0  0  0  0  0  0  0  0  0
  -36.2888   59.8448   62.7462 C   0  0  0  0  0  0  0  0  0  0  0  0
  -35.0356   60.1802   63.3789 O   0  0  0  0  0  0  0  0  0  0  0  0
  -32.9488   60.0463   62.5876 O   0  0  0  0  0  0  0  0  0  0  0  0
  -33.9553   59.5138   62.9706 C   0  0  0  0  0  0  0  0  0  0  0  0
  -34.1216   58.0351   63.1722 C   0  0  0  0  0  0  0  0  0  0  0  0
  -33.3111   57.1827   62.2107 C   0  0  0  0  0  0  0  0  0  0  0  0
  -33.8574   57.2110   60.7988 C   0  0  0  0  0  0  0  0  0  0  0  0
  -35.1413   56.4340   60.6158 C   0  0  0  0  0  0  0  0  0  0  0  0
  -36.2692   57.2755   60.0536 C   0  0  0  0  0  0  0  0  0  0  0  0
  -37.6181   56.9232   60.6315 C   0  0  0  0  0  0  0  0  0  0  0  0
  -37.5885   56.7405   62.1259 C   0  0  0  0  0  0  0  0  0  0  0  0
  -38.7224   57.4430   62.8393 C   0  0  0  0  0  0  0  0  0  0  0  0
  -38.5102   57.5244   64.3375 C   0  0  0  0  0  0  0  0  0  0  0  0
  -39.6717   58.1346   65.0938 C   0  0  0  0  0  0  0  0  0  0  0  0
  -40.6225   58.9409   64.2164 C   0  0  0  0  0  0  0  0  0  0  0  0
  -41.7616   59.5911   64.9778 C   0  0  0  0  0  0  0  0  0  0  0  0
  -42.0344   58.9450   66.3207 C   0  0  0  0  0  0  0  0  0  0  0  0
  -43.5067   58.6451   66.5657 C   0  0  0  0  0  0  0  0  0  0  0  0
  -43.9464   57.2902   66.0406 C   0  0  0  0  0  0  0  0  0  0  0  0
  -45.8368   57.8234   64.4663 C   0  0  0  0  0  0  0  0  0  0  0  0
  -45.4336   57.1674   65.7675 C   0  0  0  0  0  0  0  0  0  0  0  0
  -37.1326   61.5181   64.3952 C   0  0  0  0  0  0  0  0  0  0  0  0
  -36.9134   62.9460   64.4309 O   0  0  0  0  0  0  0  0  0  0  0  0
  -35.9205   63.6454   65.4735 P   0  0  0  0  0  0  0  0  0  0  0  0
  -35.8076   65.0744   65.1103 O   0  0  0  0  0  0  0  0  0  0  0  0
  -36.3652   63.2915   66.8430 O   0  0  0  0  0  0  0  0  0  0  0  0
  -37.2293   63.6962   67.0171 H   0  0  0  0  0  0  0  0  0  0  0  0
  -34.5007   62.9626   65.2277 O   0  0  0  0  0  0  0  0  0  0  0  0
  -33.3017   63.5922   65.7239 C   0  0  0  0  0  0  0  0  0  0  0  0
  -32.5844   62.6860   63.6247 O   0  0  0  0  0  0  0  0  0  0  0  0
  -32.3219   63.7155   64.5829 C   0  0  0  0  0  0  0  0  0  0  0  0
  -32.5454   61.8205   64.0610 H   0  0  0  0  0  0  0  0  0  0  0  0
  -33.2278   65.9501   64.6470 O   0  0  0  0  0  0  0  0  0  0  0  0
  -32.3788   65.0710   63.9202 C   0  0  0  0  0  0  0  0  0  0  0  0
  -33.2515   66.8141   64.2067 H   0  0  0  0  0  0  0  0  0  0  0  0
  -38.4984   60.7654   62.4919 O   0  0  0  0  0  0  0  0  0  0  0  0
  -37.7372   60.4132   60.4046 O   0  0  0  0  0  0  0  0  0  0  0  0
  -38.6502   60.5069   61.1788 C   0  0  0  0  0  0  0  0  0  0  0  0
  -40.0895   60.3324   60.8046 C   0  0  0  0  0  0  0  0  0  0  0  0
  -40.2478   60.0307   59.3178 C   0  0  0  0  0  0  0  0  0  0  0  0
  -41.6700   59.6865   58.9067 C   0  0  0  0  0  0  0  0  0  0  0  0
  -41.8008   59.2838   57.4423 C   0  0  0  0  0  0  0  0  0  0  0  0
  -43.2119   58.9085   57.0293 C   0  0  0  0  0  0  0  0  0  0  0  0
  -44.0218   58.1886   58.1113 C   0  0  0  0  0  0  0  0  0  0  0  0
  -45.5415   58.2785   57.9557 C   0  0  0  0  0  0  0  0  0  0  0  0
  -46.0743   57.2459   57.0082 C   0  0  0  0  0  0  0  0  0  0  0  0
  -47.2712   56.6926   57.0382 C   0  0  0  0  0  0  0  0  0  0  0  0
  -48.3535   56.9837   58.0293 C   0  0  0  0  0  0  0  0  0  0  0  0
  -48.1949   56.1810   59.3173 C   0  0  0  0  0  0  0  0  0  0  0  0
  -49.4555   56.1298   60.1626 C   0  0  0  0  0  0  0  0  0  0  0  0
  -50.1119   57.4851   60.3614 C   0  0  0  0  0  0  0  0  0  0  0  0
  -51.2604   57.4886   61.3566 C   0  0  0  0  0  0  0  0  0  0  0  0
  -51.0372   58.4230   62.5358 C   0  0  0  0  0  0  0  0  0  0  0  0
  -49.6511   58.3374   63.1436 C   0  0  0  0  0  0  0  0  0  0  0  0
  -48.9840   59.6794   63.2613 C   0  0  0  0  0  0  0  0  0  0  0  0
 21 22  1  0  0  0
  4  5  2  0  0  0
 25 24  1  0  0  0
 25 26  2  0  0  0
 25 27  1  0  0  0
 25 29  1  0  0  0
 22 20  1  0  0  0
  3  5  1  0  0  0
  3  2  1  0  0  0
 20 19  1  0  0  0
 24 23  1  0  0  0
 19 18  1  0  0  0
 18 17  1  0  0  0
 27 28  1  0  0  0
 17 16  1  0  0  0
 29 30  1  0  0  0
 16 15  1  0  0  0
 34 35  1  0  0  0
 34 36  1  0  0  0
 15 14  1  0  0  0
 31 32  1  0  0  0
 31 33  1  0  0  0
 14 13  1  0  0  0
 37  1  1  0  0  0
 37 39  1  0  0  0
 13 12  1  0  0  0
 38 39  2  0  0  0
 12 11  1  0  0  0
 11 10  1  0  0  0
 10  9  1  0  0  0
  9  8  1  0  0  0
  8  7  1  0  0  0
  7  6  1  0  0  0
  6  5  1  0  0  0
  2  1  1  0  0  0
  1 23  1  0  0  0
 30 32  1  0  0  0
 32 35  1  0  0  0
 39 40  1  0  0  0
 40 41  1  0  0  0
 41 42  1  0  0  0
 42 43  1  0  0  0
 43 44  1  0  0  0
 44 45  1  0  0  0
 45 46  1  0  0  0
 46 47  1  0  0  0
 47 48  2  0  0  0
 48 49  1  0  0  0
 49 50  1  0  0  0
 50 51  1  0  0  0
 51 52  1  0  0  0
 52 53  1  0  0  0
 53 54  1  0  0  0
 54 55  1  0  0  0
 55 56  1  0  0  0
M  CHG 1  26  -1
M  END
> <minimizedAffinity>
-7.98393

> <CNNscore>
0.3679865301

> <CNNaffinity>
7.1733770370

> <CNN_VS>
2.6397061348

> <CNNaffinity_variance>
0.8399790525

$$$$
