/media/chris/experiments/cd1a-new-docking/inputs/ligands/7sh4_ligand.pdb


 56 55  0  0  0  0  0  0  0  0999 V2000
  -37.5203   60.8128   64.4035 C   0  0  0  0  0  0  0  0  0  0  0  0
  -36.5411   59.7083   64.6840 C   0  0  0  0  0  0  0  0  0  0  0  0
  -36.6983   58.8098   63.5655 O   0  0  0  0  0  0  0  0  0  0  0  0
  -38.0235   57.4170   64.7070 O   0  0  0  0  0  0  0  0  0  0  0  0
  -37.6525   57.8837   63.6639 C   0  0  0  0  0  0  0  0  0  0  0  0
  -38.2760   57.6028   62.3270 C   0  0  0  0  0  0  0  0  0  0  0  0
  -39.0451   58.7753   61.7423 C   0  0  0  0  0  0  0  0  0  0  0  0
  -38.2373   59.5600   60.7302 C   0  0  0  0  0  0  0  0  0  0  0  0
  -38.4526   59.1284   59.2972 C   0  0  0  0  0  0  0  0  0  0  0  0
  -37.1727   58.7012   58.6076 C   0  0  0  0  0  0  0  0  0  0  0  0
  -37.3766   57.5801   57.6183 C   0  0  0  0  0  0  0  0  0  0  0  0
  -36.4195   56.4353   57.8208 C   0  0  0  0  0  0  0  0  0  0  0  0
  -34.9943   56.8800   58.0640 C   0  0  0  0  0  0  0  0  0  0  0  0
  -34.4139   56.3115   59.3430 C   0  0  0  0  0  0  0  0  0  0  0  0
  -35.2921   56.5078   60.5610 C   0  0  0  0  0  0  0  0  0  0  0  0
  -34.5134   56.7321   61.8522 C   0  0  0  0  0  0  0  0  0  0  0  0
  -33.0176   56.5228   61.7140 C   0  0  0  0  0  0  0  0  0  0  0  0
  -32.1943   57.5441   62.4716 C   0  0  0  0  0  0  0  0  0  0  0  0
  -32.3819   58.9703   61.9732 C   0  0  0  0  0  0  0  0  0  0  0  0
  -31.1213   59.8126   62.0528 C   0  0  0  0  0  0  0  0  0  0  0  0
  -32.6431   61.7024   62.7227 C   0  0  0  0  0  0  0  0  0  0  0  0
  -31.3566   61.3110   62.0316 C   0  0  0  0  0  0  0  0  0  0  0  0
  -36.8454   62.1571   64.3080 C   0  0  0  0  0  0  0  0  0  0  0  0
  -35.7666   62.2052   65.2684 O   0  0  0  0  0  0  0  0  0  0  0  0
  -35.8464   63.0581   66.6205 P   0  0  0  0  0  0  0  0  0  0  0  0
  -36.7159   64.2283   66.3730 O   0  0  0  0  0  0  0  0  0  0  0  0
  -36.1920   62.1354   67.7285 O   0  0  0  0  0  0  0  0  0  0  0  0
  -37.0915   61.7964   67.5983 H   0  0  0  0  0  0  0  0  0  0  0  0
  -34.3647   63.5916   66.8713 O   0  0  0  0  0  0  0  0  0  0  0  0
  -33.3394   63.3656   65.8826 C   0  0  0  0  0  0  0  0  0  0  0  0
  -31.2385   64.4257   65.4298 O   0  0  0  0  0  0  0  0  0  0  0  0
  -32.6344   64.6739   65.6207 C   0  0  0  0  0  0  0  0  0  0  0  0
  -30.8848   63.9569   66.2020 H   0  0  0  0  0  0  0  0  0  0  0  0
  -34.5606   65.7565   64.6532 O   0  0  0  0  0  0  0  0  0  0  0  0
  -33.2019   65.4037   64.4270 C   0  0  0  0  0  0  0  0  0  0  0  0
  -34.9070   66.2236   63.8768 H   0  0  0  0  0  0  0  0  0  0  0  0
  -38.5476   60.7957   65.4496 O   0  0  0  0  0  0  0  0  0  0  0  0
  -40.3154   60.9686   64.0693 O   0  0  0  0  0  0  0  0  0  0  0  0
  -39.8086   60.5232   65.0625 C   0  0  0  0  0  0  0  0  0  0  0  0
  -40.4948   59.5861   66.0074 C   0  0  0  0  0  0  0  0  0  0  0  0
  -41.4230   58.6276   65.2683 C   0  0  0  0  0  0  0  0  0  0  0  0
  -42.4753   57.9820   66.1549 C   0  0  0  0  0  0  0  0  0  0  0  0
  -43.7627   58.7912   66.2613 C   0  0  0  0  0  0  0  0  0  0  0  0
  -44.7370   58.5532   65.1227 C   0  0  0  0  0  0  0  0  0  0  0  0
  -46.0834   59.2660   65.2772 C   0  0  0  0  0  0  0  0  0  0  0  0
  -47.2992   58.4749   64.7898 C   0  0  0  0  0  0  0  0  0  0  0  0
  -48.5644   58.9097   65.4666 C   0  0  0  0  0  0  0  0  0  0  0  0
  -49.6545   59.3653   64.8804 C   0  0  0  0  0  0  0  0  0  0  0  0
  -49.8569   59.5424   63.4086 C   0  0  0  0  0  0  0  0  0  0  0  0
  -51.1516   58.9014   62.9175 C   0  0  0  0  0  0  0  0  0  0  0  0
  -50.9508   57.9186   61.7774 C   0  0  0  0  0  0  0  0  0  0  0  0
  -49.4931   57.5882   61.5066 C   0  0  0  0  0  0  0  0  0  0  0  0
  -49.0172   57.9402   60.1070 C   0  0  0  0  0  0  0  0  0  0  0  0
  -48.0986   56.8916   59.4981 C   0  0  0  0  0  0  0  0  0  0  0  0
  -47.6601   57.1971   58.0796 C   0  0  0  0  0  0  0  0  0  0  0  0
  -46.3635   57.9556   58.0224 C   0  0  0  0  0  0  0  0  0  0  0  0
 21 22  1  0  0  0
  4  5  2  0  0  0
 25 24  1  0  0  0
 25 26  2  0  0  0
 25 27  1  0  0  0
 25 29  1  0  0  0
 22 20  1  0  0  0
  3  5  1  0  0  0
  3  2  1  0  0  0
 20 19  1  0  0  0
 24 23  1  0  0  0
 19 18  1  0  0  0
 18 17  1  0  0  0
 27 28  1  0  0  0
 17 16  1  0  0  0
 29 30  1  0  0  0
 16 15  1  0  0  0
 34 35  1  0  0  0
 34 36  1  0  0  0
 15 14  1  0  0  0
 31 32  1  0  0  0
 31 33  1  0  0  0
 14 13  1  0  0  0
 37  1  1  0  0  0
 37 39  1  0  0  0
 13 12  1  0  0  0
 38 39  2  0  0  0
 12 11  1  0  0  0
 11 10  1  0  0  0
 10  9  1  0  0  0
  9  8  1  0  0  0
  8  7  1  0  0  0
  7  6  1  0  0  0
  6  5  1  0  0  0
  2  1  1  0  0  0
  1 23  1  0  0  0
 30 32  1  0  0  0
 32 35  1  0  0  0
 39 40  1  0  0  0
 40 41  1  0  0  0
 41 42  1  0  0  0
 42 43  1  0  0  0
 43 44  1  0  0  0
 44 45  1  0  0  0
 45 46  1  0  0  0
 46 47  1  0  0  0
 47 48  2  0  0  0
 48 49  1  0  0  0
 49 50  1  0  0  0
 50 51  1  0  0  0
 51 52  1  0  0  0
 52 53  1  0  0  0
 53 54  1  0  0  0
 54 55  1  0  0  0
 55 56  1  0  0  0
M  CHG 1  26  -1
M  END
> <minimizedAffinity>
-8.86137

> <CNNscore>
0.4715575278

> <CNNaffinity>
7.3439064026

> <CNN_VS>
3.4630744457

> <CNNaffinity_variance>
1.0308094025

$$$$
/media/chris/experiments/cd1a-new-docking/inputs/ligands/7sh4_ligand.pdb


 56 55  0  0  0  0  0  0  0  0999 V2000
  -38.2840   58.0639   63.6203 C   0  0  0  0  0  0  0  0  0  0  0  0
  -36.9304   57.6835   64.1503 C   0  0  0  0  0  0  0  0  0  0  0  0
  -36.0437   57.9021   63.0326 O   0  0  0  0  0  0  0  0  0  0  0  0
  -35.3085   60.0100   62.9096 O   0  0  0  0  0  0  0  0  0  0  0  0
  -35.1194   58.8529   63.1717 C   0  0  0  0  0  0  0  0  0  0  0  0
  -33.8735   58.3092   63.8096 C   0  0  0  0  0  0  0  0  0  0  0  0
  -32.9331   57.6130   62.8404 C   0  0  0  0  0  0  0  0  0  0  0  0
  -32.4499   58.5268   61.7339 C   0  0  0  0  0  0  0  0  0  0  0  0
  -31.3361   59.4626   62.1457 C   0  0  0  0  0  0  0  0  0  0  0  0
  -31.7816   60.9075   62.2452 C   0  0  0  0  0  0  0  0  0  0  0  0
  -30.9332   61.8486   61.4256 C   0  0  0  0  0  0  0  0  0  0  0  0
  -30.9279   63.2554   61.9628 C   0  0  0  0  0  0  0  0  0  0  0  0
  -32.2822   63.9262   61.9026 C   0  0  0  0  0  0  0  0  0  0  0  0
  -32.6686   64.5836   63.2120 C   0  0  0  0  0  0  0  0  0  0  0  0
  -32.3061   63.7750   64.4401 C   0  0  0  0  0  0  0  0  0  0  0  0
  -32.3153   64.5817   65.7335 C   0  0  0  0  0  0  0  0  0  0  0  0
  -33.6837   65.1081   66.1218 C   0  0  0  0  0  0  0  0  0  0  0  0
  -34.4839   64.1387   66.9672 C   0  0  0  0  0  0  0  0  0  0  0  0
  -35.8541   63.8124   66.3896 C   0  0  0  0  0  0  0  0  0  0  0  0
  -36.0183   64.2330   64.9400 C   0  0  0  0  0  0  0  0  0  0  0  0
  -35.9834   63.5076   62.5300 C   0  0  0  0  0  0  0  0  0  0  0  0
  -36.2104   63.0874   63.9645 C   0  0  0  0  0  0  0  0  0  0  0  0
  -38.4454   57.7002   62.1665 C   0  0  0  0  0  0  0  0  0  0  0  0
  -39.0177   58.8272   61.4659 O   0  0  0  0  0  0  0  0  0  0  0  0
  -38.1748   59.7406   60.4575 P   0  0  0  0  0  0  0  0  0  0  0  0
  -39.0742   60.1644   59.3628 O   0  0  0  0  0  0  0  0  0  0  0  0
  -37.4779   60.7818   61.2505 O   0  0  0  0  0  0  0  0  0  0  0  0
  -38.1318   61.3838   61.6392 H   0  0  0  0  0  0  0  0  0  0  0  0
  -37.0679   58.7745   59.8374 O   0  0  0  0  0  0  0  0  0  0  0  0
  -37.2809   58.1682   58.5463 C   0  0  0  0  0  0  0  0  0  0  0  0
  -36.8867   56.1619   57.2966 O   0  0  0  0  0  0  0  0  0  0  0  0
  -36.7548   56.7546   58.5919 C   0  0  0  0  0  0  0  0  0  0  0  0
  -37.8131   56.2084   57.0125 H   0  0  0  0  0  0  0  0  0  0  0  0
  -35.2364   56.7983   60.4657 O   0  0  0  0  0  0  0  0  0  0  0  0
  -35.3175   56.6907   59.0502 C   0  0  0  0  0  0  0  0  0  0  0  0
  -34.3071   56.7552   60.7405 H   0  0  0  0  0  0  0  0  0  0  0  0
  -38.4806   59.4995   63.8445 O   0  0  0  0  0  0  0  0  0  0  0  0
  -38.9682   60.6695   65.7028 O   0  0  0  0  0  0  0  0  0  0  0  0
  -39.2714   59.8537   64.8756 C   0  0  0  0  0  0  0  0  0  0  0  0
  -40.5782   59.1231   64.8565 C   0  0  0  0  0  0  0  0  0  0  0  0
  -41.3844   59.3865   66.1243 C   0  0  0  0  0  0  0  0  0  0  0  0
  -42.6436   58.5433   66.2403 C   0  0  0  0  0  0  0  0  0  0  0  0
  -43.8255   59.1014   65.4559 C   0  0  0  0  0  0  0  0  0  0  0  0
  -45.1761   58.6087   65.9412 C   0  0  0  0  0  0  0  0  0  0  0  0
  -46.2933   58.6806   64.8964 C   0  0  0  0  0  0  0  0  0  0  0  0
  -47.6426   59.1787   65.4185 C   0  0  0  0  0  0  0  0  0  0  0  0
  -48.1640   60.3367   64.6216 C   0  0  0  0  0  0  0  0  0  0  0  0
  -49.3221   60.4028   63.9939 C   0  0  0  0  0  0  0  0  0  0  0  0
  -50.3636   59.3296   63.9478 C   0  0  0  0  0  0  0  0  0  0  0  0
  -51.0545   59.2467   62.5899 C   0  0  0  0  0  0  0  0  0  0  0  0
  -50.9374   57.8847   61.9286 C   0  0  0  0  0  0  0  0  0  0  0  0
  -49.6217   57.6716   61.1999 C   0  0  0  0  0  0  0  0  0  0  0  0
  -49.7610   57.4318   59.7058 C   0  0  0  0  0  0  0  0  0  0  0  0
  -48.4278   57.2675   58.9919 C   0  0  0  0  0  0  0  0  0  0  0  0
  -48.5392   56.7089   57.5871 C   0  0  0  0  0  0  0  0  0  0  0  0
  -47.1995   56.4714   56.9480 C   0  0  0  0  0  0  0  0  0  0  0  0
 21 22  1  0  0  0
  4  5  2  0  0  0
 25 24  1  0  0  0
 25 26  2  0  0  0
 25 27  1  0  0  0
 25 29  1  0  0  0
 22 20  1  0  0  0
  3  5  1  0  0  0
  3  2  1  0  0  0
 20 19  1  0  0  0
 24 23  1  0  0  0
 19 18  1  0  0  0
 18 17  1  0  0  0
 27 28  1  0  0  0
 17 16  1  0  0  0
 29 30  1  0  0  0
 16 15  1  0  0  0
 34 35  1  0  0  0
 34 36  1  0  0  0
 15 14  1  0  0  0
 31 32  1  0  0  0
 31 33  1  0  0  0
 14 13  1  0  0  0
 37  1  1  0  0  0
 37 39  1  0  0  0
 13 12  1  0  0  0
 38 39  2  0  0  0
 12 11  1  0  0  0
 11 10  1  0  0  0
 10  9  1  0  0  0
  9  8  1  0  0  0
  8  7  1  0  0  0
  7  6  1  0  0  0
  6  5  1  0  0  0
  2  1  1  0  0  0
  1 23  1  0  0  0
 30 32  1  0  0  0
 32 35  1  0  0  0
 39 40  1  0  0  0
 40 41  1  0  0  0
 41 42  1  0  0  0
 42 43  1  0  0  0
 43 44  1  0  0  0
 44 45  1  0  0  0
 45 46  1  0  0  0
 46 47  1  0  0  0
 47 48  2  0  0  0
 48 49  1  0  0  0
 49 50  1  0  0  0
 50 51  1  0  0  0
 51 52  1  0  0  0
 52 53  1  0  0  0
 53 54  1  0  0  0
 54 55  1  0  0  0
 55 56  1  0  0  0
M  CHG 1  26  -1
M  END
> <minimizedAffinity>
-8.39597

> <CNNscore>
0.4466926157

> <CNNaffinity>
7.1304168701

> <CNN_VS>
3.1851046085

> <CNNaffinity_variance>
0.4915028512

$$$$
/media/chris/experiments/cd1a-new-docking/inputs/ligands/7sh4_ligand.pdb


 56 55  0  0  0  0  0  0  0  0999 V2000
  -39.8913   59.3186   64.6873 C   0  0  0  0  0  0  0  0  0  0  0  0
  -39.3869   58.9070   63.3332 C   0  0  0  0  0  0  0  0  0  0  0  0
  -39.1982   60.1566   62.6361 O   0  0  0  0  0  0  0  0  0  0  0  0
  -37.2829   60.8027   61.6804 O   0  0  0  0  0  0  0  0  0  0  0  0
  -38.3027   60.1682   61.6484 C   0  0  0  0  0  0  0  0  0  0  0  0
  -38.6767   59.1975   60.5655 C   0  0  0  0  0  0  0  0  0  0  0  0
  -37.5252   58.3315   60.0835 C   0  0  0  0  0  0  0  0  0  0  0  0
  -37.4714   58.2142   58.5748 C   0  0  0  0  0  0  0  0  0  0  0  0
  -36.6393   57.0559   58.0730 C   0  0  0  0  0  0  0  0  0  0  0  0
  -35.1633   57.3844   57.9749 C   0  0  0  0  0  0  0  0  0  0  0  0
  -34.2815   56.3657   58.6547 C   0  0  0  0  0  0  0  0  0  0  0  0
  -34.9400   55.7173   59.8436 C   0  0  0  0  0  0  0  0  0  0  0  0
  -34.6034   56.3884   61.1567 C   0  0  0  0  0  0  0  0  0  0  0  0
  -33.1221   56.3460   61.4729 C   0  0  0  0  0  0  0  0  0  0  0  0
  -32.6398   57.4979   62.3294 C   0  0  0  0  0  0  0  0  0  0  0  0
  -32.2400   58.7337   61.5313 C   0  0  0  0  0  0  0  0  0  0  0  0
  -31.2663   59.6452   62.2535 C   0  0  0  0  0  0  0  0  0  0  0  0
  -31.3344   61.0862   61.7908 C   0  0  0  0  0  0  0  0  0  0  0  0
  -32.2624   61.9533   62.6301 C   0  0  0  0  0  0  0  0  0  0  0  0
  -32.5556   63.3074   62.0091 C   0  0  0  0  0  0  0  0  0  0  0  0
  -31.0073   64.0931   63.8315 C   0  0  0  0  0  0  0  0  0  0  0  0
  -31.7022   64.4455   62.5359 C   0  0  0  0  0  0  0  0  0  0  0  0
  -38.7820   59.3981   65.7046 C   0  0  0  0  0  0  0  0  0  0  0  0
  -38.4374   60.7865   65.9095 O   0  0  0  0  0  0  0  0  0  0  0  0
  -37.0587   61.4220   65.4023 P   0  0  0  0  0  0  0  0  0  0  0  0
  -36.0555   60.3381   65.3261 O   0  0  0  0  0  0  0  0  0  0  0  0
  -37.3388   62.2203   64.1846 O   0  0  0  0  0  0  0  0  0  0  0  0
  -37.6156   61.6292   63.4670 H   0  0  0  0  0  0  0  0  0  0  0  0
  -36.6081   62.4279   66.5546 O   0  0  0  0  0  0  0  0  0  0  0  0
  -36.2240   63.7782   66.2243 C   0  0  0  0  0  0  0  0  0  0  0  0
  -34.3340   62.8611   67.3773 O   0  0  0  0  0  0  0  0  0  0  0  0
  -34.9157   64.0825   66.9120 C   0  0  0  0  0  0  0  0  0  0  0  0
  -34.9639   62.4025   67.9552 H   0  0  0  0  0  0  0  0  0  0  0  0
  -34.4974   64.9701   64.7084 O   0  0  0  0  0  0  0  0  0  0  0  0
  -33.9478   64.8102   66.0100 C   0  0  0  0  0  0  0  0  0  0  0  0
  -33.8622   65.4388   64.1446 H   0  0  0  0  0  0  0  0  0  0  0  0
  -40.9355   58.3745   65.0974 O   0  0  0  0  0  0  0  0  0  0  0  0
  -41.9894   58.8654   67.0232 O   0  0  0  0  0  0  0  0  0  0  0  0
  -41.9562   58.8704   65.8229 C   0  0  0  0  0  0  0  0  0  0  0  0
  -43.0337   59.4439   64.9557 C   0  0  0  0  0  0  0  0  0  0  0  0
  -44.2983   58.5921   64.9987 C   0  0  0  0  0  0  0  0  0  0  0  0
  -45.5251   59.3352   65.5018 C   0  0  0  0  0  0  0  0  0  0  0  0
  -46.8331   58.8239   64.9091 C   0  0  0  0  0  0  0  0  0  0  0  0
  -48.0266   58.9634   65.8358 C   0  0  0  0  0  0  0  0  0  0  0  0
  -49.0117   57.7921   65.7860 C   0  0  0  0  0  0  0  0  0  0  0  0
  -50.4852   58.1851   65.6590 C   0  0  0  0  0  0  0  0  0  0  0  0
  -50.6811   59.3525   64.7388 C   0  0  0  0  0  0  0  0  0  0  0  0
  -50.7339   59.3166   63.4214 C   0  0  0  0  0  0  0  0  0  0  0  0
  -50.6103   58.0953   62.5661 C   0  0  0  0  0  0  0  0  0  0  0  0
  -50.0771   58.4122   61.1720 C   0  0  0  0  0  0  0  0  0  0  0  0
  -50.0832   57.2199   60.2315 C   0  0  0  0  0  0  0  0  0  0  0  0
  -48.7701   56.4566   60.2059 C   0  0  0  0  0  0  0  0  0  0  0  0
  -48.6216   55.4984   59.0359 C   0  0  0  0  0  0  0  0  0  0  0  0
  -47.3729   55.7478   58.2036 C   0  0  0  0  0  0  0  0  0  0  0  0
  -47.4251   57.0107   57.3668 C   0  0  0  0  0  0  0  0  0  0  0  0
  -46.4775   58.0708   57.8543 C   0  0  0  0  0  0  0  0  0  0  0  0
 21 22  1  0  0  0
  4  5  2  0  0  0
 25 24  1  0  0  0
 25 26  2  0  0  0
 25 27  1  0  0  0
 25 29  1  0  0  0
 22 20  1  0  0  0
  3  5  1  0  0  0
  3  2  1  0  0  0
 20 19  1  0  0  0
 24 23  1  0  0  0
 19 18  1  0  0  0
 18 17  1  0  0  0
 27 28  1  0  0  0
 17 16  1  0  0  0
 29 30  1  0  0  0
 16 15  1  0  0  0
 34 35  1  0  0  0
 34 36  1  0  0  0
 15 14  1  0  0  0
 31 32  1  0  0  0
 31 33  1  0  0  0
 14 13  1  0  0  0
 37  1  1  0  0  0
 37 39  1  0  0  0
 13 12  1  0  0  0
 38 39  2  0  0  0
 12 11  1  0  0  0
 11 10  1  0  0  0
 10  9  1  0  0  0
  9  8  1  0  0  0
  8  7  1  0  0  0
  7  6  1  0  0  0
  6  5  1  0  0  0
  2  1  1  0  0  0
  1 23  1  0  0  0
 30 32  1  0  0  0
 32 35  1  0  0  0
 39 40  1  0  0  0
 40 41  1  0  0  0
 41 42  1  0  0  0
 42 43  1  0  0  0
 43 44  1  0  0  0
 44 45  1  0  0  0
 45 46  1  0  0  0
 46 47  1  0  0  0
 47 48  2  0  0  0
 48 49  1  0  0  0
 49 50  1  0  0  0
 50 51  1  0  0  0
 51 52  1  0  0  0
 52 53  1  0  0  0
 53 54  1  0  0  0
 54 55  1  0  0  0
 55 56  1  0  0  0
M  CHG 1  26  -1
M  END
> <minimizedAffinity>
-8.75659

> <CNNscore>
0.3878479302

> <CNNaffinity>
6.9631347656

> <CNN_VS>
2.7006373405

> <CNNaffinity_variance>
0.5437096357

$$$$
/media/chris/experiments/cd1a-new-docking/inputs/ligands/7sh4_ligand.pdb


 56 55  0  0  0  0  0  0  0  0999 V2000
  -38.5348   59.8466   65.3073 C   0  0  0  0  0  0  0  0  0  0  0  0
  -39.8279   60.1104   66.0256 C   0  0  0  0  0  0  0  0  0  0  0  0
  -40.7876   59.2858   65.3313 O   0  0  0  0  0  0  0  0  0  0  0  0
  -41.4073   60.6750   63.6926 O   0  0  0  0  0  0  0  0  0  0  0  0
  -41.6908   59.9139   64.5780 C   0  0  0  0  0  0  0  0  0  0  0  0
  -43.0824   59.4497   64.8991 C   0  0  0  0  0  0  0  0  0  0  0  0
  -43.2583   58.9560   66.3251 C   0  0  0  0  0  0  0  0  0  0  0  0
  -44.3889   57.9585   66.4649 C   0  0  0  0  0  0  0  0  0  0  0  0
  -45.5886   58.2563   65.5943 C   0  0  0  0  0  0  0  0  0  0  0  0
  -46.8616   58.4642   66.3895 C   0  0  0  0  0  0  0  0  0  0  0  0
  -48.1120   58.1766   65.5950 C   0  0  0  0  0  0  0  0  0  0  0  0
  -49.2742   59.0487   65.9907 C   0  0  0  0  0  0  0  0  0  0  0  0
  -50.5439   58.7389   65.2292 C   0  0  0  0  0  0  0  0  0  0  0  0
  -50.8892   59.8045   64.2088 C   0  0  0  0  0  0  0  0  0  0  0  0
  -51.1764   59.2639   62.8237 C   0  0  0  0  0  0  0  0  0  0  0  0
  -49.9243   58.9273   62.0219 C   0  0  0  0  0  0  0  0  0  0  0  0
  -49.9317   57.5334   61.4240 C   0  0  0  0  0  0  0  0  0  0  0  0
  -50.3576   57.5041   59.9705 C   0  0  0  0  0  0  0  0  0  0  0  0
  -49.2403   57.1089   59.0151 C   0  0  0  0  0  0  0  0  0  0  0  0
  -47.8511   57.4202   59.5428 C   0  0  0  0  0  0  0  0  0  0  0  0
  -46.0312   58.0078   57.9061 C   0  0  0  0  0  0  0  0  0  0  0  0
  -46.7143   56.9039   58.6811 C   0  0  0  0  0  0  0  0  0  0  0  0
  -38.1761   58.3826   65.3063 C   0  0  0  0  0  0  0  0  0  0  0  0
  -37.4435   58.0840   64.0969 O   0  0  0  0  0  0  0  0  0  0  0  0
  -38.1353   58.0312   62.6545 P   0  0  0  0  0  0  0  0  0  0  0  0
  -37.7306   56.7691   61.9986 O   0  0  0  0  0  0  0  0  0  0  0  0
  -39.5808   58.3138   62.8252 O   0  0  0  0  0  0  0  0  0  0  0  0
  -39.9949   57.5914   63.3229 H   0  0  0  0  0  0  0  0  0  0  0  0
  -37.4936   59.2386   61.8339 O   0  0  0  0  0  0  0  0  0  0  0  0
  -38.3463   60.1912   61.1666 C   0  0  0  0  0  0  0  0  0  0  0  0
  -39.6555   60.5177   59.1861 O   0  0  0  0  0  0  0  0  0  0  0  0
  -38.8185   59.5804   59.8700 C   0  0  0  0  0  0  0  0  0  0  0  0
  -40.3877   60.7803   59.7658 H   0  0  0  0  0  0  0  0  0  0  0  0
  -37.3279   57.8008   59.2146 O   0  0  0  0  0  0  0  0  0  0  0  0
  -37.6722   59.1604   58.9814 C   0  0  0  0  0  0  0  0  0  0  0  0
  -36.5911   57.5499   58.6357 H   0  0  0  0  0  0  0  0  0  0  0  0
  -37.4864   60.6607   65.9301 O   0  0  0  0  0  0  0  0  0  0  0  0
  -37.1041   62.2798   64.4160 O   0  0  0  0  0  0  0  0  0  0  0  0
  -36.7032   61.3824   65.1056 C   0  0  0  0  0  0  0  0  0  0  0  0
  -35.2726   60.9444   65.1657 C   0  0  0  0  0  0  0  0  0  0  0  0
  -34.3204   62.1335   65.0898 C   0  0  0  0  0  0  0  0  0  0  0  0
  -34.2497   62.9493   66.3703 C   0  0  0  0  0  0  0  0  0  0  0  0
  -34.3957   64.4500   66.1459 C   0  0  0  0  0  0  0  0  0  0  0  0
  -33.0830   65.1657   65.8871 C   0  0  0  0  0  0  0  0  0  0  0  0
  -32.8376   65.5356   64.4215 C   0  0  0  0  0  0  0  0  0  0  0  0
  -31.8565   64.6284   63.6761 C   0  0  0  0  0  0  0  0  0  0  0  0
  -32.4113   64.1510   62.3675 C   0  0  0  0  0  0  0  0  0  0  0  0
  -32.4198   62.9097   61.9218 C   0  0  0  0  0  0  0  0  0  0  0  0
  -31.8757   61.7121   62.6347 C   0  0  0  0  0  0  0  0  0  0  0  0
  -31.2640   60.6930   61.6779 C   0  0  0  0  0  0  0  0  0  0  0  0
  -31.6544   59.2579   61.9849 C   0  0  0  0  0  0  0  0  0  0  0  0
  -32.9164   59.1348   62.8213 C   0  0  0  0  0  0  0  0  0  0  0  0
  -33.9686   58.2049   62.2403 C   0  0  0  0  0  0  0  0  0  0  0  0
  -33.4013   57.1788   61.2712 C   0  0  0  0  0  0  0  0  0  0  0  0
  -34.4280   56.2086   60.7211 C   0  0  0  0  0  0  0  0  0  0  0  0
  -34.0196   55.6162   59.4014 C   0  0  0  0  0  0  0  0  0  0  0  0
 21 22  1  0  0  0
  4  5  2  0  0  0
 25 24  1  0  0  0
 25 26  2  0  0  0
 25 27  1  0  0  0
 25 29  1  0  0  0
 22 20  1  0  0  0
  3  5  1  0  0  0
  3  2  1  0  0  0
 20 19  1  0  0  0
 24 23  1  0  0  0
 19 18  1  0  0  0
 18 17  1  0  0  0
 27 28  1  0  0  0
 17 16  1  0  0  0
 29 30  1  0  0  0
 16 15  1  0  0  0
 34 35  1  0  0  0
 34 36  1  0  0  0
 15 14  1  0  0  0
 31 32  1  0  0  0
 31 33  1  0  0  0
 14 13  1  0  0  0
 37  1  1  0  0  0
 37 39  1  0  0  0
 13 12  1  0  0  0
 38 39  2  0  0  0
 12 11  1  0  0  0
 11 10  1  0  0  0
 10  9  1  0  0  0
  9  8  1  0  0  0
  8  7  1  0  0  0
  7  6  1  0  0  0
  6  5  1  0  0  0
  2  1  1  0  0  0
  1 23  1  0  0  0
 30 32  1  0  0  0
 32 35  1  0  0  0
 39 40  1  0  0  0
 40 41  1  0  0  0
 41 42  1  0  0  0
 42 43  1  0  0  0
 43 44  1  0  0  0
 44 45  1  0  0  0
 45 46  1  0  0  0
 46 47  1  0  0  0
 47 48  2  0  0  0
 48 49  1  0  0  0
 49 50  1  0  0  0
 50 51  1  0  0  0
 51 52  1  0  0  0
 52 53  1  0  0  0
 53 54  1  0  0  0
 54 55  1  0  0  0
 55 56  1  0  0  0
M  CHG 1  26  -1
M  END
> <minimizedAffinity>
-8.22987

> <CNNscore>
0.3738616109

> <CNNaffinity>
6.9901838303

> <CNN_VS>
2.6133613586

> <CNNaffinity_variance>
0.6157823205

$$$$
/media/chris/experiments/cd1a-new-docking/inputs/ligands/7sh4_ligand.pdb


 56 55  0  0  0  0  0  0  0  0999 V2000
  -37.5930   61.3163   63.7031 C   0  0  0  0  0  0  0  0  0  0  0  0
  -38.7811   60.9291   62.8687 C   0  0  0  0  0  0  0  0  0  0  0  0
  -39.9142   61.2705   63.6950 O   0  0  0  0  0  0  0  0  0  0  0  0
  -41.2895   59.8095   62.7086 O   0  0  0  0  0  0  0  0  0  0  0  0
  -40.9483   60.4291   63.6798 C   0  0  0  0  0  0  0  0  0  0  0  0
  -41.5380   60.2693   65.0515 C   0  0  0  0  0  0  0  0  0  0  0  0
  -41.9725   58.8507   65.3788 C   0  0  0  0  0  0  0  0  0  0  0  0
  -43.1083   58.8014   66.3789 C   0  0  0  0  0  0  0  0  0  0  0  0
  -44.3638   58.1393   65.8579 C   0  0  0  0  0  0  0  0  0  0  0  0
  -45.3966   59.1319   65.3638 C   0  0  0  0  0  0  0  0  0  0  0  0
  -46.6417   58.4734   64.8219 C   0  0  0  0  0  0  0  0  0  0  0  0
  -47.6079   58.0632   65.9016 C   0  0  0  0  0  0  0  0  0  0  0  0
  -49.0416   57.9839   65.4259 C   0  0  0  0  0  0  0  0  0  0  0  0
  -49.2139   58.4731   64.0023 C   0  0  0  0  0  0  0  0  0  0  0  0
  -50.5460   58.1094   63.3807 C   0  0  0  0  0  0  0  0  0  0  0  0
  -50.6841   58.5387   61.9245 C   0  0  0  0  0  0  0  0  0  0  0  0
  -50.9779   57.3967   60.9706 C   0  0  0  0  0  0  0  0  0  0  0  0
  -49.7312   56.7619   60.3894 C   0  0  0  0  0  0  0  0  0  0  0  0
  -48.5735   57.7355   60.2188 C   0  0  0  0  0  0  0  0  0  0  0  0
  -47.7001   57.4359   59.0136 C   0  0  0  0  0  0  0  0  0  0  0  0
  -47.6721   56.5938   56.6417 C   0  0  0  0  0  0  0  0  0  0  0  0
  -48.3142   56.4826   58.0059 C   0  0  0  0  0  0  0  0  0  0  0  0
  -36.5071   61.9586   62.8783 C   0  0  0  0  0  0  0  0  0  0  0  0
  -35.3560   62.1869   63.7216 O   0  0  0  0  0  0  0  0  0  0  0  0
  -34.2325   63.2745   63.3800 P   0  0  0  0  0  0  0  0  0  0  0  0
  -32.9413   62.7790   63.9035 O   0  0  0  0  0  0  0  0  0  0  0  0
  -34.3360   63.6081   61.9389 O   0  0  0  0  0  0  0  0  0  0  0  0
  -34.0957   62.8317   61.4093 H   0  0  0  0  0  0  0  0  0  0  0  0
  -34.6345   64.5731   64.2135 O   0  0  0  0  0  0  0  0  0  0  0  0
  -33.9819   64.8559   65.4681 C   0  0  0  0  0  0  0  0  0  0  0  0
  -34.2912   64.6025   67.8309 O   0  0  0  0  0  0  0  0  0  0  0  0
  -34.6916   64.0892   66.5570 C   0  0  0  0  0  0  0  0  0  0  0  0
  -33.3253   64.5573   67.9087 H   0  0  0  0  0  0  0  0  0  0  0  0
  -36.7700   62.8661   66.6087 O   0  0  0  0  0  0  0  0  0  0  0  0
  -36.1939   64.1520   66.4187 C   0  0  0  0  0  0  0  0  0  0  0  0
  -37.7337   62.9267   66.5162 H   0  0  0  0  0  0  0  0  0  0  0  0
  -37.1085   60.1204   64.3994 O   0  0  0  0  0  0  0  0  0  0  0  0
  -38.1133   60.3430   66.3996 O   0  0  0  0  0  0  0  0  0  0  0  0
  -37.8446   59.6778   65.4368 C   0  0  0  0  0  0  0  0  0  0  0  0
  -38.3018   58.2659   65.2377 C   0  0  0  0  0  0  0  0  0  0  0  0
  -37.6320   57.6273   64.0251 C   0  0  0  0  0  0  0  0  0  0  0  0
  -38.5802   57.3571   62.8684 C   0  0  0  0  0  0  0  0  0  0  0  0
  -37.8688   57.0203   61.5629 C   0  0  0  0  0  0  0  0  0  0  0  0
  -37.1636   58.2012   60.9221 C   0  0  0  0  0  0  0  0  0  0  0  0
  -37.9430   58.8676   59.7848 C   0  0  0  0  0  0  0  0  0  0  0  0
  -37.3478   58.6771   58.3880 C   0  0  0  0  0  0  0  0  0  0  0  0
  -37.2260   57.2291   58.0186 C   0  0  0  0  0  0  0  0  0  0  0  0
  -36.1078   56.5464   57.8675 C   0  0  0  0  0  0  0  0  0  0  0  0
  -34.7194   57.0779   58.0361 C   0  0  0  0  0  0  0  0  0  0  0  0
  -33.8387   56.1521   58.8701 C   0  0  0  0  0  0  0  0  0  0  0  0
  -34.5459   55.5630   60.0780 C   0  0  0  0  0  0  0  0  0  0  0  0
  -34.1590   56.2202   61.3917 C   0  0  0  0  0  0  0  0  0  0  0  0
  -33.4896   57.5765   61.2442 C   0  0  0  0  0  0  0  0  0  0  0  0
  -32.7773   58.0407   62.5055 C   0  0  0  0  0  0  0  0  0  0  0  0
  -33.6333   58.8857   63.4281 C   0  0  0  0  0  0  0  0  0  0  0  0
  -34.2515   58.0871   64.5414 C   0  0  0  0  0  0  0  0  0  0  0  0
 21 22  1  0  0  0
  4  5  2  0  0  0
 25 24  1  0  0  0
 25 26  2  0  0  0
 25 27  1  0  0  0
 25 29  1  0  0  0
 22 20  1  0  0  0
  3  5  1  0  0  0
  3  2  1  0  0  0
 20 19  1  0  0  0
 24 23  1  0  0  0
 19 18  1  0  0  0
 18 17  1  0  0  0
 27 28  1  0  0  0
 17 16  1  0  0  0
 29 30  1  0  0  0
 16 15  1  0  0  0
 34 35  1  0  0  0
 34 36  1  0  0  0
 15 14  1  0  0  0
 31 32  1  0  0  0
 31 33  1  0  0  0
 14 13  1  0  0  0
 37  1  1  0  0  0
 37 39  1  0  0  0
 13 12  1  0  0  0
 38 39  2  0  0  0
 12 11  1  0  0  0
 11 10  1  0  0  0
 10  9  1  0  0  0
  9  8  1  0  0  0
  8  7  1  0  0  0
  7  6  1  0  0  0
  6  5  1  0  0  0
  2  1  1  0  0  0
  1 23  1  0  0  0
 30 32  1  0  0  0
 32 35  1  0  0  0
 39 40  1  0  0  0
 40 41  1  0  0  0
 41 42  1  0  0  0
 42 43  1  0  0  0
 43 44  1  0  0  0
 44 45  1  0  0  0
 45 46  1  0  0  0
 46 47  1  0  0  0
 47 48  2  0  0  0
 48 49  1  0  0  0
 49 50  1  0  0  0
 50 51  1  0  0  0
 51 52  1  0  0  0
 52 53  1  0  0  0
 53 54  1  0  0  0
 54 55  1  0  0  0
 55 56  1  0  0  0
M  CHG 1  26  -1
M  END
> <minimizedAffinity>
-8.72265

> <CNNscore>
0.3700042665

> <CNNaffinity>
7.1786241531

> <CNN_VS>
2.6561214924

> <CNNaffinity_variance>
1.2329782248

$$$$
/media/chris/experiments/cd1a-new-docking/inputs/ligands/7sh4_ligand.pdb


 56 55  0  0  0  0  0  0  0  0999 V2000
  -35.5184   61.2130   64.8647 C   0  0  0  0  0  0  0  0  0  0  0  0
  -35.0179   60.4408   63.6769 C   0  0  0  0  0  0  0  0  0  0  0  0
  -33.9070   61.2251   63.1934 O   0  0  0  0  0  0  0  0  0  0  0  0
  -31.8697   61.0853   62.2829 O   0  0  0  0  0  0  0  0  0  0  0  0
  -32.8599   60.5558   62.7103 C   0  0  0  0  0  0  0  0  0  0  0  0
  -33.0334   59.0749   62.8884 C   0  0  0  0  0  0  0  0  0  0  0  0
  -32.5936   58.2501   61.6907 C   0  0  0  0  0  0  0  0  0  0  0  0
  -32.5373   56.7667   61.9893 C   0  0  0  0  0  0  0  0  0  0  0  0
  -33.7486   55.9939   61.5186 C   0  0  0  0  0  0  0  0  0  0  0  0
  -34.4645   56.6601   60.3612 C   0  0  0  0  0  0  0  0  0  0  0  0
  -33.9721   56.1966   59.0121 C   0  0  0  0  0  0  0  0  0  0  0  0
  -34.6926   56.8543   57.8650 C   0  0  0  0  0  0  0  0  0  0  0  0
  -36.1962   56.7053   57.9358 C   0  0  0  0  0  0  0  0  0  0  0  0
  -36.9164   58.0384   57.9507 C   0  0  0  0  0  0  0  0  0  0  0  0
  -37.5794   58.3679   59.2717 C   0  0  0  0  0  0  0  0  0  0  0  0
  -38.7549   59.3306   59.1478 C   0  0  0  0  0  0  0  0  0  0  0  0
  -39.0890   60.0639   60.4327 C   0  0  0  0  0  0  0  0  0  0  0  0
  -38.3655   59.5144   61.6450 C   0  0  0  0  0  0  0  0  0  0  0  0
  -39.2146   58.5728   62.4876 C   0  0  0  0  0  0  0  0  0  0  0  0
  -38.4951   57.2959   62.8837 C   0  0  0  0  0  0  0  0  0  0  0  0
  -36.3875   57.1509   64.2522 C   0  0  0  0  0  0  0  0  0  0  0  0
  -36.9813   57.3940   62.8833 C   0  0  0  0  0  0  0  0  0  0  0  0
  -34.3991   61.6174   65.7896 C   0  0  0  0  0  0  0  0  0  0  0  0
  -34.9493   62.4054   66.8688 O   0  0  0  0  0  0  0  0  0  0  0  0
  -35.2219   63.9776   66.7433 P   0  0  0  0  0  0  0  0  0  0  0  0
  -36.6610   64.1719   66.4639 O   0  0  0  0  0  0  0  0  0  0  0  0
  -34.6297   64.6447   67.9278 O   0  0  0  0  0  0  0  0  0  0  0  0
  -35.1113   64.3747   68.7254 H   0  0  0  0  0  0  0  0  0  0  0  0
  -34.4043   64.4467   65.4571 O   0  0  0  0  0  0  0  0  0  0  0  0
  -33.7465   65.7301   65.4487 C   0  0  0  0  0  0  0  0  0  0  0  0
  -31.5282   65.1049   66.1052 O   0  0  0  0  0  0  0  0  0  0  0  0
  -32.3215   65.5314   64.9937 C   0  0  0  0  0  0  0  0  0  0  0  0
  -31.6057   65.7511   66.8246 H   0  0  0  0  0  0  0  0  0  0  0  0
  -31.8679   63.2489   64.3589 O   0  0  0  0  0  0  0  0  0  0  0  0
  -32.2124   64.5363   63.8633 C   0  0  0  0  0  0  0  0  0  0  0  0
  -31.8026   62.6246   63.6194 H   0  0  0  0  0  0  0  0  0  0  0  0
  -36.5235   60.3983   65.5547 O   0  0  0  0  0  0  0  0  0  0  0  0
  -38.1747   61.4513   64.4480 O   0  0  0  0  0  0  0  0  0  0  0  0
  -37.8132   60.6217   65.2371 C   0  0  0  0  0  0  0  0  0  0  0  0
  -38.7386   59.7012   65.9708 C   0  0  0  0  0  0  0  0  0  0  0  0
  -40.1965   60.1085   65.7834 C   0  0  0  0  0  0  0  0  0  0  0  0
  -41.1448   58.9357   65.5949 C   0  0  0  0  0  0  0  0  0  0  0  0
  -42.5056   59.3356   65.0364 C   0  0  0  0  0  0  0  0  0  0  0  0
  -43.6221   58.3668   65.3788 C   0  0  0  0  0  0  0  0  0  0  0  0
  -44.8942   59.0263   65.9188 C   0  0  0  0  0  0  0  0  0  0  0  0
  -46.1188   58.9235   65.0071 C   0  0  0  0  0  0  0  0  0  0  0  0
  -47.3816   59.3215   65.7105 C   0  0  0  0  0  0  0  0  0  0  0  0
  -48.6135   59.1629   65.2669 C   0  0  0  0  0  0  0  0  0  0  0  0
  -49.0094   58.5474   63.9620 C   0  0  0  0  0  0  0  0  0  0  0  0
  -50.5152   58.6073   63.7229 C   0  0  0  0  0  0  0  0  0  0  0  0
  -50.8936   58.8032   62.2653 C   0  0  0  0  0  0  0  0  0  0  0  0
  -51.1658   57.5044   61.5260 C   0  0  0  0  0  0  0  0  0  0  0  0
  -50.4947   57.4013   60.1665 C   0  0  0  0  0  0  0  0  0  0  0  0
  -49.0205   57.7758   60.1889 C   0  0  0  0  0  0  0  0  0  0  0  0
  -48.2190   57.2166   59.0301 C   0  0  0  0  0  0  0  0  0  0  0  0
  -48.0655   55.7227   59.0965 C   0  0  0  0  0  0  0  0  0  0  0  0
 21 22  1  0  0  0
  4  5  2  0  0  0
 25 24  1  0  0  0
 25 26  2  0  0  0
 25 27  1  0  0  0
 25 29  1  0  0  0
 22 20  1  0  0  0
  3  5  1  0  0  0
  3  2  1  0  0  0
 20 19  1  0  0  0
 24 23  1  0  0  0
 19 18  1  0  0  0
 18 17  1  0  0  0
 27 28  1  0  0  0
 17 16  1  0  0  0
 29 30  1  0  0  0
 16 15  1  0  0  0
 34 35  1  0  0  0
 34 36  1  0  0  0
 15 14  1  0  0  0
 31 32  1  0  0  0
 31 33  1  0  0  0
 14 13  1  0  0  0
 37  1  1  0  0  0
 37 39  1  0  0  0
 13 12  1  0  0  0
 38 39  2  0  0  0
 12 11  1  0  0  0
 11 10  1  0  0  0
 10  9  1  0  0  0
  9  8  1  0  0  0
  8  7  1  0  0  0
  7  6  1  0  0  0
  6  5  1  0  0  0
  2  1  1  0  0  0
  1 23  1  0  0  0
 30 32  1  0  0  0
 32 35  1  0  0  0
 39 40  1  0  0  0
 40 41  1  0  0  0
 41 42  1  0  0  0
 42 43  1  0  0  0
 43 44  1  0  0  0
 44 45  1  0  0  0
 45 46  1  0  0  0
 46 47  1  0  0  0
 47 48  2  0  0  0
 48 49  1  0  0  0
 49 50  1  0  0  0
 50 51  1  0  0  0
 51 52  1  0  0  0
 52 53  1  0  0  0
 53 54  1  0  0  0
 54 55  1  0  0  0
 55 56  1  0  0  0
M  CHG 1  26  -1
M  END
> <minimizedAffinity>
-8.55290

> <CNNscore>
0.3611699939

> <CNNaffinity>
7.1126708984

> <CNN_VS>
2.5688834190

> <CNNaffinity_variance>
0.9480543137

$$$$
/media/chris/experiments/cd1a-new-docking/inputs/ligands/7sh4_ligand.pdb


 56 55  0  0  0  0  0  0  0  0999 V2000
  -38.7716   60.3934   63.6656 C   0  0  0  0  0  0  0  0  0  0  0  0
  -39.0130   59.3429   64.7124 C   0  0  0  0  0  0  0  0  0  0  0  0
  -40.4179   59.0379   64.5834 O   0  0  0  0  0  0  0  0  0  0  0  0
  -40.9085   60.5553   66.1506 O   0  0  0  0  0  0  0  0  0  0  0  0
  -41.2608   59.7422   65.3392 C   0  0  0  0  0  0  0  0  0  0  0  0
  -42.6874   59.4759   64.9534 C   0  0  0  0  0  0  0  0  0  0  0  0
  -43.3491   58.3651   65.7513 C   0  0  0  0  0  0  0  0  0  0  0  0
  -44.3942   58.8804   66.7182 C   0  0  0  0  0  0  0  0  0  0  0  0
  -45.7134   58.1445   66.6542 C   0  0  0  0  0  0  0  0  0  0  0  0
  -46.8656   59.0287   66.2221 C   0  0  0  0  0  0  0  0  0  0  0  0
  -48.1129   58.2527   65.8765 C   0  0  0  0  0  0  0  0  0  0  0  0
  -49.3506   59.1098   65.8495 C   0  0  0  0  0  0  0  0  0  0  0  0
  -50.4615   58.5337   64.9998 C   0  0  0  0  0  0  0  0  0  0  0  0
  -51.1333   59.5762   64.1293 C   0  0  0  0  0  0  0  0  0  0  0  0
  -51.1778   59.2179   62.6586 C   0  0  0  0  0  0  0  0  0  0  0  0
  -50.6166   57.8358   62.3441 C   0  0  0  0  0  0  0  0  0  0  0  0
  -51.0724   57.2744   61.0110 C   0  0  0  0  0  0  0  0  0  0  0  0
  -50.2644   57.7840   59.8352 C   0  0  0  0  0  0  0  0  0  0  0  0
  -48.7631   57.7998   60.0875 C   0  0  0  0  0  0  0  0  0  0  0  0
  -47.9495   57.2107   58.9490 C   0  0  0  0  0  0  0  0  0  0  0  0
  -47.5440   55.2185   57.4649 C   0  0  0  0  0  0  0  0  0  0  0  0
  -48.0669   55.7059   58.7971 C   0  0  0  0  0  0  0  0  0  0  0  0
  -39.6534   60.2029   62.4582 C   0  0  0  0  0  0  0  0  0  0  0  0
  -39.0341   59.2389   61.5774 O   0  0  0  0  0  0  0  0  0  0  0  0
  -38.6035   59.5872   60.0758 P   0  0  0  0  0  0  0  0  0  0  0  0
  -39.8228   59.9520   59.3227 O   0  0  0  0  0  0  0  0  0  0  0  0
  -37.4830   60.5568   60.1301 O   0  0  0  0  0  0  0  0  0  0  0  0
  -37.8002   61.3974   60.4960 H   0  0  0  0  0  0  0  0  0  0  0  0
  -38.0420   58.2231   59.4702 O   0  0  0  0  0  0  0  0  0  0  0  0
  -36.7315   58.1858   58.8693 C   0  0  0  0  0  0  0  0  0  0  0  0
  -35.1365   56.7056   57.8655 O   0  0  0  0  0  0  0  0  0  0  0  0
  -36.4216   56.7580   58.4919 C   0  0  0  0  0  0  0  0  0  0  0  0
  -35.1233   57.3063   57.1039 H   0  0  0  0  0  0  0  0  0  0  0  0
  -35.1451   55.4419   60.0594 O   0  0  0  0  0  0  0  0  0  0  0  0
  -36.4601   55.8279   59.6808 C   0  0  0  0  0  0  0  0  0  0  0  0
  -35.1904   54.8457   60.8232 H   0  0  0  0  0  0  0  0  0  0  0  0
  -37.3500   60.3697   63.3072 O   0  0  0  0  0  0  0  0  0  0  0  0
  -36.7886   62.5366   63.0851 O   0  0  0  0  0  0  0  0  0  0  0  0
  -36.6270   61.4664   63.6048 C   0  0  0  0  0  0  0  0  0  0  0  0
  -35.6121   61.1960   64.6721 C   0  0  0  0  0  0  0  0  0  0  0  0
  -36.1165   61.6282   66.0452 C   0  0  0  0  0  0  0  0  0  0  0  0
  -36.1679   63.1351   66.2368 C   0  0  0  0  0  0  0  0  0  0  0  0
  -34.8454   63.7365   66.6983 C   0  0  0  0  0  0  0  0  0  0  0  0
  -34.1910   64.6464   65.6755 C   0  0  0  0  0  0  0  0  0  0  0  0
  -32.6731   64.7833   65.8238 C   0  0  0  0  0  0  0  0  0  0  0  0
  -31.8474   64.0944   64.7351 C   0  0  0  0  0  0  0  0  0  0  0  0
  -32.6909   63.6683   63.5711 C   0  0  0  0  0  0  0  0  0  0  0  0
  -32.3860   62.7541   62.6707 C   0  0  0  0  0  0  0  0  0  0  0  0
  -31.1278   61.9459   62.6244 C   0  0  0  0  0  0  0  0  0  0  0  0
  -31.2064   60.8034   61.6159 C   0  0  0  0  0  0  0  0  0  0  0  0
  -30.9280   59.4378   62.2191 C   0  0  0  0  0  0  0  0  0  0  0  0
  -32.1139   58.4906   62.1575 C   0  0  0  0  0  0  0  0  0  0  0  0
  -33.4400   59.1151   62.5583 C   0  0  0  0  0  0  0  0  0  0  0  0
  -34.6305   58.1896   62.3578 C   0  0  0  0  0  0  0  0  0  0  0  0
  -35.1558   57.5661   63.6358 C   0  0  0  0  0  0  0  0  0  0  0  0
  -34.2982   57.8782   64.8303 C   0  0  0  0  0  0  0  0  0  0  0  0
 21 22  1  0  0  0
  4  5  2  0  0  0
 25 24  1  0  0  0
 25 26  2  0  0  0
 25 27  1  0  0  0
 25 29  1  0  0  0
 22 20  1  0  0  0
  3  5  1  0  0  0
  3  2  1  0  0  0
 20 19  1  0  0  0
 24 23  1  0  0  0
 19 18  1  0  0  0
 18 17  1  0  0  0
 27 28  1  0  0  0
 17 16  1  0  0  0
 29 30  1  0  0  0
 16 15  1  0  0  0
 34 35  1  0  0  0
 34 36  1  0  0  0
 15 14  1  0  0  0
 31 32  1  0  0  0
 31 33  1  0  0  0
 14 13  1  0  0  0
 37  1  1  0  0  0
 37 39  1  0  0  0
 13 12  1  0  0  0
 38 39  2  0  0  0
 12 11  1  0  0  0
 11 10  1  0  0  0
 10  9  1  0  0  0
  9  8  1  0  0  0
  8  7  1  0  0  0
  7  6  1  0  0  0
  6  5  1  0  0  0
  2  1  1  0  0  0
  1 23  1  0  0  0
 30 32  1  0  0  0
 32 35  1  0  0  0
 39 40  1  0  0  0
 40 41  1  0  0  0
 41 42  1  0  0  0
 42 43  1  0  0  0
 43 44  1  0  0  0
 44 45  1  0  0  0
 45 46  1  0  0  0
 46 47  1  0  0  0
 47 48  2  0  0  0
 48 49  1  0  0  0
 49 50  1  0  0  0
 50 51  1  0  0  0
 51 52  1  0  0  0
 52 53  1  0  0  0
 53 54  1  0  0  0
 54 55  1  0  0  0
 55 56  1  0  0  0
M  CHG 1  26  -1
M  END
> <minimizedAffinity>
-8.22743

> <CNNscore>
0.3537792563

> <CNNaffinity>
7.1022253036

> <CNN_VS>
2.5126199722

> <CNNaffinity_variance>
0.4108151793

$$$$
/media/chris/experiments/cd1a-new-docking/inputs/ligands/7sh4_ligand.pdb


 56 55  0  0  0  0  0  0  0  0999 V2000
  -37.8333   60.5977   64.2192 C   0  0  0  0  0  0  0  0  0  0  0  0
  -36.7107   59.9149   64.9479 C   0  0  0  0  0  0  0  0  0  0  0  0
  -36.9898   58.5087   64.7804 O   0  0  0  0  0  0  0  0  0  0  0  0
  -36.1495   57.0551   63.3039 O   0  0  0  0  0  0  0  0  0  0  0  0
  -36.0147   57.7558   64.2706 C   0  0  0  0  0  0  0  0  0  0  0  0
  -34.7144   57.9975   64.9818 C   0  0  0  0  0  0  0  0  0  0  0  0
  -33.4951   57.9582   64.0761 C   0  0  0  0  0  0  0  0  0  0  0  0
  -33.4180   59.1496   63.1448 C   0  0  0  0  0  0  0  0  0  0  0  0
  -32.1943   59.1633   62.2569 C   0  0  0  0  0  0  0  0  0  0  0  0
  -32.4140   58.4599   60.9329 C   0  0  0  0  0  0  0  0  0  0  0  0
  -33.7063   57.6823   60.8805 C   0  0  0  0  0  0  0  0  0  0  0  0
  -33.4944   56.1939   60.7956 C   0  0  0  0  0  0  0  0  0  0  0  0
  -33.8153   55.6185   59.4340 C   0  0  0  0  0  0  0  0  0  0  0  0
  -33.8400   56.6713   58.3446 C   0  0  0  0  0  0  0  0  0  0  0  0
  -35.2265   56.9936   57.8279 C   0  0  0  0  0  0  0  0  0  0  0  0
  -36.3422   56.2479   58.5511 C   0  0  0  0  0  0  0  0  0  0  0  0
  -37.2513   57.1433   59.3709 C   0  0  0  0  0  0  0  0  0  0  0  0
  -37.6016   58.4432   58.6762 C   0  0  0  0  0  0  0  0  0  0  0  0
  -37.8205   59.6068   59.6332 C   0  0  0  0  0  0  0  0  0  0  0  0
  -39.2801   59.9899   59.8002 C   0  0  0  0  0  0  0  0  0  0  0  0
  -39.0925   58.6544   61.9256 C   0  0  0  0  0  0  0  0  0  0  0  0
  -39.8503   59.7306   61.1818 C   0  0  0  0  0  0  0  0  0  0  0  0
  -37.3644   61.8234   63.4779 C   0  0  0  0  0  0  0  0  0  0  0  0
  -35.9432   61.9791   63.6887 O   0  0  0  0  0  0  0  0  0  0  0  0
  -35.0841   63.1346   62.9897 P   0  0  0  0  0  0  0  0  0  0  0  0
  -33.6862   62.6645   62.8822 O   0  0  0  0  0  0  0  0  0  0  0  0
  -35.7917   63.5536   61.7558 O   0  0  0  0  0  0  0  0  0  0  0  0
  -35.7875   62.8235   61.1170 H   0  0  0  0  0  0  0  0  0  0  0  0
  -35.1132   64.3591   64.0108 O   0  0  0  0  0  0  0  0  0  0  0  0
  -34.3534   64.2960   65.2349 C   0  0  0  0  0  0  0  0  0  0  0  0
  -36.6492   64.2408   65.9196 O   0  0  0  0  0  0  0  0  0  0  0  0
  -35.3081   64.0387   66.3748 C   0  0  0  0  0  0  0  0  0  0  0  0
  -36.7349   65.1348   65.5529 H   0  0  0  0  0  0  0  0  0  0  0  0
  -36.1661   62.3946   67.9173 O   0  0  0  0  0  0  0  0  0  0  0  0
  -35.1565   62.6506   66.9495 C   0  0  0  0  0  0  0  0  0  0  0  0
  -36.0522   61.4999   68.2744 H   0  0  0  0  0  0  0  0  0  0  0  0
  -38.8843   60.9205   65.1893 O   0  0  0  0  0  0  0  0  0  0  0  0
  -40.8908   61.2285   64.2202 O   0  0  0  0  0  0  0  0  0  0  0  0
  -40.1411   60.5544   64.8723 C   0  0  0  0  0  0  0  0  0  0  0  0
  -40.4842   59.2012   65.4137 C   0  0  0  0  0  0  0  0  0  0  0  0
  -41.9937   58.9997   65.4991 C   0  0  0  0  0  0  0  0  0  0  0  0
  -42.4044   57.6581   66.0836 C   0  0  0  0  0  0  0  0  0  0  0  0
  -43.9140   57.4777   66.1945 C   0  0  0  0  0  0  0  0  0  0  0  0
  -44.6739   58.7695   66.4317 C   0  0  0  0  0  0  0  0  0  0  0  0
  -45.6064   59.1790   65.2882 C   0  0  0  0  0  0  0  0  0  0  0  0
  -46.9540   58.4549   65.2553 C   0  0  0  0  0  0  0  0  0  0  0  0
  -47.9415   59.0559   66.2102 C   0  0  0  0  0  0  0  0  0  0  0  0
  -49.2452   59.1540   66.0366 C   0  0  0  0  0  0  0  0  0  0  0  0
  -50.0149   58.6813   64.8439 C   0  0  0  0  0  0  0  0  0  0  0  0
  -50.1842   59.7722   63.7904 C   0  0  0  0  0  0  0  0  0  0  0  0
  -50.9873   59.3307   62.5795 C   0  0  0  0  0  0  0  0  0  0  0  0
  -50.9635   57.8299   62.3462 C   0  0  0  0  0  0  0  0  0  0  0  0
  -50.8806   57.4212   60.8849 C   0  0  0  0  0  0  0  0  0  0  0  0
  -49.8105   58.1711   60.1061 C   0  0  0  0  0  0  0  0  0  0  0  0
  -48.4092   57.6224   60.2881 C   0  0  0  0  0  0  0  0  0  0  0  0
  -47.6947   57.4080   58.9831 C   0  0  0  0  0  0  0  0  0  0  0  0
 21 22  1  0  0  0
  4  5  2  0  0  0
 25 24  1  0  0  0
 25 26  2  0  0  0
 25 27  1  0  0  0
 25 29  1  0  0  0
 22 20  1  0  0  0
  3  5  1  0  0  0
  3  2  1  0  0  0
 20 19  1  0  0  0
 24 23  1  0  0  0
 19 18  1  0  0  0
 18 17  1  0  0  0
 27 28  1  0  0  0
 17 16  1  0  0  0
 29 30  1  0  0  0
 16 15  1  0  0  0
 34 35  1  0  0  0
 34 36  1  0  0  0
 15 14  1  0  0  0
 31 32  1  0  0  0
 31 33  1  0  0  0
 14 13  1  0  0  0
 37  1  1  0  0  0
 37 39  1  0  0  0
 13 12  1  0  0  0
 38 39  2  0  0  0
 12 11  1  0  0  0
 11 10  1  0  0  0
 10  9  1  0  0  0
  9  8  1  0  0  0
  8  7  1  0  0  0
  7  6  1  0  0  0
  6  5  1  0  0  0
  2  1  1  0  0  0
  1 23  1  0  0  0
 30 32  1  0  0  0
 32 35  1  0  0  0
 39 40  1  0  0  0
 40 41  1  0  0  0
 41 42  1  0  0  0
 42 43  1  0  0  0
 43 44  1  0  0  0
 44 45  1  0  0  0
 45 46  1  0  0  0
 46 47  1  0  0  0
 47 48  2  0  0  0
 48 49  1  0  0  0
 49 50  1  0  0  0
 50 51  1  0  0  0
 51 52  1  0  0  0
 52 53  1  0  0  0
 53 54  1  0  0  0
 54 55  1  0  0  0
 55 56  1  0  0  0
M  CHG 1  26  -1
M  END
> <minimizedAffinity>
-8.26560

> <CNNscore>
0.3437891304

> <CNNaffinity>
7.4502196312

> <CNN_VS>
2.5613045692

> <CNNaffinity_variance>
0.7529284954

$$$$
/media/chris/experiments/cd1a-new-docking/inputs/ligands/7sh4_ligand.pdb


 56 55  0  0  0  0  0  0  0  0999 V2000
  -38.2327   60.9217   65.1672 C   0  0  0  0  0  0  0  0  0  0  0  0
  -37.7898   61.3088   63.7846 C   0  0  0  0  0  0  0  0  0  0  0  0
  -38.7025   60.6052   62.9157 O   0  0  0  0  0  0  0  0  0  0  0  0
  -37.3364   60.8869   61.1683 O   0  0  0  0  0  0  0  0  0  0  0  0
  -38.4148   60.6005   61.6138 C   0  0  0  0  0  0  0  0  0  0  0  0
  -39.5660   60.0747   60.8056 C   0  0  0  0  0  0  0  0  0  0  0  0
  -39.1764   59.5673   59.4276 C   0  0  0  0  0  0  0  0  0  0  0  0
  -38.0861   58.5177   59.4761 C   0  0  0  0  0  0  0  0  0  0  0  0
  -37.2833   58.3993   58.2004 C   0  0  0  0  0  0  0  0  0  0  0  0
  -36.8750   56.9742   57.8864 C   0  0  0  0  0  0  0  0  0  0  0  0
  -35.4170   56.6995   58.1620 C   0  0  0  0  0  0  0  0  0  0  0  0
  -35.2055   55.6912   59.2602 C   0  0  0  0  0  0  0  0  0  0  0  0
  -33.7755   55.6271   59.7492 C   0  0  0  0  0  0  0  0  0  0  0  0
  -33.6064   56.2023   61.1408 C   0  0  0  0  0  0  0  0  0  0  0  0
  -33.4844   57.7113   61.1752 C   0  0  0  0  0  0  0  0  0  0  0  0
  -32.6589   58.2361   62.3444 C   0  0  0  0  0  0  0  0  0  0  0  0
  -33.2929   59.4075   63.0697 C   0  0  0  0  0  0  0  0  0  0  0  0
  -34.7598   59.1980   63.3848 C   0  0  0  0  0  0  0  0  0  0  0  0
  -35.0121   58.1134   64.4229 C   0  0  0  0  0  0  0  0  0  0  0  0
  -36.2846   57.3223   64.1782 C   0  0  0  0  0  0  0  0  0  0  0  0
  -38.3545   57.0852   62.7657 C   0  0  0  0  0  0  0  0  0  0  0  0
  -36.9118   57.5349   62.8135 C   0  0  0  0  0  0  0  0  0  0  0  0
  -37.0663   60.6039   66.0672 C   0  0  0  0  0  0  0  0  0  0  0  0
  -36.8628   61.7110   66.9735 O   0  0  0  0  0  0  0  0  0  0  0  0
  -35.8863   62.9351   66.6419 P   0  0  0  0  0  0  0  0  0  0  0  0
  -36.7045   64.1641   66.5592 O   0  0  0  0  0  0  0  0  0  0  0  0
  -34.7550   62.8956   67.5997 O   0  0  0  0  0  0  0  0  0  0  0  0
  -35.0824   63.0778   68.4945 H   0  0  0  0  0  0  0  0  0  0  0  0
  -35.3075   62.6317   65.1874 O   0  0  0  0  0  0  0  0  0  0  0  0
  -34.9854   63.7199   64.2975 C   0  0  0  0  0  0  0  0  0  0  0  0
  -35.6567   63.4400   62.0141 O   0  0  0  0  0  0  0  0  0  0  0  0
  -34.6188   63.1421   62.9526 C   0  0  0  0  0  0  0  0  0  0  0  0
  -36.5022   63.1029   62.3494 H   0  0  0  0  0  0  0  0  0  0  0  0
  -32.6055   62.6517   61.7176 O   0  0  0  0  0  0  0  0  0  0  0  0
  -33.2940   63.6601   62.4461 C   0  0  0  0  0  0  0  0  0  0  0  0
  -31.7585   63.0027   61.4011 H   0  0  0  0  0  0  0  0  0  0  0  0
  -39.1555   59.7877   65.0556 O   0  0  0  0  0  0  0  0  0  0  0  0
  -40.7068   60.8902   66.2548 O   0  0  0  0  0  0  0  0  0  0  0  0
  -40.3797   59.9413   65.5958 C   0  0  0  0  0  0  0  0  0  0  0  0
  -41.2873   58.7983   65.2614 C   0  0  0  0  0  0  0  0  0  0  0  0
  -42.2047   58.4528   66.4300 C   0  0  0  0  0  0  0  0  0  0  0  0
  -43.5998   59.0449   66.3144 C   0  0  0  0  0  0  0  0  0  0  0  0
  -44.2899   58.7259   64.9931 C   0  0  0  0  0  0  0  0  0  0  0  0
  -45.5899   57.9584   65.1456 C   0  0  0  0  0  0  0  0  0  0  0  0
  -46.8533   58.7977   64.9354 C   0  0  0  0  0  0  0  0  0  0  0  0
  -47.7901   58.3001   63.8325 C   0  0  0  0  0  0  0  0  0  0  0  0
  -49.2138   58.2175   64.2955 C   0  0  0  0  0  0  0  0  0  0  0  0
  -50.2932   58.3769   63.5545 C   0  0  0  0  0  0  0  0  0  0  0  0
  -50.3214   58.6736   62.0883 C   0  0  0  0  0  0  0  0  0  0  0  0
  -50.9669   57.5521   61.2796 C   0  0  0  0  0  0  0  0  0  0  0  0
  -49.9719   56.7188   60.4912 C   0  0  0  0  0  0  0  0  0  0  0  0
  -49.1299   57.5302   59.5216 C   0  0  0  0  0  0  0  0  0  0  0  0
  -47.6337   57.4639   59.7790 C   0  0  0  0  0  0  0  0  0  0  0  0
  -46.8197   57.1325   58.5373 C   0  0  0  0  0  0  0  0  0  0  0  0
  -47.6497   56.6831   57.3511 C   0  0  0  0  0  0  0  0  0  0  0  0
  -47.5363   55.2076   57.0876 C   0  0  0  0  0  0  0  0  0  0  0  0
 21 22  1  0  0  0
  4  5  2  0  0  0
 25 24  1  0  0  0
 25 26  2  0  0  0
 25 27  1  0  0  0
 25 29  1  0  0  0
 22 20  1  0  0  0
  3  5  1  0  0  0
  3  2  1  0  0  0
 20 19  1  0  0  0
 24 23  1  0  0  0
 19 18  1  0  0  0
 18 17  1  0  0  0
 27 28  1  0  0  0
 17 16  1  0  0  0
 29 30  1  0  0  0
 16 15  1  0  0  0
 34 35  1  0  0  0
 34 36  1  0  0  0
 15 14  1  0  0  0
 31 32  1  0  0  0
 31 33  1  0  0  0
 14 13  1  0  0  0
 37  1  1  0  0  0
 37 39  1  0  0  0
 13 12  1  0  0  0
 38 39  2  0  0  0
 12 11  1  0  0  0
 11 10  1  0  0  0
 10  9  1  0  0  0
  9  8  1  0  0  0
  8  7  1  0  0  0
  7  6  1  0  0  0
  6  5  1  0  0  0
  2  1  1  0  0  0
  1 23  1  0  0  0
 30 32  1  0  0  0
 32 35  1  0  0  0
 39 40  1  0  0  0
 40 41  1  0  0  0
 41 42  1  0  0  0
 42 43  1  0  0  0
 43 44  1  0  0  0
 44 45  1  0  0  0
 45 46  1  0  0  0
 46 47  1  0  0  0
 47 48  2  0  0  0
 48 49  1  0  0  0
 49 50  1  0  0  0
 50 51  1  0  0  0
 51 52  1  0  0  0
 52 53  1  0  0  0
 53 54  1  0  0  0
 54 55  1  0  0  0
 55 56  1  0  0  0
M  CHG 1  26  -1
M  END
> <minimizedAffinity>
-8.83189

> <CNNscore>
0.3380436301

> <CNNaffinity>
7.3900909424

> <CNN_VS>
2.4981732368

> <CNNaffinity_variance>
0.7448059320

$$$$
