/media/chris/experiments/cd1a-new-docking/inputs/ligands/7sh4_ligand.pdb


 56 55  0  0  0  0  0  0  0  0999 V2000
  -39.9282   59.8964   62.5042 C   0  0  0  0  0  0  0  0  0  0  0  0
  -40.9954   60.4453   63.4083 C   0  0  0  0  0  0  0  0  0  0  0  0
  -41.0611   59.4920   64.4900 O   0  0  0  0  0  0  0  0  0  0  0  0
  -40.5929   60.9642   66.1063 O   0  0  0  0  0  0  0  0  0  0  0  0
  -41.1745   59.9850   65.7236 C   0  0  0  0  0  0  0  0  0  0  0  0
  -42.2079   59.2356   66.5145 C   0  0  0  0  0  0  0  0  0  0  0  0
  -43.1040   58.3413   65.6746 C   0  0  0  0  0  0  0  0  0  0  0  0
  -44.5074   58.2285   66.2317 C   0  0  0  0  0  0  0  0  0  0  0  0
  -45.5056   59.1652   65.5898 C   0  0  0  0  0  0  0  0  0  0  0  0
  -46.8520   59.1644   66.2851 C   0  0  0  0  0  0  0  0  0  0  0  0
  -47.6467   57.9053   66.0392 C   0  0  0  0  0  0  0  0  0  0  0  0
  -48.6605   58.0554   64.9358 C   0  0  0  0  0  0  0  0  0  0  0  0
  -49.6760   59.1453   65.1976 C   0  0  0  0  0  0  0  0  0  0  0  0
  -49.9533   59.9936   63.9730 C   0  0  0  0  0  0  0  0  0  0  0  0
  -51.1777   59.5674   63.1903 C   0  0  0  0  0  0  0  0  0  0  0  0
  -50.9062   58.4629   62.1752 C   0  0  0  0  0  0  0  0  0  0  0  0
  -49.6585   58.6847   61.3420 C   0  0  0  0  0  0  0  0  0  0  0  0
  -48.7690   57.4616   61.2527 C   0  0  0  0  0  0  0  0  0  0  0  0
  -47.6329   57.6053   60.2497 C   0  0  0  0  0  0  0  0  0  0  0  0
  -48.0913   57.5679   58.8027 C   0  0  0  0  0  0  0  0  0  0  0  0
  -47.6910   56.5296   56.5450 C   0  0  0  0  0  0  0  0  0  0  0  0
  -47.6908   56.3181   58.0421 C   0  0  0  0  0  0  0  0  0  0  0  0
  -38.6068   59.7472   63.2137 C   0  0  0  0  0  0  0  0  0  0  0  0
  -37.8302   60.9484   63.0080 O   0  0  0  0  0  0  0  0  0  0  0  0
  -36.5659   61.3296   63.9127 P   0  0  0  0  0  0  0  0  0  0  0  0
  -36.4304   60.3012   64.9666 O   0  0  0  0  0  0  0  0  0  0  0  0
  -35.4148   61.5840   63.0133 O   0  0  0  0  0  0  0  0  0  0  0  0
  -35.1610   60.7585   62.5716 H   0  0  0  0  0  0  0  0  0  0  0  0
  -36.9508   62.7073   64.6174 O   0  0  0  0  0  0  0  0  0  0  0  0
  -35.9548   63.7378   64.7792 C   0  0  0  0  0  0  0  0  0  0  0  0
  -37.0049   64.3389   66.8476 O   0  0  0  0  0  0  0  0  0  0  0  0
  -35.7536   63.9775   66.2553 C   0  0  0  0  0  0  0  0  0  0  0  0
  -37.3689   65.1117   66.3882 H   0  0  0  0  0  0  0  0  0  0  0  0
  -36.2010   61.9951   67.5546 O   0  0  0  0  0  0  0  0  0  0  0  0
  -35.1720   62.7749   66.9590 C   0  0  0  0  0  0  0  0  0  0  0  0
  -35.8083   61.2286   68.0010 H   0  0  0  0  0  0  0  0  0  0  0  0
  -39.8186   60.7732   61.3341 O   0  0  0  0  0  0  0  0  0  0  0  0
  -40.6053   59.9905   59.3774 O   0  0  0  0  0  0  0  0  0  0  0  0
  -39.6913   60.1762   60.1336 C   0  0  0  0  0  0  0  0  0  0  0  0
  -38.2732   59.7893   59.8477 C   0  0  0  0  0  0  0  0  0  0  0  0
  -38.1929   58.7287   58.7543 C   0  0  0  0  0  0  0  0  0  0  0  0
  -36.7922   58.1853   58.5246 C   0  0  0  0  0  0  0  0  0  0  0  0
  -36.7712   56.7469   58.0201 C   0  0  0  0  0  0  0  0  0  0  0  0
  -36.1347   55.7640   58.9851 C   0  0  0  0  0  0  0  0  0  0  0  0
  -34.6502   56.0163   59.2640 C   0  0  0  0  0  0  0  0  0  0  0  0
  -34.2655   56.0716   60.7440 C   0  0  0  0  0  0  0  0  0  0  0  0
  -34.5749   57.4037   61.3586 C   0  0  0  0  0  0  0  0  0  0  0  0
  -33.7301   58.1937   61.9925 C   0  0  0  0  0  0  0  0  0  0  0  0
  -32.2779   57.9236   62.2301 C   0  0  0  0  0  0  0  0  0  0  0  0
  -31.4372   59.1969   62.2055 C   0  0  0  0  0  0  0  0  0  0  0  0
  -32.2538   60.4693   62.3473 C   0  0  0  0  0  0  0  0  0  0  0  0
  -31.4588   61.7368   62.0848 C   0  0  0  0  0  0  0  0  0  0  0  0
  -32.2984   63.0008   62.0017 C   0  0  0  0  0  0  0  0  0  0  0  0
  -31.8881   64.0674   63.0054 C   0  0  0  0  0  0  0  0  0  0  0  0
  -31.6175   63.5383   64.3999 C   0  0  0  0  0  0  0  0  0  0  0  0
  -31.8331   64.5746   65.4671 C   0  0  0  0  0  0  0  0  0  0  0  0
 21 22  1  0  0  0
  4  5  2  0  0  0
 25 24  1  0  0  0
 25 26  2  0  0  0
 25 27  1  0  0  0
 25 29  1  0  0  0
 22 20  1  0  0  0
  3  5  1  0  0  0
  3  2  1  0  0  0
 20 19  1  0  0  0
 24 23  1  0  0  0
 19 18  1  0  0  0
 18 17  1  0  0  0
 27 28  1  0  0  0
 17 16  1  0  0  0
 29 30  1  0  0  0
 16 15  1  0  0  0
 34 35  1  0  0  0
 34 36  1  0  0  0
 15 14  1  0  0  0
 31 32  1  0  0  0
 31 33  1  0  0  0
 14 13  1  0  0  0
 37  1  1  0  0  0
 37 39  1  0  0  0
 13 12  1  0  0  0
 38 39  2  0  0  0
 12 11  1  0  0  0
 11 10  1  0  0  0
 10  9  1  0  0  0
  9  8  1  0  0  0
  8  7  1  0  0  0
  7  6  1  0  0  0
  6  5  1  0  0  0
  2  1  1  0  0  0
  1 23  1  0  0  0
 30 32  1  0  0  0
 32 35  1  0  0  0
 39 40  1  0  0  0
 40 41  1  0  0  0
 41 42  1  0  0  0
 42 43  1  0  0  0
 43 44  1  0  0  0
 44 45  1  0  0  0
 45 46  1  0  0  0
 46 47  1  0  0  0
 47 48  2  0  0  0
 48 49  1  0  0  0
 49 50  1  0  0  0
 50 51  1  0  0  0
 51 52  1  0  0  0
 52 53  1  0  0  0
 53 54  1  0  0  0
 54 55  1  0  0  0
 55 56  1  0  0  0
M  CHG 1  26  -1
M  END
> <minimizedAffinity>
-8.58855

> <CNNscore>
0.6720049381

> <CNNaffinity>
7.3934297562

> <CNN_VS>
4.9684214592

> <CNNaffinity_variance>
0.6580689549

$$$$
/media/chris/experiments/cd1a-new-docking/inputs/ligands/7sh4_ligand.pdb


 56 55  0  0  0  0  0  0  0  0999 V2000
  -38.6348   61.0274   63.5479 C   0  0  0  0  0  0  0  0  0  0  0  0
  -38.4473   59.7416   62.7935 C   0  0  0  0  0  0  0  0  0  0  0  0
  -38.3249   60.1589   61.4173 O   0  0  0  0  0  0  0  0  0  0  0  0
  -40.4608   60.6473   60.9721 O   0  0  0  0  0  0  0  0  0  0  0  0
  -39.4287   60.1109   60.6710 C   0  0  0  0  0  0  0  0  0  0  0  0
  -39.1716   59.4140   59.3659 C   0  0  0  0  0  0  0  0  0  0  0  0
  -37.7106   59.0779   59.1192 C   0  0  0  0  0  0  0  0  0  0  0  0
  -37.5258   57.9998   58.0723 C   0  0  0  0  0  0  0  0  0  0  0  0
  -36.1110   57.8758   57.5541 C   0  0  0  0  0  0  0  0  0  0  0  0
  -35.5017   56.5127   57.8129 C   0  0  0  0  0  0  0  0  0  0  0  0
  -34.2094   56.5775   58.5894 C   0  0  0  0  0  0  0  0  0  0  0  0
  -34.1329   55.5538   59.6912 C   0  0  0  0  0  0  0  0  0  0  0  0
  -34.2106   56.1557   61.0766 C   0  0  0  0  0  0  0  0  0  0  0  0
  -35.1821   57.3158   61.1572 C   0  0  0  0  0  0  0  0  0  0  0  0
  -36.3457   57.0832   62.0979 C   0  0  0  0  0  0  0  0  0  0  0  0
  -35.9557   57.0820   63.5717 C   0  0  0  0  0  0  0  0  0  0  0  0
  -35.3161   58.3747   64.0410 C   0  0  0  0  0  0  0  0  0  0  0  0
  -33.9609   58.1753   64.6882 C   0  0  0  0  0  0  0  0  0  0  0  0
  -32.8195   58.0519   63.6885 C   0  0  0  0  0  0  0  0  0  0  0  0
  -32.8096   59.1489   62.6389 C   0  0  0  0  0  0  0  0  0  0  0  0
  -31.0606   60.7762   61.8459 C   0  0  0  0  0  0  0  0  0  0  0  0
  -31.4860   59.3272   61.9195 C   0  0  0  0  0  0  0  0  0  0  0  0
  -37.4268   61.3780   64.3783 C   0  0  0  0  0  0  0  0  0  0  0  0
  -37.0472   62.7431   64.0940 O   0  0  0  0  0  0  0  0  0  0  0  0
  -35.6590   63.1303   63.3975 P   0  0  0  0  0  0  0  0  0  0  0  0
  -34.8944   61.8840   63.1763 O   0  0  0  0  0  0  0  0  0  0  0  0
  -35.9534   64.0014   62.2344 O   0  0  0  0  0  0  0  0  0  0  0  0
  -36.4321   63.4920   61.5619 H   0  0  0  0  0  0  0  0  0  0  0  0
  -34.8739   64.0030   64.4768 O   0  0  0  0  0  0  0  0  0  0  0  0
  -33.9919   63.3611   65.4203 C   0  0  0  0  0  0  0  0  0  0  0  0
  -33.9123   62.4676   67.6424 O   0  0  0  0  0  0  0  0  0  0  0  0
  -34.7943   62.9848   66.6415 C   0  0  0  0  0  0  0  0  0  0  0  0
  -33.4117   61.7212   67.2777 H   0  0  0  0  0  0  0  0  0  0  0  0
  -36.9477   64.0593   66.8054 O   0  0  0  0  0  0  0  0  0  0  0  0
  -35.5825   64.1487   67.1927 C   0  0  0  0  0  0  0  0  0  0  0  0
  -37.4368   64.8143   67.1683 H   0  0  0  0  0  0  0  0  0  0  0  0
  -39.8419   60.9074   64.3716 O   0  0  0  0  0  0  0  0  0  0  0  0
  -39.0801   60.3675   66.4182 O   0  0  0  0  0  0  0  0  0  0  0  0
  -39.7616   60.1198   65.4612 C   0  0  0  0  0  0  0  0  0  0  0  0
  -40.6367   58.9103   65.3441 C   0  0  0  0  0  0  0  0  0  0  0  0
  -41.8075   58.9710   66.3199 C   0  0  0  0  0  0  0  0  0  0  0  0
  -43.0682   58.2901   65.8130 C   0  0  0  0  0  0  0  0  0  0  0  0
  -44.3489   59.0385   66.1642 C   0  0  0  0  0  0  0  0  0  0  0  0
  -45.4685   58.8518   65.1571 C   0  0  0  0  0  0  0  0  0  0  0  0
  -46.8576   59.2426   65.6695 C   0  0  0  0  0  0  0  0  0  0  0  0
  -47.9798   59.1676   64.6320 C   0  0  0  0  0  0  0  0  0  0  0  0
  -49.1305   58.3305   65.1041 C   0  0  0  0  0  0  0  0  0  0  0  0
  -50.3395   58.2859   64.5788 C   0  0  0  0  0  0  0  0  0  0  0  0
  -50.8163   59.0654   63.3941 C   0  0  0  0  0  0  0  0  0  0  0  0
  -50.7594   58.2548   62.1025 C   0  0  0  0  0  0  0  0  0  0  0  0
  -49.4532   58.4087   61.3434 C   0  0  0  0  0  0  0  0  0  0  0  0
  -49.4986   57.8496   59.9317 C   0  0  0  0  0  0  0  0  0  0  0  0
  -48.4119   56.8335   59.6217 C   0  0  0  0  0  0  0  0  0  0  0  0
  -47.1119   57.4635   59.1455 C   0  0  0  0  0  0  0  0  0  0  0  0
  -46.9473   57.4869   57.6388 C   0  0  0  0  0  0  0  0  0  0  0  0
  -47.8510   56.5101   56.9398 C   0  0  0  0  0  0  0  0  0  0  0  0
 21 22  1  0  0  0
  4  5  2  0  0  0
 25 24  1  0  0  0
 25 26  2  0  0  0
 25 27  1  0  0  0
 25 29  1  0  0  0
 22 20  1  0  0  0
  3  5  1  0  0  0
  3  2  1  0  0  0
 20 19  1  0  0  0
 24 23  1  0  0  0
 19 18  1  0  0  0
 18 17  1  0  0  0
 27 28  1  0  0  0
 17 16  1  0  0  0
 29 30  1  0  0  0
 16 15  1  0  0  0
 34 35  1  0  0  0
 34 36  1  0  0  0
 15 14  1  0  0  0
 31 32  1  0  0  0
 31 33  1  0  0  0
 14 13  1  0  0  0
 37  1  1  0  0  0
 37 39  1  0  0  0
 13 12  1  0  0  0
 38 39  2  0  0  0
 12 11  1  0  0  0
 11 10  1  0  0  0
 10  9  1  0  0  0
  9  8  1  0  0  0
  8  7  1  0  0  0
  7  6  1  0  0  0
  6  5  1  0  0  0
  2  1  1  0  0  0
  1 23  1  0  0  0
 30 32  1  0  0  0
 32 35  1  0  0  0
 39 40  1  0  0  0
 40 41  1  0  0  0
 41 42  1  0  0  0
 42 43  1  0  0  0
 43 44  1  0  0  0
 44 45  1  0  0  0
 45 46  1  0  0  0
 46 47  1  0  0  0
 47 48  2  0  0  0
 48 49  1  0  0  0
 49 50  1  0  0  0
 50 51  1  0  0  0
 51 52  1  0  0  0
 52 53  1  0  0  0
 53 54  1  0  0  0
 54 55  1  0  0  0
 55 56  1  0  0  0
M  CHG 1  26  -1
M  END
> <minimizedAffinity>
-8.70113

> <CNNscore>
0.6638140678

> <CNNaffinity>
7.6800260544

> <CNN_VS>
5.0981092453

> <CNNaffinity_variance>
0.5218349099

$$$$
/media/chris/experiments/cd1a-new-docking/inputs/ligands/7sh4_ligand.pdb


 56 55  0  0  0  0  0  0  0  0999 V2000
  -37.5873   59.9811   65.2064 C   0  0  0  0  0  0  0  0  0  0  0  0
  -38.8300   60.0405   66.0488 C   0  0  0  0  0  0  0  0  0  0  0  0
  -39.7468   60.8316   65.2635 O   0  0  0  0  0  0  0  0  0  0  0  0
  -41.4914   60.3060   63.9676 O   0  0  0  0  0  0  0  0  0  0  0  0
  -40.9556   60.3141   65.0431 C   0  0  0  0  0  0  0  0  0  0  0  0
  -41.4909   59.6417   66.2745 C   0  0  0  0  0  0  0  0  0  0  0  0
  -42.2943   58.3829   65.9947 C   0  0  0  0  0  0  0  0  0  0  0  0
  -43.7638   58.5401   66.3240 C   0  0  0  0  0  0  0  0  0  0  0  0
  -44.6319   58.8817   65.1343 C   0  0  0  0  0  0  0  0  0  0  0  0
  -45.4706   57.7134   64.6569 C   0  0  0  0  0  0  0  0  0  0  0  0
  -45.9246   56.8109   65.7778 C   0  0  0  0  0  0  0  0  0  0  0  0
  -47.2857   57.1733   66.3105 C   0  0  0  0  0  0  0  0  0  0  0  0
  -48.3025   57.4460   65.2244 C   0  0  0  0  0  0  0  0  0  0  0  0
  -49.4155   58.3668   65.6822 C   0  0  0  0  0  0  0  0  0  0  0  0
  -50.4582   58.6509   64.6215 C   0  0  0  0  0  0  0  0  0  0  0  0
  -50.0782   58.1472   63.2337 C   0  0  0  0  0  0  0  0  0  0  0  0
  -51.1640   58.3345   62.1915 C   0  0  0  0  0  0  0  0  0  0  0  0
  -51.0396   57.3872   61.0156 C   0  0  0  0  0  0  0  0  0  0  0  0
  -49.9828   57.8066   60.0034 C   0  0  0  0  0  0  0  0  0  0  0  0
  -49.2541   56.6372   59.3658 C   0  0  0  0  0  0  0  0  0  0  0  0
  -47.0561   57.6605   58.6894 C   0  0  0  0  0  0  0  0  0  0  0  0
  -48.3370   57.0110   58.2167 C   0  0  0  0  0  0  0  0  0  0  0  0
  -37.0743   61.3545   64.8566 C   0  0  0  0  0  0  0  0  0  0  0  0
  -35.8693   61.6075   65.6132 O   0  0  0  0  0  0  0  0  0  0  0  0
  -35.6882   62.8909   66.5525 P   0  0  0  0  0  0  0  0  0  0  0  0
  -36.2724   64.0558   65.8536 O   0  0  0  0  0  0  0  0  0  0  0  0
  -36.1889   62.5471   67.9052 O   0  0  0  0  0  0  0  0  0  0  0  0
  -37.1474   62.4028   67.8682 H   0  0  0  0  0  0  0  0  0  0  0  0
  -34.1135   63.1195   66.6565 O   0  0  0  0  0  0  0  0  0  0  0  0
  -33.3433   63.3879   65.4670 C   0  0  0  0  0  0  0  0  0  0  0  0
  -31.2331   64.4425   65.0459 O   0  0  0  0  0  0  0  0  0  0  0  0
  -32.4848   64.6027   65.7202 C   0  0  0  0  0  0  0  0  0  0  0  0
  -30.8123   63.6184   65.3368 H   0  0  0  0  0  0  0  0  0  0  0  0
  -34.2412   65.6047   64.4051 O   0  0  0  0  0  0  0  0  0  0  0  0
  -33.1544   65.8820   65.2789 C   0  0  0  0  0  0  0  0  0  0  0  0
  -34.6578   66.4373   64.1329 H   0  0  0  0  0  0  0  0  0  0  0  0
  -37.8802   59.1907   64.0067 O   0  0  0  0  0  0  0  0  0  0  0  0
  -39.3165   57.4631   63.8922 O   0  0  0  0  0  0  0  0  0  0  0  0
  -38.2427   57.9072   64.1947 C   0  0  0  0  0  0  0  0  0  0  0  0
  -37.1420   57.0980   64.8078 C   0  0  0  0  0  0  0  0  0  0  0  0
  -35.8658   57.1689   63.9753 C   0  0  0  0  0  0  0  0  0  0  0  0
  -34.7148   57.8769   64.6708 C   0  0  0  0  0  0  0  0  0  0  0  0
  -33.9832   58.8732   63.7787 C   0  0  0  0  0  0  0  0  0  0  0  0
  -34.2194   58.6619   62.2948 C   0  0  0  0  0  0  0  0  0  0  0  0
  -33.0074   58.1267   61.5270 C   0  0  0  0  0  0  0  0  0  0  0  0
  -32.8170   56.6096   61.5853 C   0  0  0  0  0  0  0  0  0  0  0  0
  -34.0727   55.8688   61.2355 C   0  0  0  0  0  0  0  0  0  0  0  0
  -34.5411   55.6413   60.0237 C   0  0  0  0  0  0  0  0  0  0  0  0
  -33.9118   56.0766   58.7381 C   0  0  0  0  0  0  0  0  0  0  0  0
  -34.7172   57.1654   58.0349 C   0  0  0  0  0  0  0  0  0  0  0  0
  -36.2119   56.8984   58.0108 C   0  0  0  0  0  0  0  0  0  0  0  0
  -37.0388   58.0001   58.6511 C   0  0  0  0  0  0  0  0  0  0  0  0
  -37.4974   57.7002   60.0686 C   0  0  0  0  0  0  0  0  0  0  0  0
  -38.4187   58.7644   60.6449 C   0  0  0  0  0  0  0  0  0  0  0  0
  -38.8573   59.8156   59.6447 C   0  0  0  0  0  0  0  0  0  0  0  0
  -40.2722   60.2731   59.8645 C   0  0  0  0  0  0  0  0  0  0  0  0
 21 22  1  0  0  0
  4  5  2  0  0  0
 25 24  1  0  0  0
 25 26  2  0  0  0
 25 27  1  0  0  0
 25 29  1  0  0  0
 22 20  1  0  0  0
  3  5  1  0  0  0
  3  2  1  0  0  0
 20 19  1  0  0  0
 24 23  1  0  0  0
 19 18  1  0  0  0
 18 17  1  0  0  0
 27 28  1  0  0  0
 17 16  1  0  0  0
 29 30  1  0  0  0
 16 15  1  0  0  0
 34 35  1  0  0  0
 34 36  1  0  0  0
 15 14  1  0  0  0
 31 32  1  0  0  0
 31 33  1  0  0  0
 14 13  1  0  0  0
 37  1  1  0  0  0
 37 39  1  0  0  0
 13 12  1  0  0  0
 38 39  2  0  0  0
 12 11  1  0  0  0
 11 10  1  0  0  0
 10  9  1  0  0  0
  9  8  1  0  0  0
  8  7  1  0  0  0
  7  6  1  0  0  0
  6  5  1  0  0  0
  2  1  1  0  0  0
  1 23  1  0  0  0
 30 32  1  0  0  0
 32 35  1  0  0  0
 39 40  1  0  0  0
 40 41  1  0  0  0
 41 42  1  0  0  0
 42 43  1  0  0  0
 43 44  1  0  0  0
 44 45  1  0  0  0
 45 46  1  0  0  0
 46 47  1  0  0  0
 47 48  2  0  0  0
 48 49  1  0  0  0
 49 50  1  0  0  0
 50 51  1  0  0  0
 51 52  1  0  0  0
 52 53  1  0  0  0
 53 54  1  0  0  0
 54 55  1  0  0  0
 55 56  1  0  0  0
M  CHG 1  26  -1
M  END
> <minimizedAffinity>
-8.94473

> <CNNscore>
0.6283896565

> <CNNaffinity>
7.5859756470

> <CNN_VS>
4.7669487000

> <CNNaffinity_variance>
0.6227084398

$$$$
/media/chris/experiments/cd1a-new-docking/inputs/ligands/7sh4_ligand.pdb


 56 55  0  0  0  0  0  0  0  0999 V2000
  -36.6082   60.9111   64.7698 C   0  0  0  0  0  0  0  0  0  0  0  0
  -37.9830   60.9991   64.1699 C   0  0  0  0  0  0  0  0  0  0  0  0
  -38.8579   60.5812   65.2389 O   0  0  0  0  0  0  0  0  0  0  0  0
  -40.7862   61.0444   64.2064 O   0  0  0  0  0  0  0  0  0  0  0  0
  -40.1283   60.3344   64.9184 C   0  0  0  0  0  0  0  0  0  0  0  0
  -40.5756   59.0058   65.4565 C   0  0  0  0  0  0  0  0  0  0  0  0
  -41.7005   59.0951   66.4737 C   0  0  0  0  0  0  0  0  0  0  0  0
  -43.0442   58.7007   65.8979 C   0  0  0  0  0  0  0  0  0  0  0  0
  -43.3481   57.2226   65.9910 C   0  0  0  0  0  0  0  0  0  0  0  0
  -44.7634   56.8803   65.5717 C   0  0  0  0  0  0  0  0  0  0  0  0
  -45.3595   57.8854   64.6169 C   0  0  0  0  0  0  0  0  0  0  0  0
  -46.5570   58.5994   65.1860 C   0  0  0  0  0  0  0  0  0  0  0  0
  -47.8762   58.0122   64.7358 C   0  0  0  0  0  0  0  0  0  0  0  0
  -49.0671   58.8332   65.1876 C   0  0  0  0  0  0  0  0  0  0  0  0
  -50.2967   58.6681   64.3193 C   0  0  0  0  0  0  0  0  0  0  0  0
  -50.0021   58.1001   62.9356 C   0  0  0  0  0  0  0  0  0  0  0  0
  -51.1760   58.1703   61.9779 C   0  0  0  0  0  0  0  0  0  0  0  0
  -51.0588   57.2114   60.8108 C   0  0  0  0  0  0  0  0  0  0  0  0
  -49.6386   56.7227   60.5627 C   0  0  0  0  0  0  0  0  0  0  0  0
  -48.8355   57.6287   59.6465 C   0  0  0  0  0  0  0  0  0  0  0  0
  -46.8038   57.9427   58.1942 C   0  0  0  0  0  0  0  0  0  0  0  0
  -47.6490   56.9627   58.9760 C   0  0  0  0  0  0  0  0  0  0  0  0
  -36.1823   62.2111   65.4026 C   0  0  0  0  0  0  0  0  0  0  0  0
  -36.0642   63.2146   64.3695 O   0  0  0  0  0  0  0  0  0  0  0  0
  -34.6526   63.7469   63.8346 P   0  0  0  0  0  0  0  0  0  0  0  0
  -34.5264   63.3605   62.4128 O   0  0  0  0  0  0  0  0  0  0  0  0
  -34.5325   65.1797   64.1968 O   0  0  0  0  0  0  0  0  0  0  0  0
  -35.1916   65.6940   63.7047 H   0  0  0  0  0  0  0  0  0  0  0  0
  -33.5552   62.9388   64.6625 O   0  0  0  0  0  0  0  0  0  0  0  0
  -32.3155   63.5767   65.0315 C   0  0  0  0  0  0  0  0  0  0  0  0
  -31.7402   62.1907   63.1632 O   0  0  0  0  0  0  0  0  0  0  0  0
  -31.2980   63.2993   63.9523 C   0  0  0  0  0  0  0  0  0  0  0  0
  -31.8950   61.4254   63.7387 H   0  0  0  0  0  0  0  0  0  0  0  0
  -31.5600   65.6815   63.6790 O   0  0  0  0  0  0  0  0  0  0  0  0
  -31.0520   64.5006   63.0715 C   0  0  0  0  0  0  0  0  0  0  0  0
  -31.3928   66.4410   63.0992 H   0  0  0  0  0  0  0  0  0  0  0  0
  -35.6739   60.4870   63.7223 O   0  0  0  0  0  0  0  0  0  0  0  0
  -34.4987   59.2874   65.2190 O   0  0  0  0  0  0  0  0  0  0  0  0
  -34.6549   59.6909   64.0990 C   0  0  0  0  0  0  0  0  0  0  0  0
  -33.7528   59.3548   62.9521 C   0  0  0  0  0  0  0  0  0  0  0  0
  -32.8462   58.1732   63.2818 C   0  0  0  0  0  0  0  0  0  0  0  0
  -32.5324   57.2855   62.0888 C   0  0  0  0  0  0  0  0  0  0  0  0
  -33.6519   57.2343   61.0554 C   0  0  0  0  0  0  0  0  0  0  0  0
  -34.0743   55.8280   60.6727 C   0  0  0  0  0  0  0  0  0  0  0  0
  -35.3045   55.7580   59.7635 C   0  0  0  0  0  0  0  0  0  0  0  0
  -35.2425   56.6394   58.5143 C   0  0  0  0  0  0  0  0  0  0  0  0
  -36.5732   56.7466   57.8319 C   0  0  0  0  0  0  0  0  0  0  0  0
  -37.4486   57.7245   57.9626 C   0  0  0  0  0  0  0  0  0  0  0  0
  -37.2939   58.9384   58.8232 C   0  0  0  0  0  0  0  0  0  0  0  0
  -38.6130   59.3787   59.4515 C   0  0  0  0  0  0  0  0  0  0  0  0
  -38.5297   59.6004   60.9515 C   0  0  0  0  0  0  0  0  0  0  0  0
  -39.0723   58.4417   61.7703 C   0  0  0  0  0  0  0  0  0  0  0  0
  -38.1559   57.2311   61.8326 C   0  0  0  0  0  0  0  0  0  0  0  0
  -36.8152   57.5197   62.4907 C   0  0  0  0  0  0  0  0  0  0  0  0
  -36.6184   56.8340   63.8282 C   0  0  0  0  0  0  0  0  0  0  0  0
  -37.5066   57.3927   64.9045 C   0  0  0  0  0  0  0  0  0  0  0  0
 21 22  1  0  0  0
  4  5  2  0  0  0
 25 24  1  0  0  0
 25 26  2  0  0  0
 25 27  1  0  0  0
 25 29  1  0  0  0
 22 20  1  0  0  0
  3  5  1  0  0  0
  3  2  1  0  0  0
 20 19  1  0  0  0
 24 23  1  0  0  0
 19 18  1  0  0  0
 18 17  1  0  0  0
 27 28  1  0  0  0
 17 16  1  0  0  0
 29 30  1  0  0  0
 16 15  1  0  0  0
 34 35  1  0  0  0
 34 36  1  0  0  0
 15 14  1  0  0  0
 31 32  1  0  0  0
 31 33  1  0  0  0
 14 13  1  0  0  0
 37  1  1  0  0  0
 37 39  1  0  0  0
 13 12  1  0  0  0
 38 39  2  0  0  0
 12 11  1  0  0  0
 11 10  1  0  0  0
 10  9  1  0  0  0
  9  8  1  0  0  0
  8  7  1  0  0  0
  7  6  1  0  0  0
  6  5  1  0  0  0
  2  1  1  0  0  0
  1 23  1  0  0  0
 30 32  1  0  0  0
 32 35  1  0  0  0
 39 40  1  0  0  0
 40 41  1  0  0  0
 41 42  1  0  0  0
 42 43  1  0  0  0
 43 44  1  0  0  0
 44 45  1  0  0  0
 45 46  1  0  0  0
 46 47  1  0  0  0
 47 48  2  0  0  0
 48 49  1  0  0  0
 49 50  1  0  0  0
 50 51  1  0  0  0
 51 52  1  0  0  0
 52 53  1  0  0  0
 53 54  1  0  0  0
 54 55  1  0  0  0
 55 56  1  0  0  0
M  CHG 1  26  -1
M  END
> <minimizedAffinity>
-8.22972

> <CNNscore>
0.6214767694

> <CNNaffinity>
7.5161643028

> <CNN_VS>
4.6711215973

> <CNNaffinity_variance>
0.5381479263

$$$$
/media/chris/experiments/cd1a-new-docking/inputs/ligands/7sh4_ligand.pdb


 56 55  0  0  0  0  0  0  0  0999 V2000
  -38.6069   60.0259   65.4375 C   0  0  0  0  0  0  0  0  0  0  0  0
  -38.5859   58.5243   65.3866 C   0  0  0  0  0  0  0  0  0  0  0  0
  -38.9959   58.2149   64.0378 O   0  0  0  0  0  0  0  0  0  0  0  0
  -38.5089   56.8975   62.2982 O   0  0  0  0  0  0  0  0  0  0  0  0
  -38.1861   57.4316   63.3249 C   0  0  0  0  0  0  0  0  0  0  0  0
  -36.8010   57.4122   63.9047 C   0  0  0  0  0  0  0  0  0  0  0  0
  -35.8465   58.4062   63.2650 C   0  0  0  0  0  0  0  0  0  0  0  0
  -34.7681   58.8791   64.2169 C   0  0  0  0  0  0  0  0  0  0  0  0
  -33.5285   58.0134   64.2276 C   0  0  0  0  0  0  0  0  0  0  0  0
  -32.5644   58.3438   63.1061 C   0  0  0  0  0  0  0  0  0  0  0  0
  -32.4256   57.2319   62.0954 C   0  0  0  0  0  0  0  0  0  0  0  0
  -33.5008   57.2571   61.0413 C   0  0  0  0  0  0  0  0  0  0  0  0
  -34.3938   56.0365   61.0652 C   0  0  0  0  0  0  0  0  0  0  0  0
  -34.6310   55.4576   59.6850 C   0  0  0  0  0  0  0  0  0  0  0  0
  -33.9458   56.2187   58.5695 C   0  0  0  0  0  0  0  0  0  0  0  0
  -34.8926   57.0744   57.7355 C   0  0  0  0  0  0  0  0  0  0  0  0
  -36.3494   56.6668   57.8447 C   0  0  0  0  0  0  0  0  0  0  0  0
  -37.2966   57.8434   57.9609 C   0  0  0  0  0  0  0  0  0  0  0  0
  -37.3668   58.4341   59.3622 C   0  0  0  0  0  0  0  0  0  0  0  0
  -38.3553   59.5795   59.4900 C   0  0  0  0  0  0  0  0  0  0  0  0
  -39.9730   60.1819   61.3220 C   0  0  0  0  0  0  0  0  0  0  0  0
  -38.5231   60.1190   60.8978 C   0  0  0  0  0  0  0  0  0  0  0  0
  -37.3191   60.5922   65.9783 C   0  0  0  0  0  0  0  0  0  0  0  0
  -37.3774   62.0342   65.9035 O   0  0  0  0  0  0  0  0  0  0  0  0
  -36.2143   62.9796   66.4651 P   0  0  0  0  0  0  0  0  0  0  0  0
  -36.4430   64.3449   65.9451 O   0  0  0  0  0  0  0  0  0  0  0  0
  -36.1265   62.7815   67.9320 O   0  0  0  0  0  0  0  0  0  0  0  0
  -36.9361   63.1118   68.3519 H   0  0  0  0  0  0  0  0  0  0  0  0
  -34.8681   62.4253   65.8145 O   0  0  0  0  0  0  0  0  0  0  0  0
  -33.6062   63.0509   66.1243 C   0  0  0  0  0  0  0  0  0  0  0  0
  -33.7448   65.0415   64.7973 O   0  0  0  0  0  0  0  0  0  0  0  0
  -33.1115   63.7617   64.8886 C   0  0  0  0  0  0  0  0  0  0  0  0
  -34.7079   64.9268   64.8040 H   0  0  0  0  0  0  0  0  0  0  0  0
  -31.2223   65.0674   65.6264 O   0  0  0  0  0  0  0  0  0  0  0  0
  -31.6102   63.9215   64.8794 C   0  0  0  0  0  0  0  0  0  0  0  0
  -30.2562   65.1530   65.6088 H   0  0  0  0  0  0  0  0  0  0  0  0
  -39.7613   60.4444   66.2389 O   0  0  0  0  0  0  0  0  0  0  0  0
  -41.2432   60.9317   64.6183 O   0  0  0  0  0  0  0  0  0  0  0  0
  -40.9702   60.3791   65.6487 C   0  0  0  0  0  0  0  0  0  0  0  0
  -41.9250   59.5216   66.4202 C   0  0  0  0  0  0  0  0  0  0  0  0
  -42.1569   58.1819   65.7288 C   0  0  0  0  0  0  0  0  0  0  0  0
  -43.0347   57.2248   66.5183 C   0  0  0  0  0  0  0  0  0  0  0  0
  -44.3185   56.8362   65.7939 C   0  0  0  0  0  0  0  0  0  0  0  0
  -45.4945   57.7480   66.0907 C   0  0  0  0  0  0  0  0  0  0  0  0
  -45.8060   58.7644   64.9885 C   0  0  0  0  0  0  0  0  0  0  0  0
  -47.1711   59.4470   65.0984 C   0  0  0  0  0  0  0  0  0  0  0  0
  -48.2702   58.4688   65.3867 C   0  0  0  0  0  0  0  0  0  0  0  0
  -49.2046   58.0647   64.5483 C   0  0  0  0  0  0  0  0  0  0  0  0
  -49.3621   58.5001   63.1256 C   0  0  0  0  0  0  0  0  0  0  0  0
  -50.6617   57.9976   62.5033 C   0  0  0  0  0  0  0  0  0  0  0  0
  -50.5496   57.6943   61.0196 C   0  0  0  0  0  0  0  0  0  0  0  0
  -49.3028   58.2714   60.3716 C   0  0  0  0  0  0  0  0  0  0  0  0
  -48.7006   57.4022   59.2801 C   0  0  0  0  0  0  0  0  0  0  0  0
  -47.1839   57.4884   59.2050 C   0  0  0  0  0  0  0  0  0  0  0  0
  -46.6326   57.5363   57.7938 C   0  0  0  0  0  0  0  0  0  0  0  0
  -47.4657   56.7543   56.8171 C   0  0  0  0  0  0  0  0  0  0  0  0
 21 22  1  0  0  0
  4  5  2  0  0  0
 25 24  1  0  0  0
 25 26  2  0  0  0
 25 27  1  0  0  0
 25 29  1  0  0  0
 22 20  1  0  0  0
  3  5  1  0  0  0
  3  2  1  0  0  0
 20 19  1  0  0  0
 24 23  1  0  0  0
 19 18  1  0  0  0
 18 17  1  0  0  0
 27 28  1  0  0  0
 17 16  1  0  0  0
 29 30  1  0  0  0
 16 15  1  0  0  0
 34 35  1  0  0  0
 34 36  1  0  0  0
 15 14  1  0  0  0
 31 32  1  0  0  0
 31 33  1  0  0  0
 14 13  1  0  0  0
 37  1  1  0  0  0
 37 39  1  0  0  0
 13 12  1  0  0  0
 38 39  2  0  0  0
 12 11  1  0  0  0
 11 10  1  0  0  0
 10  9  1  0  0  0
  9  8  1  0  0  0
  8  7  1  0  0  0
  7  6  1  0  0  0
  6  5  1  0  0  0
  2  1  1  0  0  0
  1 23  1  0  0  0
 30 32  1  0  0  0
 32 35  1  0  0  0
 39 40  1  0  0  0
 40 41  1  0  0  0
 41 42  1  0  0  0
 42 43  1  0  0  0
 43 44  1  0  0  0
 44 45  1  0  0  0
 45 46  1  0  0  0
 46 47  1  0  0  0
 47 48  2  0  0  0
 48 49  1  0  0  0
 49 50  1  0  0  0
 50 51  1  0  0  0
 51 52  1  0  0  0
 52 53  1  0  0  0
 53 54  1  0  0  0
 54 55  1  0  0  0
 55 56  1  0  0  0
M  CHG 1  26  -1
M  END
> <minimizedAffinity>
-8.91302

> <CNNscore>
0.6145706177

> <CNNaffinity>
7.6960463524

> <CNN_VS>
4.7297639847

> <CNNaffinity_variance>
0.7792384624

$$$$
/media/chris/experiments/cd1a-new-docking/inputs/ligands/7sh4_ligand.pdb


 56 55  0  0  0  0  0  0  0  0999 V2000
  -38.6798   59.1049   63.9687 C   0  0  0  0  0  0  0  0  0  0  0  0
  -39.3389   58.5407   65.1954 C   0  0  0  0  0  0  0  0  0  0  0  0
  -40.7166   58.9529   65.0726 O   0  0  0  0  0  0  0  0  0  0  0  0
  -40.7408   60.9332   66.1105 O   0  0  0  0  0  0  0  0  0  0  0  0
  -41.1711   59.8190   65.9787 C   0  0  0  0  0  0  0  0  0  0  0  0
  -42.3580   59.2642   66.7122 C   0  0  0  0  0  0  0  0  0  0  0  0
  -42.6072   57.7865   66.4618 C   0  0  0  0  0  0  0  0  0  0  0  0
  -43.9656   57.5166   65.8498 C   0  0  0  0  0  0  0  0  0  0  0  0
  -44.8240   58.7494   65.6795 C   0  0  0  0  0  0  0  0  0  0  0  0
  -46.1014   58.7000   66.4932 C   0  0  0  0  0  0  0  0  0  0  0  0
  -47.2201   57.9634   65.7982 C   0  0  0  0  0  0  0  0  0  0  0  0
  -48.0920   58.8666   64.9666 C   0  0  0  0  0  0  0  0  0  0  0  0
  -49.4957   58.3366   64.7753 C   0  0  0  0  0  0  0  0  0  0  0  0
  -50.2785   59.1140   63.7365 C   0  0  0  0  0  0  0  0  0  0  0  0
  -50.8538   58.2577   62.6278 C   0  0  0  0  0  0  0  0  0  0  0  0
  -49.8021   57.6770   61.6892 C   0  0  0  0  0  0  0  0  0  0  0  0
  -50.3724   57.0906   60.4121 C   0  0  0  0  0  0  0  0  0  0  0  0
  -49.5401   57.3984   59.1843 C   0  0  0  0  0  0  0  0  0  0  0  0
  -48.0437   57.4512   59.4590 C   0  0  0  0  0  0  0  0  0  0  0  0
  -47.1928   57.3931   58.2029 C   0  0  0  0  0  0  0  0  0  0  0  0
  -47.5504   55.1653   57.0872 C   0  0  0  0  0  0  0  0  0  0  0  0
  -47.8258   56.6512   57.0411 C   0  0  0  0  0  0  0  0  0  0  0  0
  -39.1398   58.4143   62.7104 C   0  0  0  0  0  0  0  0  0  0  0  0
  -39.5133   59.4172   61.7394 O   0  0  0  0  0  0  0  0  0  0  0  0
  -38.7047   59.6499   60.3777 P   0  0  0  0  0  0  0  0  0  0  0  0
  -39.6820   59.9597   59.3121 O   0  0  0  0  0  0  0  0  0  0  0  0
  -37.6146   60.6180   60.6480 O   0  0  0  0  0  0  0  0  0  0  0  0
  -37.9965   61.4845   60.8582 H   0  0  0  0  0  0  0  0  0  0  0  0
  -38.0367   58.2424   60.0374 O   0  0  0  0  0  0  0  0  0  0  0  0
  -36.8710   58.1832   59.1902 C   0  0  0  0  0  0  0  0  0  0  0  0
  -37.2490   56.7298   57.3228 O   0  0  0  0  0  0  0  0  0  0  0  0
  -36.7399   56.7769   58.6591 C   0  0  0  0  0  0  0  0  0  0  0  0
  -38.1644   57.0504   57.3141 H   0  0  0  0  0  0  0  0  0  0  0  0
  -34.4658   57.1412   57.9422 O   0  0  0  0  0  0  0  0  0  0  0  0
  -35.3143   56.2807   58.6913 C   0  0  0  0  0  0  0  0  0  0  0  0
  -33.5559   56.8065   57.9747 H   0  0  0  0  0  0  0  0  0  0  0  0
  -37.2268   59.0080   64.1395 O   0  0  0  0  0  0  0  0  0  0  0  0
  -35.6822   59.8920   62.7635 O   0  0  0  0  0  0  0  0  0  0  0  0
  -36.4854   60.0189   63.6470 C   0  0  0  0  0  0  0  0  0  0  0  0
  -36.7957   61.3206   64.3190 C   0  0  0  0  0  0  0  0  0  0  0  0
  -36.4959   62.5058   63.4068 C   0  0  0  0  0  0  0  0  0  0  0  0
  -35.3820   63.4071   63.9135 C   0  0  0  0  0  0  0  0  0  0  0  0
  -35.6571   64.0017   65.2900 C   0  0  0  0  0  0  0  0  0  0  0  0
  -34.5186   63.8242   66.2773 C   0  0  0  0  0  0  0  0  0  0  0  0
  -33.5928   65.0371   66.4064 C   0  0  0  0  0  0  0  0  0  0  0  0
  -32.3599   65.0151   65.5004 C   0  0  0  0  0  0  0  0  0  0  0  0
  -32.5002   65.9450   64.3327 C   0  0  0  0  0  0  0  0  0  0  0  0
  -31.9990   65.7735   63.1249 C   0  0  0  0  0  0  0  0  0  0  0  0
  -31.1822   64.6072   62.6657 C   0  0  0  0  0  0  0  0  0  0  0  0
  -32.0416   63.4834   62.0937 C   0  0  0  0  0  0  0  0  0  0  0  0
  -31.2876   62.1804   61.8945 C   0  0  0  0  0  0  0  0  0  0  0  0
  -32.0616   60.9530   62.3439 C   0  0  0  0  0  0  0  0  0  0  0  0
  -31.4148   59.6294   61.9707 C   0  0  0  0  0  0  0  0  0  0  0  0
  -32.1595   58.4180   62.5107 C   0  0  0  0  0  0  0  0  0  0  0  0
  -33.1933   57.8484   61.5595 C   0  0  0  0  0  0  0  0  0  0  0  0
  -33.1840   56.3457   61.5225 C   0  0  0  0  0  0  0  0  0  0  0  0
 21 22  1  0  0  0
  4  5  2  0  0  0
 25 24  1  0  0  0
 25 26  2  0  0  0
 25 27  1  0  0  0
 25 29  1  0  0  0
 22 20  1  0  0  0
  3  5  1  0  0  0
  3  2  1  0  0  0
 20 19  1  0  0  0
 24 23  1  0  0  0
 19 18  1  0  0  0
 18 17  1  0  0  0
 27 28  1  0  0  0
 17 16  1  0  0  0
 29 30  1  0  0  0
 16 15  1  0  0  0
 34 35  1  0  0  0
 34 36  1  0  0  0
 15 14  1  0  0  0
 31 32  1  0  0  0
 31 33  1  0  0  0
 14 13  1  0  0  0
 37  1  1  0  0  0
 37 39  1  0  0  0
 13 12  1  0  0  0
 38 39  2  0  0  0
 12 11  1  0  0  0
 11 10  1  0  0  0
 10  9  1  0  0  0
  9  8  1  0  0  0
  8  7  1  0  0  0
  7  6  1  0  0  0
  6  5  1  0  0  0
  2  1  1  0  0  0
  1 23  1  0  0  0
 30 32  1  0  0  0
 32 35  1  0  0  0
 39 40  1  0  0  0
 40 41  1  0  0  0
 41 42  1  0  0  0
 42 43  1  0  0  0
 43 44  1  0  0  0
 44 45  1  0  0  0
 45 46  1  0  0  0
 46 47  1  0  0  0
 47 48  2  0  0  0
 48 49  1  0  0  0
 49 50  1  0  0  0
 50 51  1  0  0  0
 51 52  1  0  0  0
 52 53  1  0  0  0
 53 54  1  0  0  0
 54 55  1  0  0  0
 55 56  1  0  0  0
M  CHG 1  26  -1
M  END
> <minimizedAffinity>
-8.40410

> <CNNscore>
0.5898784399

> <CNNaffinity>
7.3091659546

> <CNN_VS>
4.3115196228

> <CNNaffinity_variance>
0.3265739083

$$$$
/media/chris/experiments/cd1a-new-docking/inputs/ligands/7sh4_ligand.pdb


 56 55  0  0  0  0  0  0  0  0999 V2000
  -38.1297   60.5344   62.4998 C   0  0  0  0  0  0  0  0  0  0  0  0
  -38.6590   60.7869   63.8831 C   0  0  0  0  0  0  0  0  0  0  0  0
  -40.0830   60.5906   63.7533 O   0  0  0  0  0  0  0  0  0  0  0  0
  -40.4874   60.9173   65.9279 O   0  0  0  0  0  0  0  0  0  0  0  0
  -40.7723   60.4044   64.8793 C   0  0  0  0  0  0  0  0  0  0  0  0
  -42.0042   59.5823   64.6318 C   0  0  0  0  0  0  0  0  0  0  0  0
  -42.3138   58.5814   65.7321 C   0  0  0  0  0  0  0  0  0  0  0  0
  -43.7818   58.5522   66.1018 C   0  0  0  0  0  0  0  0  0  0  0  0
  -44.7182   58.5006   64.9159 C   0  0  0  0  0  0  0  0  0  0  0  0
  -46.1673   58.3029   65.3122 C   0  0  0  0  0  0  0  0  0  0  0  0
  -46.8264   59.5682   65.8043 C   0  0  0  0  0  0  0  0  0  0  0  0
  -48.3247   59.5478   65.6544 C   0  0  0  0  0  0  0  0  0  0  0  0
  -48.8571   58.2357   65.1225 C   0  0  0  0  0  0  0  0  0  0  0  0
  -50.3674   58.2239   64.9987 C   0  0  0  0  0  0  0  0  0  0  0  0
  -50.9589   59.5351   64.5254 C   0  0  0  0  0  0  0  0  0  0  0  0
  -51.1498   59.6153   63.0150 C   0  0  0  0  0  0  0  0  0  0  0  0
  -50.9484   58.2944   62.2975 C   0  0  0  0  0  0  0  0  0  0  0  0
  -50.0076   58.3897   61.1138 C   0  0  0  0  0  0  0  0  0  0  0  0
  -49.6953   57.0448   60.4727 C   0  0  0  0  0  0  0  0  0  0  0  0
  -49.5098   57.1174   58.9676 C   0  0  0  0  0  0  0  0  0  0  0  0
  -48.1880   56.3944   56.9511 C   0  0  0  0  0  0  0  0  0  0  0  0
  -48.2137   56.5163   58.4579 C   0  0  0  0  0  0  0  0  0  0  0  0
  -37.1757   61.6124   62.0531 C   0  0  0  0  0  0  0  0  0  0  0  0
  -36.3492   61.9960   63.1747 O   0  0  0  0  0  0  0  0  0  0  0  0
  -35.2382   63.1445   63.0808 P   0  0  0  0  0  0  0  0  0  0  0  0
  -33.9355   62.5532   63.4550 O   0  0  0  0  0  0  0  0  0  0  0  0
  -35.3676   63.8047   61.7594 O   0  0  0  0  0  0  0  0  0  0  0  0
  -35.1311   63.1762   61.0594 H   0  0  0  0  0  0  0  0  0  0  0  0
  -35.6346   64.2082   64.2007 O   0  0  0  0  0  0  0  0  0  0  0  0
  -34.6432   64.6688   65.1415 C   0  0  0  0  0  0  0  0  0  0  0  0
  -34.2354   64.5612   67.5004 O   0  0  0  0  0  0  0  0  0  0  0  0
  -34.7356   63.8184   66.3845 C   0  0  0  0  0  0  0  0  0  0  0  0
  -33.3303   64.8554   67.3134 H   0  0  0  0  0  0  0  0  0  0  0  0
  -36.2551   62.8333   67.9779 O   0  0  0  0  0  0  0  0  0  0  0  0
  -36.1452   63.3520   66.6586 C   0  0  0  0  0  0  0  0  0  0  0  0
  -37.1661   62.5394   68.1348 H   0  0  0  0  0  0  0  0  0  0  0  0
  -39.2690   60.4066   61.5858 O   0  0  0  0  0  0  0  0  0  0  0  0
  -39.6413   60.5664   59.3731 O   0  0  0  0  0  0  0  0  0  0  0  0
  -38.9891   60.1537   60.2928 C   0  0  0  0  0  0  0  0  0  0  0  0
  -37.7591   59.3135   60.1396 C   0  0  0  0  0  0  0  0  0  0  0  0
  -37.8976   58.3251   58.9861 C   0  0  0  0  0  0  0  0  0  0  0  0
  -36.7295   58.3450   58.0140 C   0  0  0  0  0  0  0  0  0  0  0  0
  -36.0840   56.9794   57.8081 C   0  0  0  0  0  0  0  0  0  0  0  0
  -36.5816   55.9114   58.7643 C   0  0  0  0  0  0  0  0  0  0  0  0
  -35.5643   55.4833   59.8258 C   0  0  0  0  0  0  0  0  0  0  0  0
  -34.8118   56.6286   60.5066 C   0  0  0  0  0  0  0  0  0  0  0  0
  -33.6229   56.1424   61.2800 C   0  0  0  0  0  0  0  0  0  0  0  0
  -32.7145   56.8879   61.8786 C   0  0  0  0  0  0  0  0  0  0  0  0
  -32.6821   58.3834   61.9116 C   0  0  0  0  0  0  0  0  0  0  0  0
  -33.3273   58.9520   63.1722 C   0  0  0  0  0  0  0  0  0  0  0  0
  -34.8452   58.9152   63.1497 C   0  0  0  0  0  0  0  0  0  0  0  0
  -35.4637   58.4569   64.4593 C   0  0  0  0  0  0  0  0  0  0  0  0
  -36.3659   57.2401   64.3377 C   0  0  0  0  0  0  0  0  0  0  0  0
  -37.7832   57.4853   64.8324 C   0  0  0  0  0  0  0  0  0  0  0  0
  -38.8537   57.2832   63.7782 C   0  0  0  0  0  0  0  0  0  0  0  0
  -38.2842   56.9520   62.4271 C   0  0  0  0  0  0  0  0  0  0  0  0
 21 22  1  0  0  0
  4  5  2  0  0  0
 25 24  1  0  0  0
 25 26  2  0  0  0
 25 27  1  0  0  0
 25 29  1  0  0  0
 22 20  1  0  0  0
  3  5  1  0  0  0
  3  2  1  0  0  0
 20 19  1  0  0  0
 24 23  1  0  0  0
 19 18  1  0  0  0
 18 17  1  0  0  0
 27 28  1  0  0  0
 17 16  1  0  0  0
 29 30  1  0  0  0
 16 15  1  0  0  0
 34 35  1  0  0  0
 34 36  1  0  0  0
 15 14  1  0  0  0
 31 32  1  0  0  0
 31 33  1  0  0  0
 14 13  1  0  0  0
 37  1  1  0  0  0
 37 39  1  0  0  0
 13 12  1  0  0  0
 38 39  2  0  0  0
 12 11  1  0  0  0
 11 10  1  0  0  0
 10  9  1  0  0  0
  9  8  1  0  0  0
  8  7  1  0  0  0
  7  6  1  0  0  0
  6  5  1  0  0  0
  2  1  1  0  0  0
  1 23  1  0  0  0
 30 32  1  0  0  0
 32 35  1  0  0  0
 39 40  1  0  0  0
 40 41  1  0  0  0
 41 42  1  0  0  0
 42 43  1  0  0  0
 43 44  1  0  0  0
 44 45  1  0  0  0
 45 46  1  0  0  0
 46 47  1  0  0  0
 47 48  2  0  0  0
 48 49  1  0  0  0
 49 50  1  0  0  0
 50 51  1  0  0  0
 51 52  1  0  0  0
 52 53  1  0  0  0
 53 54  1  0  0  0
 54 55  1  0  0  0
 55 56  1  0  0  0
M  CHG 1  26  -1
M  END
> <minimizedAffinity>
-8.93003

> <CNNscore>
0.5598544478

> <CNNaffinity>
7.5020356178

> <CNN_VS>
4.2000479698

> <CNNaffinity_variance>
0.6207100153

$$$$
/media/chris/experiments/cd1a-new-docking/inputs/ligands/7sh4_ligand.pdb


 56 55  0  0  0  0  0  0  0  0999 V2000
  -37.8729   59.3194   60.9505 C   0  0  0  0  0  0  0  0  0  0  0  0
  -38.1669   59.4365   59.4816 C   0  0  0  0  0  0  0  0  0  0  0  0
  -39.1463   60.4939   59.4048 O   0  0  0  0  0  0  0  0  0  0  0  0
  -41.0209   60.3514   60.6149 O   0  0  0  0  0  0  0  0  0  0  0  0
  -40.4210   60.1515   59.5932 C   0  0  0  0  0  0  0  0  0  0  0  0
  -41.0288   59.6073   58.3326 C   0  0  0  0  0  0  0  0  0  0  0  0
  -42.5266   59.3676   58.4190 C   0  0  0  0  0  0  0  0  0  0  0  0
  -43.0783   58.6599   57.1994 C   0  0  0  0  0  0  0  0  0  0  0  0
  -44.5296   58.2545   57.3224 C   0  0  0  0  0  0  0  0  0  0  0  0
  -44.9280   57.8984   58.7404 C   0  0  0  0  0  0  0  0  0  0  0  0
  -46.3984   57.5910   58.8848 C   0  0  0  0  0  0  0  0  0  0  0  0
  -47.0322   57.1299   57.5990 C   0  0  0  0  0  0  0  0  0  0  0  0
  -48.4846   56.7366   57.7528 C   0  0  0  0  0  0  0  0  0  0  0  0
  -48.9207   56.6622   59.2021 C   0  0  0  0  0  0  0  0  0  0  0  0
  -50.0572   57.5990   59.5544 C   0  0  0  0  0  0  0  0  0  0  0  0
  -50.8792   57.1457   60.7557 C   0  0  0  0  0  0  0  0  0  0  0  0
  -50.8689   58.1246   61.9141 C   0  0  0  0  0  0  0  0  0  0  0  0
  -49.5560   58.8654   62.0646 C   0  0  0  0  0  0  0  0  0  0  0  0
  -49.4167   59.5967   63.3924 C   0  0  0  0  0  0  0  0  0  0  0  0
  -50.6812   59.5771   64.2326 C   0  0  0  0  0  0  0  0  0  0  0  0
  -49.2733   58.0266   65.6288 C   0  0  0  0  0  0  0  0  0  0  0  0
  -50.5695   58.7985   65.5296 C   0  0  0  0  0  0  0  0  0  0  0  0
  -37.6704   60.6660   61.5965 C   0  0  0  0  0  0  0  0  0  0  0  0
  -36.8552   60.4972   62.7778 O   0  0  0  0  0  0  0  0  0  0  0  0
  -36.2882   61.7319   63.6240 P   0  0  0  0  0  0  0  0  0  0  0  0
  -34.9327   62.0461   63.1235 O   0  0  0  0  0  0  0  0  0  0  0  0
  -37.3142   62.8024   63.6223 O   0  0  0  0  0  0  0  0  0  0  0  0
  -37.4186   63.1487   62.7222 H   0  0  0  0  0  0  0  0  0  0  0  0
  -36.1472   61.1911   65.1176 O   0  0  0  0  0  0  0  0  0  0  0  0
  -35.0952   61.6895   65.9690 C   0  0  0  0  0  0  0  0  0  0  0  0
  -36.0841   62.7325   67.8865 O   0  0  0  0  0  0  0  0  0  0  0  0
  -35.5550   62.9893   66.5821 C   0  0  0  0  0  0  0  0  0  0  0  0
  -36.7946   62.0751   67.8235 H   0  0  0  0  0  0  0  0  0  0  0  0
  -34.3963   64.5986   67.9554 O   0  0  0  0  0  0  0  0  0  0  0  0
  -34.4467   64.0114   66.6614 C   0  0  0  0  0  0  0  0  0  0  0  0
  -33.6795   65.2513   67.9865 H   0  0  0  0  0  0  0  0  0  0  0  0
  -36.6999   58.4559   61.1189 O   0  0  0  0  0  0  0  0  0  0  0  0
  -37.7570   56.4785   61.2993 O   0  0  0  0  0  0  0  0  0  0  0  0
  -36.8633   57.1455   60.8542 C   0  0  0  0  0  0  0  0  0  0  0  0
  -35.8099   56.6258   59.9254 C   0  0  0  0  0  0  0  0  0  0  0  0
  -34.6031   56.0930   60.6912 C   0  0  0  0  0  0  0  0  0  0  0  0
  -33.4768   57.1018   60.8455 C   0  0  0  0  0  0  0  0  0  0  0  0
  -32.5767   56.8321   62.0459 C   0  0  0  0  0  0  0  0  0  0  0  0
  -32.5474   57.9598   63.0607 C   0  0  0  0  0  0  0  0  0  0  0  0
  -33.8863   58.6773   63.2540 C   0  0  0  0  0  0  0  0  0  0  0  0
  -34.6473   58.3049   64.5282 C   0  0  0  0  0  0  0  0  0  0  0  0
  -35.4807   57.0716   64.3483 C   0  0  0  0  0  0  0  0  0  0  0  0
  -36.7899   56.9800   64.4796 C   0  0  0  0  0  0  0  0  0  0  0  0
  -37.7214   58.0951   64.8360 C   0  0  0  0  0  0  0  0  0  0  0  0
  -39.1539   57.8237   64.3855 C   0  0  0  0  0  0  0  0  0  0  0  0
  -40.0328   59.0619   64.3699 C   0  0  0  0  0  0  0  0  0  0  0  0
  -40.8944   59.2141   65.6116 C   0  0  0  0  0  0  0  0  0  0  0  0
  -42.3840   59.0339   65.3704 C   0  0  0  0  0  0  0  0  0  0  0  0
  -43.1144   58.3957   66.5421 C   0  0  0  0  0  0  0  0  0  0  0  0
  -43.4819   56.9407   66.3281 C   0  0  0  0  0  0  0  0  0  0  0  0
  -44.6586   56.7673   65.4090 C   0  0  0  0  0  0  0  0  0  0  0  0
 21 22  1  0  0  0
  4  5  2  0  0  0
 25 24  1  0  0  0
 25 26  2  0  0  0
 25 27  1  0  0  0
 25 29  1  0  0  0
 22 20  1  0  0  0
  3  5  1  0  0  0
  3  2  1  0  0  0
 20 19  1  0  0  0
 24 23  1  0  0  0
 19 18  1  0  0  0
 18 17  1  0  0  0
 27 28  1  0  0  0
 17 16  1  0  0  0
 29 30  1  0  0  0
 16 15  1  0  0  0
 34 35  1  0  0  0
 34 36  1  0  0  0
 15 14  1  0  0  0
 31 32  1  0  0  0
 31 33  1  0  0  0
 14 13  1  0  0  0
 37  1  1  0  0  0
 37 39  1  0  0  0
 13 12  1  0  0  0
 38 39  2  0  0  0
 12 11  1  0  0  0
 11 10  1  0  0  0
 10  9  1  0  0  0
  9  8  1  0  0  0
  8  7  1  0  0  0
  7  6  1  0  0  0
  6  5  1  0  0  0
  2  1  1  0  0  0
  1 23  1  0  0  0
 30 32  1  0  0  0
 32 35  1  0  0  0
 39 40  1  0  0  0
 40 41  1  0  0  0
 41 42  1  0  0  0
 42 43  1  0  0  0
 43 44  1  0  0  0
 44 45  1  0  0  0
 45 46  1  0  0  0
 46 47  1  0  0  0
 47 48  2  0  0  0
 48 49  1  0  0  0
 49 50  1  0  0  0
 50 51  1  0  0  0
 51 52  1  0  0  0
 52 53  1  0  0  0
 53 54  1  0  0  0
 54 55  1  0  0  0
 55 56  1  0  0  0
M  CHG 1  26  -1
M  END
> <minimizedAffinity>
-8.25528

> <CNNscore>
0.5387357473

> <CNNaffinity>
7.4864110947

> <CNN_VS>
4.0331974030

> <CNNaffinity_variance>
0.5341842771

$$$$
/media/chris/experiments/cd1a-new-docking/inputs/ligands/7sh4_ligand.pdb


 56 55  0  0  0  0  0  0  0  0999 V2000
  -37.3831   60.1089   65.1143 C   0  0  0  0  0  0  0  0  0  0  0  0
  -38.7128   59.7201   65.6960 C   0  0  0  0  0  0  0  0  0  0  0  0
  -39.6556   60.5733   65.0131 O   0  0  0  0  0  0  0  0  0  0  0  0
  -41.1753   60.2297   63.4096 O   0  0  0  0  0  0  0  0  0  0  0  0
  -40.7401   59.9889   64.5034 C   0  0  0  0  0  0  0  0  0  0  0  0
  -41.2587   58.9160   65.4172 C   0  0  0  0  0  0  0  0  0  0  0  0
  -42.5784   59.2570   66.0883 C   0  0  0  0  0  0  0  0  0  0  0  0
  -43.7005   58.3251   65.6822 C   0  0  0  0  0  0  0  0  0  0  0  0
  -44.9700   59.0306   65.2621 C   0  0  0  0  0  0  0  0  0  0  0  0
  -46.1611   58.0993   65.1622 C   0  0  0  0  0  0  0  0  0  0  0  0
  -47.3529   58.7298   64.4844 C   0  0  0  0  0  0  0  0  0  0  0  0
  -48.3910   59.2224   65.4577 C   0  0  0  0  0  0  0  0  0  0  0  0
  -49.7406   59.4707   64.8215 C   0  0  0  0  0  0  0  0  0  0  0  0
  -50.1750   58.3408   63.9101 C   0  0  0  0  0  0  0  0  0  0  0  0
  -50.4551   58.7692   62.4849 C   0  0  0  0  0  0  0  0  0  0  0  0
  -51.0673   57.6724   61.6210 C   0  0  0  0  0  0  0  0  0  0  0  0
  -50.0615   56.9325   60.7602 C   0  0  0  0  0  0  0  0  0  0  0  0
  -48.7125   57.6181   60.6866 C   0  0  0  0  0  0  0  0  0  0  0  0
  -48.2408   57.8857   59.2641 C   0  0  0  0  0  0  0  0  0  0  0  0
  -46.9422   57.1822   58.9120 C   0  0  0  0  0  0  0  0  0  0  0  0
  -47.7235   56.6752   56.5736 C   0  0  0  0  0  0  0  0  0  0  0  0
  -46.5944   57.1931   57.4356 C   0  0  0  0  0  0  0  0  0  0  0  0
  -37.3514   61.5550   64.6908 C   0  0  0  0  0  0  0  0  0  0  0  0
  -36.0472   62.0995   64.9925 O   0  0  0  0  0  0  0  0  0  0  0  0
  -35.1918   62.9401   63.9324 P   0  0  0  0  0  0  0  0  0  0  0  0
  -34.9267   62.0709   62.7658 O   0  0  0  0  0  0  0  0  0  0  0  0
  -35.8750   64.2377   63.7133 O   0  0  0  0  0  0  0  0  0  0  0  0
  -36.7270   64.0847   63.2757 H   0  0  0  0  0  0  0  0  0  0  0  0
  -33.7995   63.2348   64.6517 O   0  0  0  0  0  0  0  0  0  0  0  0
  -33.7236   63.2656   66.0916 C   0  0  0  0  0  0  0  0  0  0  0  0
  -34.2949   64.6572   67.9570 O   0  0  0  0  0  0  0  0  0  0  0  0
  -34.0170   64.6719   66.5535 C   0  0  0  0  0  0  0  0  0  0  0  0
  -35.0245   64.0436   68.1358 H   0  0  0  0  0  0  0  0  0  0  0  0
  -32.3310   66.1384   67.4617 O   0  0  0  0  0  0  0  0  0  0  0  0
  -32.8826   65.6230   66.2569 C   0  0  0  0  0  0  0  0  0  0  0  0
  -31.6051   66.7462   67.2508 H   0  0  0  0  0  0  0  0  0  0  0  0
  -37.0888   59.2099   63.9940 O   0  0  0  0  0  0  0  0  0  0  0  0
  -37.2228   57.2012   64.9978 O   0  0  0  0  0  0  0  0  0  0  0  0
  -37.5238   57.9396   64.1001 C   0  0  0  0  0  0  0  0  0  0  0  0
  -38.4405   57.5655   62.9767 C   0  0  0  0  0  0  0  0  0  0  0  0
  -37.6605   57.1324   61.7395 C   0  0  0  0  0  0  0  0  0  0  0  0
  -38.1713   57.7420   60.4443 C   0  0  0  0  0  0  0  0  0  0  0  0
  -37.1442   58.6176   59.7358 C   0  0  0  0  0  0  0  0  0  0  0  0
  -36.9390   58.2677   58.2736 C   0  0  0  0  0  0  0  0  0  0  0  0
  -36.9169   56.7659   57.9754 C   0  0  0  0  0  0  0  0  0  0  0  0
  -35.8452   55.9689   58.7223 C   0  0  0  0  0  0  0  0  0  0  0  0
  -34.4942   56.6120   58.6274 C   0  0  0  0  0  0  0  0  0  0  0  0
  -33.7436   57.0191   59.6325 C   0  0  0  0  0  0  0  0  0  0  0  0
  -34.0858   56.9218   61.0857 C   0  0  0  0  0  0  0  0  0  0  0  0
  -32.8957   57.2384   61.9868 C   0  0  0  0  0  0  0  0  0  0  0  0
  -32.6868   58.7242   62.2208 C   0  0  0  0  0  0  0  0  0  0  0  0
  -31.2252   59.1364   62.2566 C   0  0  0  0  0  0  0  0  0  0  0  0
  -30.9363   60.4873   61.6232 C   0  0  0  0  0  0  0  0  0  0  0  0
  -31.2092   61.6617   62.5504 C   0  0  0  0  0  0  0  0  0  0  0  0
  -31.6374   62.9298   61.8388 C   0  0  0  0  0  0  0  0  0  0  0  0
  -31.2232   64.1757   62.5707 C   0  0  0  0  0  0  0  0  0  0  0  0
 21 22  1  0  0  0
  4  5  2  0  0  0
 25 24  1  0  0  0
 25 26  2  0  0  0
 25 27  1  0  0  0
 25 29  1  0  0  0
 22 20  1  0  0  0
  3  5  1  0  0  0
  3  2  1  0  0  0
 20 19  1  0  0  0
 24 23  1  0  0  0
 19 18  1  0  0  0
 18 17  1  0  0  0
 27 28  1  0  0  0
 17 16  1  0  0  0
 29 30  1  0  0  0
 16 15  1  0  0  0
 34 35  1  0  0  0
 34 36  1  0  0  0
 15 14  1  0  0  0
 31 32  1  0  0  0
 31 33  1  0  0  0
 14 13  1  0  0  0
 37  1  1  0  0  0
 37 39  1  0  0  0
 13 12  1  0  0  0
 38 39  2  0  0  0
 12 11  1  0  0  0
 11 10  1  0  0  0
 10  9  1  0  0  0
  9  8  1  0  0  0
  8  7  1  0  0  0
  7  6  1  0  0  0
  6  5  1  0  0  0
  2  1  1  0  0  0
  1 23  1  0  0  0
 30 32  1  0  0  0
 32 35  1  0  0  0
 39 40  1  0  0  0
 40 41  1  0  0  0
 41 42  1  0  0  0
 42 43  1  0  0  0
 43 44  1  0  0  0
 44 45  1  0  0  0
 45 46  1  0  0  0
 46 47  1  0  0  0
 47 48  2  0  0  0
 48 49  1  0  0  0
 49 50  1  0  0  0
 50 51  1  0  0  0
 51 52  1  0  0  0
 52 53  1  0  0  0
 53 54  1  0  0  0
 54 55  1  0  0  0
 55 56  1  0  0  0
M  CHG 1  26  -1
M  END
> <minimizedAffinity>
-8.43711

> <CNNscore>
0.4953784347

> <CNNaffinity>
7.1284360886

> <CNN_VS>
3.5312736034

> <CNNaffinity_variance>
0.8190716505

$$$$
