/media/chris/experiments/cd1a-new-docking/inputs/ligands/7sh4_ligand.pdb


 56 55  0  0  0  0  0  0  0  0999 V2000
  -38.4497   58.6961   63.7591 C   0  0  0  0  0  0  0  0  0  0  0  0
  -39.4301   58.4225   64.8643 C   0  0  0  0  0  0  0  0  0  0  0  0
  -40.6829   58.9234   64.3517 O   0  0  0  0  0  0  0  0  0  0  0  0
  -40.9275   60.6897   65.7009 O   0  0  0  0  0  0  0  0  0  0  0  0
  -41.3866   59.7239   65.1529 C   0  0  0  0  0  0  0  0  0  0  0  0
  -42.8361   59.3322   65.1741 C   0  0  0  0  0  0  0  0  0  0  0  0
  -43.3248   58.8344   66.5238 C   0  0  0  0  0  0  0  0  0  0  0  0
  -44.8306   58.6889   66.5849 C   0  0  0  0  0  0  0  0  0  0  0  0
  -45.5406   59.0527   65.3007 C   0  0  0  0  0  0  0  0  0  0  0  0
  -46.8192   58.2681   65.0867 C   0  0  0  0  0  0  0  0  0  0  0  0
  -47.8000   58.4087   66.2251 C   0  0  0  0  0  0  0  0  0  0  0  0
  -49.0543   59.1443   65.8337 C   0  0  0  0  0  0  0  0  0  0  0  0
  -49.8393   58.4531   64.7409 C   0  0  0  0  0  0  0  0  0  0  0  0
  -50.8829   59.3533   64.1111 C   0  0  0  0  0  0  0  0  0  0  0  0
  -51.1709   59.0427   62.6572 C   0  0  0  0  0  0  0  0  0  0  0  0
  -50.4538   57.8013   62.1388 C   0  0  0  0  0  0  0  0  0  0  0  0
  -51.0315   57.2492   60.8498 C   0  0  0  0  0  0  0  0  0  0  0  0
  -50.2152   57.6037   59.6238 C   0  0  0  0  0  0  0  0  0  0  0  0
  -48.7245   57.7387   59.9012 C   0  0  0  0  0  0  0  0  0  0  0  0
  -47.8674   56.7761   59.0984 C   0  0  0  0  0  0  0  0  0  0  0  0
  -47.6572   56.7220   56.5907 C   0  0  0  0  0  0  0  0  0  0  0  0
  -47.2082   57.3828   57.8743 C   0  0  0  0  0  0  0  0  0  0  0  0
  -38.8464   58.0220   62.4707 C   0  0  0  0  0  0  0  0  0  0  0  0
  -39.2105   59.0363   61.5079 O   0  0  0  0  0  0  0  0  0  0  0  0
  -38.3100   59.3834   60.2310 P   0  0  0  0  0  0  0  0  0  0  0  0
  -39.1980   59.4570   59.0509 O   0  0  0  0  0  0  0  0  0  0  0  0
  -37.4696   60.5586   60.5646 O   0  0  0  0  0  0  0  0  0  0  0  0
  -38.0357   61.3371   60.6852 H   0  0  0  0  0  0  0  0  0  0  0  0
  -37.3444   58.1286   60.0415 O   0  0  0  0  0  0  0  0  0  0  0  0
  -36.9187   57.7390   58.7198 C   0  0  0  0  0  0  0  0  0  0  0  0
  -36.9833   55.6762   57.5018 O   0  0  0  0  0  0  0  0  0  0  0  0
  -36.5844   56.2677   58.7420 C   0  0  0  0  0  0  0  0  0  0  0  0
  -37.9268   55.8443   57.3521 H   0  0  0  0  0  0  0  0  0  0  0  0
  -34.4100   57.2428   59.1152 O   0  0  0  0  0  0  0  0  0  0  0  0
  -35.1167   56.0154   58.9913 C   0  0  0  0  0  0  0  0  0  0  0  0
  -33.4707   57.0604   59.2747 H   0  0  0  0  0  0  0  0  0  0  0  0
  -37.1197   58.2702   64.2060 O   0  0  0  0  0  0  0  0  0  0  0  0
  -36.0816   59.8452   62.9805 O   0  0  0  0  0  0  0  0  0  0  0  0
  -36.0613   58.7919   63.5566 C   0  0  0  0  0  0  0  0  0  0  0  0
  -34.8540   57.9117   63.6548 C   0  0  0  0  0  0  0  0  0  0  0  0
  -34.0546   57.9127   62.3557 C   0  0  0  0  0  0  0  0  0  0  0  0
  -32.6513   57.3457   62.4951 C   0  0  0  0  0  0  0  0  0  0  0  0
  -31.5517   58.3651   62.2205 C   0  0  0  0  0  0  0  0  0  0  0  0
  -32.0663   59.7330   61.8127 C   0  0  0  0  0  0  0  0  0  0  0  0
  -31.1315   60.8948   62.1613 C   0  0  0  0  0  0  0  0  0  0  0  0
  -31.8225   62.1447   62.7106 C   0  0  0  0  0  0  0  0  0  0  0  0
  -31.2345   63.4063   62.1533 C   0  0  0  0  0  0  0  0  0  0  0  0
  -31.6381   64.6380   62.3974 C   0  0  0  0  0  0  0  0  0  0  0  0
  -32.7728   65.0348   63.2880 C   0  0  0  0  0  0  0  0  0  0  0  0
  -32.3584   66.0642   64.3355 C   0  0  0  0  0  0  0  0  0  0  0  0
  -32.3865   65.5321   65.7575 C   0  0  0  0  0  0  0  0  0  0  0  0
  -33.1053   64.2012   65.8967 C   0  0  0  0  0  0  0  0  0  0  0  0
  -34.4844   64.2935   66.5284 C   0  0  0  0  0  0  0  0  0  0  0  0
  -35.0551   62.9440   66.9367 C   0  0  0  0  0  0  0  0  0  0  0  0
  -35.5305   62.0928   65.7760 C   0  0  0  0  0  0  0  0  0  0  0  0
  -36.7801   61.3204   66.0949 C   0  0  0  0  0  0  0  0  0  0  0  0
 21 22  1  0  0  0
  4  5  2  0  0  0
 25 24  1  0  0  0
 25 26  2  0  0  0
 25 27  1  0  0  0
 25 29  1  0  0  0
 22 20  1  0  0  0
  3  5  1  0  0  0
  3  2  1  0  0  0
 20 19  1  0  0  0
 24 23  1  0  0  0
 19 18  1  0  0  0
 18 17  1  0  0  0
 27 28  1  0  0  0
 17 16  1  0  0  0
 29 30  1  0  0  0
 16 15  1  0  0  0
 34 35  1  0  0  0
 34 36  1  0  0  0
 15 14  1  0  0  0
 31 32  1  0  0  0
 31 33  1  0  0  0
 14 13  1  0  0  0
 37  1  1  0  0  0
 37 39  1  0  0  0
 13 12  1  0  0  0
 38 39  2  0  0  0
 12 11  1  0  0  0
 11 10  1  0  0  0
 10  9  1  0  0  0
  9  8  1  0  0  0
  8  7  1  0  0  0
  7  6  1  0  0  0
  6  5  1  0  0  0
  2  1  1  0  0  0
  1 23  1  0  0  0
 30 32  1  0  0  0
 32 35  1  0  0  0
 39 40  1  0  0  0
 40 41  1  0  0  0
 41 42  1  0  0  0
 42 43  1  0  0  0
 43 44  1  0  0  0
 44 45  1  0  0  0
 45 46  1  0  0  0
 46 47  1  0  0  0
 47 48  2  0  0  0
 48 49  1  0  0  0
 49 50  1  0  0  0
 50 51  1  0  0  0
 51 52  1  0  0  0
 52 53  1  0  0  0
 53 54  1  0  0  0
 54 55  1  0  0  0
 55 56  1  0  0  0
M  CHG 1  26  -1
M  END
> <minimizedAffinity>
-8.25902

> <CNNscore>
0.6446860433

> <CNNaffinity>
7.3268690109

> <CNN_VS>
4.7235302925

> <CNNaffinity_variance>
0.2789553106

$$$$
/media/chris/experiments/cd1a-new-docking/inputs/ligands/7sh4_ligand.pdb


 56 55  0  0  0  0  0  0  0  0999 V2000
  -34.8092   59.1887   63.0965 C   0  0  0  0  0  0  0  0  0  0  0  0
  -33.7449   58.1878   62.7454 C   0  0  0  0  0  0  0  0  0  0  0  0
  -33.9181   57.9765   61.3282 O   0  0  0  0  0  0  0  0  0  0  0  0
  -33.2618   55.8626   61.0117 O   0  0  0  0  0  0  0  0  0  0  0  0
  -34.0996   56.7193   60.9227 C   0  0  0  0  0  0  0  0  0  0  0  0
  -35.5122   56.4952   60.4653 C   0  0  0  0  0  0  0  0  0  0  0  0
  -35.6285   55.6932   59.1802 C   0  0  0  0  0  0  0  0  0  0  0  0
  -36.5435   56.3435   58.1641 C   0  0  0  0  0  0  0  0  0  0  0  0
  -36.5632   57.8539   58.2255 C   0  0  0  0  0  0  0  0  0  0  0  0
  -37.9608   58.4244   58.3574 C   0  0  0  0  0  0  0  0  0  0  0  0
  -38.0587   59.5245   59.3859 C   0  0  0  0  0  0  0  0  0  0  0  0
  -39.3722   59.5262   60.1223 C   0  0  0  0  0  0  0  0  0  0  0  0
  -40.3993   60.4562   59.5155 C   0  0  0  0  0  0  0  0  0  0  0  0
  -41.6284   59.7243   59.0156 C   0  0  0  0  0  0  0  0  0  0  0  0
  -41.6070   59.4221   57.5319 C   0  0  0  0  0  0  0  0  0  0  0  0
  -42.9700   59.0505   56.9591 C   0  0  0  0  0  0  0  0  0  0  0  0
  -43.7533   58.0747   57.8161 C   0  0  0  0  0  0  0  0  0  0  0  0
  -45.2468   58.3282   57.8051 C   0  0  0  0  0  0  0  0  0  0  0  0
  -46.0022   57.5723   58.8893 C   0  0  0  0  0  0  0  0  0  0  0  0
  -47.4660   57.3394   58.5602 C   0  0  0  0  0  0  0  0  0  0  0  0
  -47.4543   55.2669   57.1318 C   0  0  0  0  0  0  0  0  0  0  0  0
  -47.8676   55.8808   58.4502 C   0  0  0  0  0  0  0  0  0  0  0  0
  -34.2241   60.5035   63.5445 C   0  0  0  0  0  0  0  0  0  0  0  0
  -35.1586   61.5599   63.2295 O   0  0  0  0  0  0  0  0  0  0  0  0
  -34.6936   63.0350   62.8176 P   0  0  0  0  0  0  0  0  0  0  0  0
  -33.2817   62.9656   62.3836 O   0  0  0  0  0  0  0  0  0  0  0  0
  -35.7000   63.5916   61.8816 O   0  0  0  0  0  0  0  0  0  0  0  0
  -35.6837   63.0881   61.0525 H   0  0  0  0  0  0  0  0  0  0  0  0
  -34.7523   63.8877   64.1637 O   0  0  0  0  0  0  0  0  0  0  0  0
  -33.7210   63.7347   65.1603 C   0  0  0  0  0  0  0  0  0  0  0  0
  -33.9493   64.8402   67.2742 O   0  0  0  0  0  0  0  0  0  0  0  0
  -34.3746   63.7011   66.5200 C   0  0  0  0  0  0  0  0  0  0  0  0
  -32.9807   64.8518   67.3237 H   0  0  0  0  0  0  0  0  0  0  0  0
  -36.4625   63.7943   67.7242 O   0  0  0  0  0  0  0  0  0  0  0  0
  -35.8816   63.6670   66.4328 C   0  0  0  0  0  0  0  0  0  0  0  0
  -37.4292   63.7702   67.6477 H   0  0  0  0  0  0  0  0  0  0  0  0
  -35.6734   58.6018   64.1253 O   0  0  0  0  0  0  0  0  0  0  0  0
  -37.4029   58.5572   62.6876 O   0  0  0  0  0  0  0  0  0  0  0  0
  -36.9362   58.3033   63.7644 C   0  0  0  0  0  0  0  0  0  0  0  0
  -37.6808   57.6020   64.8579 C   0  0  0  0  0  0  0  0  0  0  0  0
  -39.1900   57.7189   64.6705 C   0  0  0  0  0  0  0  0  0  0  0  0
  -39.7477   59.0934   65.0022 C   0  0  0  0  0  0  0  0  0  0  0  0
  -40.7804   59.5912   63.9975 C   0  0  0  0  0  0  0  0  0  0  0  0
  -42.1657   59.7903   64.5840 C   0  0  0  0  0  0  0  0  0  0  0  0
  -42.3601   59.1857   65.9774 C   0  0  0  0  0  0  0  0  0  0  0  0
  -43.7217   58.5306   66.2191 C   0  0  0  0  0  0  0  0  0  0  0  0
  -44.8093   59.1738   65.4120 C   0  0  0  0  0  0  0  0  0  0  0  0
  -46.0093   58.6811   65.1736 C   0  0  0  0  0  0  0  0  0  0  0  0
  -46.5385   57.3703   65.6635 C   0  0  0  0  0  0  0  0  0  0  0  0
  -48.0064   57.4511   66.0723 C   0  0  0  0  0  0  0  0  0  0  0  0
  -48.7574   58.6008   65.4239 C   0  0  0  0  0  0  0  0  0  0  0  0
  -49.9062   58.1551   64.5357 C   0  0  0  0  0  0  0  0  0  0  0  0
  -50.6778   59.2920   63.8864 C   0  0  0  0  0  0  0  0  0  0  0  0
  -50.8332   59.1364   62.3813 C   0  0  0  0  0  0  0  0  0  0  0  0
  -51.1115   57.7170   61.9280 C   0  0  0  0  0  0  0  0  0  0  0  0
  -50.7166   57.4752   60.4979 C   0  0  0  0  0  0  0  0  0  0  0  0
 21 22  1  0  0  0
  4  5  2  0  0  0
 25 24  1  0  0  0
 25 26  2  0  0  0
 25 27  1  0  0  0
 25 29  1  0  0  0
 22 20  1  0  0  0
  3  5  1  0  0  0
  3  2  1  0  0  0
 20 19  1  0  0  0
 24 23  1  0  0  0
 19 18  1  0  0  0
 18 17  1  0  0  0
 27 28  1  0  0  0
 17 16  1  0  0  0
 29 30  1  0  0  0
 16 15  1  0  0  0
 34 35  1  0  0  0
 34 36  1  0  0  0
 15 14  1  0  0  0
 31 32  1  0  0  0
 31 33  1  0  0  0
 14 13  1  0  0  0
 37  1  1  0  0  0
 37 39  1  0  0  0
 13 12  1  0  0  0
 38 39  2  0  0  0
 12 11  1  0  0  0
 11 10  1  0  0  0
 10  9  1  0  0  0
  9  8  1  0  0  0
  8  7  1  0  0  0
  7  6  1  0  0  0
  6  5  1  0  0  0
  2  1  1  0  0  0
  1 23  1  0  0  0
 30 32  1  0  0  0
 32 35  1  0  0  0
 39 40  1  0  0  0
 40 41  1  0  0  0
 41 42  1  0  0  0
 42 43  1  0  0  0
 43 44  1  0  0  0
 44 45  1  0  0  0
 45 46  1  0  0  0
 46 47  1  0  0  0
 47 48  2  0  0  0
 48 49  1  0  0  0
 49 50  1  0  0  0
 50 51  1  0  0  0
 51 52  1  0  0  0
 52 53  1  0  0  0
 53 54  1  0  0  0
 54 55  1  0  0  0
 55 56  1  0  0  0
M  CHG 1  26  -1
M  END
> <minimizedAffinity>
-8.23852

> <CNNscore>
0.6269315481

> <CNNaffinity>
7.8733315468

> <CNN_VS>
4.9360399246

> <CNNaffinity_variance>
0.5680276752

$$$$
/media/chris/experiments/cd1a-new-docking/inputs/ligands/7sh4_ligand.pdb


 56 55  0  0  0  0  0  0  0  0999 V2000
  -37.9530   60.1812   61.1506 C   0  0  0  0  0  0  0  0  0  0  0  0
  -36.9456   59.0748   61.2868 C   0  0  0  0  0  0  0  0  0  0  0  0
  -37.1954   58.2323   60.1418 O   0  0  0  0  0  0  0  0  0  0  0  0
  -37.6749   56.3716   61.2852 O   0  0  0  0  0  0  0  0  0  0  0  0
  -37.1638   56.9146   60.3431 C   0  0  0  0  0  0  0  0  0  0  0  0
  -36.5234   56.2041   59.1855 C   0  0  0  0  0  0  0  0  0  0  0  0
  -35.2132   55.5153   59.5282 C   0  0  0  0  0  0  0  0  0  0  0  0
  -34.1706   56.4727   60.0657 C   0  0  0  0  0  0  0  0  0  0  0  0
  -33.7325   56.1796   61.4826 C   0  0  0  0  0  0  0  0  0  0  0  0
  -32.7972   57.2313   62.0442 C   0  0  0  0  0  0  0  0  0  0  0  0
  -33.1475   57.6470   63.4520 C   0  0  0  0  0  0  0  0  0  0  0  0
  -34.1513   58.7684   63.5019 C   0  0  0  0  0  0  0  0  0  0  0  0
  -35.2548   58.5419   64.5113 C   0  0  0  0  0  0  0  0  0  0  0  0
  -35.9831   57.2304   64.2978 C   0  0  0  0  0  0  0  0  0  0  0  0
  -37.3409   57.1617   64.9648 C   0  0  0  0  0  0  0  0  0  0  0  0
  -38.1932   58.4084   64.7567 C   0  0  0  0  0  0  0  0  0  0  0  0
  -39.5378   58.1348   64.1107 C   0  0  0  0  0  0  0  0  0  0  0  0
  -40.5659   59.2144   64.3800 C   0  0  0  0  0  0  0  0  0  0  0  0
  -41.2582   59.0752   65.7286 C   0  0  0  0  0  0  0  0  0  0  0  0
  -41.9503   57.7375   65.9213 C   0  0  0  0  0  0  0  0  0  0  0  0
  -44.2655   56.7868   65.6537 C   0  0  0  0  0  0  0  0  0  0  0  0
  -43.4074   57.8301   66.3326 C   0  0  0  0  0  0  0  0  0  0  0  0
  -37.9527   61.0977   62.3472 C   0  0  0  0  0  0  0  0  0  0  0  0
  -36.5848   61.4092   62.6941 O   0  0  0  0  0  0  0  0  0  0  0  0
  -36.1914   62.6060   63.6814 P   0  0  0  0  0  0  0  0  0  0  0  0
  -36.2769   63.8724   62.9228 O   0  0  0  0  0  0  0  0  0  0  0  0
  -36.9915   62.4631   64.9217 O   0  0  0  0  0  0  0  0  0  0  0  0
  -37.9291   62.6088   64.7201 H   0  0  0  0  0  0  0  0  0  0  0  0
  -34.6608   62.3596   64.0548 O   0  0  0  0  0  0  0  0  0  0  0  0
  -33.7442   61.8692   63.0552 C   0  0  0  0  0  0  0  0  0  0  0  0
  -33.6083   63.6390   61.4451 O   0  0  0  0  0  0  0  0  0  0  0  0
  -32.9273   63.0319   62.5473 C   0  0  0  0  0  0  0  0  0  0  0  0
  -33.7762   62.9716   60.7616 H   0  0  0  0  0  0  0  0  0  0  0  0
  -33.6104   65.1111   63.5616 O   0  0  0  0  0  0  0  0  0  0  0  0
  -32.6574   64.0577   63.6220 C   0  0  0  0  0  0  0  0  0  0  0  0
  -33.4209   65.7589   64.2583 H   0  0  0  0  0  0  0  0  0  0  0  0
  -39.2719   59.5800   60.9293 O   0  0  0  0  0  0  0  0  0  0  0  0
  -40.7210   61.2862   60.7074 O   0  0  0  0  0  0  0  0  0  0  0  0
  -40.1739   60.3181   60.2543 C   0  0  0  0  0  0  0  0  0  0  0  0
  -40.3984   59.7987   58.8681 C   0  0  0  0  0  0  0  0  0  0  0  0
  -41.8635   59.4441   58.6346 C   0  0  0  0  0  0  0  0  0  0  0  0
  -42.2282   59.2633   57.1702 C   0  0  0  0  0  0  0  0  0  0  0  0
  -43.5147   58.4745   56.9549 C   0  0  0  0  0  0  0  0  0  0  0  0
  -44.3562   58.3129   58.2071 C   0  0  0  0  0  0  0  0  0  0  0  0
  -45.8573   58.1541   57.9494 C   0  0  0  0  0  0  0  0  0  0  0  0
  -46.2885   56.7777   57.4382 C   0  0  0  0  0  0  0  0  0  0  0  0
  -47.7128   56.7699   56.9697 C   0  0  0  0  0  0  0  0  0  0  0  0
  -48.7911   56.7415   57.7286 C   0  0  0  0  0  0  0  0  0  0  0  0
  -48.8173   56.7126   59.2242 C   0  0  0  0  0  0  0  0  0  0  0  0
  -49.7186   57.7948   59.8118 C   0  0  0  0  0  0  0  0  0  0  0  0
  -50.8777   57.2471   60.6257 C   0  0  0  0  0  0  0  0  0  0  0  0
  -50.9907   57.8562   62.0126 C   0  0  0  0  0  0  0  0  0  0  0  0
  -49.8136   58.7293   62.4147 C   0  0  0  0  0  0  0  0  0  0  0  0
  -49.0909   58.2362   63.6590 C   0  0  0  0  0  0  0  0  0  0  0  0
  -49.8603   58.4435   64.9484 C   0  0  0  0  0  0  0  0  0  0  0  0
  -49.0319   59.0922   66.0220 C   0  0  0  0  0  0  0  0  0  0  0  0
 21 22  1  0  0  0
  4  5  2  0  0  0
 25 24  1  0  0  0
 25 26  2  0  0  0
 25 27  1  0  0  0
 25 29  1  0  0  0
 22 20  1  0  0  0
  3  5  1  0  0  0
  3  2  1  0  0  0
 20 19  1  0  0  0
 24 23  1  0  0  0
 19 18  1  0  0  0
 18 17  1  0  0  0
 27 28  1  0  0  0
 17 16  1  0  0  0
 29 30  1  0  0  0
 16 15  1  0  0  0
 34 35  1  0  0  0
 34 36  1  0  0  0
 15 14  1  0  0  0
 31 32  1  0  0  0
 31 33  1  0  0  0
 14 13  1  0  0  0
 37  1  1  0  0  0
 37 39  1  0  0  0
 13 12  1  0  0  0
 38 39  2  0  0  0
 12 11  1  0  0  0
 11 10  1  0  0  0
 10  9  1  0  0  0
  9  8  1  0  0  0
  8  7  1  0  0  0
  7  6  1  0  0  0
  6  5  1  0  0  0
  2  1  1  0  0  0
  1 23  1  0  0  0
 30 32  1  0  0  0
 32 35  1  0  0  0
 39 40  1  0  0  0
 40 41  1  0  0  0
 41 42  1  0  0  0
 42 43  1  0  0  0
 43 44  1  0  0  0
 44 45  1  0  0  0
 45 46  1  0  0  0
 46 47  1  0  0  0
 47 48  2  0  0  0
 48 49  1  0  0  0
 49 50  1  0  0  0
 50 51  1  0  0  0
 51 52  1  0  0  0
 52 53  1  0  0  0
 53 54  1  0  0  0
 54 55  1  0  0  0
 55 56  1  0  0  0
M  CHG 1  26  -1
M  END
> <minimizedAffinity>
-7.79487

> <CNNscore>
0.5525332093

> <CNNaffinity>
7.3821458817

> <CNN_VS>
4.0788807869

> <CNNaffinity_variance>
0.6120206118

$$$$
/media/chris/experiments/cd1a-new-docking/inputs/ligands/7sh4_ligand.pdb


 56 55  0  0  0  0  0  0  0  0999 V2000
  -38.6109   60.5323   64.1163 C   0  0  0  0  0  0  0  0  0  0  0  0
  -38.0659   60.1647   65.4674 C   0  0  0  0  0  0  0  0  0  0  0  0
  -36.9738   59.2687   65.1714 O   0  0  0  0  0  0  0  0  0  0  0  0
  -38.3244   57.4883   65.0963 O   0  0  0  0  0  0  0  0  0  0  0  0
  -37.2935   58.0291   64.7986 C   0  0  0  0  0  0  0  0  0  0  0  0
  -36.2628   57.4599   63.8666 C   0  0  0  0  0  0  0  0  0  0  0  0
  -35.6751   58.4725   62.8983 C   0  0  0  0  0  0  0  0  0  0  0  0
  -34.3966   59.1007   63.4114 C   0  0  0  0  0  0  0  0  0  0  0  0
  -33.1859   58.8370   62.5452 C   0  0  0  0  0  0  0  0  0  0  0  0
  -32.4665   57.5529   62.9057 C   0  0  0  0  0  0  0  0  0  0  0  0
  -32.4299   56.5549   61.7743 C   0  0  0  0  0  0  0  0  0  0  0  0
  -33.7968   56.0591   61.3824 C   0  0  0  0  0  0  0  0  0  0  0  0
  -34.0686   56.1590   59.8977 C   0  0  0  0  0  0  0  0  0  0  0  0
  -34.9958   55.0695   59.3980 C   0  0  0  0  0  0  0  0  0  0  0  0
  -36.3810   55.5578   59.0294 C   0  0  0  0  0  0  0  0  0  0  0  0
  -36.4025   56.5065   57.8362 C   0  0  0  0  0  0  0  0  0  0  0  0
  -37.1534   57.7994   58.0904 C   0  0  0  0  0  0  0  0  0  0  0  0
  -37.0782   58.2663   59.5296 C   0  0  0  0  0  0  0  0  0  0  0  0
  -37.9658   59.4662   59.8291 C   0  0  0  0  0  0  0  0  0  0  0  0
  -38.9754   59.2143   60.9350 C   0  0  0  0  0  0  0  0  0  0  0  0
  -40.7463   60.2471   59.4746 C   0  0  0  0  0  0  0  0  0  0  0  0
  -40.2100   60.0939   60.8798 C   0  0  0  0  0  0  0  0  0  0  0  0
  -37.6757   61.4368   63.3555 C   0  0  0  0  0  0  0  0  0  0  0  0
  -37.1302   62.4156   64.2681 O   0  0  0  0  0  0  0  0  0  0  0  0
  -35.8489   63.3086   63.9181 P   0  0  0  0  0  0  0  0  0  0  0  0
  -34.6429   62.4752   64.1126 O   0  0  0  0  0  0  0  0  0  0  0  0
  -36.0732   63.9390   62.5949 O   0  0  0  0  0  0  0  0  0  0  0  0
  -36.0899   63.2535   61.9088 H   0  0  0  0  0  0  0  0  0  0  0  0
  -35.8282   64.4658   65.0150 O   0  0  0  0  0  0  0  0  0  0  0  0
  -36.1231   64.1592   66.3930 C   0  0  0  0  0  0  0  0  0  0  0  0
  -34.3946   62.7939   67.3369 O   0  0  0  0  0  0  0  0  0  0  0  0
  -34.8269   64.1469   67.1656 C   0  0  0  0  0  0  0  0  0  0  0  0
  -35.0952   62.2832   67.7716 H   0  0  0  0  0  0  0  0  0  0  0  0
  -32.7849   64.1047   65.8824 O   0  0  0  0  0  0  0  0  0  0  0  0
  -33.7471   64.9574   66.4896 C   0  0  0  0  0  0  0  0  0  0  0  0
  -32.1006   64.6427   65.4542 H   0  0  0  0  0  0  0  0  0  0  0  0
  -39.9284   61.1483   64.3021 O   0  0  0  0  0  0  0  0  0  0  0  0
  -40.8842   60.9565   66.3294 O   0  0  0  0  0  0  0  0  0  0  0  0
  -40.7508   60.5720   65.1997 C   0  0  0  0  0  0  0  0  0  0  0  0
  -41.4908   59.4087   64.6159 C   0  0  0  0  0  0  0  0  0  0  0  0
  -41.6959   58.3028   65.6463 C   0  0  0  0  0  0  0  0  0  0  0  0
  -43.1456   58.1047   66.0575 C   0  0  0  0  0  0  0  0  0  0  0  0
  -44.1133   59.0507   65.3558 C   0  0  0  0  0  0  0  0  0  0  0  0
  -45.5237   58.5063   65.2263 C   0  0  0  0  0  0  0  0  0  0  0  0
  -46.6280   59.5138   65.5583 C   0  0  0  0  0  0  0  0  0  0  0  0
  -47.8895   59.4045   64.6989 C   0  0  0  0  0  0  0  0  0  0  0  0
  -49.0125   58.7291   65.4274 C   0  0  0  0  0  0  0  0  0  0  0  0
  -50.3002   58.8385   65.1641 C   0  0  0  0  0  0  0  0  0  0  0  0
  -50.9117   59.6632   64.0760 C   0  0  0  0  0  0  0  0  0  0  0  0
  -51.1762   58.8533   62.8101 C   0  0  0  0  0  0  0  0  0  0  0  0
  -50.1170   59.0357   61.7373 C   0  0  0  0  0  0  0  0  0  0  0  0
  -49.5981   57.7283   61.1639 C   0  0  0  0  0  0  0  0  0  0  0  0
  -50.1212   57.3979   59.7759 C   0  0  0  0  0  0  0  0  0  0  0  0
  -49.0202   57.1166   58.7648 C   0  0  0  0  0  0  0  0  0  0  0  0
  -47.6207   57.3989   59.2745 C   0  0  0  0  0  0  0  0  0  0  0  0
  -46.6856   57.8489   58.1869 C   0  0  0  0  0  0  0  0  0  0  0  0
 21 22  1  0  0  0
  4  5  2  0  0  0
 25 24  1  0  0  0
 25 26  2  0  0  0
 25 27  1  0  0  0
 25 29  1  0  0  0
 22 20  1  0  0  0
  3  5  1  0  0  0
  3  2  1  0  0  0
 20 19  1  0  0  0
 24 23  1  0  0  0
 19 18  1  0  0  0
 18 17  1  0  0  0
 27 28  1  0  0  0
 17 16  1  0  0  0
 29 30  1  0  0  0
 16 15  1  0  0  0
 34 35  1  0  0  0
 34 36  1  0  0  0
 15 14  1  0  0  0
 31 32  1  0  0  0
 31 33  1  0  0  0
 14 13  1  0  0  0
 37  1  1  0  0  0
 37 39  1  0  0  0
 13 12  1  0  0  0
 38 39  2  0  0  0
 12 11  1  0  0  0
 11 10  1  0  0  0
 10  9  1  0  0  0
  9  8  1  0  0  0
  8  7  1  0  0  0
  7  6  1  0  0  0
  6  5  1  0  0  0
  2  1  1  0  0  0
  1 23  1  0  0  0
 30 32  1  0  0  0
 32 35  1  0  0  0
 39 40  1  0  0  0
 40 41  1  0  0  0
 41 42  1  0  0  0
 42 43  1  0  0  0
 43 44  1  0  0  0
 44 45  1  0  0  0
 45 46  1  0  0  0
 46 47  1  0  0  0
 47 48  2  0  0  0
 48 49  1  0  0  0
 49 50  1  0  0  0
 50 51  1  0  0  0
 51 52  1  0  0  0
 52 53  1  0  0  0
 53 54  1  0  0  0
 54 55  1  0  0  0
 55 56  1  0  0  0
M  CHG 1  26  -1
M  END
> <minimizedAffinity>
-8.76698

> <CNNscore>
0.5377366543

> <CNNaffinity>
7.5940198898

> <CNN_VS>
4.0835828781

> <CNNaffinity_variance>
0.7083727121

$$$$
/media/chris/experiments/cd1a-new-docking/inputs/ligands/7sh4_ligand.pdb


 56 55  0  0  0  0  0  0  0  0999 V2000
  -40.3914   59.9109   64.5682 C   0  0  0  0  0  0  0  0  0  0  0  0
  -40.8817   59.8138   63.1512 C   0  0  0  0  0  0  0  0  0  0  0  0
  -39.9796   60.6627   62.4106 O   0  0  0  0  0  0  0  0  0  0  0  0
  -40.5890   60.7335   60.2604 O   0  0  0  0  0  0  0  0  0  0  0  0
  -39.8186   60.3889   61.1156 C   0  0  0  0  0  0  0  0  0  0  0  0
  -38.5013   59.7134   60.8635 C   0  0  0  0  0  0  0  0  0  0  0  0
  -38.2871   59.2903   59.4201 C   0  0  0  0  0  0  0  0  0  0  0  0
  -37.3758   58.0881   59.2907 C   0  0  0  0  0  0  0  0  0  0  0  0
  -36.9296   57.7985   57.8755 C   0  0  0  0  0  0  0  0  0  0  0  0
  -35.9670   56.6318   57.7837 C   0  0  0  0  0  0  0  0  0  0  0  0
  -34.5262   57.0334   57.9845 C   0  0  0  0  0  0  0  0  0  0  0  0
  -33.7905   56.1289   58.9375 C   0  0  0  0  0  0  0  0  0  0  0  0
  -34.6864   55.5027   59.9831 C   0  0  0  0  0  0  0  0  0  0  0  0
  -34.3386   55.9422   61.3910 C   0  0  0  0  0  0  0  0  0  0  0  0
  -34.8887   57.3018   61.7676 C   0  0  0  0  0  0  0  0  0  0  0  0
  -33.8158   58.3660   61.9695 C   0  0  0  0  0  0  0  0  0  0  0  0
  -32.5100   57.8275   62.5218 C   0  0  0  0  0  0  0  0  0  0  0  0
  -31.3827   58.8393   62.4960 C   0  0  0  0  0  0  0  0  0  0  0  0
  -31.6615   60.0410   61.6041 C   0  0  0  0  0  0  0  0  0  0  0  0
  -31.5241   61.3734   62.3192 C   0  0  0  0  0  0  0  0  0  0  0  0
  -33.0426   63.3729   62.4974 C   0  0  0  0  0  0  0  0  0  0  0  0
  -32.8187   61.9281   62.8825 C   0  0  0  0  0  0  0  0  0  0  0  0
  -38.8945   59.7611   64.6608 C   0  0  0  0  0  0  0  0  0  0  0  0
  -38.3250   61.0247   65.0697 O   0  0  0  0  0  0  0  0  0  0  0  0
  -36.8395   61.4740   64.6779 P   0  0  0  0  0  0  0  0  0  0  0  0
  -36.1771   60.3329   64.0103 O   0  0  0  0  0  0  0  0  0  0  0  0
  -36.9232   62.7687   63.9599 O   0  0  0  0  0  0  0  0  0  0  0  0
  -37.3729   62.6387   63.1102 H   0  0  0  0  0  0  0  0  0  0  0  0
  -36.0961   61.7304   66.0651 O   0  0  0  0  0  0  0  0  0  0  0  0
  -34.6556   61.7804   66.1132 C   0  0  0  0  0  0  0  0  0  0  0  0
  -33.0904   63.5914   66.2296 O   0  0  0  0  0  0  0  0  0  0  0  0
  -34.2474   63.0290   66.8559 C   0  0  0  0  0  0  0  0  0  0  0  0
  -32.3849   62.9266   66.1973 H   0  0  0  0  0  0  0  0  0  0  0  0
  -36.3087   63.7028   67.9118 O   0  0  0  0  0  0  0  0  0  0  0  0
  -35.3569   64.0514   66.9148 C   0  0  0  0  0  0  0  0  0  0  0  0
  -37.0124   64.3702   67.9345 H   0  0  0  0  0  0  0  0  0  0  0  0
  -41.0876   58.8981   65.3679 O   0  0  0  0  0  0  0  0  0  0  0  0
  -42.1825   59.7797   67.1240 O   0  0  0  0  0  0  0  0  0  0  0  0
  -42.1940   59.2943   66.0259 C   0  0  0  0  0  0  0  0  0  0  0  0
  -43.4354   59.0743   65.2181 C   0  0  0  0  0  0  0  0  0  0  0  0
  -44.5733   58.5338   66.0783 C   0  0  0  0  0  0  0  0  0  0  0  0
  -45.8878   58.3744   65.3321 C   0  0  0  0  0  0  0  0  0  0  0  0
  -46.6731   57.1328   65.7387 C   0  0  0  0  0  0  0  0  0  0  0  0
  -48.1788   57.3192   65.7132 C   0  0  0  0  0  0  0  0  0  0  0  0
  -48.6635   58.6622   66.2669 C   0  0  0  0  0  0  0  0  0  0  0  0
  -49.4591   59.5233   65.2834 C   0  0  0  0  0  0  0  0  0  0  0  0
  -50.4745   58.7225   64.5247 C   0  0  0  0  0  0  0  0  0  0  0  0
  -50.5798   58.6240   63.2137 C   0  0  0  0  0  0  0  0  0  0  0  0
  -49.7014   59.2938   62.2048 C   0  0  0  0  0  0  0  0  0  0  0  0
  -49.8513   58.6914   60.8109 C   0  0  0  0  0  0  0  0  0  0  0  0
  -50.4113   57.2799   60.8137 C   0  0  0  0  0  0  0  0  0  0  0  0
  -49.6464   56.3184   59.9206 C   0  0  0  0  0  0  0  0  0  0  0  0
  -48.4709   56.9413   59.1860 C   0  0  0  0  0  0  0  0  0  0  0  0
  -48.1429   56.2497   57.8715 C   0  0  0  0  0  0  0  0  0  0  0  0
  -46.9184   56.8001   57.1676 C   0  0  0  0  0  0  0  0  0  0  0  0
  -46.3698   58.0315   57.8327 C   0  0  0  0  0  0  0  0  0  0  0  0
 21 22  1  0  0  0
  4  5  2  0  0  0
 25 24  1  0  0  0
 25 26  2  0  0  0
 25 27  1  0  0  0
 25 29  1  0  0  0
 22 20  1  0  0  0
  3  5  1  0  0  0
  3  2  1  0  0  0
 20 19  1  0  0  0
 24 23  1  0  0  0
 19 18  1  0  0  0
 18 17  1  0  0  0
 27 28  1  0  0  0
 17 16  1  0  0  0
 29 30  1  0  0  0
 16 15  1  0  0  0
 34 35  1  0  0  0
 34 36  1  0  0  0
 15 14  1  0  0  0
 31 32  1  0  0  0
 31 33  1  0  0  0
 14 13  1  0  0  0
 37  1  1  0  0  0
 37 39  1  0  0  0
 13 12  1  0  0  0
 38 39  2  0  0  0
 12 11  1  0  0  0
 11 10  1  0  0  0
 10  9  1  0  0  0
  9  8  1  0  0  0
  8  7  1  0  0  0
  7  6  1  0  0  0
  6  5  1  0  0  0
  2  1  1  0  0  0
  1 23  1  0  0  0
 30 32  1  0  0  0
 32 35  1  0  0  0
 39 40  1  0  0  0
 40 41  1  0  0  0
 41 42  1  0  0  0
 42 43  1  0  0  0
 43 44  1  0  0  0
 44 45  1  0  0  0
 45 46  1  0  0  0
 46 47  1  0  0  0
 47 48  2  0  0  0
 48 49  1  0  0  0
 49 50  1  0  0  0
 50 51  1  0  0  0
 51 52  1  0  0  0
 52 53  1  0  0  0
 53 54  1  0  0  0
 54 55  1  0  0  0
 55 56  1  0  0  0
M  CHG 1  26  -1
M  END
> <minimizedAffinity>
-8.37771

> <CNNscore>
0.5023235083

> <CNNaffinity>
7.4087800980

> <CNN_VS>
3.7216043472

> <CNNaffinity_variance>
0.2850652039

$$$$
/media/chris/experiments/cd1a-new-docking/inputs/ligands/7sh4_ligand.pdb


 56 55  0  0  0  0  0  0  0  0999 V2000
  -38.0386   59.8708   61.0139 C   0  0  0  0  0  0  0  0  0  0  0  0
  -37.1825   58.6416   60.8963 C   0  0  0  0  0  0  0  0  0  0  0  0
  -37.6184   58.0291   59.6643 O   0  0  0  0  0  0  0  0  0  0  0  0
  -36.9588   55.8947   59.5700 O   0  0  0  0  0  0  0  0  0  0  0  0
  -36.8728   57.0310   59.1891 C   0  0  0  0  0  0  0  0  0  0  0  0
  -36.0166   57.4907   58.0443 C   0  0  0  0  0  0  0  0  0  0  0  0
  -34.7899   56.6279   57.8013 C   0  0  0  0  0  0  0  0  0  0  0  0
  -33.6649   56.9220   58.7711 C   0  0  0  0  0  0  0  0  0  0  0  0
  -33.6062   55.9833   59.9547 C   0  0  0  0  0  0  0  0  0  0  0  0
  -33.9151   56.6677   61.2709 C   0  0  0  0  0  0  0  0  0  0  0  0
  -32.6804   56.9924   62.0756 C   0  0  0  0  0  0  0  0  0  0  0  0
  -32.9512   57.9448   63.2102 C   0  0  0  0  0  0  0  0  0  0  0  0
  -34.3267   58.5714   63.1526 C   0  0  0  0  0  0  0  0  0  0  0  0
  -35.0929   58.4217   64.4514 C   0  0  0  0  0  0  0  0  0  0  0  0
  -36.2058   57.3962   64.3977 C   0  0  0  0  0  0  0  0  0  0  0  0
  -37.5568   57.9284   64.8621 C   0  0  0  0  0  0  0  0  0  0  0  0
  -38.7230   57.4858   63.9996 C   0  0  0  0  0  0  0  0  0  0  0  0
  -40.0735   57.8625   64.5737 C   0  0  0  0  0  0  0  0  0  0  0  0
  -40.0834   59.2140   65.2741 C   0  0  0  0  0  0  0  0  0  0  0  0
  -41.2882   59.4230   66.1743 C   0  0  0  0  0  0  0  0  0  0  0  0
  -43.7487   59.0538   65.7936 C   0  0  0  0  0  0  0  0  0  0  0  0
  -42.3983   58.4048   65.9958 C   0  0  0  0  0  0  0  0  0  0  0  0
  -37.7763   60.6232   62.2933 C   0  0  0  0  0  0  0  0  0  0  0  0
  -36.8150   61.6693   62.0290 O   0  0  0  0  0  0  0  0  0  0  0  0
  -36.1321   62.5335   63.1904 P   0  0  0  0  0  0  0  0  0  0  0  0
  -34.8137   61.9352   63.4914 O   0  0  0  0  0  0  0  0  0  0  0  0
  -36.1933   63.9624   62.7992 O   0  0  0  0  0  0  0  0  0  0  0  0
  -35.6324   64.1090   62.0214 H   0  0  0  0  0  0  0  0  0  0  0  0
  -37.0647   62.3351   64.4685 O   0  0  0  0  0  0  0  0  0  0  0  0
  -36.4741   62.1596   65.7724 C   0  0  0  0  0  0  0  0  0  0  0  0
  -36.9149   64.0941   67.1163 O   0  0  0  0  0  0  0  0  0  0  0  0
  -35.9530   63.4955   66.2425 C   0  0  0  0  0  0  0  0  0  0  0  0
  -37.7676   64.1637   66.6594 H   0  0  0  0  0  0  0  0  0  0  0  0
  -34.0276   62.1113   66.6838 O   0  0  0  0  0  0  0  0  0  0  0  0
  -34.6181   63.3794   66.9383 C   0  0  0  0  0  0  0  0  0  0  0  0
  -33.1725   62.0557   67.1384 H   0  0  0  0  0  0  0  0  0  0  0  0
  -39.4437   59.4672   60.9013 O   0  0  0  0  0  0  0  0  0  0  0  0
  -40.7444   61.2938   60.7232 O   0  0  0  0  0  0  0  0  0  0  0  0
  -40.2680   60.3029   60.2408 C   0  0  0  0  0  0  0  0  0  0  0  0
  -40.5036   59.8590   58.8303 C   0  0  0  0  0  0  0  0  0  0  0  0
  -41.9666   59.4970   58.5954 C   0  0  0  0  0  0  0  0  0  0  0  0
  -42.3121   59.2423   57.1374 C   0  0  0  0  0  0  0  0  0  0  0  0
  -43.5382   58.3568   56.9469 C   0  0  0  0  0  0  0  0  0  0  0  0
  -44.4172   58.2467   58.1787 C   0  0  0  0  0  0  0  0  0  0  0  0
  -45.8785   57.8929   57.8886 C   0  0  0  0  0  0  0  0  0  0  0  0
  -46.7300   57.5795   59.1208 C   0  0  0  0  0  0  0  0  0  0  0  0
  -48.1339   57.2002   58.7557 C   0  0  0  0  0  0  0  0  0  0  0  0
  -49.1718   57.1477   59.5678 C   0  0  0  0  0  0  0  0  0  0  0  0
  -49.1643   57.4592   61.0310 C   0  0  0  0  0  0  0  0  0  0  0  0
  -49.9353   58.7346   61.3588 C   0  0  0  0  0  0  0  0  0  0  0  0
  -50.9174   58.5755   62.5061 C   0  0  0  0  0  0  0  0  0  0  0  0
  -50.7328   59.5988   63.6133 C   0  0  0  0  0  0  0  0  0  0  0  0
  -50.7458   59.0169   65.0171 C   0  0  0  0  0  0  0  0  0  0  0  0
  -49.5015   58.2074   65.3487 C   0  0  0  0  0  0  0  0  0  0  0  0
  -48.2038   58.9800   65.2191 C   0  0  0  0  0  0  0  0  0  0  0  0
  -47.2255   58.3214   64.2870 C   0  0  0  0  0  0  0  0  0  0  0  0
 21 22  1  0  0  0
  4  5  2  0  0  0
 25 24  1  0  0  0
 25 26  2  0  0  0
 25 27  1  0  0  0
 25 29  1  0  0  0
 22 20  1  0  0  0
  3  5  1  0  0  0
  3  2  1  0  0  0
 20 19  1  0  0  0
 24 23  1  0  0  0
 19 18  1  0  0  0
 18 17  1  0  0  0
 27 28  1  0  0  0
 17 16  1  0  0  0
 29 30  1  0  0  0
 16 15  1  0  0  0
 34 35  1  0  0  0
 34 36  1  0  0  0
 15 14  1  0  0  0
 31 32  1  0  0  0
 31 33  1  0  0  0
 14 13  1  0  0  0
 37  1  1  0  0  0
 37 39  1  0  0  0
 13 12  1  0  0  0
 38 39  2  0  0  0
 12 11  1  0  0  0
 11 10  1  0  0  0
 10  9  1  0  0  0
  9  8  1  0  0  0
  8  7  1  0  0  0
  7  6  1  0  0  0
  6  5  1  0  0  0
  2  1  1  0  0  0
  1 23  1  0  0  0
 30 32  1  0  0  0
 32 35  1  0  0  0
 39 40  1  0  0  0
 40 41  1  0  0  0
 41 42  1  0  0  0
 42 43  1  0  0  0
 43 44  1  0  0  0
 44 45  1  0  0  0
 45 46  1  0  0  0
 46 47  1  0  0  0
 47 48  2  0  0  0
 48 49  1  0  0  0
 49 50  1  0  0  0
 50 51  1  0  0  0
 51 52  1  0  0  0
 52 53  1  0  0  0
 53 54  1  0  0  0
 54 55  1  0  0  0
 55 56  1  0  0  0
M  CHG 1  26  -1
M  END
> <minimizedAffinity>
-8.22262

> <CNNscore>
0.4926309288

> <CNNaffinity>
7.4758987427

> <CNN_VS>
3.6828589439

> <CNNaffinity_variance>
0.8092160225

$$$$
/media/chris/experiments/cd1a-new-docking/inputs/ligands/7sh4_ligand.pdb


 56 55  0  0  0  0  0  0  0  0999 V2000
  -38.4671   61.1401   63.2764 C   0  0  0  0  0  0  0  0  0  0  0  0
  -37.9712   60.7014   61.9276 C   0  0  0  0  0  0  0  0  0  0  0  0
  -39.1665   60.2830   61.2352 O   0  0  0  0  0  0  0  0  0  0  0  0
  -39.9142   60.4444   59.1342 O   0  0  0  0  0  0  0  0  0  0  0  0
  -39.0696   60.1030   59.9176 C   0  0  0  0  0  0  0  0  0  0  0  0
  -37.7282   59.5409   59.5440 C   0  0  0  0  0  0  0  0  0  0  0  0
  -37.7973   58.2714   58.7120 C   0  0  0  0  0  0  0  0  0  0  0  0
  -36.5585   58.0550   57.8688 C   0  0  0  0  0  0  0  0  0  0  0  0
  -36.1157   56.6124   57.7774 C   0  0  0  0  0  0  0  0  0  0  0  0
  -36.4789   55.8012   59.0047 C   0  0  0  0  0  0  0  0  0  0  0  0
  -35.2875   55.1402   59.6538 C   0  0  0  0  0  0  0  0  0  0  0  0
  -34.0118   55.9202   59.4748 C   0  0  0  0  0  0  0  0  0  0  0  0
  -33.8498   57.0436   60.4746 C   0  0  0  0  0  0  0  0  0  0  0  0
  -33.0423   56.6338   61.6896 C   0  0  0  0  0  0  0  0  0  0  0  0
  -32.5084   57.7976   62.4981 C   0  0  0  0  0  0  0  0  0  0  0  0
  -33.5888   58.5881   63.2274 C   0  0  0  0  0  0  0  0  0  0  0  0
  -34.0261   57.9675   64.5403 C   0  0  0  0  0  0  0  0  0  0  0  0
  -35.4146   57.3637   64.4879 C   0  0  0  0  0  0  0  0  0  0  0  0
  -36.3460   58.0596   63.5053 C   0  0  0  0  0  0  0  0  0  0  0  0
  -36.7544   57.1861   62.3323 C   0  0  0  0  0  0  0  0  0  0  0  0
  -38.9989   57.2758   63.4681 C   0  0  0  0  0  0  0  0  0  0  0  0
  -38.2494   56.9717   62.1908 C   0  0  0  0  0  0  0  0  0  0  0  0
  -37.3365   61.3947   64.2401 C   0  0  0  0  0  0  0  0  0  0  0  0
  -36.9424   62.7813   64.1389 O   0  0  0  0  0  0  0  0  0  0  0  0
  -35.6045   63.2509   63.3962 P   0  0  0  0  0  0  0  0  0  0  0  0
  -34.7311   62.0686   63.2353 O   0  0  0  0  0  0  0  0  0  0  0  0
  -35.9923   64.0197   62.1890 O   0  0  0  0  0  0  0  0  0  0  0  0
  -36.4303   63.4289   61.5564 H   0  0  0  0  0  0  0  0  0  0  0  0
  -34.8901   64.2552   64.4080 O   0  0  0  0  0  0  0  0  0  0  0  0
  -33.9617   63.7512   65.3898 C   0  0  0  0  0  0  0  0  0  0  0  0
  -33.8382   62.2954   67.2894 O   0  0  0  0  0  0  0  0  0  0  0  0
  -34.7444   63.0234   66.4551 C   0  0  0  0  0  0  0  0  0  0  0  0
  -33.3040   61.6984   66.7426 H   0  0  0  0  0  0  0  0  0  0  0  0
  -36.8459   64.1869   66.6747 O   0  0  0  0  0  0  0  0  0  0  0  0
  -35.5850   63.9588   67.2908 C   0  0  0  0  0  0  0  0  0  0  0  0
  -37.3706   64.7890   67.2253 H   0  0  0  0  0  0  0  0  0  0  0  0
  -39.3909   60.1202   63.7826 O   0  0  0  0  0  0  0  0  0  0  0  0
  -41.1988   61.4518   63.9189 O   0  0  0  0  0  0  0  0  0  0  0  0
  -40.5280   60.5574   64.3570 C   0  0  0  0  0  0  0  0  0  0  0  0
  -40.8643   59.7841   65.5942 C   0  0  0  0  0  0  0  0  0  0  0  0
  -42.0667   58.8718   65.3734 C   0  0  0  0  0  0  0  0  0  0  0  0
  -43.1958   59.0887   66.3676 C   0  0  0  0  0  0  0  0  0  0  0  0
  -44.5246   58.4895   65.9215 C   0  0  0  0  0  0  0  0  0  0  0  0
  -45.5683   59.5212   65.5363 C   0  0  0  0  0  0  0  0  0  0  0  0
  -46.9892   59.1952   66.0053 C   0  0  0  0  0  0  0  0  0  0  0  0
  -47.8999   58.5759   64.9429 C   0  0  0  0  0  0  0  0  0  0  0  0
  -49.1101   57.9271   65.5449 C   0  0  0  0  0  0  0  0  0  0  0  0
  -50.3702   58.2215   65.2900 C   0  0  0  0  0  0  0  0  0  0  0  0
  -50.8569   59.2696   64.3399 C   0  0  0  0  0  0  0  0  0  0  0  0
  -50.8436   58.7930   62.8904 C   0  0  0  0  0  0  0  0  0  0  0  0
  -50.0067   59.6639   61.9700 C   0  0  0  0  0  0  0  0  0  0  0  0
  -49.6299   58.9855   60.6642 C   0  0  0  0  0  0  0  0  0  0  0  0
  -50.0378   57.5244   60.5732 C   0  0  0  0  0  0  0  0  0  0  0  0
  -49.3285   56.7657   59.4619 C   0  0  0  0  0  0  0  0  0  0  0  0
  -47.8157   56.8040   59.5499 C   0  0  0  0  0  0  0  0  0  0  0  0
  -47.1914   57.6410   58.4684 C   0  0  0  0  0  0  0  0  0  0  0  0
 21 22  1  0  0  0
  4  5  2  0  0  0
 25 24  1  0  0  0
 25 26  2  0  0  0
 25 27  1  0  0  0
 25 29  1  0  0  0
 22 20  1  0  0  0
  3  5  1  0  0  0
  3  2  1  0  0  0
 20 19  1  0  0  0
 24 23  1  0  0  0
 19 18  1  0  0  0
 18 17  1  0  0  0
 27 28  1  0  0  0
 17 16  1  0  0  0
 29 30  1  0  0  0
 16 15  1  0  0  0
 34 35  1  0  0  0
 34 36  1  0  0  0
 15 14  1  0  0  0
 31 32  1  0  0  0
 31 33  1  0  0  0
 14 13  1  0  0  0
 37  1  1  0  0  0
 37 39  1  0  0  0
 13 12  1  0  0  0
 38 39  2  0  0  0
 12 11  1  0  0  0
 11 10  1  0  0  0
 10  9  1  0  0  0
  9  8  1  0  0  0
  8  7  1  0  0  0
  7  6  1  0  0  0
  6  5  1  0  0  0
  2  1  1  0  0  0
  1 23  1  0  0  0
 30 32  1  0  0  0
 32 35  1  0  0  0
 39 40  1  0  0  0
 40 41  1  0  0  0
 41 42  1  0  0  0
 42 43  1  0  0  0
 43 44  1  0  0  0
 44 45  1  0  0  0
 45 46  1  0  0  0
 46 47  1  0  0  0
 47 48  2  0  0  0
 48 49  1  0  0  0
 49 50  1  0  0  0
 50 51  1  0  0  0
 51 52  1  0  0  0
 52 53  1  0  0  0
 53 54  1  0  0  0
 54 55  1  0  0  0
 55 56  1  0  0  0
M  CHG 1  26  -1
M  END
> <minimizedAffinity>
-9.02065

> <CNNscore>
0.4768729806

> <CNNaffinity>
7.4958434105

> <CNN_VS>
3.5745651722

> <CNNaffinity_variance>
0.9142446518

$$$$
/media/chris/experiments/cd1a-new-docking/inputs/ligands/7sh4_ligand.pdb


 56 55  0  0  0  0  0  0  0  0999 V2000
  -33.6047   58.7040   62.3666 C   0  0  0  0  0  0  0  0  0  0  0  0
  -33.4554   57.3633   61.7048 C   0  0  0  0  0  0  0  0  0  0  0  0
  -33.4182   57.6719   60.2954 O   0  0  0  0  0  0  0  0  0  0  0  0
  -33.7021   56.7618   58.2728 O   0  0  0  0  0  0  0  0  0  0  0  0
  -33.8814   56.7410   59.4607 C   0  0  0  0  0  0  0  0  0  0  0  0
  -34.5366   55.6172   60.2110 C   0  0  0  0  0  0  0  0  0  0  0  0
  -35.8296   55.1234   59.5842 C   0  0  0  0  0  0  0  0  0  0  0  0
  -36.8748   56.2120   59.4618 C   0  0  0  0  0  0  0  0  0  0  0  0
  -37.2601   56.8514   60.7764 C   0  0  0  0  0  0  0  0  0  0  0  0
  -37.2255   58.3657   60.7325 C   0  0  0  0  0  0  0  0  0  0  0  0
  -38.5989   58.9910   60.7160 C   0  0  0  0  0  0  0  0  0  0  0  0
  -39.0525   59.3784   59.3333 C   0  0  0  0  0  0  0  0  0  0  0  0
  -40.2215   60.3384   59.3320 C   0  0  0  0  0  0  0  0  0  0  0  0
  -41.5256   59.6719   58.9432 C   0  0  0  0  0  0  0  0  0  0  0  0
  -41.6450   59.3621   57.4657 C   0  0  0  0  0  0  0  0  0  0  0  0
  -42.9527   58.6782   57.0834 C   0  0  0  0  0  0  0  0  0  0  0  0
  -43.9114   58.4893   58.2432 C   0  0  0  0  0  0  0  0  0  0  0  0
  -45.2731   57.9765   57.8213 C   0  0  0  0  0  0  0  0  0  0  0  0
  -46.1519   57.5474   58.9879 C   0  0  0  0  0  0  0  0  0  0  0  0
  -47.6330   57.7845   58.7523 C   0  0  0  0  0  0  0  0  0  0  0  0
  -48.2874   55.3700   59.0311 C   0  0  0  0  0  0  0  0  0  0  0  0
  -48.5523   56.7988   59.4483 C   0  0  0  0  0  0  0  0  0  0  0  0
  -32.3732   59.5571   62.2017 C   0  0  0  0  0  0  0  0  0  0  0  0
  -32.7160   60.9303   62.4937 O   0  0  0  0  0  0  0  0  0  0  0  0
  -31.6960   62.1442   62.2753 P   0  0  0  0  0  0  0  0  0  0  0  0
  -30.9543   62.3519   63.5376 O   0  0  0  0  0  0  0  0  0  0  0  0
  -30.9292   61.8849   61.0329 O   0  0  0  0  0  0  0  0  0  0  0  0
  -30.3628   61.1075   61.1588 H   0  0  0  0  0  0  0  0  0  0  0  0
  -32.6117   63.4259   62.0273 O   0  0  0  0  0  0  0  0  0  0  0  0
  -33.9096   63.5167   62.6495 C   0  0  0  0  0  0  0  0  0  0  0  0
  -34.2535   65.4304   64.0503 O   0  0  0  0  0  0  0  0  0  0  0  0
  -33.7351   64.0970   64.0315 C   0  0  0  0  0  0  0  0  0  0  0  0
  -33.8151   65.9574   63.3642 H   0  0  0  0  0  0  0  0  0  0  0  0
  -33.7103   62.0372   65.2866 O   0  0  0  0  0  0  0  0  0  0  0  0
  -34.4071   63.2616   65.0948 C   0  0  0  0  0  0  0  0  0  0  0  0
  -34.1563   61.5153   65.9720 H   0  0  0  0  0  0  0  0  0  0  0  0
  -33.9281   58.4873   63.7803 O   0  0  0  0  0  0  0  0  0  0  0  0
  -35.4740   59.9666   64.4747 O   0  0  0  0  0  0  0  0  0  0  0  0
  -35.1621   58.8437   64.1859 C   0  0  0  0  0  0  0  0  0  0  0  0
  -36.1008   57.6776   64.2155 C   0  0  0  0  0  0  0  0  0  0  0  0
  -37.4449   58.0577   64.8285 C   0  0  0  0  0  0  0  0  0  0  0  0
  -38.6449   57.5562   64.0419 C   0  0  0  0  0  0  0  0  0  0  0  0
  -39.9684   58.1596   64.4980 C   0  0  0  0  0  0  0  0  0  0  0  0
  -39.9781   59.6766   64.5252 C   0  0  0  0  0  0  0  0  0  0  0  0
  -41.3574   60.3004   64.7565 C   0  0  0  0  0  0  0  0  0  0  0  0
  -42.5232   59.3098   64.7896 C   0  0  0  0  0  0  0  0  0  0  0  0
  -43.1376   59.2059   66.1534 C   0  0  0  0  0  0  0  0  0  0  0  0
  -43.8648   58.2073   66.6153 C   0  0  0  0  0  0  0  0  0  0  0  0
  -44.2288   56.9620   65.8704 C   0  0  0  0  0  0  0  0  0  0  0  0
  -45.7206   56.8851   65.5584 C   0  0  0  0  0  0  0  0  0  0  0  0
  -46.3737   58.2424   65.3652 C   0  0  0  0  0  0  0  0  0  0  0  0
  -47.4769   58.5366   66.3671 C   0  0  0  0  0  0  0  0  0  0  0  0
  -48.8594   58.6888   65.7547 C   0  0  0  0  0  0  0  0  0  0  0  0
  -48.8486   58.7145   64.2339 C   0  0  0  0  0  0  0  0  0  0  0  0
  -50.2036   58.9757   63.6065 C   0  0  0  0  0  0  0  0  0  0  0  0
  -50.5415   57.9916   62.5216 C   0  0  0  0  0  0  0  0  0  0  0  0
 21 22  1  0  0  0
  4  5  2  0  0  0
 25 24  1  0  0  0
 25 26  2  0  0  0
 25 27  1  0  0  0
 25 29  1  0  0  0
 22 20  1  0  0  0
  3  5  1  0  0  0
  3  2  1  0  0  0
 20 19  1  0  0  0
 24 23  1  0  0  0
 19 18  1  0  0  0
 18 17  1  0  0  0
 27 28  1  0  0  0
 17 16  1  0  0  0
 29 30  1  0  0  0
 16 15  1  0  0  0
 34 35  1  0  0  0
 34 36  1  0  0  0
 15 14  1  0  0  0
 31 32  1  0  0  0
 31 33  1  0  0  0
 14 13  1  0  0  0
 37  1  1  0  0  0
 37 39  1  0  0  0
 13 12  1  0  0  0
 38 39  2  0  0  0
 12 11  1  0  0  0
 11 10  1  0  0  0
 10  9  1  0  0  0
  9  8  1  0  0  0
  8  7  1  0  0  0
  7  6  1  0  0  0
  6  5  1  0  0  0
  2  1  1  0  0  0
  1 23  1  0  0  0
 30 32  1  0  0  0
 32 35  1  0  0  0
 39 40  1  0  0  0
 40 41  1  0  0  0
 41 42  1  0  0  0
 42 43  1  0  0  0
 43 44  1  0  0  0
 44 45  1  0  0  0
 45 46  1  0  0  0
 46 47  1  0  0  0
 47 48  2  0  0  0
 48 49  1  0  0  0
 49 50  1  0  0  0
 50 51  1  0  0  0
 51 52  1  0  0  0
 52 53  1  0  0  0
 53 54  1  0  0  0
 54 55  1  0  0  0
 55 56  1  0  0  0
M  CHG 1  26  -1
M  END
> <minimizedAffinity>
-7.48277

> <CNNscore>
0.4696259201

> <CNNaffinity>
7.3168792725

> <CNN_VS>
3.4361960888

> <CNNaffinity_variance>
0.9751044512

$$$$
/media/chris/experiments/cd1a-new-docking/inputs/ligands/7sh4_ligand.pdb


 56 55  0  0  0  0  0  0  0  0999 V2000
  -36.5469   60.8327   65.5723 C   0  0  0  0  0  0  0  0  0  0  0  0
  -37.8183   60.8850   64.7733 C   0  0  0  0  0  0  0  0  0  0  0  0
  -38.8420   60.5160   65.7215 O   0  0  0  0  0  0  0  0  0  0  0  0
  -40.7179   60.9033   64.5681 O   0  0  0  0  0  0  0  0  0  0  0  0
  -40.0294   60.1689   65.2240 C   0  0  0  0  0  0  0  0  0  0  0  0
  -40.3239   58.7195   65.4839 C   0  0  0  0  0  0  0  0  0  0  0  0
  -41.8054   58.3929   65.5685 C   0  0  0  0  0  0  0  0  0  0  0  0
  -42.4306   58.8397   66.8731 C   0  0  0  0  0  0  0  0  0  0  0  0
  -43.9408   58.9036   66.8463 C   0  0  0  0  0  0  0  0  0  0  0  0
  -44.5148   58.7924   65.4483 C   0  0  0  0  0  0  0  0  0  0  0  0
  -45.9814   59.1417   65.3789 C   0  0  0  0  0  0  0  0  0  0  0  0
  -46.7530   58.2566   64.4360 C   0  0  0  0  0  0  0  0  0  0  0  0
  -48.1003   57.8329   64.9777 C   0  0  0  0  0  0  0  0  0  0  0  0
  -49.2511   58.2782   64.0981 C   0  0  0  0  0  0  0  0  0  0  0  0
  -49.0272   58.0395   62.6196 C   0  0  0  0  0  0  0  0  0  0  0  0
  -50.1778   58.5120   61.7382 C   0  0  0  0  0  0  0  0  0  0  0  0
  -50.7489   57.4324   60.8391 C   0  0  0  0  0  0  0  0  0  0  0  0
  -49.6990   56.4878   60.2910 C   0  0  0  0  0  0  0  0  0  0  0  0
  -49.1095   56.9360   58.9610 C   0  0  0  0  0  0  0  0  0  0  0  0
  -47.7717   57.6414   59.0962 C   0  0  0  0  0  0  0  0  0  0  0  0
  -47.4331   56.6420   56.8109 C   0  0  0  0  0  0  0  0  0  0  0  0
  -46.9055   57.6037   57.8514 C   0  0  0  0  0  0  0  0  0  0  0  0
  -36.3309   62.0896   66.3756 C   0  0  0  0  0  0  0  0  0  0  0  0
  -34.9467   62.4868   66.2548 O   0  0  0  0  0  0  0  0  0  0  0  0
  -34.4812   64.0182   66.2479 P   0  0  0  0  0  0  0  0  0  0  0  0
  -35.3767   64.7650   65.3386 O   0  0  0  0  0  0  0  0  0  0  0  0
  -34.3576   64.4692   67.6550 O   0  0  0  0  0  0  0  0  0  0  0  0
  -35.2347   64.4808   68.0691 H   0  0  0  0  0  0  0  0  0  0  0  0
  -33.0219   64.0131   65.6051 O   0  0  0  0  0  0  0  0  0  0  0  0
  -32.8193   64.5223   64.2711 C   0  0  0  0  0  0  0  0  0  0  0  0
  -33.4634   62.3191   63.5826 O   0  0  0  0  0  0  0  0  0  0  0  0
  -32.5074   63.3601   63.3605 C   0  0  0  0  0  0  0  0  0  0  0  0
  -33.4604   62.0721   64.5206 H   0  0  0  0  0  0  0  0  0  0  0  0
  -31.3410   63.2509   61.2520 O   0  0  0  0  0  0  0  0  0  0  0  0
  -32.4986   63.7574   61.9038 C   0  0  0  0  0  0  0  0  0  0  0  0
  -31.3532   63.5160   60.3190 H   0  0  0  0  0  0  0  0  0  0  0  0
  -35.4336   60.5801   64.6521 O   0  0  0  0  0  0  0  0  0  0  0  0
  -35.6981   59.8063   62.5565 O   0  0  0  0  0  0  0  0  0  0  0  0
  -35.6066   59.6070   63.7370 C   0  0  0  0  0  0  0  0  0  0  0  0
  -35.6525   58.2487   64.3652 C   0  0  0  0  0  0  0  0  0  0  0  0
  -36.2961   57.2246   63.4358 C   0  0  0  0  0  0  0  0  0  0  0  0
  -37.8141   57.2914   63.4019 C   0  0  0  0  0  0  0  0  0  0  0  0
  -38.3816   57.5684   62.0145 C   0  0  0  0  0  0  0  0  0  0  0  0
  -39.1447   58.8756   61.9097 C   0  0  0  0  0  0  0  0  0  0  0  0
  -38.9861   59.5998   60.5697 C   0  0  0  0  0  0  0  0  0  0  0  0
  -37.6977   59.2838   59.8069 C   0  0  0  0  0  0  0  0  0  0  0  0
  -37.9706   58.6569   58.4726 C   0  0  0  0  0  0  0  0  0  0  0  0
  -37.2497   57.7264   57.8776 C   0  0  0  0  0  0  0  0  0  0  0  0
  -36.0028   57.0980   58.4147 C   0  0  0  0  0  0  0  0  0  0  0  0
  -36.2926   56.0594   59.4945 C   0  0  0  0  0  0  0  0  0  0  0  0
  -35.1926   55.0251   59.6565 C   0  0  0  0  0  0  0  0  0  0  0  0
  -33.8059   55.6275   59.8042 C   0  0  0  0  0  0  0  0  0  0  0  0
  -33.5136   56.2052   61.1790 C   0  0  0  0  0  0  0  0  0  0  0  0
  -33.3378   57.7161   61.1762 C   0  0  0  0  0  0  0  0  0  0  0  0
  -32.4490   58.2410   62.2863 C   0  0  0  0  0  0  0  0  0  0  0  0
  -31.8647   59.5904   61.9744 C   0  0  0  0  0  0  0  0  0  0  0  0
 21 22  1  0  0  0
  4  5  2  0  0  0
 25 24  1  0  0  0
 25 26  2  0  0  0
 25 27  1  0  0  0
 25 29  1  0  0  0
 22 20  1  0  0  0
  3  5  1  0  0  0
  3  2  1  0  0  0
 20 19  1  0  0  0
 24 23  1  0  0  0
 19 18  1  0  0  0
 18 17  1  0  0  0
 27 28  1  0  0  0
 17 16  1  0  0  0
 29 30  1  0  0  0
 16 15  1  0  0  0
 34 35  1  0  0  0
 34 36  1  0  0  0
 15 14  1  0  0  0
 31 32  1  0  0  0
 31 33  1  0  0  0
 14 13  1  0  0  0
 37  1  1  0  0  0
 37 39  1  0  0  0
 13 12  1  0  0  0
 38 39  2  0  0  0
 12 11  1  0  0  0
 11 10  1  0  0  0
 10  9  1  0  0  0
  9  8  1  0  0  0
  8  7  1  0  0  0
  7  6  1  0  0  0
  6  5  1  0  0  0
  2  1  1  0  0  0
  1 23  1  0  0  0
 30 32  1  0  0  0
 32 35  1  0  0  0
 39 40  1  0  0  0
 40 41  1  0  0  0
 41 42  1  0  0  0
 42 43  1  0  0  0
 43 44  1  0  0  0
 44 45  1  0  0  0
 45 46  1  0  0  0
 46 47  1  0  0  0
 47 48  2  0  0  0
 48 49  1  0  0  0
 49 50  1  0  0  0
 50 51  1  0  0  0
 51 52  1  0  0  0
 52 53  1  0  0  0
 53 54  1  0  0  0
 54 55  1  0  0  0
 55 56  1  0  0  0
M  CHG 1  26  -1
M  END
> <minimizedAffinity>
-8.84147

> <CNNscore>
0.4458701313

> <CNNaffinity>
7.3551545143

> <CNN_VS>
3.2794437408

> <CNNaffinity_variance>
0.6377652287

$$$$
