/media/chris/experiments/cd1a-new-docking/inputs/ligands/7sh4_ligand.pdb


 56 55  0  0  0  0  0  0  0  0999 V2000
  -38.9145   61.0843   62.9081 C   0  0  0  0  0  0  0  0  0  0  0  0
  -39.4100   60.2394   61.7687 C   0  0  0  0  0  0  0  0  0  0  0  0
  -38.2758   60.1507   60.8807 O   0  0  0  0  0  0  0  0  0  0  0  0
  -39.5552   59.8936   59.0652 O   0  0  0  0  0  0  0  0  0  0  0  0
  -38.5126   59.7275   59.6386 C   0  0  0  0  0  0  0  0  0  0  0  0
  -37.2770   59.1383   59.0213 C   0  0  0  0  0  0  0  0  0  0  0  0
  -37.5460   57.9684   58.0900 C   0  0  0  0  0  0  0  0  0  0  0  0
  -36.5625   56.8324   58.2766 C   0  0  0  0  0  0  0  0  0  0  0  0
  -35.1458   57.1662   57.8674 C   0  0  0  0  0  0  0  0  0  0  0  0
  -34.1032   56.4309   58.6847 C   0  0  0  0  0  0  0  0  0  0  0  0
  -34.6950   55.6211   59.8123 C   0  0  0  0  0  0  0  0  0  0  0  0
  -34.3014   56.1319   61.1732 C   0  0  0  0  0  0  0  0  0  0  0  0
  -32.8145   56.0499   61.4382 C   0  0  0  0  0  0  0  0  0  0  0  0
  -32.3111   57.1847   62.3070 C   0  0  0  0  0  0  0  0  0  0  0  0
  -32.8164   58.5510   61.8932 C   0  0  0  0  0  0  0  0  0  0  0  0
  -33.6934   59.2268   62.9410 C   0  0  0  0  0  0  0  0  0  0  0  0
  -33.9886   58.3596   64.1497 C   0  0  0  0  0  0  0  0  0  0  0  0
  -35.4297   58.4392   64.6102 C   0  0  0  0  0  0  0  0  0  0  0  0
  -36.3114   57.3316   64.0500 C   0  0  0  0  0  0  0  0  0  0  0  0
  -37.7975   57.6094   64.1885 C   0  0  0  0  0  0  0  0  0  0  0  0
  -37.7824   56.8240   61.7972 C   0  0  0  0  0  0  0  0  0  0  0  0
  -38.6322   57.2136   62.9853 C   0  0  0  0  0  0  0  0  0  0  0  0
  -37.4154   61.2393   62.8878 C   0  0  0  0  0  0  0  0  0  0  0  0
  -37.0491   62.3335   63.7579 O   0  0  0  0  0  0  0  0  0  0  0  0
  -35.8105   63.3022   63.4589 P   0  0  0  0  0  0  0  0  0  0  0  0
  -34.5691   62.5069   63.5737 O   0  0  0  0  0  0  0  0  0  0  0  0
  -36.0818   64.0201   62.1902 O   0  0  0  0  0  0  0  0  0  0  0  0
  -36.0825   63.3877   61.4546 H   0  0  0  0  0  0  0  0  0  0  0  0
  -35.8179   64.3740   64.6395 O   0  0  0  0  0  0  0  0  0  0  0  0
  -34.9457   64.2026   65.7752 C   0  0  0  0  0  0  0  0  0  0  0  0
  -37.0763   64.2243   66.8717 O   0  0  0  0  0  0  0  0  0  0  0  0
  -35.7614   63.6628   66.9242 C   0  0  0  0  0  0  0  0  0  0  0  0
  -37.0149   65.1923   66.8773 H   0  0  0  0  0  0  0  0  0  0  0  0
  -37.1495   61.7204   66.5797 O   0  0  0  0  0  0  0  0  0  0  0  0
  -35.8382   62.1549   66.9163 C   0  0  0  0  0  0  0  0  0  0  0  0
  -37.1789   60.7508   66.5799 H   0  0  0  0  0  0  0  0  0  0  0  0
  -39.3802   60.4859   64.1631 O   0  0  0  0  0  0  0  0  0  0  0  0
  -41.3840   61.5067   64.2174 O   0  0  0  0  0  0  0  0  0  0  0  0
  -40.7034   60.5363   64.4095 C   0  0  0  0  0  0  0  0  0  0  0  0
  -41.2260   59.2344   64.9330 C   0  0  0  0  0  0  0  0  0  0  0  0
  -42.4459   59.4401   65.8252 C   0  0  0  0  0  0  0  0  0  0  0  0
  -43.6486   58.5999   65.4280 C   0  0  0  0  0  0  0  0  0  0  0  0
  -44.8879   58.8714   66.2733 C   0  0  0  0  0  0  0  0  0  0  0  0
  -46.1387   59.1528   65.4617 C   0  0  0  0  0  0  0  0  0  0  0  0
  -47.4224   59.2665   66.2891 C   0  0  0  0  0  0  0  0  0  0  0  0
  -48.7161   59.3506   65.4762 C   0  0  0  0  0  0  0  0  0  0  0  0
  -48.4949   59.9586   64.1237 C   0  0  0  0  0  0  0  0  0  0  0  0
  -49.3956   60.1127   63.1727 C   0  0  0  0  0  0  0  0  0  0  0  0
  -50.8351   59.7116   63.2472 C   0  0  0  0  0  0  0  0  0  0  0  0
  -51.1118   58.3978   62.5221 C   0  0  0  0  0  0  0  0  0  0  0  0
  -50.0045   57.9824   61.5695 C   0  0  0  0  0  0  0  0  0  0  0  0
  -50.5109   57.3574   60.2810 C   0  0  0  0  0  0  0  0  0  0  0  0
  -49.4453   57.1602   59.2156 C   0  0  0  0  0  0  0  0  0  0  0  0
  -48.0617   57.6186   59.6506 C   0  0  0  0  0  0  0  0  0  0  0  0
  -46.9904   57.4553   58.5907 C   0  0  0  0  0  0  0  0  0  0  0  0
  -47.5381   56.9577   57.2822 C   0  0  0  0  0  0  0  0  0  0  0  0
 21 22  1  0  0  0
  4  5  2  0  0  0
 25 24  1  0  0  0
 25 26  2  0  0  0
 25 27  1  0  0  0
 25 29  1  0  0  0
 22 20  1  0  0  0
  3  5  1  0  0  0
  3  2  1  0  0  0
 20 19  1  0  0  0
 24 23  1  0  0  0
 19 18  1  0  0  0
 18 17  1  0  0  0
 27 28  1  0  0  0
 17 16  1  0  0  0
 29 30  1  0  0  0
 16 15  1  0  0  0
 34 35  1  0  0  0
 34 36  1  0  0  0
 15 14  1  0  0  0
 31 32  1  0  0  0
 31 33  1  0  0  0
 14 13  1  0  0  0
 37  1  1  0  0  0
 37 39  1  0  0  0
 13 12  1  0  0  0
 38 39  2  0  0  0
 12 11  1  0  0  0
 11 10  1  0  0  0
 10  9  1  0  0  0
  9  8  1  0  0  0
  8  7  1  0  0  0
  7  6  1  0  0  0
  6  5  1  0  0  0
  2  1  1  0  0  0
  1 23  1  0  0  0
 30 32  1  0  0  0
 32 35  1  0  0  0
 39 40  1  0  0  0
 40 41  1  0  0  0
 41 42  1  0  0  0
 42 43  1  0  0  0
 43 44  1  0  0  0
 44 45  1  0  0  0
 45 46  1  0  0  0
 46 47  1  0  0  0
 47 48  2  0  0  0
 48 49  1  0  0  0
 49 50  1  0  0  0
 50 51  1  0  0  0
 51 52  1  0  0  0
 52 53  1  0  0  0
 53 54  1  0  0  0
 54 55  1  0  0  0
 55 56  1  0  0  0
M  CHG 1  26  -1
M  END
> <minimizedAffinity>
-8.94718

> <CNNscore>
0.6080715656

> <CNNaffinity>
7.7028708458

> <CNN_VS>
4.6838965416

> <CNNaffinity_variance>
0.7162058353

$$$$
/media/chris/experiments/cd1a-new-docking/inputs/ligands/7sh4_ligand.pdb


 56 55  0  0  0  0  0  0  0  0999 V2000
  -37.1472   61.1381   63.8414 C   0  0  0  0  0  0  0  0  0  0  0  0
  -36.3261   59.9340   64.2071 C   0  0  0  0  0  0  0  0  0  0  0  0
  -35.8638   59.4277   62.9370 O   0  0  0  0  0  0  0  0  0  0  0  0
  -36.0674   57.2693   63.4841 O   0  0  0  0  0  0  0  0  0  0  0  0
  -35.4959   58.1468   62.8951 C   0  0  0  0  0  0  0  0  0  0  0  0
  -34.3672   57.9379   61.9269 C   0  0  0  0  0  0  0  0  0  0  0  0
  -34.0569   56.4783   61.6411 C   0  0  0  0  0  0  0  0  0  0  0  0
  -33.5008   56.2586   60.2501 C   0  0  0  0  0  0  0  0  0  0  0  0
  -34.5413   56.2978   59.1539 C   0  0  0  0  0  0  0  0  0  0  0  0
  -35.8344   55.6080   59.5382 C   0  0  0  0  0  0  0  0  0  0  0  0
  -37.0425   56.5056   59.4265 C   0  0  0  0  0  0  0  0  0  0  0  0
  -36.7305   57.8360   58.7938 C   0  0  0  0  0  0  0  0  0  0  0  0
  -37.9326   58.7483   58.6906 C   0  0  0  0  0  0  0  0  0  0  0  0
  -38.4476   59.1936   60.0444 C   0  0  0  0  0  0  0  0  0  0  0  0
  -39.7835   59.9049   59.9941 C   0  0  0  0  0  0  0  0  0  0  0  0
  -40.4388   59.8882   58.6178 C   0  0  0  0  0  0  0  0  0  0  0  0
  -41.9039   59.4967   58.6376 C   0  0  0  0  0  0  0  0  0  0  0  0
  -42.4583   59.1703   57.2661 C   0  0  0  0  0  0  0  0  0  0  0  0
  -43.7444   58.3566   57.3056 C   0  0  0  0  0  0  0  0  0  0  0  0
  -44.3869   58.3020   58.6800 C   0  0  0  0  0  0  0  0  0  0  0  0
  -46.7007   57.9047   57.7720 C   0  0  0  0  0  0  0  0  0  0  0  0
  -45.6459   57.4595   58.7593 C   0  0  0  0  0  0  0  0  0  0  0  0
  -36.3536   62.4157   63.9398 C   0  0  0  0  0  0  0  0  0  0  0  0
  -35.4587   62.3214   65.0705 O   0  0  0  0  0  0  0  0  0  0  0  0
  -35.4651   63.3784   66.2724 P   0  0  0  0  0  0  0  0  0  0  0  0
  -36.8583   63.8294   66.4780 O   0  0  0  0  0  0  0  0  0  0  0  0
  -34.7334   62.7817   67.4157 O   0  0  0  0  0  0  0  0  0  0  0  0
  -35.2295   62.0204   67.7553 H   0  0  0  0  0  0  0  0  0  0  0  0
  -34.6189   64.6228   65.7451 O   0  0  0  0  0  0  0  0  0  0  0  0
  -33.4128   64.4052   64.9849 C   0  0  0  0  0  0  0  0  0  0  0  0
  -31.0328   64.6689   65.0761 O   0  0  0  0  0  0  0  0  0  0  0  0
  -32.2329   64.7818   65.8468 C   0  0  0  0  0  0  0  0  0  0  0  0
  -30.9630   63.7709   64.7161 H   0  0  0  0  0  0  0  0  0  0  0  0
  -32.6890   66.1258   67.7973 O   0  0  0  0  0  0  0  0  0  0  0  0
  -32.3577   66.1750   66.4154 C   0  0  0  0  0  0  0  0  0  0  0  0
  -32.7648   67.0285   68.1439 H   0  0  0  0  0  0  0  0  0  0  0  0
  -38.3318   61.1684   64.7048 O   0  0  0  0  0  0  0  0  0  0  0  0
  -40.0038   60.4479   63.3836 O   0  0  0  0  0  0  0  0  0  0  0  0
  -39.3444   60.3412   64.3813 C   0  0  0  0  0  0  0  0  0  0  0  0
  -39.5367   59.2642   65.4037 C   0  0  0  0  0  0  0  0  0  0  0  0
  -40.9747   58.7557   65.4161 C   0  0  0  0  0  0  0  0  0  0  0  0
  -41.8709   59.4657   66.4176 C   0  0  0  0  0  0  0  0  0  0  0  0
  -43.2495   58.8308   66.5593 C   0  0  0  0  0  0  0  0  0  0  0  0
  -43.2219   57.3197   66.6948 C   0  0  0  0  0  0  0  0  0  0  0  0
  -43.8912   56.5648   65.5426 C   0  0  0  0  0  0  0  0  0  0  0  0
  -45.3129   57.0188   65.2051 C   0  0  0  0  0  0  0  0  0  0  0  0
  -46.2520   56.8406   66.3602 C   0  0  0  0  0  0  0  0  0  0  0  0
  -47.4517   57.3730   66.4890 C   0  0  0  0  0  0  0  0  0  0  0  0
  -48.1298   58.2701   65.5021 C   0  0  0  0  0  0  0  0  0  0  0  0
  -49.5604   58.6092   65.9105 C   0  0  0  0  0  0  0  0  0  0  0  0
  -50.5636   58.4849   64.7771 C   0  0  0  0  0  0  0  0  0  0  0  0
  -50.5425   59.6581   63.8126 C   0  0  0  0  0  0  0  0  0  0  0  0
  -50.8546   59.2935   62.3707 C   0  0  0  0  0  0  0  0  0  0  0  0
  -50.4814   57.8628   62.0134 C   0  0  0  0  0  0  0  0  0  0  0  0
  -49.6020   57.7375   60.7851 C   0  0  0  0  0  0  0  0  0  0  0  0
  -49.6044   56.3497   60.2075 C   0  0  0  0  0  0  0  0  0  0  0  0
 21 22  1  0  0  0
  4  5  2  0  0  0
 25 24  1  0  0  0
 25 26  2  0  0  0
 25 27  1  0  0  0
 25 29  1  0  0  0
 22 20  1  0  0  0
  3  5  1  0  0  0
  3  2  1  0  0  0
 20 19  1  0  0  0
 24 23  1  0  0  0
 19 18  1  0  0  0
 18 17  1  0  0  0
 27 28  1  0  0  0
 17 16  1  0  0  0
 29 30  1  0  0  0
 16 15  1  0  0  0
 34 35  1  0  0  0
 34 36  1  0  0  0
 15 14  1  0  0  0
 31 32  1  0  0  0
 31 33  1  0  0  0
 14 13  1  0  0  0
 37  1  1  0  0  0
 37 39  1  0  0  0
 13 12  1  0  0  0
 38 39  2  0  0  0
 12 11  1  0  0  0
 11 10  1  0  0  0
 10  9  1  0  0  0
  9  8  1  0  0  0
  8  7  1  0  0  0
  7  6  1  0  0  0
  6  5  1  0  0  0
  2  1  1  0  0  0
  1 23  1  0  0  0
 30 32  1  0  0  0
 32 35  1  0  0  0
 39 40  1  0  0  0
 40 41  1  0  0  0
 41 42  1  0  0  0
 42 43  1  0  0  0
 43 44  1  0  0  0
 44 45  1  0  0  0
 45 46  1  0  0  0
 46 47  1  0  0  0
 47 48  2  0  0  0
 48 49  1  0  0  0
 49 50  1  0  0  0
 50 51  1  0  0  0
 51 52  1  0  0  0
 52 53  1  0  0  0
 53 54  1  0  0  0
 54 55  1  0  0  0
 55 56  1  0  0  0
M  CHG 1  26  -1
M  END
> <minimizedAffinity>
-8.11084

> <CNNscore>
0.5531284809

> <CNNaffinity>
7.4525976181

> <CNN_VS>
4.1222438812

> <CNNaffinity_variance>
0.6245053411

$$$$
/media/chris/experiments/cd1a-new-docking/inputs/ligands/7sh4_ligand.pdb


 56 55  0  0  0  0  0  0  0  0999 V2000
  -38.6861   60.5214   63.9026 C   0  0  0  0  0  0  0  0  0  0  0  0
  -38.0526   60.2408   65.2358 C   0  0  0  0  0  0  0  0  0  0  0  0
  -37.1538   59.1430   64.9712 O   0  0  0  0  0  0  0  0  0  0  0  0
  -38.5864   57.5051   65.4851 O   0  0  0  0  0  0  0  0  0  0  0  0
  -37.7034   57.9408   64.7966 C   0  0  0  0  0  0  0  0  0  0  0  0
  -37.1642   57.2713   63.5654 C   0  0  0  0  0  0  0  0  0  0  0  0
  -38.1580   57.1871   62.4192 C   0  0  0  0  0  0  0  0  0  0  0  0
  -37.7017   57.9454   61.1907 C   0  0  0  0  0  0  0  0  0  0  0  0
  -38.7593   58.8422   60.5882 C   0  0  0  0  0  0  0  0  0  0  0  0
  -38.4895   59.1861   59.1374 C   0  0  0  0  0  0  0  0  0  0  0  0
  -37.1313   58.7313   58.6618 C   0  0  0  0  0  0  0  0  0  0  0  0
  -37.2049   57.6275   57.6401 C   0  0  0  0  0  0  0  0  0  0  0  0
  -36.5334   56.3485   58.0887 C   0  0  0  0  0  0  0  0  0  0  0  0
  -35.0704   56.5445   58.4314 C   0  0  0  0  0  0  0  0  0  0  0  0
  -34.5377   55.5611   59.4523 C   0  0  0  0  0  0  0  0  0  0  0  0
  -33.6237   56.1918   60.4968 C   0  0  0  0  0  0  0  0  0  0  0  0
  -34.2195   57.4050   61.1848 C   0  0  0  0  0  0  0  0  0  0  0  0
  -33.8801   57.4882   62.6589 C   0  0  0  0  0  0  0  0  0  0  0  0
  -32.7114   58.4147   62.9647 C   0  0  0  0  0  0  0  0  0  0  0  0
  -32.1342   59.0912   61.7341 C   0  0  0  0  0  0  0  0  0  0  0  0
  -31.2859   61.4497   61.9647 C   0  0  0  0  0  0  0  0  0  0  0  0
  -30.9345   59.9798   62.0022 C   0  0  0  0  0  0  0  0  0  0  0  0
  -37.8554   61.4622   63.0679 C   0  0  0  0  0  0  0  0  0  0  0  0
  -36.9930   62.2226   63.9433 O   0  0  0  0  0  0  0  0  0  0  0  0
  -35.7289   63.0485   63.4125 P   0  0  0  0  0  0  0  0  0  0  0  0
  -34.6605   62.0835   63.0748 O   0  0  0  0  0  0  0  0  0  0  0  0
  -36.1979   63.9874   62.3650 O   0  0  0  0  0  0  0  0  0  0  0  0
  -36.5045   63.4848   61.5941 H   0  0  0  0  0  0  0  0  0  0  0  0
  -35.2348   63.9119   64.6587 O   0  0  0  0  0  0  0  0  0  0  0  0
  -36.0547   64.0067   65.8414 C   0  0  0  0  0  0  0  0  0  0  0  0
  -36.1741   62.5950   67.7740 O   0  0  0  0  0  0  0  0  0  0  0  0
  -35.2911   63.4110   66.9985 C   0  0  0  0  0  0  0  0  0  0  0  0
  -36.9356   63.1235   68.0595 H   0  0  0  0  0  0  0  0  0  0  0  0
  -33.0169   63.4574   66.1957 O   0  0  0  0  0  0  0  0  0  0  0  0
  -34.0985   62.6033   66.5453 C   0  0  0  0  0  0  0  0  0  0  0  0
  -32.2616   62.9212   65.9076 H   0  0  0  0  0  0  0  0  0  0  0  0
  -40.0342   61.0494   64.1341 O   0  0  0  0  0  0  0  0  0  0  0  0
  -40.7425   60.8660   66.2613 O   0  0  0  0  0  0  0  0  0  0  0  0
  -40.7505   60.4821   65.1236 C   0  0  0  0  0  0  0  0  0  0  0  0
  -41.5703   59.3294   64.6323 C   0  0  0  0  0  0  0  0  0  0  0  0
  -41.8545   58.3297   65.7487 C   0  0  0  0  0  0  0  0  0  0  0  0
  -43.3312   58.0275   65.9442 C   0  0  0  0  0  0  0  0  0  0  0  0
  -44.2539   59.0011   65.2198 C   0  0  0  0  0  0  0  0  0  0  0  0
  -45.6673   59.0371   65.7704 C   0  0  0  0  0  0  0  0  0  0  0  0
  -46.7622   58.7780   64.7315 C   0  0  0  0  0  0  0  0  0  0  0  0
  -47.7912   57.7145   65.1209 C   0  0  0  0  0  0  0  0  0  0  0  0
  -48.8992   58.2803   65.9576 C   0  0  0  0  0  0  0  0  0  0  0  0
  -50.1110   58.6007   65.5473 C   0  0  0  0  0  0  0  0  0  0  0  0
  -50.6356   58.4639   64.1528 C   0  0  0  0  0  0  0  0  0  0  0  0
  -50.5048   59.7561   63.3520 C   0  0  0  0  0  0  0  0  0  0  0  0
  -49.9246   59.5563   61.9628 C   0  0  0  0  0  0  0  0  0  0  0  0
  -49.6132   58.1063   61.6348 C   0  0  0  0  0  0  0  0  0  0  0  0
  -50.5123   57.4936   60.5737 C   0  0  0  0  0  0  0  0  0  0  0  0
  -49.8004   57.2287   59.2560 C   0  0  0  0  0  0  0  0  0  0  0  0
  -48.2968   57.0819   59.3797 C   0  0  0  0  0  0  0  0  0  0  0  0
  -47.7938   55.7731   58.8377 C   0  0  0  0  0  0  0  0  0  0  0  0
 21 22  1  0  0  0
  4  5  2  0  0  0
 25 24  1  0  0  0
 25 26  2  0  0  0
 25 27  1  0  0  0
 25 29  1  0  0  0
 22 20  1  0  0  0
  3  5  1  0  0  0
  3  2  1  0  0  0
 20 19  1  0  0  0
 24 23  1  0  0  0
 19 18  1  0  0  0
 18 17  1  0  0  0
 27 28  1  0  0  0
 17 16  1  0  0  0
 29 30  1  0  0  0
 16 15  1  0  0  0
 34 35  1  0  0  0
 34 36  1  0  0  0
 15 14  1  0  0  0
 31 32  1  0  0  0
 31 33  1  0  0  0
 14 13  1  0  0  0
 37  1  1  0  0  0
 37 39  1  0  0  0
 13 12  1  0  0  0
 38 39  2  0  0  0
 12 11  1  0  0  0
 11 10  1  0  0  0
 10  9  1  0  0  0
  9  8  1  0  0  0
  8  7  1  0  0  0
  7  6  1  0  0  0
  6  5  1  0  0  0
  2  1  1  0  0  0
  1 23  1  0  0  0
 30 32  1  0  0  0
 32 35  1  0  0  0
 39 40  1  0  0  0
 40 41  1  0  0  0
 41 42  1  0  0  0
 42 43  1  0  0  0
 43 44  1  0  0  0
 44 45  1  0  0  0
 45 46  1  0  0  0
 46 47  1  0  0  0
 47 48  2  0  0  0
 48 49  1  0  0  0
 49 50  1  0  0  0
 50 51  1  0  0  0
 51 52  1  0  0  0
 52 53  1  0  0  0
 53 54  1  0  0  0
 54 55  1  0  0  0
 55 56  1  0  0  0
M  CHG 1  26  -1
M  END
> <minimizedAffinity>
-8.85001

> <CNNscore>
0.5410873294

> <CNNaffinity>
7.5085420609

> <CNN_VS>
4.0627770424

> <CNNaffinity_variance>
0.7293891311

$$$$
/media/chris/experiments/cd1a-new-docking/inputs/ligands/7sh4_ligand.pdb


 56 55  0  0  0  0  0  0  0  0999 V2000
  -39.0017   58.9470   65.5220 C   0  0  0  0  0  0  0  0  0  0  0  0
  -40.1557   59.9090   65.4944 C   0  0  0  0  0  0  0  0  0  0  0  0
  -41.3194   59.0569   65.4424 O   0  0  0  0  0  0  0  0  0  0  0  0
  -42.2992   59.9209   67.2570 O   0  0  0  0  0  0  0  0  0  0  0  0
  -42.3771   59.4343   66.1612 C   0  0  0  0  0  0  0  0  0  0  0  0
  -43.6479   59.2876   65.3749 C   0  0  0  0  0  0  0  0  0  0  0  0
  -44.7228   58.4763   66.0783 C   0  0  0  0  0  0  0  0  0  0  0  0
  -45.4664   57.5498   65.1396 C   0  0  0  0  0  0  0  0  0  0  0  0
  -46.2913   56.4924   65.8377 C   0  0  0  0  0  0  0  0  0  0  0  0
  -47.7023   56.9494   66.1478 C   0  0  0  0  0  0  0  0  0  0  0  0
  -48.3167   57.7723   65.0420 C   0  0  0  0  0  0  0  0  0  0  0  0
  -49.3298   58.7676   65.5426 C   0  0  0  0  0  0  0  0  0  0  0  0
  -50.5287   58.9137   64.6318 C   0  0  0  0  0  0  0  0  0  0  0  0
  -50.2987   59.9142   63.5173 C   0  0  0  0  0  0  0  0  0  0  0  0
  -50.6387   59.3913   62.1374 C   0  0  0  0  0  0  0  0  0  0  0  0
  -51.1776   57.9653   62.1345 C   0  0  0  0  0  0  0  0  0  0  0  0
  -50.8410   57.1819   60.8803 C   0  0  0  0  0  0  0  0  0  0  0  0
  -49.9268   57.9292   59.9310 C   0  0  0  0  0  0  0  0  0  0  0  0
  -48.9873   57.0225   59.1482 C   0  0  0  0  0  0  0  0  0  0  0  0
  -47.6037   57.6129   58.9433 C   0  0  0  0  0  0  0  0  0  0  0  0
  -47.5883   56.7442   56.5809 C   0  0  0  0  0  0  0  0  0  0  0  0
  -46.7885   56.9545   57.8465 C   0  0  0  0  0  0  0  0  0  0  0  0
  -37.6871   59.6318   65.2490 C   0  0  0  0  0  0  0  0  0  0  0  0
  -37.9506   60.9526   64.7251 O   0  0  0  0  0  0  0  0  0  0  0  0
  -36.8584   61.7994   63.9177 P   0  0  0  0  0  0  0  0  0  0  0  0
  -36.6439   61.1417   62.6107 O   0  0  0  0  0  0  0  0  0  0  0  0
  -37.2703   63.2237   63.9394 O   0  0  0  0  0  0  0  0  0  0  0  0
  -38.0895   63.3312   63.4312 H   0  0  0  0  0  0  0  0  0  0  0  0
  -35.5120   61.6659   64.7615 O   0  0  0  0  0  0  0  0  0  0  0  0
  -34.5557   62.7454   64.7699 C   0  0  0  0  0  0  0  0  0  0  0  0
  -34.0524   64.5860   66.2195 O   0  0  0  0  0  0  0  0  0  0  0  0
  -34.3489   63.1865   66.1981 C   0  0  0  0  0  0  0  0  0  0  0  0
  -33.2819   64.7618   65.6573 H   0  0  0  0  0  0  0  0  0  0  0  0
  -36.6153   63.7834   66.7687 O   0  0  0  0  0  0  0  0  0  0  0  0
  -35.5471   62.8944   67.0692 C   0  0  0  0  0  0  0  0  0  0  0  0
  -37.3745   63.5806   67.3374 H   0  0  0  0  0  0  0  0  0  0  0  0
  -39.2677   57.8793   64.5529 O   0  0  0  0  0  0  0  0  0  0  0  0
  -39.4606   59.0873   62.6652 O   0  0  0  0  0  0  0  0  0  0  0  0
  -39.0048   58.1490   63.2598 C   0  0  0  0  0  0  0  0  0  0  0  0
  -38.0637   57.1511   62.6592 C   0  0  0  0  0  0  0  0  0  0  0  0
  -36.6175   57.6297   62.7369 C   0  0  0  0  0  0  0  0  0  0  0  0
  -35.8453   57.0686   63.9197 C   0  0  0  0  0  0  0  0  0  0  0  0
  -34.6688   57.9384   64.3477 C   0  0  0  0  0  0  0  0  0  0  0  0
  -34.3238   59.0384   63.3612 C   0  0  0  0  0  0  0  0  0  0  0  0
  -32.8400   59.1191   62.9907 C   0  0  0  0  0  0  0  0  0  0  0  0
  -32.4422   58.3569   61.7249 C   0  0  0  0  0  0  0  0  0  0  0  0
  -32.2378   56.8949   61.9866 C   0  0  0  0  0  0  0  0  0  0  0  0
  -33.0138   55.9070   61.5851 C   0  0  0  0  0  0  0  0  0  0  0  0
  -34.2667   56.0409   60.7784 C   0  0  0  0  0  0  0  0  0  0  0  0
  -34.0642   55.6461   59.3184 C   0  0  0  0  0  0  0  0  0  0  0  0
  -33.9050   56.8317   58.3828 C   0  0  0  0  0  0  0  0  0  0  0  0
  -35.2107   57.2994   57.7634 C   0  0  0  0  0  0  0  0  0  0  0  0
  -36.4273   56.4831   58.1672 C   0  0  0  0  0  0  0  0  0  0  0  0
  -37.4364   57.2675   58.9918 C   0  0  0  0  0  0  0  0  0  0  0  0
  -37.2581   58.7714   58.9269 C   0  0  0  0  0  0  0  0  0  0  0  0
  -38.4670   59.5216   59.4121 C   0  0  0  0  0  0  0  0  0  0  0  0
 21 22  1  0  0  0
  4  5  2  0  0  0
 25 24  1  0  0  0
 25 26  2  0  0  0
 25 27  1  0  0  0
 25 29  1  0  0  0
 22 20  1  0  0  0
  3  5  1  0  0  0
  3  2  1  0  0  0
 20 19  1  0  0  0
 24 23  1  0  0  0
 19 18  1  0  0  0
 18 17  1  0  0  0
 27 28  1  0  0  0
 17 16  1  0  0  0
 29 30  1  0  0  0
 16 15  1  0  0  0
 34 35  1  0  0  0
 34 36  1  0  0  0
 15 14  1  0  0  0
 31 32  1  0  0  0
 31 33  1  0  0  0
 14 13  1  0  0  0
 37  1  1  0  0  0
 37 39  1  0  0  0
 13 12  1  0  0  0
 38 39  2  0  0  0
 12 11  1  0  0  0
 11 10  1  0  0  0
 10  9  1  0  0  0
  9  8  1  0  0  0
  8  7  1  0  0  0
  7  6  1  0  0  0
  6  5  1  0  0  0
  2  1  1  0  0  0
  1 23  1  0  0  0
 30 32  1  0  0  0
 32 35  1  0  0  0
 39 40  1  0  0  0
 40 41  1  0  0  0
 41 42  1  0  0  0
 42 43  1  0  0  0
 43 44  1  0  0  0
 44 45  1  0  0  0
 45 46  1  0  0  0
 46 47  1  0  0  0
 47 48  2  0  0  0
 48 49  1  0  0  0
 49 50  1  0  0  0
 50 51  1  0  0  0
 51 52  1  0  0  0
 52 53  1  0  0  0
 53 54  1  0  0  0
 54 55  1  0  0  0
 55 56  1  0  0  0
M  CHG 1  26  -1
M  END
> <minimizedAffinity>
-8.36180

> <CNNscore>
0.4934248924

> <CNNaffinity>
7.3595237732

> <CNN_VS>
3.6313722134

> <CNNaffinity_variance>
0.4533995688

$$$$
/media/chris/experiments/cd1a-new-docking/inputs/ligands/7sh4_ligand.pdb


 56 55  0  0  0  0  0  0  0  0999 V2000
  -39.9032   61.0310   63.3624 C   0  0  0  0  0  0  0  0  0  0  0  0
  -40.3055   60.3175   62.1027 C   0  0  0  0  0  0  0  0  0  0  0  0
  -39.3754   60.8055   61.1128 O   0  0  0  0  0  0  0  0  0  0  0  0
  -40.2627   60.0053   59.2229 O   0  0  0  0  0  0  0  0  0  0  0  0
  -39.3213   60.1437   59.9566 C   0  0  0  0  0  0  0  0  0  0  0  0
  -37.9174   59.7128   59.6432 C   0  0  0  0  0  0  0  0  0  0  0  0
  -37.3408   58.7113   60.6296 C   0  0  0  0  0  0  0  0  0  0  0  0
  -38.3449   57.6596   61.0517 C   0  0  0  0  0  0  0  0  0  0  0  0
  -38.0660   57.0445   62.4044 C   0  0  0  0  0  0  0  0  0  0  0  0
  -36.5946   57.0489   62.7662 C   0  0  0  0  0  0  0  0  0  0  0  0
  -36.3473   57.2120   64.2460 C   0  0  0  0  0  0  0  0  0  0  0  0
  -35.5676   58.4567   64.5786 C   0  0  0  0  0  0  0  0  0  0  0  0
  -34.0734   58.2919   64.4105 C   0  0  0  0  0  0  0  0  0  0  0  0
  -33.5033   59.1886   63.3302 C   0  0  0  0  0  0  0  0  0  0  0  0
  -32.6012   58.4739   62.3461 C   0  0  0  0  0  0  0  0  0  0  0  0
  -33.3448   57.8450   61.1733 C   0  0  0  0  0  0  0  0  0  0  0  0
  -33.4625   56.3353   61.2567 C   0  0  0  0  0  0  0  0  0  0  0  0
  -34.2648   55.7306   60.1227 C   0  0  0  0  0  0  0  0  0  0  0  0
  -33.8303   56.2098   58.7445 C   0  0  0  0  0  0  0  0  0  0  0  0
  -34.9103   56.9723   57.9980 C   0  0  0  0  0  0  0  0  0  0  0  0
  -37.3421   57.1982   57.3888 C   0  0  0  0  0  0  0  0  0  0  0  0
  -36.2926   56.3523   58.0734 C   0  0  0  0  0  0  0  0  0  0  0  0
  -38.5825   60.5375   63.8955 C   0  0  0  0  0  0  0  0  0  0  0  0
  -37.8537   61.6588   64.4429 O   0  0  0  0  0  0  0  0  0  0  0  0
  -36.5660   62.2878   63.7301 P   0  0  0  0  0  0  0  0  0  0  0  0
  -36.3505   61.5681   62.4563 O   0  0  0  0  0  0  0  0  0  0  0  0
  -36.7304   63.7611   63.6968 O   0  0  0  0  0  0  0  0  0  0  0  0
  -37.4709   63.9908   63.1139 H   0  0  0  0  0  0  0  0  0  0  0  0
  -35.3425   61.9531   64.6963 O   0  0  0  0  0  0  0  0  0  0  0  0
  -35.5805   61.6683   66.0899 C   0  0  0  0  0  0  0  0  0  0  0  0
  -36.2762   62.7005   68.1376 O   0  0  0  0  0  0  0  0  0  0  0  0
  -35.8281   62.9730   66.8064 C   0  0  0  0  0  0  0  0  0  0  0  0
  -37.0639   62.1355   68.1042 H   0  0  0  0  0  0  0  0  0  0  0  0
  -33.4412   63.1100   66.4862 O   0  0  0  0  0  0  0  0  0  0  0  0
  -34.6012   63.8525   66.8395 C   0  0  0  0  0  0  0  0  0  0  0  0
  -32.6648   63.6909   66.5132 H   0  0  0  0  0  0  0  0  0  0  0  0
  -40.9782   60.8713   64.3466 O   0  0  0  0  0  0  0  0  0  0  0  0
  -40.2464   60.5624   66.4512 O   0  0  0  0  0  0  0  0  0  0  0  0
  -40.7056   60.1227   65.4326 C   0  0  0  0  0  0  0  0  0  0  0  0
  -41.0602   58.6829   65.2242 C   0  0  0  0  0  0  0  0  0  0  0  0
  -42.1222   58.2196   66.2163 C   0  0  0  0  0  0  0  0  0  0  0  0
  -43.3674   59.0908   66.2376 C   0  0  0  0  0  0  0  0  0  0  0  0
  -44.2763   58.8849   65.0312 C   0  0  0  0  0  0  0  0  0  0  0  0
  -45.6529   58.3505   65.3799 C   0  0  0  0  0  0  0  0  0  0  0  0
  -46.7992   59.3362   65.1358 C   0  0  0  0  0  0  0  0  0  0  0  0
  -48.0559   58.7311   64.5064 C   0  0  0  0  0  0  0  0  0  0  0  0
  -48.7144   59.6724   63.5429 C   0  0  0  0  0  0  0  0  0  0  0  0
  -49.8021   59.4401   62.8341 C   0  0  0  0  0  0  0  0  0  0  0  0
  -50.6109   58.1815   62.8454 C   0  0  0  0  0  0  0  0  0  0  0  0
  -50.7492   57.5656   61.4561 C   0  0  0  0  0  0  0  0  0  0  0  0
  -50.0266   58.3432   60.3700 C   0  0  0  0  0  0  0  0  0  0  0  0
  -49.1701   57.4744   59.4651 C   0  0  0  0  0  0  0  0  0  0  0  0
  -47.7043   57.4064   59.8608 C   0  0  0  0  0  0  0  0  0  0  0  0
  -46.7768   57.0925   58.6969 C   0  0  0  0  0  0  0  0  0  0  0  0
  -47.4927   56.7691   57.4005 C   0  0  0  0  0  0  0  0  0  0  0  0
  -47.4598   55.3035   57.0681 C   0  0  0  0  0  0  0  0  0  0  0  0
 21 22  1  0  0  0
  4  5  2  0  0  0
 25 24  1  0  0  0
 25 26  2  0  0  0
 25 27  1  0  0  0
 25 29  1  0  0  0
 22 20  1  0  0  0
  3  5  1  0  0  0
  3  2  1  0  0  0
 20 19  1  0  0  0
 24 23  1  0  0  0
 19 18  1  0  0  0
 18 17  1  0  0  0
 27 28  1  0  0  0
 17 16  1  0  0  0
 29 30  1  0  0  0
 16 15  1  0  0  0
 34 35  1  0  0  0
 34 36  1  0  0  0
 15 14  1  0  0  0
 31 32  1  0  0  0
 31 33  1  0  0  0
 14 13  1  0  0  0
 37  1  1  0  0  0
 37 39  1  0  0  0
 13 12  1  0  0  0
 38 39  2  0  0  0
 12 11  1  0  0  0
 11 10  1  0  0  0
 10  9  1  0  0  0
  9  8  1  0  0  0
  8  7  1  0  0  0
  7  6  1  0  0  0
  6  5  1  0  0  0
  2  1  1  0  0  0
  1 23  1  0  0  0
 30 32  1  0  0  0
 32 35  1  0  0  0
 39 40  1  0  0  0
 40 41  1  0  0  0
 41 42  1  0  0  0
 42 43  1  0  0  0
 43 44  1  0  0  0
 44 45  1  0  0  0
 45 46  1  0  0  0
 46 47  1  0  0  0
 47 48  2  0  0  0
 48 49  1  0  0  0
 49 50  1  0  0  0
 50 51  1  0  0  0
 51 52  1  0  0  0
 52 53  1  0  0  0
 53 54  1  0  0  0
 54 55  1  0  0  0
 55 56  1  0  0  0
M  CHG 1  26  -1
M  END
> <minimizedAffinity>
-8.76624

> <CNNscore>
0.4785677791

> <CNNaffinity>
7.7256927490

> <CNN_VS>
3.6972675323

> <CNNaffinity_variance>
0.6473398805

$$$$
/media/chris/experiments/cd1a-new-docking/inputs/ligands/7sh4_ligand.pdb


 56 55  0  0  0  0  0  0  0  0999 V2000
  -39.0739   58.5428   64.7596 C   0  0  0  0  0  0  0  0  0  0  0  0
  -40.3702   57.9056   65.1734 C   0  0  0  0  0  0  0  0  0  0  0  0
  -41.1082   58.9828   65.7884 O   0  0  0  0  0  0  0  0  0  0  0  0
  -43.0403   59.7843   64.9986 O   0  0  0  0  0  0  0  0  0  0  0  0
  -42.4331   58.9695   65.6397 C   0  0  0  0  0  0  0  0  0  0  0  0
  -43.0372   57.7461   66.2667 C   0  0  0  0  0  0  0  0  0  0  0  0
  -44.3912   57.3603   65.6957 C   0  0  0  0  0  0  0  0  0  0  0  0
  -45.5462   57.9642   66.4663 C   0  0  0  0  0  0  0  0  0  0  0  0
  -46.4524   56.9470   67.1220 C   0  0  0  0  0  0  0  0  0  0  0  0
  -47.4809   56.3687   66.1716 C   0  0  0  0  0  0  0  0  0  0  0  0
  -48.1454   57.4130   65.3081 C   0  0  0  0  0  0  0  0  0  0  0  0
  -49.4881   57.8450   65.8355 C   0  0  0  0  0  0  0  0  0  0  0  0
  -50.1085   58.9752   65.0444 C   0  0  0  0  0  0  0  0  0  0  0  0
  -49.0866   59.7645   64.2514 C   0  0  0  0  0  0  0  0  0  0  0  0
  -49.3644   59.8161   62.7636 C   0  0  0  0  0  0  0  0  0  0  0  0
  -49.9310   58.5190   62.1975 C   0  0  0  0  0  0  0  0  0  0  0  0
  -49.9695   58.4731   60.6820 C   0  0  0  0  0  0  0  0  0  0  0  0
  -49.7908   57.0787   60.1174 C   0  0  0  0  0  0  0  0  0  0  0  0
  -48.7489   56.9976   59.0103 C   0  0  0  0  0  0  0  0  0  0  0  0
  -48.0758   55.6406   58.9077 C   0  0  0  0  0  0  0  0  0  0  0  0
  -47.6300   56.4670   56.5723 C   0  0  0  0  0  0  0  0  0  0  0  0
  -47.5381   55.3012   57.5305 C   0  0  0  0  0  0  0  0  0  0  0  0
  -38.9991   59.9914   65.1687 C   0  0  0  0  0  0  0  0  0  0  0  0
  -37.6552   60.2800   65.6148 O   0  0  0  0  0  0  0  0  0  0  0  0
  -36.6144   61.1262   64.7416 P   0  0  0  0  0  0  0  0  0  0  0  0
  -35.2628   60.9053   65.2994 O   0  0  0  0  0  0  0  0  0  0  0  0
  -36.8539   60.8177   63.3112 O   0  0  0  0  0  0  0  0  0  0  0  0
  -36.6246   59.8914   63.1374 H   0  0  0  0  0  0  0  0  0  0  0  0
  -37.0023   62.6536   64.9850 O   0  0  0  0  0  0  0  0  0  0  0  0
  -36.0116   63.6867   64.8083 C   0  0  0  0  0  0  0  0  0  0  0  0
  -36.8600   64.0153   67.0252 O   0  0  0  0  0  0  0  0  0  0  0  0
  -35.7990   64.3738   66.1348 C   0  0  0  0  0  0  0  0  0  0  0  0
  -37.7121   64.2387   66.6192 H   0  0  0  0  0  0  0  0  0  0  0  0
  -34.5859   62.9227   67.6319 O   0  0  0  0  0  0  0  0  0  0  0  0
  -34.4637   64.0325   66.7515 C   0  0  0  0  0  0  0  0  0  0  0  0
  -33.7195   62.7190   68.0175 H   0  0  0  0  0  0  0  0  0  0  0  0
  -38.9221   58.3808   63.3102 O   0  0  0  0  0  0  0  0  0  0  0  0
  -37.0390   57.1849   63.5999 O   0  0  0  0  0  0  0  0  0  0  0  0
  -37.8069   57.7609   62.8786 C   0  0  0  0  0  0  0  0  0  0  0  0
  -37.6498   57.8603   61.3928 C   0  0  0  0  0  0  0  0  0  0  0  0
  -38.6161   58.8781   60.7955 C   0  0  0  0  0  0  0  0  0  0  0  0
  -38.3879   59.1512   59.3179 C   0  0  0  0  0  0  0  0  0  0  0  0
  -37.1038   58.5345   58.7751 C   0  0  0  0  0  0  0  0  0  0  0  0
  -37.3275   57.5039   57.6841 C   0  0  0  0  0  0  0  0  0  0  0  0
  -36.3336   56.3389   57.6952 C   0  0  0  0  0  0  0  0  0  0  0  0
  -35.0089   56.6194   58.4080 C   0  0  0  0  0  0  0  0  0  0  0  0
  -34.7910   55.7046   59.5758 C   0  0  0  0  0  0  0  0  0  0  0  0
  -34.2953   56.0343   60.7526 C   0  0  0  0  0  0  0  0  0  0  0  0
  -33.8459   57.3990   61.1700 C   0  0  0  0  0  0  0  0  0  0  0  0
  -32.7821   57.3528   62.2630 C   0  0  0  0  0  0  0  0  0  0  0  0
  -32.3682   58.7236   62.7690 C   0  0  0  0  0  0  0  0  0  0  0  0
  -31.6628   59.5718   61.7248 C   0  0  0  0  0  0  0  0  0  0  0  0
  -31.4136   61.0105   62.1459 C   0  0  0  0  0  0  0  0  0  0  0  0
  -32.6134   61.6616   62.8169 C   0  0  0  0  0  0  0  0  0  0  0  0
  -32.3893   63.1029   63.2294 C   0  0  0  0  0  0  0  0  0  0  0  0
  -30.9390   63.4223   63.4623 C   0  0  0  0  0  0  0  0  0  0  0  0
 21 22  1  0  0  0
  4  5  2  0  0  0
 25 24  1  0  0  0
 25 26  2  0  0  0
 25 27  1  0  0  0
 25 29  1  0  0  0
 22 20  1  0  0  0
  3  5  1  0  0  0
  3  2  1  0  0  0
 20 19  1  0  0  0
 24 23  1  0  0  0
 19 18  1  0  0  0
 18 17  1  0  0  0
 27 28  1  0  0  0
 17 16  1  0  0  0
 29 30  1  0  0  0
 16 15  1  0  0  0
 34 35  1  0  0  0
 34 36  1  0  0  0
 15 14  1  0  0  0
 31 32  1  0  0  0
 31 33  1  0  0  0
 14 13  1  0  0  0
 37  1  1  0  0  0
 37 39  1  0  0  0
 13 12  1  0  0  0
 38 39  2  0  0  0
 12 11  1  0  0  0
 11 10  1  0  0  0
 10  9  1  0  0  0
  9  8  1  0  0  0
  8  7  1  0  0  0
  7  6  1  0  0  0
  6  5  1  0  0  0
  2  1  1  0  0  0
  1 23  1  0  0  0
 30 32  1  0  0  0
 32 35  1  0  0  0
 39 40  1  0  0  0
 40 41  1  0  0  0
 41 42  1  0  0  0
 42 43  1  0  0  0
 43 44  1  0  0  0
 44 45  1  0  0  0
 45 46  1  0  0  0
 46 47  1  0  0  0
 47 48  2  0  0  0
 48 49  1  0  0  0
 49 50  1  0  0  0
 50 51  1  0  0  0
 51 52  1  0  0  0
 52 53  1  0  0  0
 53 54  1  0  0  0
 54 55  1  0  0  0
 55 56  1  0  0  0
M  CHG 1  26  -1
M  END
> <minimizedAffinity>
-8.62738

> <CNNscore>
0.4115020037

> <CNNaffinity>
7.0982198715

> <CNN_VS>
2.9209318161

> <CNNaffinity_variance>
0.8342517614

$$$$
/media/chris/experiments/cd1a-new-docking/inputs/ligands/7sh4_ligand.pdb


 56 55  0  0  0  0  0  0  0  0999 V2000
  -37.4945   60.3747   65.0625 C   0  0  0  0  0  0  0  0  0  0  0  0
  -38.4348   60.1748   66.2173 C   0  0  0  0  0  0  0  0  0  0  0  0
  -39.4786   59.3372   65.6768 O   0  0  0  0  0  0  0  0  0  0  0  0
  -41.0291   60.9182   65.9853 O   0  0  0  0  0  0  0  0  0  0  0  0
  -40.7329   59.7653   65.8223 C   0  0  0  0  0  0  0  0  0  0  0  0
  -41.7143   58.6450   65.6307 C   0  0  0  0  0  0  0  0  0  0  0  0
  -42.7840   58.5663   66.7067 C   0  0  0  0  0  0  0  0  0  0  0  0
  -44.1077   58.0526   66.1809 C   0  0  0  0  0  0  0  0  0  0  0  0
  -44.8390   59.0274   65.2859 C   0  0  0  0  0  0  0  0  0  0  0  0
  -46.3265   58.7527   65.1998 C   0  0  0  0  0  0  0  0  0  0  0  0
  -47.1081   59.3490   66.3449 C   0  0  0  0  0  0  0  0  0  0  0  0
  -48.5976   59.3006   66.1290 C   0  0  0  0  0  0  0  0  0  0  0  0
  -49.0625   58.0411   65.4323 C   0  0  0  0  0  0  0  0  0  0  0  0
  -50.1971   58.2944   64.4604 C   0  0  0  0  0  0  0  0  0  0  0  0
  -49.8160   58.1167   63.0056 C   0  0  0  0  0  0  0  0  0  0  0  0
  -50.9920   58.2317   62.0423 C   0  0  0  0  0  0  0  0  0  0  0  0
  -50.8984   57.3084   60.8428 C   0  0  0  0  0  0  0  0  0  0  0  0
  -49.4888   56.8317   60.5586 C   0  0  0  0  0  0  0  0  0  0  0  0
  -48.6360   57.8540   59.8202 C   0  0  0  0  0  0  0  0  0  0  0  0
  -47.9729   57.3030   58.5705 C   0  0  0  0  0  0  0  0  0  0  0  0
  -47.7678   55.1169   57.3399 C   0  0  0  0  0  0  0  0  0  0  0  0
  -47.5780   55.8408   58.6535 C   0  0  0  0  0  0  0  0  0  0  0  0
  -36.1449   60.8736   65.5112 C   0  0  0  0  0  0  0  0  0  0  0  0
  -36.3307   61.7930   66.6105 O   0  0  0  0  0  0  0  0  0  0  0  0
  -35.6311   63.2315   66.6659 P   0  0  0  0  0  0  0  0  0  0  0  0
  -36.6957   64.2571   66.7068 O   0  0  0  0  0  0  0  0  0  0  0  0
  -34.6196   63.2112   67.7499 O   0  0  0  0  0  0  0  0  0  0  0  0
  -35.0654   63.1216   68.6067 H   0  0  0  0  0  0  0  0  0  0  0  0
  -34.8594   63.3797   65.2785 O   0  0  0  0  0  0  0  0  0  0  0  0
  -34.5248   64.6893   64.7752 C   0  0  0  0  0  0  0  0  0  0  0  0
  -32.7999   65.8898   63.6238 O   0  0  0  0  0  0  0  0  0  0  0  0
  -33.2571   64.5776   63.9645 C   0  0  0  0  0  0  0  0  0  0  0  0
  -33.5036   66.3660   63.1561 H   0  0  0  0  0  0  0  0  0  0  0  0
  -31.8646   64.4526   65.9302 O   0  0  0  0  0  0  0  0  0  0  0  0
  -32.1729   63.8212   64.6940 C   0  0  0  0  0  0  0  0  0  0  0  0
  -31.1674   63.9532   66.3833 H   0  0  0  0  0  0  0  0  0  0  0  0
  -38.1228   61.2951   64.1097 O   0  0  0  0  0  0  0  0  0  0  0  0
  -37.1442   61.0791   62.0959 O   0  0  0  0  0  0  0  0  0  0  0  0
  -38.0987   60.9397   62.8108 C   0  0  0  0  0  0  0  0  0  0  0  0
  -39.3958   60.3343   62.3712 C   0  0  0  0  0  0  0  0  0  0  0  0
  -39.1798   59.2589   61.3113 C   0  0  0  0  0  0  0  0  0  0  0  0
  -38.6174   57.9576   61.8594 C   0  0  0  0  0  0  0  0  0  0  0  0
  -37.6099   57.2896   60.9305 C   0  0  0  0  0  0  0  0  0  0  0  0
  -36.9982   58.2278   59.9068 C   0  0  0  0  0  0  0  0  0  0  0  0
  -37.2575   57.8363   58.4492 C   0  0  0  0  0  0  0  0  0  0  0  0
  -36.3469   56.7370   57.8980 C   0  0  0  0  0  0  0  0  0  0  0  0
  -34.9098   57.1624   57.8557 C   0  0  0  0  0  0  0  0  0  0  0  0
  -33.9092   56.6240   58.5252 C   0  0  0  0  0  0  0  0  0  0  0  0
  -34.0006   55.4684   59.4711 C   0  0  0  0  0  0  0  0  0  0  0  0
  -34.1525   55.9143   60.9225 C   0  0  0  0  0  0  0  0  0  0  0  0
  -32.8339   56.2434   61.6001 C   0  0  0  0  0  0  0  0  0  0  0  0
  -32.6528   57.7221   61.8966 C   0  0  0  0  0  0  0  0  0  0  0  0
  -33.9429   58.4663   62.1987 C   0  0  0  0  0  0  0  0  0  0  0  0
  -34.0474   58.9362   63.6416 C   0  0  0  0  0  0  0  0  0  0  0  0
  -34.5104   57.8675   64.6119 C   0  0  0  0  0  0  0  0  0  0  0  0
  -35.7802   57.1937   64.1723 C   0  0  0  0  0  0  0  0  0  0  0  0
 21 22  1  0  0  0
  4  5  2  0  0  0
 25 24  1  0  0  0
 25 26  2  0  0  0
 25 27  1  0  0  0
 25 29  1  0  0  0
 22 20  1  0  0  0
  3  5  1  0  0  0
  3  2  1  0  0  0
 20 19  1  0  0  0
 24 23  1  0  0  0
 19 18  1  0  0  0
 18 17  1  0  0  0
 27 28  1  0  0  0
 17 16  1  0  0  0
 29 30  1  0  0  0
 16 15  1  0  0  0
 34 35  1  0  0  0
 34 36  1  0  0  0
 15 14  1  0  0  0
 31 32  1  0  0  0
 31 33  1  0  0  0
 14 13  1  0  0  0
 37  1  1  0  0  0
 37 39  1  0  0  0
 13 12  1  0  0  0
 38 39  2  0  0  0
 12 11  1  0  0  0
 11 10  1  0  0  0
 10  9  1  0  0  0
  9  8  1  0  0  0
  8  7  1  0  0  0
  7  6  1  0  0  0
  6  5  1  0  0  0
  2  1  1  0  0  0
  1 23  1  0  0  0
 30 32  1  0  0  0
 32 35  1  0  0  0
 39 40  1  0  0  0
 40 41  1  0  0  0
 41 42  1  0  0  0
 42 43  1  0  0  0
 43 44  1  0  0  0
 44 45  1  0  0  0
 45 46  1  0  0  0
 46 47  1  0  0  0
 47 48  2  0  0  0
 48 49  1  0  0  0
 49 50  1  0  0  0
 50 51  1  0  0  0
 51 52  1  0  0  0
 52 53  1  0  0  0
 53 54  1  0  0  0
 54 55  1  0  0  0
 55 56  1  0  0  0
M  CHG 1  26  -1
M  END
> <minimizedAffinity>
-9.22288

> <CNNscore>
0.4113257229

> <CNNaffinity>
7.2527723312

> <CNN_VS>
2.9832518101

> <CNNaffinity_variance>
0.6661645770

$$$$
/media/chris/experiments/cd1a-new-docking/inputs/ligands/7sh4_ligand.pdb


 56 55  0  0  0  0  0  0  0  0999 V2000
  -37.4000   61.0772   65.3848 C   0  0  0  0  0  0  0  0  0  0  0  0
  -38.4084   60.1093   65.9360 C   0  0  0  0  0  0  0  0  0  0  0  0
  -39.6027   60.9036   66.0976 O   0  0  0  0  0  0  0  0  0  0  0  0
  -41.0372   61.0278   64.3871 O   0  0  0  0  0  0  0  0  0  0  0  0
  -40.6814   60.5181   65.4153 C   0  0  0  0  0  0  0  0  0  0  0  0
  -41.3060   59.2992   66.0310 C   0  0  0  0  0  0  0  0  0  0  0  0
  -42.5806   58.8403   65.3431 C   0  0  0  0  0  0  0  0  0  0  0  0
  -43.4306   57.9456   66.2201 C   0  0  0  0  0  0  0  0  0  0  0  0
  -44.7496   58.5572   66.6349 C   0  0  0  0  0  0  0  0  0  0  0  0
  -45.5735   59.0440   65.4602 C   0  0  0  0  0  0  0  0  0  0  0  0
  -46.9515   59.5156   65.8558 C   0  0  0  0  0  0  0  0  0  0  0  0
  -47.8856   58.3842   66.1949 C   0  0  0  0  0  0  0  0  0  0  0  0
  -49.3132   58.6341   65.7617 C   0  0  0  0  0  0  0  0  0  0  0  0
  -49.5434   58.3229   64.2966 C   0  0  0  0  0  0  0  0  0  0  0  0
  -50.6691   59.1154   63.6659 C   0  0  0  0  0  0  0  0  0  0  0  0
  -51.1777   58.5265   62.3549 C   0  0  0  0  0  0  0  0  0  0  0  0
  -50.0950   58.3113   61.3150 C   0  0  0  0  0  0  0  0  0  0  0  0
  -50.3776   57.1506   60.3832 C   0  0  0  0  0  0  0  0  0  0  0  0
  -49.1213   56.4672   59.8613 C   0  0  0  0  0  0  0  0  0  0  0  0
  -48.1212   57.4261   59.2406 C   0  0  0  0  0  0  0  0  0  0  0  0
  -48.0617   56.4931   56.9035 C   0  0  0  0  0  0  0  0  0  0  0  0
  -47.2630   56.8258   58.1432 C   0  0  0  0  0  0  0  0  0  0  0  0
  -36.5306   60.4477   64.3267 C   0  0  0  0  0  0  0  0  0  0  0  0
  -37.3790   59.8007   63.3520 O   0  0  0  0  0  0  0  0  0  0  0  0
  -37.2653   58.2432   63.0009 P   0  0  0  0  0  0  0  0  0  0  0  0
  -36.1262   57.6846   63.7606 O   0  0  0  0  0  0  0  0  0  0  0  0
  -38.6052   57.6321   63.1740 O   0  0  0  0  0  0  0  0  0  0  0  0
  -38.8524   57.6553   64.1117 H   0  0  0  0  0  0  0  0  0  0  0  0
  -36.8971   58.1855   61.4505 O   0  0  0  0  0  0  0  0  0  0  0  0
  -37.9258   57.9250   60.4738 C   0  0  0  0  0  0  0  0  0  0  0  0
  -38.5099   58.7153   58.2883 O   0  0  0  0  0  0  0  0  0  0  0  0
  -38.0458   59.1318   59.5759 C   0  0  0  0  0  0  0  0  0  0  0  0
  -37.9114   58.0404   57.9317 H   0  0  0  0  0  0  0  0  0  0  0  0
  -39.9193   60.5974   59.1755 O   0  0  0  0  0  0  0  0  0  0  0  0
  -38.9667   60.1835   60.1465 C   0  0  0  0  0  0  0  0  0  0  0  0
  -40.5007   61.2719   59.5599 H   0  0  0  0  0  0  0  0  0  0  0  0
  -36.6037   61.5992   66.4999 O   0  0  0  0  0  0  0  0  0  0  0  0
  -36.9024   63.8249   66.6308 O   0  0  0  0  0  0  0  0  0  0  0  0
  -36.1952   62.8796   66.4117 C   0  0  0  0  0  0  0  0  0  0  0  0
  -34.7518   62.9821   66.0267 C   0  0  0  0  0  0  0  0  0  0  0  0
  -34.1822   64.3585   66.3549 C   0  0  0  0  0  0  0  0  0  0  0  0
  -33.9808   65.2481   65.1392 C   0  0  0  0  0  0  0  0  0  0  0  0
  -32.5240   65.6239   64.8933 C   0  0  0  0  0  0  0  0  0  0  0  0
  -32.1876   65.8676   63.4340 C   0  0  0  0  0  0  0  0  0  0  0  0
  -31.5291   64.6803   62.7255 C   0  0  0  0  0  0  0  0  0  0  0  0
  -32.4630   63.8476   61.8446 C   0  0  0  0  0  0  0  0  0  0  0  0
  -33.1024   62.7238   62.6036 C   0  0  0  0  0  0  0  0  0  0  0  0
  -32.6357   61.4974   62.7364 C   0  0  0  0  0  0  0  0  0  0  0  0
  -31.3621   60.9700   62.1547 C   0  0  0  0  0  0  0  0  0  0  0  0
  -31.3114   59.4449   62.1508 C   0  0  0  0  0  0  0  0  0  0  0  0
  -32.6767   58.7899   62.0370 C   0  0  0  0  0  0  0  0  0  0  0  0
  -32.6375   57.2753   62.1449 C   0  0  0  0  0  0  0  0  0  0  0  0
  -33.7973   56.5655   61.4664 C   0  0  0  0  0  0  0  0  0  0  0  0
  -33.4716   56.0787   60.0626 C   0  0  0  0  0  0  0  0  0  0  0  0
  -34.5424   56.3843   59.0341 C   0  0  0  0  0  0  0  0  0  0  0  0
  -33.9865   57.0045   57.7827 C   0  0  0  0  0  0  0  0  0  0  0  0
 21 22  1  0  0  0
  4  5  2  0  0  0
 25 24  1  0  0  0
 25 26  2  0  0  0
 25 27  1  0  0  0
 25 29  1  0  0  0
 22 20  1  0  0  0
  3  5  1  0  0  0
  3  2  1  0  0  0
 20 19  1  0  0  0
 24 23  1  0  0  0
 19 18  1  0  0  0
 18 17  1  0  0  0
 27 28  1  0  0  0
 17 16  1  0  0  0
 29 30  1  0  0  0
 16 15  1  0  0  0
 34 35  1  0  0  0
 34 36  1  0  0  0
 15 14  1  0  0  0
 31 32  1  0  0  0
 31 33  1  0  0  0
 14 13  1  0  0  0
 37  1  1  0  0  0
 37 39  1  0  0  0
 13 12  1  0  0  0
 38 39  2  0  0  0
 12 11  1  0  0  0
 11 10  1  0  0  0
 10  9  1  0  0  0
  9  8  1  0  0  0
  8  7  1  0  0  0
  7  6  1  0  0  0
  6  5  1  0  0  0
  2  1  1  0  0  0
  1 23  1  0  0  0
 30 32  1  0  0  0
 32 35  1  0  0  0
 39 40  1  0  0  0
 40 41  1  0  0  0
 41 42  1  0  0  0
 42 43  1  0  0  0
 43 44  1  0  0  0
 44 45  1  0  0  0
 45 46  1  0  0  0
 46 47  1  0  0  0
 47 48  2  0  0  0
 48 49  1  0  0  0
 49 50  1  0  0  0
 50 51  1  0  0  0
 51 52  1  0  0  0
 52 53  1  0  0  0
 53 54  1  0  0  0
 54 55  1  0  0  0
 55 56  1  0  0  0
M  CHG 1  26  -1
M  END
> <minimizedAffinity>
-8.80279

> <CNNscore>
0.3982038498

> <CNNaffinity>
6.9481215477

> <CNN_VS>
2.7667686939

> <CNNaffinity_variance>
0.5733436346

$$$$
/media/chris/experiments/cd1a-new-docking/inputs/ligands/7sh4_ligand.pdb


 56 55  0  0  0  0  0  0  0  0999 V2000
  -40.2618   58.8890   65.4508 C   0  0  0  0  0  0  0  0  0  0  0  0
  -39.8341   60.2784   65.0709 C   0  0  0  0  0  0  0  0  0  0  0  0
  -38.6914   60.5349   65.9145 O   0  0  0  0  0  0  0  0  0  0  0  0
  -37.6766   61.6135   64.2394 O   0  0  0  0  0  0  0  0  0  0  0  0
  -37.6701   61.1925   65.3647 C   0  0  0  0  0  0  0  0  0  0  0  0
  -36.5812   61.4407   66.3685 C   0  0  0  0  0  0  0  0  0  0  0  0
  -35.1764   61.3196   65.8028 C   0  0  0  0  0  0  0  0  0  0  0  0
  -34.2788   62.4684   66.2113 C   0  0  0  0  0  0  0  0  0  0  0  0
  -34.9287   63.8295   66.1072 C   0  0  0  0  0  0  0  0  0  0  0  0
  -34.3693   64.6694   64.9770 C   0  0  0  0  0  0  0  0  0  0  0  0
  -34.1180   63.8779   63.7168 C   0  0  0  0  0  0  0  0  0  0  0  0
  -32.7392   64.0943   63.1513 C   0  0  0  0  0  0  0  0  0  0  0  0
  -32.5166   63.3956   61.8282 C   0  0  0  0  0  0  0  0  0  0  0  0
  -31.1884   62.6688   61.7662 C   0  0  0  0  0  0  0  0  0  0  0  0
  -31.1159   61.4377   62.6449 C   0  0  0  0  0  0  0  0  0  0  0  0
  -31.4131   60.1366   61.9082 C   0  0  0  0  0  0  0  0  0  0  0  0
  -32.5969   59.3696   62.4652 C   0  0  0  0  0  0  0  0  0  0  0  0
  -32.6307   57.9179   62.0332 C   0  0  0  0  0  0  0  0  0  0  0  0
  -33.7768   57.5894   61.0866 C   0  0  0  0  0  0  0  0  0  0  0  0
  -33.9023   56.1087   60.7752 C   0  0  0  0  0  0  0  0  0  0  0  0
  -34.6345   56.7588   58.4563 C   0  0  0  0  0  0  0  0  0  0  0  0
  -33.8663   55.7654   59.2981 C   0  0  0  0  0  0  0  0  0  0  0  0
  -39.5680   57.8371   64.6238 C   0  0  0  0  0  0  0  0  0  0  0  0
  -39.1543   58.4279   63.3716 O   0  0  0  0  0  0  0  0  0  0  0  0
  -37.7447   58.1068   62.6848 P   0  0  0  0  0  0  0  0  0  0  0  0
  -36.6873   58.2905   63.7021 O   0  0  0  0  0  0  0  0  0  0  0  0
  -37.8534   56.7967   61.9988 O   0  0  0  0  0  0  0  0  0  0  0  0
  -37.9710   56.0952   62.6583 H   0  0  0  0  0  0  0  0  0  0  0  0
  -37.5529   59.2296   61.5690 O   0  0  0  0  0  0  0  0  0  0  0  0
  -38.6482   60.1044   61.2297 C   0  0  0  0  0  0  0  0  0  0  0  0
  -39.8949   60.7189   59.2777 O   0  0  0  0  0  0  0  0  0  0  0  0
  -39.2622   59.6194   59.9395 C   0  0  0  0  0  0  0  0  0  0  0  0
  -40.5444   61.1243   59.8731 H   0  0  0  0  0  0  0  0  0  0  0  0
  -37.1028   59.8075   58.8812 O   0  0  0  0  0  0  0  0  0  0  0  0
  -38.2469   58.9758   59.0259 C   0  0  0  0  0  0  0  0  0  0  0  0
  -36.4632   59.3779   58.2919 H   0  0  0  0  0  0  0  0  0  0  0  0
  -41.7200   58.8038   65.3229 O   0  0  0  0  0  0  0  0  0  0  0  0
  -42.5591   59.1186   67.3862 O   0  0  0  0  0  0  0  0  0  0  0  0
  -42.4078   58.4255   66.4174 C   0  0  0  0  0  0  0  0  0  0  0  0
  -42.9756   57.0474   66.2740 C   0  0  0  0  0  0  0  0  0  0  0  0
  -44.3509   57.0753   65.6151 C   0  0  0  0  0  0  0  0  0  0  0  0
  -45.5070   57.0796   66.6017 C   0  0  0  0  0  0  0  0  0  0  0  0
  -46.7308   57.8400   66.1035 C   0  0  0  0  0  0  0  0  0  0  0  0
  -47.9768   56.9843   65.9706 C   0  0  0  0  0  0  0  0  0  0  0  0
  -49.2619   57.7697   65.6931 C   0  0  0  0  0  0  0  0  0  0  0  0
  -49.0746   59.0687   64.9065 C   0  0  0  0  0  0  0  0  0  0  0  0
  -50.3838   59.6961   64.5320 C   0  0  0  0  0  0  0  0  0  0  0  0
  -51.1772   59.3320   63.5434 C   0  0  0  0  0  0  0  0  0  0  0  0
  -50.9349   58.2089   62.5851 C   0  0  0  0  0  0  0  0  0  0  0  0
  -50.2206   58.6687   61.3176 C   0  0  0  0  0  0  0  0  0  0  0  0
  -48.9938   57.8418   60.9752 C   0  0  0  0  0  0  0  0  0  0  0  0
  -49.0746   57.1634   59.6186 C   0  0  0  0  0  0  0  0  0  0  0  0
  -48.6206   55.7131   59.6117 C   0  0  0  0  0  0  0  0  0  0  0  0
  -47.6058   55.4014   58.5224 C   0  0  0  0  0  0  0  0  0  0  0  0
  -47.0612   56.6241   57.8111 C   0  0  0  0  0  0  0  0  0  0  0  0
  -47.6246   56.7910   56.4274 C   0  0  0  0  0  0  0  0  0  0  0  0
 21 22  1  0  0  0
  4  5  2  0  0  0
 25 24  1  0  0  0
 25 26  2  0  0  0
 25 27  1  0  0  0
 25 29  1  0  0  0
 22 20  1  0  0  0
  3  5  1  0  0  0
  3  2  1  0  0  0
 20 19  1  0  0  0
 24 23  1  0  0  0
 19 18  1  0  0  0
 18 17  1  0  0  0
 27 28  1  0  0  0
 17 16  1  0  0  0
 29 30  1  0  0  0
 16 15  1  0  0  0
 34 35  1  0  0  0
 34 36  1  0  0  0
 15 14  1  0  0  0
 31 32  1  0  0  0
 31 33  1  0  0  0
 14 13  1  0  0  0
 37  1  1  0  0  0
 37 39  1  0  0  0
 13 12  1  0  0  0
 38 39  2  0  0  0
 12 11  1  0  0  0
 11 10  1  0  0  0
 10  9  1  0  0  0
  9  8  1  0  0  0
  8  7  1  0  0  0
  7  6  1  0  0  0
  6  5  1  0  0  0
  2  1  1  0  0  0
  1 23  1  0  0  0
 30 32  1  0  0  0
 32 35  1  0  0  0
 39 40  1  0  0  0
 40 41  1  0  0  0
 41 42  1  0  0  0
 42 43  1  0  0  0
 43 44  1  0  0  0
 44 45  1  0  0  0
 45 46  1  0  0  0
 46 47  1  0  0  0
 47 48  2  0  0  0
 48 49  1  0  0  0
 49 50  1  0  0  0
 50 51  1  0  0  0
 51 52  1  0  0  0
 52 53  1  0  0  0
 53 54  1  0  0  0
 54 55  1  0  0  0
 55 56  1  0  0  0
M  CHG 1  26  -1
M  END
> <minimizedAffinity>
-8.38298

> <CNNscore>
0.3907652497

> <CNNaffinity>
6.9511032104

> <CNN_VS>
2.7162494659

> <CNNaffinity_variance>
0.4809518754

$$$$
