/media/chris/experiments/cd1a-new-docking/inputs/ligands/7sh4_ligand.pdb


 56 55  0  0  0  0  0  0  0  0999 V2000
  -38.5913   60.9260   63.3212 C   0  0  0  0  0  0  0  0  0  0  0  0
  -38.1227   60.3891   61.9984 C   0  0  0  0  0  0  0  0  0  0  0  0
  -39.3363   59.9577   61.3470 O   0  0  0  0  0  0  0  0  0  0  0  0
  -40.2980   60.4281   59.3840 O   0  0  0  0  0  0  0  0  0  0  0  0
  -39.3614   60.0182   60.0152 C   0  0  0  0  0  0  0  0  0  0  0  0
  -38.0345   59.6297   59.4293 C   0  0  0  0  0  0  0  0  0  0  0  0
  -37.8575   58.1338   59.2315 C   0  0  0  0  0  0  0  0  0  0  0  0
  -37.0651   57.7968   57.9860 C   0  0  0  0  0  0  0  0  0  0  0  0
  -36.5606   56.3723   57.9396 C   0  0  0  0  0  0  0  0  0  0  0  0
  -36.4749   55.7282   59.3084 C   0  0  0  0  0  0  0  0  0  0  0  0
  -35.1632   55.0227   59.5519 C   0  0  0  0  0  0  0  0  0  0  0  0
  -33.9664   55.8804   59.2364 C   0  0  0  0  0  0  0  0  0  0  0  0
  -33.6898   56.9344   60.2856 C   0  0  0  0  0  0  0  0  0  0  0  0
  -33.2820   56.3404   61.6186 C   0  0  0  0  0  0  0  0  0  0  0  0
  -32.3401   57.2128   62.4217 C   0  0  0  0  0  0  0  0  0  0  0  0
  -32.4285   58.6951   62.0766 C   0  0  0  0  0  0  0  0  0  0  0  0
  -33.3064   59.4958   63.0191 C   0  0  0  0  0  0  0  0  0  0  0  0
  -34.7596   59.0677   62.9978 C   0  0  0  0  0  0  0  0  0  0  0  0
  -35.2370   58.4637   64.3111 C   0  0  0  0  0  0  0  0  0  0  0  0
  -36.2761   57.3708   64.1351 C   0  0  0  0  0  0  0  0  0  0  0  0
  -38.2555   56.9300   62.6438 C   0  0  0  0  0  0  0  0  0  0  0  0
  -36.7667   57.1846   62.7118 C   0  0  0  0  0  0  0  0  0  0  0  0
  -37.4637   61.5295   64.1187 C   0  0  0  0  0  0  0  0  0  0  0  0
  -36.3580   61.8013   63.2288 O   0  0  0  0  0  0  0  0  0  0  0  0
  -35.5488   63.1821   63.2473 P   0  0  0  0  0  0  0  0  0  0  0  0
  -34.5976   63.1707   62.1152 O   0  0  0  0  0  0  0  0  0  0  0  0
  -36.5293   64.2904   63.3428 O   0  0  0  0  0  0  0  0  0  0  0  0
  -37.0574   64.3258   62.5299 H   0  0  0  0  0  0  0  0  0  0  0  0
  -34.7033   63.1581   64.5992 O   0  0  0  0  0  0  0  0  0  0  0  0
  -34.7236   64.2975   65.4831 C   0  0  0  0  0  0  0  0  0  0  0  0
  -36.8665   64.1749   66.5487 O   0  0  0  0  0  0  0  0  0  0  0  0
  -35.4722   63.9145   66.7360 C   0  0  0  0  0  0  0  0  0  0  0  0
  -36.9918   65.1058   66.3064 H   0  0  0  0  0  0  0  0  0  0  0  0
  -33.8712   62.1793   67.2302 O   0  0  0  0  0  0  0  0  0  0  0  0
  -35.2585   62.4685   67.1141 C   0  0  0  0  0  0  0  0  0  0  0  0
  -33.7543   61.2475   67.4732 H   0  0  0  0  0  0  0  0  0  0  0  0
  -39.2511   59.8399   64.0525 O   0  0  0  0  0  0  0  0  0  0  0  0
  -41.0340   61.1530   64.4488 O   0  0  0  0  0  0  0  0  0  0  0  0
  -40.4587   60.1081   64.5855 C   0  0  0  0  0  0  0  0  0  0  0  0
  -41.0044   58.9431   65.3517 C   0  0  0  0  0  0  0  0  0  0  0  0
  -42.0149   59.3898   66.4033 C   0  0  0  0  0  0  0  0  0  0  0  0
  -43.2644   58.5266   66.4632 C   0  0  0  0  0  0  0  0  0  0  0  0
  -44.1325   58.6227   65.2138 C   0  0  0  0  0  0  0  0  0  0  0  0
  -45.3442   59.5221   65.3720 C   0  0  0  0  0  0  0  0  0  0  0  0
  -46.3565   59.0484   66.4189 C   0  0  0  0  0  0  0  0  0  0  0  0
  -47.8038   58.9558   65.9306 C   0  0  0  0  0  0  0  0  0  0  0  0
  -48.0786   59.8971   64.7964 C   0  0  0  0  0  0  0  0  0  0  0  0
  -49.1514   59.9137   64.0295 C   0  0  0  0  0  0  0  0  0  0  0  0
  -50.3253   58.9920   64.1335 C   0  0  0  0  0  0  0  0  0  0  0  0
  -51.0524   58.8226   62.8027 C   0  0  0  0  0  0  0  0  0  0  0  0
  -50.1266   58.5289   61.6353 C   0  0  0  0  0  0  0  0  0  0  0  0
  -50.5901   57.3735   60.7651 C   0  0  0  0  0  0  0  0  0  0  0  0
  -49.8045   57.2016   59.4756 C   0  0  0  0  0  0  0  0  0  0  0  0
  -48.3896   57.7550   59.5501 C   0  0  0  0  0  0  0  0  0  0  0  0
  -47.3210   56.7989   59.0585 C   0  0  0  0  0  0  0  0  0  0  0  0
  -47.8756   55.4567   58.6705 C   0  0  0  0  0  0  0  0  0  0  0  0
 21 22  1  0  0  0
  4  5  2  0  0  0
 25 24  1  0  0  0
 25 26  2  0  0  0
 25 27  1  0  0  0
 25 29  1  0  0  0
 22 20  1  0  0  0
  3  5  1  0  0  0
  3  2  1  0  0  0
 20 19  1  0  0  0
 24 23  1  0  0  0
 19 18  1  0  0  0
 18 17  1  0  0  0
 27 28  1  0  0  0
 17 16  1  0  0  0
 29 30  1  0  0  0
 16 15  1  0  0  0
 34 35  1  0  0  0
 34 36  1  0  0  0
 15 14  1  0  0  0
 31 32  1  0  0  0
 31 33  1  0  0  0
 14 13  1  0  0  0
 37  1  1  0  0  0
 37 39  1  0  0  0
 13 12  1  0  0  0
 38 39  2  0  0  0
 12 11  1  0  0  0
 11 10  1  0  0  0
 10  9  1  0  0  0
  9  8  1  0  0  0
  8  7  1  0  0  0
  7  6  1  0  0  0
  6  5  1  0  0  0
  2  1  1  0  0  0
  1 23  1  0  0  0
 30 32  1  0  0  0
 32 35  1  0  0  0
 39 40  1  0  0  0
 40 41  1  0  0  0
 41 42  1  0  0  0
 42 43  1  0  0  0
 43 44  1  0  0  0
 44 45  1  0  0  0
 45 46  1  0  0  0
 46 47  1  0  0  0
 47 48  2  0  0  0
 48 49  1  0  0  0
 49 50  1  0  0  0
 50 51  1  0  0  0
 51 52  1  0  0  0
 52 53  1  0  0  0
 53 54  1  0  0  0
 54 55  1  0  0  0
 55 56  1  0  0  0
M  CHG 1  26  -1
M  END
> <minimizedAffinity>
-8.80158

> <CNNscore>
0.6491119266

> <CNNaffinity>
7.7250657082

> <CNN_VS>
5.0144324303

> <CNNaffinity_variance>
0.6058220863

$$$$
/media/chris/experiments/cd1a-new-docking/inputs/ligands/7sh4_ligand.pdb


 56 55  0  0  0  0  0  0  0  0999 V2000
  -37.8424   60.6520   65.4266 C   0  0  0  0  0  0  0  0  0  0  0  0
  -36.8880   60.0483   64.4355 C   0  0  0  0  0  0  0  0  0  0  0  0
  -37.0573   58.6256   64.6097 O   0  0  0  0  0  0  0  0  0  0  0  0
  -35.9945   56.6626   64.4795 O   0  0  0  0  0  0  0  0  0  0  0  0
  -36.0145   57.8516   64.3071 C   0  0  0  0  0  0  0  0  0  0  0  0
  -34.9375   58.6378   63.6167 C   0  0  0  0  0  0  0  0  0  0  0  0
  -33.5265   58.1862   63.9539 C   0  0  0  0  0  0  0  0  0  0  0  0
  -32.5363   58.4820   62.8473 C   0  0  0  0  0  0  0  0  0  0  0  0
  -32.9503   57.9605   61.4899 C   0  0  0  0  0  0  0  0  0  0  0  0
  -33.1451   56.4580   61.4658 C   0  0  0  0  0  0  0  0  0  0  0  0
  -34.5248   56.0450   61.0149 C   0  0  0  0  0  0  0  0  0  0  0  0
  -34.5248   55.3585   59.6746 C   0  0  0  0  0  0  0  0  0  0  0  0
  -33.8277   56.1535   58.5929 C   0  0  0  0  0  0  0  0  0  0  0  0
  -34.7473   57.1469   57.9120 C   0  0  0  0  0  0  0  0  0  0  0  0
  -36.1761   56.6668   57.7657 C   0  0  0  0  0  0  0  0  0  0  0  0
  -37.2139   57.7777   57.8800 C   0  0  0  0  0  0  0  0  0  0  0  0
  -37.2913   58.4093   59.2566 C   0  0  0  0  0  0  0  0  0  0  0  0
  -37.7616   57.4520   60.3326 C   0  0  0  0  0  0  0  0  0  0  0  0
  -38.3959   58.1446   61.5307 C   0  0  0  0  0  0  0  0  0  0  0  0
  -38.5717   59.6411   61.3446 C   0  0  0  0  0  0  0  0  0  0  0  0
  -40.4430   60.3136   59.8012 C   0  0  0  0  0  0  0  0  0  0  0  0
  -40.0128   60.1022   61.2351 C   0  0  0  0  0  0  0  0  0  0  0  0
  -37.1235   61.3108   66.5759 C   0  0  0  0  0  0  0  0  0  0  0  0
  -35.9889   62.0406   66.0579 O   0  0  0  0  0  0  0  0  0  0  0  0
  -35.7821   63.6090   66.3007 P   0  0  0  0  0  0  0  0  0  0  0  0
  -36.3759   64.3319   65.1555 O   0  0  0  0  0  0  0  0  0  0  0  0
  -36.2551   63.9306   67.6688 O   0  0  0  0  0  0  0  0  0  0  0  0
  -37.2148   63.7986   67.7184 H   0  0  0  0  0  0  0  0  0  0  0  0
  -34.2044   63.8381   66.2613 O   0  0  0  0  0  0  0  0  0  0  0  0
  -33.6690   65.1769   66.2898 C   0  0  0  0  0  0  0  0  0  0  0  0
  -31.2998   64.9374   66.0210 O   0  0  0  0  0  0  0  0  0  0  0  0
  -32.5109   65.2469   65.3250 C   0  0  0  0  0  0  0  0  0  0  0  0
  -31.1972   65.5393   66.7747 H   0  0  0  0  0  0  0  0  0  0  0  0
  -33.8519   64.6606   63.4076 O   0  0  0  0  0  0  0  0  0  0  0  0
  -32.6869   64.3185   64.1474 C   0  0  0  0  0  0  0  0  0  0  0  0
  -33.9478   64.0542   62.6566 H   0  0  0  0  0  0  0  0  0  0  0  0
  -38.7538   59.6006   65.8890 O   0  0  0  0  0  0  0  0  0  0  0  0
  -40.5768   60.9185   65.8724 O   0  0  0  0  0  0  0  0  0  0  0  0
  -40.0736   59.8345   65.7559 C   0  0  0  0  0  0  0  0  0  0  0  0
  -40.8336   58.5869   65.4277 C   0  0  0  0  0  0  0  0  0  0  0  0
  -42.1905   58.5597   66.1238 C   0  0  0  0  0  0  0  0  0  0  0  0
  -42.8694   57.2001   66.0979 C   0  0  0  0  0  0  0  0  0  0  0  0
  -44.3873   57.2786   65.9814 C   0  0  0  0  0  0  0  0  0  0  0  0
  -44.9069   58.6534   65.6042 C   0  0  0  0  0  0  0  0  0  0  0  0
  -46.3145   58.9657   66.1202 C   0  0  0  0  0  0  0  0  0  0  0  0
  -47.4289   58.8620   65.0768 C   0  0  0  0  0  0  0  0  0  0  0  0
  -47.9098   60.2094   64.6281 C   0  0  0  0  0  0  0  0  0  0  0  0
  -49.0063   60.4655   63.9415 C   0  0  0  0  0  0  0  0  0  0  0  0
  -50.0055   59.4586   63.4661 C   0  0  0  0  0  0  0  0  0  0  0  0
  -49.8832   59.1777   61.9713 C   0  0  0  0  0  0  0  0  0  0  0  0
  -49.5958   57.7224   61.6460 C   0  0  0  0  0  0  0  0  0  0  0  0
  -50.3531   57.2075   60.4341 C   0  0  0  0  0  0  0  0  0  0  0  0
  -49.5185   57.1015   59.1684 C   0  0  0  0  0  0  0  0  0  0  0  0
  -48.3172   56.1794   59.3106 C   0  0  0  0  0  0  0  0  0  0  0  0
  -47.8515   55.5591   58.0082 C   0  0  0  0  0  0  0  0  0  0  0  0
  -47.9399   56.5096   56.8471 C   0  0  0  0  0  0  0  0  0  0  0  0
 21 22  1  0  0  0
  4  5  2  0  0  0
 25 24  1  0  0  0
 25 26  2  0  0  0
 25 27  1  0  0  0
 25 29  1  0  0  0
 22 20  1  0  0  0
  3  5  1  0  0  0
  3  2  1  0  0  0
 20 19  1  0  0  0
 24 23  1  0  0  0
 19 18  1  0  0  0
 18 17  1  0  0  0
 27 28  1  0  0  0
 17 16  1  0  0  0
 29 30  1  0  0  0
 16 15  1  0  0  0
 34 35  1  0  0  0
 34 36  1  0  0  0
 15 14  1  0  0  0
 31 32  1  0  0  0
 31 33  1  0  0  0
 14 13  1  0  0  0
 37  1  1  0  0  0
 37 39  1  0  0  0
 13 12  1  0  0  0
 38 39  2  0  0  0
 12 11  1  0  0  0
 11 10  1  0  0  0
 10  9  1  0  0  0
  9  8  1  0  0  0
  8  7  1  0  0  0
  7  6  1  0  0  0
  6  5  1  0  0  0
  2  1  1  0  0  0
  1 23  1  0  0  0
 30 32  1  0  0  0
 32 35  1  0  0  0
 39 40  1  0  0  0
 40 41  1  0  0  0
 41 42  1  0  0  0
 42 43  1  0  0  0
 43 44  1  0  0  0
 44 45  1  0  0  0
 45 46  1  0  0  0
 46 47  1  0  0  0
 47 48  2  0  0  0
 48 49  1  0  0  0
 49 50  1  0  0  0
 50 51  1  0  0  0
 51 52  1  0  0  0
 52 53  1  0  0  0
 53 54  1  0  0  0
 54 55  1  0  0  0
 55 56  1  0  0  0
M  CHG 1  26  -1
M  END
> <minimizedAffinity>
-8.87395

> <CNNscore>
0.5814474225

> <CNNaffinity>
7.5111227036

> <CNN_VS>
4.3673229218

> <CNNaffinity_variance>
0.8043544888

$$$$
/media/chris/experiments/cd1a-new-docking/inputs/ligands/7sh4_ligand.pdb


 56 55  0  0  0  0  0  0  0  0999 V2000
  -39.4321   60.7575   63.4324 C   0  0  0  0  0  0  0  0  0  0  0  0
  -40.1118   60.4302   62.1330 C   0  0  0  0  0  0  0  0  0  0  0  0
  -39.0336   60.3951   61.1741 O   0  0  0  0  0  0  0  0  0  0  0  0
  -40.2997   60.2087   59.3406 O   0  0  0  0  0  0  0  0  0  0  0  0
  -39.3167   59.9113   59.9642 C   0  0  0  0  0  0  0  0  0  0  0  0
  -38.1954   59.0581   59.4451 C   0  0  0  0  0  0  0  0  0  0  0  0
  -37.2787   58.5126   60.5270 C   0  0  0  0  0  0  0  0  0  0  0  0
  -37.6668   57.1200   60.9770 C   0  0  0  0  0  0  0  0  0  0  0  0
  -37.9857   57.0118   62.4510 C   0  0  0  0  0  0  0  0  0  0  0  0
  -37.0775   57.8598   63.3183 C   0  0  0  0  0  0  0  0  0  0  0  0
  -36.0973   57.0450   64.1263 C   0  0  0  0  0  0  0  0  0  0  0  0
  -34.9294   57.8545   64.6247 C   0  0  0  0  0  0  0  0  0  0  0  0
  -34.7488   59.1637   63.8888 C   0  0  0  0  0  0  0  0  0  0  0  0
  -33.5164   59.1744   63.0072 C   0  0  0  0  0  0  0  0  0  0  0  0
  -32.6219   57.9648   63.1808 C   0  0  0  0  0  0  0  0  0  0  0  0
  -32.5669   57.0586   61.9560 C   0  0  0  0  0  0  0  0  0  0  0  0
  -33.8014   57.1333   61.0784 C   0  0  0  0  0  0  0  0  0  0  0  0
  -34.1265   55.8263   60.3843 C   0  0  0  0  0  0  0  0  0  0  0  0
  -34.0001   55.8925   58.8687 C   0  0  0  0  0  0  0  0  0  0  0  0
  -34.6545   57.1185   58.2573 C   0  0  0  0  0  0  0  0  0  0  0  0
  -36.6879   55.6435   58.0961 C   0  0  0  0  0  0  0  0  0  0  0  0
  -35.9633   56.8481   57.5395 C   0  0  0  0  0  0  0  0  0  0  0  0
  -37.9382   60.8804   63.2747 C   0  0  0  0  0  0  0  0  0  0  0  0
  -37.4873   62.0426   64.0056 O   0  0  0  0  0  0  0  0  0  0  0  0
  -36.2560   62.9454   63.5255 P   0  0  0  0  0  0  0  0  0  0  0  0
  -36.0326   62.6875   62.0867 O   0  0  0  0  0  0  0  0  0  0  0  0
  -36.5043   64.3383   63.9693 O   0  0  0  0  0  0  0  0  0  0  0  0
  -37.2712   64.6967   63.4957 H   0  0  0  0  0  0  0  0  0  0  0  0
  -34.9911   62.3945   64.3253 O   0  0  0  0  0  0  0  0  0  0  0  0
  -34.3464   63.2226   65.3145 C   0  0  0  0  0  0  0  0  0  0  0  0
  -33.8676   62.4267   67.5235 O   0  0  0  0  0  0  0  0  0  0  0  0
  -34.9202   62.8814   66.6678 C   0  0  0  0  0  0  0  0  0  0  0  0
  -33.4144   61.6764   67.1080 H   0  0  0  0  0  0  0  0  0  0  0  0
  -37.0068   64.0653   66.9184 O   0  0  0  0  0  0  0  0  0  0  0  0
  -35.6371   64.0504   67.2996 C   0  0  0  0  0  0  0  0  0  0  0  0
  -37.4497   64.8220   67.3334 H   0  0  0  0  0  0  0  0  0  0  0  0
  -39.7903   59.7278   64.4129 O   0  0  0  0  0  0  0  0  0  0  0  0
  -40.4896   61.0018   66.1298 O   0  0  0  0  0  0  0  0  0  0  0  0
  -40.6601   60.0806   65.3788 C   0  0  0  0  0  0  0  0  0  0  0  0
  -41.8709   59.1998   65.3917 C   0  0  0  0  0  0  0  0  0  0  0  0
  -42.4981   59.1324   66.7805 C   0  0  0  0  0  0  0  0  0  0  0  0
  -43.9797   58.7933   66.7719 C   0  0  0  0  0  0  0  0  0  0  0  0
  -44.6290   58.9321   65.3997 C   0  0  0  0  0  0  0  0  0  0  0  0
  -46.1170   59.2250   65.4480 C   0  0  0  0  0  0  0  0  0  0  0  0
  -46.9760   58.0729   65.9771 C   0  0  0  0  0  0  0  0  0  0  0  0
  -48.4270   58.0657   65.4914 C   0  0  0  0  0  0  0  0  0  0  0  0
  -48.7967   59.3421   64.7970 C   0  0  0  0  0  0  0  0  0  0  0  0
  -49.7961   59.5194   63.9549 C   0  0  0  0  0  0  0  0  0  0  0  0
  -50.7759   58.4774   63.5159 C   0  0  0  0  0  0  0  0  0  0  0  0
  -50.9626   58.4548   62.0017 C   0  0  0  0  0  0  0  0  0  0  0  0
  -49.6568   58.4369   61.2267 C   0  0  0  0  0  0  0  0  0  0  0  0
  -49.7513   57.7235   59.8890 C   0  0  0  0  0  0  0  0  0  0  0  0
  -49.2538   56.2876   59.9046 C   0  0  0  0  0  0  0  0  0  0  0  0
  -47.9457   56.0917   59.1535 C   0  0  0  0  0  0  0  0  0  0  0  0
  -47.7752   57.0020   57.9534 C   0  0  0  0  0  0  0  0  0  0  0  0
  -46.4965   57.7908   57.9990 C   0  0  0  0  0  0  0  0  0  0  0  0
 21 22  1  0  0  0
  4  5  2  0  0  0
 25 24  1  0  0  0
 25 26  2  0  0  0
 25 27  1  0  0  0
 25 29  1  0  0  0
 22 20  1  0  0  0
  3  5  1  0  0  0
  3  2  1  0  0  0
 20 19  1  0  0  0
 24 23  1  0  0  0
 19 18  1  0  0  0
 18 17  1  0  0  0
 27 28  1  0  0  0
 17 16  1  0  0  0
 29 30  1  0  0  0
 16 15  1  0  0  0
 34 35  1  0  0  0
 34 36  1  0  0  0
 15 14  1  0  0  0
 31 32  1  0  0  0
 31 33  1  0  0  0
 14 13  1  0  0  0
 37  1  1  0  0  0
 37 39  1  0  0  0
 13 12  1  0  0  0
 38 39  2  0  0  0
 12 11  1  0  0  0
 11 10  1  0  0  0
 10  9  1  0  0  0
  9  8  1  0  0  0
  8  7  1  0  0  0
  7  6  1  0  0  0
  6  5  1  0  0  0
  2  1  1  0  0  0
  1 23  1  0  0  0
 30 32  1  0  0  0
 32 35  1  0  0  0
 39 40  1  0  0  0
 40 41  1  0  0  0
 41 42  1  0  0  0
 42 43  1  0  0  0
 43 44  1  0  0  0
 44 45  1  0  0  0
 45 46  1  0  0  0
 46 47  1  0  0  0
 47 48  2  0  0  0
 48 49  1  0  0  0
 49 50  1  0  0  0
 50 51  1  0  0  0
 51 52  1  0  0  0
 52 53  1  0  0  0
 53 54  1  0  0  0
 54 55  1  0  0  0
 55 56  1  0  0  0
M  CHG 1  26  -1
M  END
> <minimizedAffinity>
-8.97753

> <CNNscore>
0.5704774261

> <CNNaffinity>
7.7832212448

> <CNN_VS>
4.4401521683

> <CNNaffinity_variance>
0.8876274228

$$$$
/media/chris/experiments/cd1a-new-docking/inputs/ligands/7sh4_ligand.pdb


 56 55  0  0  0  0  0  0  0  0999 V2000
  -37.9562   60.0771   61.2032 C   0  0  0  0  0  0  0  0  0  0  0  0
  -37.7208   58.6018   61.3640 C   0  0  0  0  0  0  0  0  0  0  0  0
  -36.4532   58.3773   60.7114 O   0  0  0  0  0  0  0  0  0  0  0  0
  -37.0831   56.3488   60.0128 O   0  0  0  0  0  0  0  0  0  0  0  0
  -36.2180   57.1464   60.2557 C   0  0  0  0  0  0  0  0  0  0  0  0
  -34.7574   56.9425   59.9729 C   0  0  0  0  0  0  0  0  0  0  0  0
  -34.1221   55.8164   60.7708 C   0  0  0  0  0  0  0  0  0  0  0  0
  -32.9774   56.2888   61.6421 C   0  0  0  0  0  0  0  0  0  0  0  0
  -32.7777   57.7875   61.6436 C   0  0  0  0  0  0  0  0  0  0  0  0
  -32.8881   58.3994   63.0254 C   0  0  0  0  0  0  0  0  0  0  0  0
  -34.2520   58.9788   63.3112 C   0  0  0  0  0  0  0  0  0  0  0  0
  -34.8405   58.4864   64.6069 C   0  0  0  0  0  0  0  0  0  0  0  0
  -35.6271   57.2027   64.4596 C   0  0  0  0  0  0  0  0  0  0  0  0
  -37.0686   57.4424   64.0585 C   0  0  0  0  0  0  0  0  0  0  0  0
  -38.0238   57.5608   65.2275 C   0  0  0  0  0  0  0  0  0  0  0  0
  -39.0583   58.6692   65.0679 C   0  0  0  0  0  0  0  0  0  0  0  0
  -40.4938   58.1808   65.0943 C   0  0  0  0  0  0  0  0  0  0  0  0
  -41.4988   59.2802   65.3715 C   0  0  0  0  0  0  0  0  0  0  0  0
  -42.1451   59.1834   66.7464 C   0  0  0  0  0  0  0  0  0  0  0  0
  -43.6366   58.9034   66.6983 C   0  0  0  0  0  0  0  0  0  0  0  0
  -44.9414   57.9107   64.7883 C   0  0  0  0  0  0  0  0  0  0  0  0
  -44.2860   59.1520   65.3501 C   0  0  0  0  0  0  0  0  0  0  0  0
  -37.7034   60.8335   62.4821 C   0  0  0  0  0  0  0  0  0  0  0  0
  -36.9016   61.9980   62.1830 O   0  0  0  0  0  0  0  0  0  0  0  0
  -36.0784   62.7947   63.3008 P   0  0  0  0  0  0  0  0  0  0  0  0
  -34.7266   62.2012   63.3839 O   0  0  0  0  0  0  0  0  0  0  0  0
  -36.2035   64.2453   63.0199 O   0  0  0  0  0  0  0  0  0  0  0  0
  -35.7520   64.4534   62.1870 H   0  0  0  0  0  0  0  0  0  0  0  0
  -36.8316   62.4948   64.6740 O   0  0  0  0  0  0  0  0  0  0  0  0
  -36.0888   62.0207   65.8157 C   0  0  0  0  0  0  0  0  0  0  0  0
  -36.1897   62.6416   68.1280 O   0  0  0  0  0  0  0  0  0  0  0  0
  -35.9705   63.1505   66.8090 C   0  0  0  0  0  0  0  0  0  0  0  0
  -37.0519   62.1986   68.1645 H   0  0  0  0  0  0  0  0  0  0  0  0
  -34.3798   64.5806   67.9238 O   0  0  0  0  0  0  0  0  0  0  0  0
  -34.6315   63.8440   66.7339 C   0  0  0  0  0  0  0  0  0  0  0  0
  -33.5167   65.0182   67.8568 H   0  0  0  0  0  0  0  0  0  0  0  0
  -39.3256   60.2758   60.7181 O   0  0  0  0  0  0  0  0  0  0  0  0
  -38.7335   59.5827   58.6615 O   0  0  0  0  0  0  0  0  0  0  0  0
  -39.5792   59.9217   59.4435 C   0  0  0  0  0  0  0  0  0  0  0  0
  -41.0410   59.9836   59.1250 C   0  0  0  0  0  0  0  0  0  0  0  0
  -41.3641   59.2355   57.8356 C   0  0  0  0  0  0  0  0  0  0  0  0
  -42.7366   59.5540   57.2656 C   0  0  0  0  0  0  0  0  0  0  0  0
  -43.6483   58.3372   57.1551 C   0  0  0  0  0  0  0  0  0  0  0  0
  -44.5887   58.1618   58.3329 C   0  0  0  0  0  0  0  0  0  0  0  0
  -46.0611   57.9843   57.9511 C   0  0  0  0  0  0  0  0  0  0  0  0
  -46.9503   57.3878   59.0444 C   0  0  0  0  0  0  0  0  0  0  0  0
  -48.3292   57.0776   58.5442 C   0  0  0  0  0  0  0  0  0  0  0  0
  -49.4469   57.1129   59.2434 C   0  0  0  0  0  0  0  0  0  0  0  0
  -49.5721   57.4739   60.6900 C   0  0  0  0  0  0  0  0  0  0  0  0
  -49.7234   58.9771   60.9041 C   0  0  0  0  0  0  0  0  0  0  0  0
  -49.6183   59.3992   62.3590 C   0  0  0  0  0  0  0  0  0  0  0  0
  -50.8820   59.1418   63.1614 C   0  0  0  0  0  0  0  0  0  0  0  0
  -50.7664   59.4700   64.6408 C   0  0  0  0  0  0  0  0  0  0  0  0
  -50.3878   58.2726   65.4990 C   0  0  0  0  0  0  0  0  0  0  0  0
  -48.8957   58.1006   65.7034 C   0  0  0  0  0  0  0  0  0  0  0  0
  -48.2492   59.3117   66.3157 C   0  0  0  0  0  0  0  0  0  0  0  0
 21 22  1  0  0  0
  4  5  2  0  0  0
 25 24  1  0  0  0
 25 26  2  0  0  0
 25 27  1  0  0  0
 25 29  1  0  0  0
 22 20  1  0  0  0
  3  5  1  0  0  0
  3  2  1  0  0  0
 20 19  1  0  0  0
 24 23  1  0  0  0
 19 18  1  0  0  0
 18 17  1  0  0  0
 27 28  1  0  0  0
 17 16  1  0  0  0
 29 30  1  0  0  0
 16 15  1  0  0  0
 34 35  1  0  0  0
 34 36  1  0  0  0
 15 14  1  0  0  0
 31 32  1  0  0  0
 31 33  1  0  0  0
 14 13  1  0  0  0
 37  1  1  0  0  0
 37 39  1  0  0  0
 13 12  1  0  0  0
 38 39  2  0  0  0
 12 11  1  0  0  0
 11 10  1  0  0  0
 10  9  1  0  0  0
  9  8  1  0  0  0
  8  7  1  0  0  0
  7  6  1  0  0  0
  6  5  1  0  0  0
  2  1  1  0  0  0
  1 23  1  0  0  0
 30 32  1  0  0  0
 32 35  1  0  0  0
 39 40  1  0  0  0
 40 41  1  0  0  0
 41 42  1  0  0  0
 42 43  1  0  0  0
 43 44  1  0  0  0
 44 45  1  0  0  0
 45 46  1  0  0  0
 46 47  1  0  0  0
 47 48  2  0  0  0
 48 49  1  0  0  0
 49 50  1  0  0  0
 50 51  1  0  0  0
 51 52  1  0  0  0
 52 53  1  0  0  0
 53 54  1  0  0  0
 54 55  1  0  0  0
 55 56  1  0  0  0
M  CHG 1  26  -1
M  END
> <minimizedAffinity>
-8.65781

> <CNNscore>
0.5543863773

> <CNNaffinity>
7.5168943405

> <CNN_VS>
4.1672639847

> <CNNaffinity_variance>
0.8768111467

$$$$
/media/chris/experiments/cd1a-new-docking/inputs/ligands/7sh4_ligand.pdb


 56 55  0  0  0  0  0  0  0  0999 V2000
  -38.0965   60.4476   65.5088 C   0  0  0  0  0  0  0  0  0  0  0  0
  -37.7013   59.0146   65.2901 C   0  0  0  0  0  0  0  0  0  0  0  0
  -36.4241   59.1023   64.6237 O   0  0  0  0  0  0  0  0  0  0  0  0
  -35.8548   59.3587   62.4767 O   0  0  0  0  0  0  0  0  0  0  0  0
  -36.3811   58.7193   63.3472 C   0  0  0  0  0  0  0  0  0  0  0  0
  -36.9590   57.3442   63.1737 C   0  0  0  0  0  0  0  0  0  0  0  0
  -38.0774   57.2660   62.1483 C   0  0  0  0  0  0  0  0  0  0  0  0
  -39.2636   58.1358   62.5074 C   0  0  0  0  0  0  0  0  0  0  0  0
  -39.2305   59.5147   61.8880 C   0  0  0  0  0  0  0  0  0  0  0  0
  -39.4149   59.4942   60.3842 C   0  0  0  0  0  0  0  0  0  0  0  0
  -38.1439   59.7894   59.6258 C   0  0  0  0  0  0  0  0  0  0  0  0
  -37.7918   58.7177   58.6282 C   0  0  0  0  0  0  0  0  0  0  0  0
  -36.7384   57.7543   59.1287 C   0  0  0  0  0  0  0  0  0  0  0  0
  -36.1496   56.9039   58.0213 C   0  0  0  0  0  0  0  0  0  0  0  0
  -34.6720   57.1352   57.7837 C   0  0  0  0  0  0  0  0  0  0  0  0
  -33.7662   56.2254   58.6058 C   0  0  0  0  0  0  0  0  0  0  0  0
  -34.4893   55.4577   59.6956 C   0  0  0  0  0  0  0  0  0  0  0  0
  -34.1419   55.9262   61.0939 C   0  0  0  0  0  0  0  0  0  0  0  0
  -33.5247   57.3171   61.1357 C   0  0  0  0  0  0  0  0  0  0  0  0
  -32.6203   57.5449   62.3338 C   0  0  0  0  0  0  0  0  0  0  0  0
  -31.1848   59.5697   61.9150 C   0  0  0  0  0  0  0  0  0  0  0  0
  -32.3659   59.0023   62.6691 C   0  0  0  0  0  0  0  0  0  0  0  0
  -36.9939   61.2466   66.1552 C   0  0  0  0  0  0  0  0  0  0  0  0
  -36.8230   62.4807   65.4229 O   0  0  0  0  0  0  0  0  0  0  0  0
  -36.0603   63.7505   66.0291 P   0  0  0  0  0  0  0  0  0  0  0  0
  -36.5690   64.9593   65.3460 O   0  0  0  0  0  0  0  0  0  0  0  0
  -36.1466   63.6783   67.5076 O   0  0  0  0  0  0  0  0  0  0  0  0
  -37.0697   63.7911   67.7835 H   0  0  0  0  0  0  0  0  0  0  0  0
  -34.5313   63.5609   65.6178 O   0  0  0  0  0  0  0  0  0  0  0  0
  -34.1023   63.8660   64.2751 C   0  0  0  0  0  0  0  0  0  0  0  0
  -34.8050   61.8769   63.1384 O   0  0  0  0  0  0  0  0  0  0  0  0
  -33.6564   62.5843   63.6152 C   0  0  0  0  0  0  0  0  0  0  0  0
  -35.4201   61.7264   63.8732 H   0  0  0  0  0  0  0  0  0  0  0  0
  -32.9641   64.0658   61.8420 O   0  0  0  0  0  0  0  0  0  0  0  0
  -32.6872   62.8274   62.4833 C   0  0  0  0  0  0  0  0  0  0  0  0
  -32.3322   64.2039   61.1190 H   0  0  0  0  0  0  0  0  0  0  0  0
  -39.3237   60.4707   66.3108 O   0  0  0  0  0  0  0  0  0  0  0  0
  -40.6653   60.8976   64.5563 O   0  0  0  0  0  0  0  0  0  0  0  0
  -40.4914   60.4147   65.6418 C   0  0  0  0  0  0  0  0  0  0  0  0
  -41.5387   59.6638   66.4043 C   0  0  0  0  0  0  0  0  0  0  0  0
  -42.1198   58.5209   65.5780 C   0  0  0  0  0  0  0  0  0  0  0  0
  -42.9897   57.5637   66.3761 C   0  0  0  0  0  0  0  0  0  0  0  0
  -44.2356   57.1038   65.6278 C   0  0  0  0  0  0  0  0  0  0  0  0
  -44.9082   58.1972   64.8188 C   0  0  0  0  0  0  0  0  0  0  0  0
  -45.7308   59.1879   65.6476 C   0  0  0  0  0  0  0  0  0  0  0  0
  -47.1714   59.3944   65.1747 C   0  0  0  0  0  0  0  0  0  0  0  0
  -47.7455   58.1558   64.5549 C   0  0  0  0  0  0  0  0  0  0  0  0
  -48.9282   58.0369   63.9835 C   0  0  0  0  0  0  0  0  0  0  0  0
  -49.9487   59.1205   63.8327 C   0  0  0  0  0  0  0  0  0  0  0  0
  -50.8790   58.8835   62.6467 C   0  0  0  0  0  0  0  0  0  0  0  0
  -50.1509   58.5265   61.3627 C   0  0  0  0  0  0  0  0  0  0  0  0
  -50.7051   57.2935   60.6701 C   0  0  0  0  0  0  0  0  0  0  0  0
  -49.6500   56.2972   60.2186 C   0  0  0  0  0  0  0  0  0  0  0  0
  -48.3172   56.9424   59.8707 C   0  0  0  0  0  0  0  0  0  0  0  0
  -48.1214   57.2064   58.3909 C   0  0  0  0  0  0  0  0  0  0  0  0
  -46.8048   57.8652   58.0870 C   0  0  0  0  0  0  0  0  0  0  0  0
 21 22  1  0  0  0
  4  5  2  0  0  0
 25 24  1  0  0  0
 25 26  2  0  0  0
 25 27  1  0  0  0
 25 29  1  0  0  0
 22 20  1  0  0  0
  3  5  1  0  0  0
  3  2  1  0  0  0
 20 19  1  0  0  0
 24 23  1  0  0  0
 19 18  1  0  0  0
 18 17  1  0  0  0
 27 28  1  0  0  0
 17 16  1  0  0  0
 29 30  1  0  0  0
 16 15  1  0  0  0
 34 35  1  0  0  0
 34 36  1  0  0  0
 15 14  1  0  0  0
 31 32  1  0  0  0
 31 33  1  0  0  0
 14 13  1  0  0  0
 37  1  1  0  0  0
 37 39  1  0  0  0
 13 12  1  0  0  0
 38 39  2  0  0  0
 12 11  1  0  0  0
 11 10  1  0  0  0
 10  9  1  0  0  0
  9  8  1  0  0  0
  8  7  1  0  0  0
  7  6  1  0  0  0
  6  5  1  0  0  0
  2  1  1  0  0  0
  1 23  1  0  0  0
 30 32  1  0  0  0
 32 35  1  0  0  0
 39 40  1  0  0  0
 40 41  1  0  0  0
 41 42  1  0  0  0
 42 43  1  0  0  0
 43 44  1  0  0  0
 44 45  1  0  0  0
 45 46  1  0  0  0
 46 47  1  0  0  0
 47 48  2  0  0  0
 48 49  1  0  0  0
 49 50  1  0  0  0
 50 51  1  0  0  0
 51 52  1  0  0  0
 52 53  1  0  0  0
 53 54  1  0  0  0
 54 55  1  0  0  0
 55 56  1  0  0  0
M  CHG 1  26  -1
M  END
> <minimizedAffinity>
-8.90947

> <CNNscore>
0.5322421789

> <CNNaffinity>
7.6084632874

> <CNN_VS>
4.0495452881

> <CNNaffinity_variance>
0.5190560222

$$$$
/media/chris/experiments/cd1a-new-docking/inputs/ligands/7sh4_ligand.pdb


 56 55  0  0  0  0  0  0  0  0999 V2000
  -38.3277   60.6262   63.9181 C   0  0  0  0  0  0  0  0  0  0  0  0
  -37.6734   60.4822   65.2630 C   0  0  0  0  0  0  0  0  0  0  0  0
  -37.2584   59.1004   65.3033 O   0  0  0  0  0  0  0  0  0  0  0  0
  -35.1158   59.3985   64.7378 O   0  0  0  0  0  0  0  0  0  0  0  0
  -36.1443   58.7847   64.6423 C   0  0  0  0  0  0  0  0  0  0  0  0
  -36.3131   57.5054   63.8743 C   0  0  0  0  0  0  0  0  0  0  0  0
  -37.7609   57.1181   63.6244 C   0  0  0  0  0  0  0  0  0  0  0  0
  -38.0812   56.9658   62.1524 C   0  0  0  0  0  0  0  0  0  0  0  0
  -37.5155   58.0625   61.2788 C   0  0  0  0  0  0  0  0  0  0  0  0
  -38.5864   58.9082   60.6201 C   0  0  0  0  0  0  0  0  0  0  0  0
  -38.1917   59.4063   59.2513 C   0  0  0  0  0  0  0  0  0  0  0  0
  -37.8106   58.2957   58.3085 C   0  0  0  0  0  0  0  0  0  0  0  0
  -36.3671   58.3575   57.8604 C   0  0  0  0  0  0  0  0  0  0  0  0
  -35.7166   56.9906   57.7918 C   0  0  0  0  0  0  0  0  0  0  0  0
  -36.5620   55.8742   58.3682 C   0  0  0  0  0  0  0  0  0  0  0  0
  -35.9230   55.1700   59.5598 C   0  0  0  0  0  0  0  0  0  0  0  0
  -34.5444   55.6916   59.9170 C   0  0  0  0  0  0  0  0  0  0  0  0
  -34.3974   56.0503   61.3816 C   0  0  0  0  0  0  0  0  0  0  0  0
  -33.0287   56.6135   61.7375 C   0  0  0  0  0  0  0  0  0  0  0  0
  -32.8706   58.0853   61.3997 C   0  0  0  0  0  0  0  0  0  0  0  0
  -31.4527   60.1055   61.8941 C   0  0  0  0  0  0  0  0  0  0  0  0
  -32.1805   58.9113   62.4687 C   0  0  0  0  0  0  0  0  0  0  0  0
  -37.5632   61.5582   63.0134 C   0  0  0  0  0  0  0  0  0  0  0  0
  -36.6930   62.3814   63.8218 O   0  0  0  0  0  0  0  0  0  0  0  0
  -35.4012   63.1189   63.2309 P   0  0  0  0  0  0  0  0  0  0  0  0
  -34.3796   62.0902   62.9399 O   0  0  0  0  0  0  0  0  0  0  0  0
  -35.8423   64.0149   62.1348 O   0  0  0  0  0  0  0  0  0  0  0  0
  -36.1798   63.4821   61.3978 H   0  0  0  0  0  0  0  0  0  0  0  0
  -34.8550   64.0310   64.4195 O   0  0  0  0  0  0  0  0  0  0  0  0
  -33.9399   63.4810   65.3889 C   0  0  0  0  0  0  0  0  0  0  0  0
  -33.8484   62.4582   67.5542 O   0  0  0  0  0  0  0  0  0  0  0  0
  -34.7425   62.9296   66.5416 C   0  0  0  0  0  0  0  0  0  0  0  0
  -33.2427   61.8041   67.1717 H   0  0  0  0  0  0  0  0  0  0  0  0
  -36.9448   63.9091   66.4461 O   0  0  0  0  0  0  0  0  0  0  0  0
  -35.6935   63.9497   67.1200 C   0  0  0  0  0  0  0  0  0  0  0  0
  -37.5411   64.5703   66.8310 H   0  0  0  0  0  0  0  0  0  0  0  0
  -39.7070   61.0799   64.1221 O   0  0  0  0  0  0  0  0  0  0  0  0
  -40.6405   60.8515   66.1560 O   0  0  0  0  0  0  0  0  0  0  0  0
  -40.4328   60.4289   65.0515 C   0  0  0  0  0  0  0  0  0  0  0  0
  -40.9636   59.1267   64.5372 C   0  0  0  0  0  0  0  0  0  0  0  0
  -41.4926   58.2525   65.6696 C   0  0  0  0  0  0  0  0  0  0  0  0
  -42.9737   58.4417   65.9539 C   0  0  0  0  0  0  0  0  0  0  0  0
  -43.7393   57.1314   66.0977 C   0  0  0  0  0  0  0  0  0  0  0  0
  -44.9200   56.9998   65.1538 C   0  0  0  0  0  0  0  0  0  0  0  0
  -45.6562   58.3119   64.8682 C   0  0  0  0  0  0  0  0  0  0  0  0
  -47.0845   58.1563   64.3418 C   0  0  0  0  0  0  0  0  0  0  0  0
  -47.8900   59.4090   64.5150 C   0  0  0  0  0  0  0  0  0  0  0  0
  -49.0984   59.6400   64.0401 C   0  0  0  0  0  0  0  0  0  0  0  0
  -49.9227   58.6934   63.2259 C   0  0  0  0  0  0  0  0  0  0  0  0
  -50.3107   59.2768   61.8703 C   0  0  0  0  0  0  0  0  0  0  0  0
  -49.4438   58.7852   60.7244 C   0  0  0  0  0  0  0  0  0  0  0  0
  -48.5889   57.5810   61.0797 C   0  0  0  0  0  0  0  0  0  0  0  0
  -47.7899   57.0116   59.9192 C   0  0  0  0  0  0  0  0  0  0  0  0
  -47.8013   57.8981   58.6832 C   0  0  0  0  0  0  0  0  0  0  0  0
  -46.6573   57.6409   57.7225 C   0  0  0  0  0  0  0  0  0  0  0  0
  -45.3239   58.0493   58.2835 C   0  0  0  0  0  0  0  0  0  0  0  0
 21 22  1  0  0  0
  4  5  2  0  0  0
 25 24  1  0  0  0
 25 26  2  0  0  0
 25 27  1  0  0  0
 25 29  1  0  0  0
 22 20  1  0  0  0
  3  5  1  0  0  0
  3  2  1  0  0  0
 20 19  1  0  0  0
 24 23  1  0  0  0
 19 18  1  0  0  0
 18 17  1  0  0  0
 27 28  1  0  0  0
 17 16  1  0  0  0
 29 30  1  0  0  0
 16 15  1  0  0  0
 34 35  1  0  0  0
 34 36  1  0  0  0
 15 14  1  0  0  0
 31 32  1  0  0  0
 31 33  1  0  0  0
 14 13  1  0  0  0
 37  1  1  0  0  0
 37 39  1  0  0  0
 13 12  1  0  0  0
 38 39  2  0  0  0
 12 11  1  0  0  0
 11 10  1  0  0  0
 10  9  1  0  0  0
  9  8  1  0  0  0
  8  7  1  0  0  0
  7  6  1  0  0  0
  6  5  1  0  0  0
  2  1  1  0  0  0
  1 23  1  0  0  0
 30 32  1  0  0  0
 32 35  1  0  0  0
 39 40  1  0  0  0
 40 41  1  0  0  0
 41 42  1  0  0  0
 42 43  1  0  0  0
 43 44  1  0  0  0
 44 45  1  0  0  0
 45 46  1  0  0  0
 46 47  1  0  0  0
 47 48  2  0  0  0
 48 49  1  0  0  0
 49 50  1  0  0  0
 50 51  1  0  0  0
 51 52  1  0  0  0
 52 53  1  0  0  0
 53 54  1  0  0  0
 54 55  1  0  0  0
 55 56  1  0  0  0
M  CHG 1  26  -1
M  END
> <minimizedAffinity>
-8.54417

> <CNNscore>
0.4940174818

> <CNNaffinity>
7.7150716782

> <CNN_VS>
3.8113803864

> <CNNaffinity_variance>
0.9114290476

$$$$
/media/chris/experiments/cd1a-new-docking/inputs/ligands/7sh4_ligand.pdb


 56 55  0  0  0  0  0  0  0  0999 V2000
  -38.5350   59.9153   65.3008 C   0  0  0  0  0  0  0  0  0  0  0  0
  -38.4853   58.4173   65.4075 C   0  0  0  0  0  0  0  0  0  0  0  0
  -38.0416   57.9888   64.1027 O   0  0  0  0  0  0  0  0  0  0  0  0
  -36.2821   56.7451   64.7000 O   0  0  0  0  0  0  0  0  0  0  0  0
  -36.7748   57.5862   63.9975 C   0  0  0  0  0  0  0  0  0  0  0  0
  -36.0984   58.2256   62.8192 C   0  0  0  0  0  0  0  0  0  0  0  0
  -35.3642   59.5142   63.1492 C   0  0  0  0  0  0  0  0  0  0  0  0
  -33.9595   59.2740   63.6608 C   0  0  0  0  0  0  0  0  0  0  0  0
  -32.8702   59.6999   62.7028 C   0  0  0  0  0  0  0  0  0  0  0  0
  -32.5393   58.6402   61.6715 C   0  0  0  0  0  0  0  0  0  0  0  0
  -32.4421   57.2523   62.2561 C   0  0  0  0  0  0  0  0  0  0  0  0
  -33.2457   56.2341   61.4912 C   0  0  0  0  0  0  0  0  0  0  0  0
  -33.8475   56.7798   60.2152 C   0  0  0  0  0  0  0  0  0  0  0  0
  -34.3995   55.6918   59.3165 C   0  0  0  0  0  0  0  0  0  0  0  0
  -35.9119   55.6166   59.2944 C   0  0  0  0  0  0  0  0  0  0  0  0
  -36.5324   56.0773   57.9802 C   0  0  0  0  0  0  0  0  0  0  0  0
  -36.8878   57.5513   57.9500 C   0  0  0  0  0  0  0  0  0  0  0  0
  -37.2172   58.1193   59.3154 C   0  0  0  0  0  0  0  0  0  0  0  0
  -38.0237   59.4093   59.2612 C   0  0  0  0  0  0  0  0  0  0  0  0
  -38.2222   60.0592   60.6189 C   0  0  0  0  0  0  0  0  0  0  0  0
  -40.6213   60.3694   59.9230 C   0  0  0  0  0  0  0  0  0  0  0  0
  -39.6664   60.1496   61.0744 C   0  0  0  0  0  0  0  0  0  0  0  0
  -37.4124   60.5745   66.0603 C   0  0  0  0  0  0  0  0  0  0  0  0
  -37.3356   61.9624   65.6652 O   0  0  0  0  0  0  0  0  0  0  0  0
  -36.1558   62.9350   66.1385 P   0  0  0  0  0  0  0  0  0  0  0  0
  -36.7683   64.1422   66.7335 O   0  0  0  0  0  0  0  0  0  0  0  0
  -35.2041   62.1431   66.9545 O   0  0  0  0  0  0  0  0  0  0  0  0
  -35.6372   61.8640   67.7763 H   0  0  0  0  0  0  0  0  0  0  0  0
  -35.4072   63.3731   64.8003 O   0  0  0  0  0  0  0  0  0  0  0  0
  -34.0668   62.9095   64.5387 C   0  0  0  0  0  0  0  0  0  0  0  0
  -34.0107   65.2258   63.9269 O   0  0  0  0  0  0  0  0  0  0  0  0
  -33.1892   64.1103   64.2843 C   0  0  0  0  0  0  0  0  0  0  0  0
  -34.5580   64.9919   63.1608 H   0  0  0  0  0  0  0  0  0  0  0  0
  -33.1347   64.8689   66.5734 O   0  0  0  0  0  0  0  0  0  0  0  0
  -32.3296   64.4570   65.4762 C   0  0  0  0  0  0  0  0  0  0  0  0
  -32.5657   65.0870   67.3281 H   0  0  0  0  0  0  0  0  0  0  0  0
  -39.8473   60.3683   65.7723 O   0  0  0  0  0  0  0  0  0  0  0  0
  -41.0514   61.2572   64.0929 O   0  0  0  0  0  0  0  0  0  0  0  0
  -40.8519   60.3683   64.8751 C   0  0  0  0  0  0  0  0  0  0  0  0
  -41.6770   59.1215   64.9576 C   0  0  0  0  0  0  0  0  0  0  0  0
  -43.1652   59.4416   65.0535 C   0  0  0  0  0  0  0  0  0  0  0  0
  -43.8680   58.7623   66.2174 C   0  0  0  0  0  0  0  0  0  0  0  0
  -45.1560   58.0501   65.8203 C   0  0  0  0  0  0  0  0  0  0  0  0
  -46.2723   58.9855   65.3948 C   0  0  0  0  0  0  0  0  0  0  0  0
  -47.2755   58.3743   64.4124 C   0  0  0  0  0  0  0  0  0  0  0  0
  -48.3857   57.5372   65.0513 C   0  0  0  0  0  0  0  0  0  0  0  0
  -49.5432   58.3797   65.4968 C   0  0  0  0  0  0  0  0  0  0  0  0
  -50.5452   58.7995   64.7491 C   0  0  0  0  0  0  0  0  0  0  0  0
  -50.7373   58.5192   63.2921 C   0  0  0  0  0  0  0  0  0  0  0  0
  -50.2108   59.6459   62.4080 C   0  0  0  0  0  0  0  0  0  0  0  0
  -49.6641   59.1692   61.0738 C   0  0  0  0  0  0  0  0  0  0  0  0
  -49.4479   57.6673   61.0051 C   0  0  0  0  0  0  0  0  0  0  0  0
  -49.6673   57.0618   59.6286 C   0  0  0  0  0  0  0  0  0  0  0  0
  -48.5317   56.1561   59.1773 C   0  0  0  0  0  0  0  0  0  0  0  0
  -47.6483   56.7552   58.1010 C   0  0  0  0  0  0  0  0  0  0  0  0
  -46.5294   57.5868   58.6633 C   0  0  0  0  0  0  0  0  0  0  0  0
 21 22  1  0  0  0
  4  5  2  0  0  0
 25 24  1  0  0  0
 25 26  2  0  0  0
 25 27  1  0  0  0
 25 29  1  0  0  0
 22 20  1  0  0  0
  3  5  1  0  0  0
  3  2  1  0  0  0
 20 19  1  0  0  0
 24 23  1  0  0  0
 19 18  1  0  0  0
 18 17  1  0  0  0
 27 28  1  0  0  0
 17 16  1  0  0  0
 29 30  1  0  0  0
 16 15  1  0  0  0
 34 35  1  0  0  0
 34 36  1  0  0  0
 15 14  1  0  0  0
 31 32  1  0  0  0
 31 33  1  0  0  0
 14 13  1  0  0  0
 37  1  1  0  0  0
 37 39  1  0  0  0
 13 12  1  0  0  0
 38 39  2  0  0  0
 12 11  1  0  0  0
 11 10  1  0  0  0
 10  9  1  0  0  0
  9  8  1  0  0  0
  8  7  1  0  0  0
  7  6  1  0  0  0
  6  5  1  0  0  0
  2  1  1  0  0  0
  1 23  1  0  0  0
 30 32  1  0  0  0
 32 35  1  0  0  0
 39 40  1  0  0  0
 40 41  1  0  0  0
 41 42  1  0  0  0
 42 43  1  0  0  0
 43 44  1  0  0  0
 44 45  1  0  0  0
 45 46  1  0  0  0
 46 47  1  0  0  0
 47 48  2  0  0  0
 48 49  1  0  0  0
 49 50  1  0  0  0
 50 51  1  0  0  0
 51 52  1  0  0  0
 52 53  1  0  0  0
 53 54  1  0  0  0
 54 55  1  0  0  0
 55 56  1  0  0  0
M  CHG 1  26  -1
M  END
> <minimizedAffinity>
-8.57238

> <CNNscore>
0.4298233390

> <CNNaffinity>
7.5039887428

> <CNN_VS>
3.2253894806

> <CNNaffinity_variance>
0.9249953032

$$$$
/media/chris/experiments/cd1a-new-docking/inputs/ligands/7sh4_ligand.pdb


 56 55  0  0  0  0  0  0  0  0999 V2000
  -37.4560   60.6385   65.1707 C   0  0  0  0  0  0  0  0  0  0  0  0
  -38.5152   59.8437   65.8805 C   0  0  0  0  0  0  0  0  0  0  0  0
  -39.6131   60.7703   66.0191 O   0  0  0  0  0  0  0  0  0  0  0  0
  -41.3013   61.0548   64.5808 O   0  0  0  0  0  0  0  0  0  0  0  0
  -40.7707   60.4241   65.4551 C   0  0  0  0  0  0  0  0  0  0  0  0
  -41.2466   59.0945   65.9653 C   0  0  0  0  0  0  0  0  0  0  0  0
  -42.5872   59.1471   66.6783 C   0  0  0  0  0  0  0  0  0  0  0  0
  -43.7304   58.6592   65.8136 C   0  0  0  0  0  0  0  0  0  0  0  0
  -45.0960   58.8249   66.4412 C   0  0  0  0  0  0  0  0  0  0  0  0
  -46.1920   59.0645   65.4226 C   0  0  0  0  0  0  0  0  0  0  0  0
  -47.5796   58.9133   65.9965 C   0  0  0  0  0  0  0  0  0  0  0  0
  -48.5197   58.1798   65.0769 C   0  0  0  0  0  0  0  0  0  0  0  0
  -49.9791   58.4177   65.3961 C   0  0  0  0  0  0  0  0  0  0  0  0
  -50.7567   58.9569   64.2126 C   0  0  0  0  0  0  0  0  0  0  0  0
  -49.9026   59.2653   63.0007 C   0  0  0  0  0  0  0  0  0  0  0  0
  -50.3694   58.5722   61.7256 C   0  0  0  0  0  0  0  0  0  0  0  0
  -49.2424   58.1779   60.7906 C   0  0  0  0  0  0  0  0  0  0  0  0
  -49.5609   56.9636   59.9423 C   0  0  0  0  0  0  0  0  0  0  0  0
  -48.3290   56.2903   59.3538 C   0  0  0  0  0  0  0  0  0  0  0  0
  -47.1306   57.2147   59.2329 C   0  0  0  0  0  0  0  0  0  0  0  0
  -47.3375   56.7244   56.7726 C   0  0  0  0  0  0  0  0  0  0  0  0
  -46.8344   57.6888   57.8227 C   0  0  0  0  0  0  0  0  0  0  0  0
  -36.8088   61.6549   66.0761 C   0  0  0  0  0  0  0  0  0  0  0  0
  -35.3958   61.7105   65.7781 O   0  0  0  0  0  0  0  0  0  0  0  0
  -34.4870   62.9834   66.1181 P   0  0  0  0  0  0  0  0  0  0  0  0
  -35.2272   64.1967   65.7099 O   0  0  0  0  0  0  0  0  0  0  0  0
  -34.0344   62.8647   67.5251 O   0  0  0  0  0  0  0  0  0  0  0  0
  -34.7981   62.9425   68.1181 H   0  0  0  0  0  0  0  0  0  0  0  0
  -33.2056   62.8506   65.1783 O   0  0  0  0  0  0  0  0  0  0  0  0
  -32.6186   64.0283   64.5881 C   0  0  0  0  0  0  0  0  0  0  0  0
  -31.5162   62.3337   63.3013 O   0  0  0  0  0  0  0  0  0  0  0  0
  -32.0601   63.6554   63.2368 C   0  0  0  0  0  0  0  0  0  0  0  0
  -30.8515   62.2917   64.0067 H   0  0  0  0  0  0  0  0  0  0  0  0
  -34.3829   64.0060   62.6890 O   0  0  0  0  0  0  0  0  0  0  0  0
  -33.0975   63.7391   62.1430 C   0  0  0  0  0  0  0  0  0  0  0  0
  -35.0347   64.0560   61.9724 H   0  0  0  0  0  0  0  0  0  0  0  0
  -38.0630   61.2696   63.9946 O   0  0  0  0  0  0  0  0  0  0  0  0
  -36.4100   62.0790   62.7013 O   0  0  0  0  0  0  0  0  0  0  0  0
  -37.3189   61.3134   62.8728 C   0  0  0  0  0  0  0  0  0  0  0  0
  -37.7481   60.2828   61.8749 C   0  0  0  0  0  0  0  0  0  0  0  0
  -39.1026   59.6830   62.2386 C   0  0  0  0  0  0  0  0  0  0  0  0
  -39.0318   58.2378   62.7040 C   0  0  0  0  0  0  0  0  0  0  0  0
  -38.1773   57.3495   61.8070 C   0  0  0  0  0  0  0  0  0  0  0  0
  -36.8050   57.0376   62.3745 C   0  0  0  0  0  0  0  0  0  0  0  0
  -36.6709   57.2725   63.8818 C   0  0  0  0  0  0  0  0  0  0  0  0
  -35.2505   57.5614   64.3723 C   0  0  0  0  0  0  0  0  0  0  0  0
  -34.7365   58.8777   63.8711 C   0  0  0  0  0  0  0  0  0  0  0  0
  -33.7205   59.0656   63.0516 C   0  0  0  0  0  0  0  0  0  0  0  0
  -32.8651   57.9976   62.4466 C   0  0  0  0  0  0  0  0  0  0  0  0
  -33.3331   57.5979   61.0503 C   0  0  0  0  0  0  0  0  0  0  0  0
  -33.6210   56.1138   60.9055 C   0  0  0  0  0  0  0  0  0  0  0  0
  -34.1375   55.7242   59.5313 C   0  0  0  0  0  0  0  0  0  0  0  0
  -34.9497   56.8033   58.8345 C   0  0  0  0  0  0  0  0  0  0  0  0
  -36.3225   56.3303   58.3814 C   0  0  0  0  0  0  0  0  0  0  0  0
  -37.1258   57.3768   57.6347 C   0  0  0  0  0  0  0  0  0  0  0  0
  -37.5488   58.5211   58.5130 C   0  0  0  0  0  0  0  0  0  0  0  0
 21 22  1  0  0  0
  4  5  2  0  0  0
 25 24  1  0  0  0
 25 26  2  0  0  0
 25 27  1  0  0  0
 25 29  1  0  0  0
 22 20  1  0  0  0
  3  5  1  0  0  0
  3  2  1  0  0  0
 20 19  1  0  0  0
 24 23  1  0  0  0
 19 18  1  0  0  0
 18 17  1  0  0  0
 27 28  1  0  0  0
 17 16  1  0  0  0
 29 30  1  0  0  0
 16 15  1  0  0  0
 34 35  1  0  0  0
 34 36  1  0  0  0
 15 14  1  0  0  0
 31 32  1  0  0  0
 31 33  1  0  0  0
 14 13  1  0  0  0
 37  1  1  0  0  0
 37 39  1  0  0  0
 13 12  1  0  0  0
 38 39  2  0  0  0
 12 11  1  0  0  0
 11 10  1  0  0  0
 10  9  1  0  0  0
  9  8  1  0  0  0
  8  7  1  0  0  0
  7  6  1  0  0  0
  6  5  1  0  0  0
  2  1  1  0  0  0
  1 23  1  0  0  0
 30 32  1  0  0  0
 32 35  1  0  0  0
 39 40  1  0  0  0
 40 41  1  0  0  0
 41 42  1  0  0  0
 42 43  1  0  0  0
 43 44  1  0  0  0
 44 45  1  0  0  0
 45 46  1  0  0  0
 46 47  1  0  0  0
 47 48  2  0  0  0
 48 49  1  0  0  0
 49 50  1  0  0  0
 50 51  1  0  0  0
 51 52  1  0  0  0
 52 53  1  0  0  0
 53 54  1  0  0  0
 54 55  1  0  0  0
 55 56  1  0  0  0
M  CHG 1  26  -1
M  END
> <minimizedAffinity>
-8.82154

> <CNNscore>
0.4214111865

> <CNNaffinity>
7.3037095070

> <CNN_VS>
3.0778648853

> <CNNaffinity_variance>
0.9348624945

$$$$
/media/chris/experiments/cd1a-new-docking/inputs/ligands/7sh4_ligand.pdb


 56 55  0  0  0  0  0  0  0  0999 V2000
  -38.2246   60.2885   64.5406 C   0  0  0  0  0  0  0  0  0  0  0  0
  -38.9283   59.6842   65.7226 C   0  0  0  0  0  0  0  0  0  0  0  0
  -40.1628   60.4267   65.8111 O   0  0  0  0  0  0  0  0  0  0  0  0
  -42.0004   60.2186   67.0679 O   0  0  0  0  0  0  0  0  0  0  0  0
  -41.2323   59.7693   66.2605 C   0  0  0  0  0  0  0  0  0  0  0  0
  -41.4112   58.4655   65.5374 C   0  0  0  0  0  0  0  0  0  0  0  0
  -42.5629   57.6211   66.0561 C   0  0  0  0  0  0  0  0  0  0  0  0
  -43.8339   57.8077   65.2546 C   0  0  0  0  0  0  0  0  0  0  0  0
  -44.9484   56.8578   65.6309 C   0  0  0  0  0  0  0  0  0  0  0  0
  -46.2253   57.5695   66.0295 C   0  0  0  0  0  0  0  0  0  0  0  0
  -46.2136   59.0415   65.6969 C   0  0  0  0  0  0  0  0  0  0  0  0
  -47.4523   59.7598   66.1630 C   0  0  0  0  0  0  0  0  0  0  0  0
  -48.5757   59.7385   65.1502 C   0  0  0  0  0  0  0  0  0  0  0  0
  -49.6704   58.7549   65.5111 C   0  0  0  0  0  0  0  0  0  0  0  0
  -50.5574   58.3632   64.3479 C   0  0  0  0  0  0  0  0  0  0  0  0
  -49.8297   58.3088   63.0094 C   0  0  0  0  0  0  0  0  0  0  0  0
  -50.7374   58.4828   61.8070 C   0  0  0  0  0  0  0  0  0  0  0  0
  -50.7463   57.2837   60.8809 C   0  0  0  0  0  0  0  0  0  0  0  0
  -49.9623   57.5007   59.5942 C   0  0  0  0  0  0  0  0  0  0  0  0
  -48.4748   57.7081   59.8167 C   0  0  0  0  0  0  0  0  0  0  0  0
  -46.7163   57.8344   58.0200 C   0  0  0  0  0  0  0  0  0  0  0  0
  -47.5773   56.9304   58.8728 C   0  0  0  0  0  0  0  0  0  0  0  0
  -37.0972   61.1980   64.9571 C   0  0  0  0  0  0  0  0  0  0  0  0
  -37.2157   62.4454   64.2372 O   0  0  0  0  0  0  0  0  0  0  0  0
  -35.9471   63.3154   63.7945 P   0  0  0  0  0  0  0  0  0  0  0  0
  -35.8455   63.2596   62.3204 O   0  0  0  0  0  0  0  0  0  0  0  0
  -36.0442   64.6408   64.4523 O   0  0  0  0  0  0  0  0  0  0  0  0
  -36.8082   65.1223   64.0981 H   0  0  0  0  0  0  0  0  0  0  0  0
  -34.6825   62.5579   64.4029 O   0  0  0  0  0  0  0  0  0  0  0  0
  -33.5648   62.2241   63.5548 C   0  0  0  0  0  0  0  0  0  0  0  0
  -32.4805   64.2801   62.9721 O   0  0  0  0  0  0  0  0  0  0  0  0
  -32.4300   63.1674   63.8700 C   0  0  0  0  0  0  0  0  0  0  0  0
  -32.4582   63.9586   62.0571 H   0  0  0  0  0  0  0  0  0  0  0  0
  -33.1264   64.9049   65.3914 O   0  0  0  0  0  0  0  0  0  0  0  0
  -32.4639   63.6501   65.3002 C   0  0  0  0  0  0  0  0  0  0  0  0
  -33.1381   65.1979   66.3160 H   0  0  0  0  0  0  0  0  0  0  0  0
  -39.2168   60.9949   63.7242 O   0  0  0  0  0  0  0  0  0  0  0  0
  -40.6518   59.9829   62.3181 O   0  0  0  0  0  0  0  0  0  0  0  0
  -39.5607   60.4257   62.5529 C   0  0  0  0  0  0  0  0  0  0  0  0
  -38.4271   60.4279   61.5746 C   0  0  0  0  0  0  0  0  0  0  0  0
  -38.9281   60.3111   60.1386 C   0  0  0  0  0  0  0  0  0  0  0  0
  -38.6972   58.9446   59.5146 C   0  0  0  0  0  0  0  0  0  0  0  0
  -37.2259   58.6227   59.2786 C   0  0  0  0  0  0  0  0  0  0  0  0
  -36.9413   57.9914   57.9285 C   0  0  0  0  0  0  0  0  0  0  0  0
  -36.4466   56.5437   57.9941 C   0  0  0  0  0  0  0  0  0  0  0  0
  -36.4058   55.9320   59.3961 C   0  0  0  0  0  0  0  0  0  0  0  0
  -35.1186   55.2098   59.6601 C   0  0  0  0  0  0  0  0  0  0  0  0
  -34.0233   55.7203   60.1882 C   0  0  0  0  0  0  0  0  0  0  0  0
  -33.8369   57.1350   60.6382 C   0  0  0  0  0  0  0  0  0  0  0  0
  -33.0236   57.2342   61.9255 C   0  0  0  0  0  0  0  0  0  0  0  0
  -33.1996   58.5530   62.6576 C   0  0  0  0  0  0  0  0  0  0  0  0
  -34.6314   58.8275   63.0838 C   0  0  0  0  0  0  0  0  0  0  0  0
  -35.0691   58.0853   64.3357 C   0  0  0  0  0  0  0  0  0  0  0  0
  -36.2308   57.1322   64.0998 C   0  0  0  0  0  0  0  0  0  0  0  0
  -36.8699   57.2573   62.7309 C   0  0  0  0  0  0  0  0  0  0  0  0
  -38.3596   57.0597   62.7644 C   0  0  0  0  0  0  0  0  0  0  0  0
 21 22  1  0  0  0
  4  5  2  0  0  0
 25 24  1  0  0  0
 25 26  2  0  0  0
 25 27  1  0  0  0
 25 29  1  0  0  0
 22 20  1  0  0  0
  3  5  1  0  0  0
  3  2  1  0  0  0
 20 19  1  0  0  0
 24 23  1  0  0  0
 19 18  1  0  0  0
 18 17  1  0  0  0
 27 28  1  0  0  0
 17 16  1  0  0  0
 29 30  1  0  0  0
 16 15  1  0  0  0
 34 35  1  0  0  0
 34 36  1  0  0  0
 15 14  1  0  0  0
 31 32  1  0  0  0
 31 33  1  0  0  0
 14 13  1  0  0  0
 37  1  1  0  0  0
 37 39  1  0  0  0
 13 12  1  0  0  0
 38 39  2  0  0  0
 12 11  1  0  0  0
 11 10  1  0  0  0
 10  9  1  0  0  0
  9  8  1  0  0  0
  8  7  1  0  0  0
  7  6  1  0  0  0
  6  5  1  0  0  0
  2  1  1  0  0  0
  1 23  1  0  0  0
 30 32  1  0  0  0
 32 35  1  0  0  0
 39 40  1  0  0  0
 40 41  1  0  0  0
 41 42  1  0  0  0
 42 43  1  0  0  0
 43 44  1  0  0  0
 44 45  1  0  0  0
 45 46  1  0  0  0
 46 47  1  0  0  0
 47 48  2  0  0  0
 48 49  1  0  0  0
 49 50  1  0  0  0
 50 51  1  0  0  0
 51 52  1  0  0  0
 52 53  1  0  0  0
 53 54  1  0  0  0
 54 55  1  0  0  0
 55 56  1  0  0  0
M  CHG 1  26  -1
M  END
> <minimizedAffinity>
-8.49782

> <CNNscore>
0.4122785032

> <CNNaffinity>
7.3946886063

> <CNN_VS>
3.0486712456

> <CNNaffinity_variance>
0.8153446317

$$$$
