/media/chris/experiments/cd1a-new-docking/inputs/ligands/7sh4_ligand.pdb


 56 55  0  0  0  0  0  0  0  0999 V2000
  -37.9041   60.0358   62.2450 C   0  0  0  0  0  0  0  0  0  0  0  0
  -39.3027   60.4274   62.6303 C   0  0  0  0  0  0  0  0  0  0  0  0
  -39.7065   59.4049   63.5655 O   0  0  0  0  0  0  0  0  0  0  0  0
  -40.0236   60.8043   65.2802 O   0  0  0  0  0  0  0  0  0  0  0  0
  -40.3245   59.8109   64.6749 C   0  0  0  0  0  0  0  0  0  0  0  0
  -41.5082   58.9409   64.9861 C   0  0  0  0  0  0  0  0  0  0  0  0
  -42.0268   59.0838   66.4071 C   0  0  0  0  0  0  0  0  0  0  0  0
  -43.5348   58.9789   66.4941 C   0  0  0  0  0  0  0  0  0  0  0  0
  -44.2315   58.9425   65.1529 C   0  0  0  0  0  0  0  0  0  0  0  0
  -45.7282   59.1557   65.2556 C   0  0  0  0  0  0  0  0  0  0  0  0
  -46.5306   58.0669   64.5863 C   0  0  0  0  0  0  0  0  0  0  0  0
  -48.0142   58.3218   64.6233 C   0  0  0  0  0  0  0  0  0  0  0  0
  -48.3770   59.7808   64.4568 C   0  0  0  0  0  0  0  0  0  0  0  0
  -49.7794   59.9774   63.9175 C   0  0  0  0  0  0  0  0  0  0  0  0
  -50.4999   58.6878   63.5844 C   0  0  0  0  0  0  0  0  0  0  0  0
  -51.0370   58.6327   62.1586 C   0  0  0  0  0  0  0  0  0  0  0  0
  -50.6722   57.3645   61.4113 C   0  0  0  0  0  0  0  0  0  0  0  0
  -49.2018   57.2764   61.0572 C   0  0  0  0  0  0  0  0  0  0  0  0
  -48.9406   57.1457   59.5631 C   0  0  0  0  0  0  0  0  0  0  0  0
  -47.6506   57.8070   59.1116 C   0  0  0  0  0  0  0  0  0  0  0  0
  -48.1208   56.5500   56.9822 C   0  0  0  0  0  0  0  0  0  0  0  0
  -47.0815   57.2677   57.8131 C   0  0  0  0  0  0  0  0  0  0  0  0
  -36.8803   60.5631   63.2174 C   0  0  0  0  0  0  0  0  0  0  0  0
  -36.9680   62.0052   63.2487 O   0  0  0  0  0  0  0  0  0  0  0  0
  -35.6853   62.9550   63.1292 P   0  0  0  0  0  0  0  0  0  0  0  0
  -34.4814   62.1312   63.3720 O   0  0  0  0  0  0  0  0  0  0  0  0
  -35.7869   63.7102   61.8572 O   0  0  0  0  0  0  0  0  0  0  0  0
  -35.7091   63.0967   61.1099 H   0  0  0  0  0  0  0  0  0  0  0  0
  -35.8177   63.9966   64.3293 O   0  0  0  0  0  0  0  0  0  0  0  0
  -34.9077   63.9300   65.4462 C   0  0  0  0  0  0  0  0  0  0  0  0
  -36.9060   64.2355   66.7329 O   0  0  0  0  0  0  0  0  0  0  0  0
  -35.6828   63.4965   66.6661 C   0  0  0  0  0  0  0  0  0  0  0  0
  -36.7104   65.1856   66.7307 H   0  0  0  0  0  0  0  0  0  0  0  0
  -37.3102   61.7605   66.2708 O   0  0  0  0  0  0  0  0  0  0  0  0
  -35.9689   62.0140   66.6686 C   0  0  0  0  0  0  0  0  0  0  0  0
  -37.4746   60.8046   66.2785 H   0  0  0  0  0  0  0  0  0  0  0  0
  -37.6510   60.5110   60.8812 O   0  0  0  0  0  0  0  0  0  0  0  0
  -39.0317   60.0870   59.1567 O   0  0  0  0  0  0  0  0  0  0  0  0
  -38.1270   59.7553   59.8731 C   0  0  0  0  0  0  0  0  0  0  0  0
  -37.3822   58.4630   59.7413 C   0  0  0  0  0  0  0  0  0  0  0  0
  -36.9593   58.2063   58.2983 C   0  0  0  0  0  0  0  0  0  0  0  0
  -36.3691   56.8252   58.0655 C   0  0  0  0  0  0  0  0  0  0  0  0
  -36.5455   55.8794   59.2480 C   0  0  0  0  0  0  0  0  0  0  0  0
  -35.2783   55.1452   59.6451 C   0  0  0  0  0  0  0  0  0  0  0  0
  -34.0316   56.0299   59.7352 C   0  0  0  0  0  0  0  0  0  0  0  0
  -33.5221   56.2952   61.1536 C   0  0  0  0  0  0  0  0  0  0  0  0
  -34.2649   57.4139   61.8205 C   0  0  0  0  0  0  0  0  0  0  0  0
  -33.7361   58.4644   62.4173 C   0  0  0  0  0  0  0  0  0  0  0  0
  -32.2759   58.7608   62.5524 C   0  0  0  0  0  0  0  0  0  0  0  0
  -31.9272   60.1811   62.1169 C   0  0  0  0  0  0  0  0  0  0  0  0
  -30.5032   60.3314   61.6114 C   0  0  0  0  0  0  0  0  0  0  0  0
  -29.6237   61.1838   62.5099 C   0  0  0  0  0  0  0  0  0  0  0  0
  -29.8137   62.6818   62.3393 C   0  0  0  0  0  0  0  0  0  0  0  0
  -30.3984   63.3620   63.5677 C   0  0  0  0  0  0  0  0  0  0  0  0
  -31.7033   64.0902   63.3137 C   0  0  0  0  0  0  0  0  0  0  0  0
  -32.0635   64.1465   61.8553 C   0  0  0  0  0  0  0  0  0  0  0  0
 21 22  1  0  0  0
  4  5  2  0  0  0
 25 24  1  0  0  0
 25 26  2  0  0  0
 25 27  1  0  0  0
 25 29  1  0  0  0
 22 20  1  0  0  0
  3  5  1  0  0  0
  3  2  1  0  0  0
 20 19  1  0  0  0
 24 23  1  0  0  0
 19 18  1  0  0  0
 18 17  1  0  0  0
 27 28  1  0  0  0
 17 16  1  0  0  0
 29 30  1  0  0  0
 16 15  1  0  0  0
 34 35  1  0  0  0
 34 36  1  0  0  0
 15 14  1  0  0  0
 31 32  1  0  0  0
 31 33  1  0  0  0
 14 13  1  0  0  0
 37  1  1  0  0  0
 37 39  1  0  0  0
 13 12  1  0  0  0
 38 39  2  0  0  0
 12 11  1  0  0  0
 11 10  1  0  0  0
 10  9  1  0  0  0
  9  8  1  0  0  0
  8  7  1  0  0  0
  7  6  1  0  0  0
  6  5  1  0  0  0
  2  1  1  0  0  0
  1 23  1  0  0  0
 30 32  1  0  0  0
 32 35  1  0  0  0
 39 40  1  0  0  0
 40 41  1  0  0  0
 41 42  1  0  0  0
 42 43  1  0  0  0
 43 44  1  0  0  0
 44 45  1  0  0  0
 45 46  1  0  0  0
 46 47  1  0  0  0
 47 48  2  0  0  0
 48 49  1  0  0  0
 49 50  1  0  0  0
 50 51  1  0  0  0
 51 52  1  0  0  0
 52 53  1  0  0  0
 53 54  1  0  0  0
 54 55  1  0  0  0
 55 56  1  0  0  0
M  CHG 1  26  -1
M  END
> <minimizedAffinity>
-9.04116

> <CNNscore>
0.6941563487

> <CNNaffinity>
7.2872581482

> <CNN_VS>
5.0584964752

> <CNNaffinity_variance>
1.1298120022

$$$$
/media/chris/experiments/cd1a-new-docking/inputs/ligands/7sh4_ligand.pdb


 56 55  0  0  0  0  0  0  0  0999 V2000
  -38.3403   59.9228   65.6396 C   0  0  0  0  0  0  0  0  0  0  0  0
  -39.6706   60.5317   65.2973 C   0  0  0  0  0  0  0  0  0  0  0  0
  -40.6279   59.6620   65.9378 O   0  0  0  0  0  0  0  0  0  0  0  0
  -42.0107   59.8040   64.1866 O   0  0  0  0  0  0  0  0  0  0  0  0
  -41.8078   59.5141   65.3348 C   0  0  0  0  0  0  0  0  0  0  0  0
  -42.7953   58.8292   66.2352 C   0  0  0  0  0  0  0  0  0  0  0  0
  -44.2033   58.7548   65.6691 C   0  0  0  0  0  0  0  0  0  0  0  0
  -45.1941   58.1477   66.6400 C   0  0  0  0  0  0  0  0  0  0  0  0
  -46.5451   58.8263   66.6513 C   0  0  0  0  0  0  0  0  0  0  0  0
  -46.7843   59.6926   65.4313 C   0  0  0  0  0  0  0  0  0  0  0  0
  -48.0994   59.4067   64.7484 C   0  0  0  0  0  0  0  0  0  0  0  0
  -48.9252   58.3750   65.4701 C   0  0  0  0  0  0  0  0  0  0  0  0
  -50.4074   58.4896   65.1904 C   0  0  0  0  0  0  0  0  0  0  0  0
  -50.7566   59.7217   64.3803 C   0  0  0  0  0  0  0  0  0  0  0  0
  -51.3761   59.4196   63.0319 C   0  0  0  0  0  0  0  0  0  0  0  0
  -50.3753   59.4122   61.8819 C   0  0  0  0  0  0  0  0  0  0  0  0
  -49.7969   58.0438   61.5773 C   0  0  0  0  0  0  0  0  0  0  0  0
  -50.5287   57.3139   60.4696 C   0  0  0  0  0  0  0  0  0  0  0  0
  -49.6281   56.8950   59.3159 C   0  0  0  0  0  0  0  0  0  0  0  0
  -48.2357   57.4968   59.3824 C   0  0  0  0  0  0  0  0  0  0  0  0
  -46.1305   57.9722   58.0872 C   0  0  0  0  0  0  0  0  0  0  0  0
  -47.2860   57.0207   58.2997 C   0  0  0  0  0  0  0  0  0  0  0  0
  -37.2563   60.3585   64.6873 C   0  0  0  0  0  0  0  0  0  0  0  0
  -37.3931   61.7764   64.4440 O   0  0  0  0  0  0  0  0  0  0  0  0
  -36.3951   62.5943   63.4970 P   0  0  0  0  0  0  0  0  0  0  0  0
  -36.5180   62.0531   62.1262 O   0  0  0  0  0  0  0  0  0  0  0  0
  -36.6334   64.0414   63.7154 O   0  0  0  0  0  0  0  0  0  0  0  0
  -37.5199   64.2746   63.3981 H   0  0  0  0  0  0  0  0  0  0  0  0
  -34.9317   62.2527   64.0304 O   0  0  0  0  0  0  0  0  0  0  0  0
  -34.3064   63.1012   65.0148 C   0  0  0  0  0  0  0  0  0  0  0  0
  -33.5894   62.2656   67.1432 O   0  0  0  0  0  0  0  0  0  0  0  0
  -34.7424   62.6419   66.3845 C   0  0  0  0  0  0  0  0  0  0  0  0
  -33.0921   61.5868   66.6607 H   0  0  0  0  0  0  0  0  0  0  0  0
  -36.3772   63.1055   68.0966 O   0  0  0  0  0  0  0  0  0  0  0  0
  -35.5292   63.6990   67.1217 C   0  0  0  0  0  0  0  0  0  0  0  0
  -36.8733   63.7990   68.5589 H   0  0  0  0  0  0  0  0  0  0  0  0
  -38.4911   58.4645   65.6580 O   0  0  0  0  0  0  0  0  0  0  0  0
  -36.8612   57.4147   64.5173 O   0  0  0  0  0  0  0  0  0  0  0  0
  -37.9996   57.7865   64.6031 C   0  0  0  0  0  0  0  0  0  0  0  0
  -39.0454   57.5363   63.5610 C   0  0  0  0  0  0  0  0  0  0  0  0
  -38.5953   58.0268   62.1885 C   0  0  0  0  0  0  0  0  0  0  0  0
  -39.2367   59.3368   61.7615 C   0  0  0  0  0  0  0  0  0  0  0  0
  -38.9637   59.7039   60.3073 C   0  0  0  0  0  0  0  0  0  0  0  0
  -37.6360   59.1921   59.7805 C   0  0  0  0  0  0  0  0  0  0  0  0
  -37.7344   58.3841   58.4834 C   0  0  0  0  0  0  0  0  0  0  0  0
  -36.4606   57.6366   58.0831 C   0  0  0  0  0  0  0  0  0  0  0  0
  -36.5311   56.1780   58.4232 C   0  0  0  0  0  0  0  0  0  0  0  0
  -35.8108   55.5450   59.3287 C   0  0  0  0  0  0  0  0  0  0  0  0
  -34.7681   56.1549   60.2114 C   0  0  0  0  0  0  0  0  0  0  0  0
  -35.3715   56.8729   61.4150 C   0  0  0  0  0  0  0  0  0  0  0  0
  -34.4497   57.9110   62.0304 C   0  0  0  0  0  0  0  0  0  0  0  0
  -33.0392   57.4042   62.2777 C   0  0  0  0  0  0  0  0  0  0  0  0
  -32.0327   58.4882   62.6260 C   0  0  0  0  0  0  0  0  0  0  0  0
  -31.7099   59.4117   61.4613 C   0  0  0  0  0  0  0  0  0  0  0  0
  -30.9998   60.6903   61.8595 C   0  0  0  0  0  0  0  0  0  0  0  0
  -31.9474   61.7633   62.3182 C   0  0  0  0  0  0  0  0  0  0  0  0
 21 22  1  0  0  0
  4  5  2  0  0  0
 25 24  1  0  0  0
 25 26  2  0  0  0
 25 27  1  0  0  0
 25 29  1  0  0  0
 22 20  1  0  0  0
  3  5  1  0  0  0
  3  2  1  0  0  0
 20 19  1  0  0  0
 24 23  1  0  0  0
 19 18  1  0  0  0
 18 17  1  0  0  0
 27 28  1  0  0  0
 17 16  1  0  0  0
 29 30  1  0  0  0
 16 15  1  0  0  0
 34 35  1  0  0  0
 34 36  1  0  0  0
 15 14  1  0  0  0
 31 32  1  0  0  0
 31 33  1  0  0  0
 14 13  1  0  0  0
 37  1  1  0  0  0
 37 39  1  0  0  0
 13 12  1  0  0  0
 38 39  2  0  0  0
 12 11  1  0  0  0
 11 10  1  0  0  0
 10  9  1  0  0  0
  9  8  1  0  0  0
  8  7  1  0  0  0
  7  6  1  0  0  0
  6  5  1  0  0  0
  2  1  1  0  0  0
  1 23  1  0  0  0
 30 32  1  0  0  0
 32 35  1  0  0  0
 39 40  1  0  0  0
 40 41  1  0  0  0
 41 42  1  0  0  0
 42 43  1  0  0  0
 43 44  1  0  0  0
 44 45  1  0  0  0
 45 46  1  0  0  0
 46 47  1  0  0  0
 47 48  2  0  0  0
 48 49  1  0  0  0
 49 50  1  0  0  0
 50 51  1  0  0  0
 51 52  1  0  0  0
 52 53  1  0  0  0
 53 54  1  0  0  0
 54 55  1  0  0  0
 55 56  1  0  0  0
M  CHG 1  26  -1
M  END
> <minimizedAffinity>
-8.89811

> <CNNscore>
0.6627141833

> <CNNaffinity>
7.6380701065

> <CNN_VS>
5.0618572235

> <CNNaffinity_variance>
0.6994003654

$$$$
/media/chris/experiments/cd1a-new-docking/inputs/ligands/7sh4_ligand.pdb


 56 55  0  0  0  0  0  0  0  0999 V2000
  -38.8562   59.8558   65.3922 C   0  0  0  0  0  0  0  0  0  0  0  0
  -38.3644   58.4528   65.1742 C   0  0  0  0  0  0  0  0  0  0  0  0
  -38.1637   58.3709   63.7472 O   0  0  0  0  0  0  0  0  0  0  0  0
  -36.4199   56.9956   64.0063 O   0  0  0  0  0  0  0  0  0  0  0  0
  -37.2743   57.4778   63.3126 C   0  0  0  0  0  0  0  0  0  0  0  0
  -37.5624   57.0702   61.8963 C   0  0  0  0  0  0  0  0  0  0  0  0
  -38.4020   58.0714   61.1210 C   0  0  0  0  0  0  0  0  0  0  0  0
  -37.6028   58.8230   60.0774 C   0  0  0  0  0  0  0  0  0  0  0  0
  -37.6270   58.1900   58.7046 C   0  0  0  0  0  0  0  0  0  0  0  0
  -36.2671   58.1697   58.0365 C   0  0  0  0  0  0  0  0  0  0  0  0
  -35.7577   56.7746   57.7686 C   0  0  0  0  0  0  0  0  0  0  0  0
  -36.5435   55.7124   58.4907 C   0  0  0  0  0  0  0  0  0  0  0  0
  -35.7746   55.0586   59.6175 C   0  0  0  0  0  0  0  0  0  0  0  0
  -34.3704   55.6091   59.7644 C   0  0  0  0  0  0  0  0  0  0  0  0
  -34.0715   56.1826   61.1337 C   0  0  0  0  0  0  0  0  0  0  0  0
  -34.0723   57.7065   61.1769 C   0  0  0  0  0  0  0  0  0  0  0  0
  -33.4691   58.2874   62.4413 C   0  0  0  0  0  0  0  0  0  0  0  0
  -31.9682   58.4769   62.3602 C   0  0  0  0  0  0  0  0  0  0  0  0
  -31.5531   59.8462   61.8406 C   0  0  0  0  0  0  0  0  0  0  0  0
  -30.0965   60.1816   62.1074 C   0  0  0  0  0  0  0  0  0  0  0  0
  -30.9928   62.5174   61.8312 C   0  0  0  0  0  0  0  0  0  0  0  0
  -29.7704   61.6627   62.0785 C   0  0  0  0  0  0  0  0  0  0  0  0
  -37.7900   60.7447   65.9792 C   0  0  0  0  0  0  0  0  0  0  0  0
  -37.2366   61.5652   64.9261 O   0  0  0  0  0  0  0  0  0  0  0  0
  -35.8162   61.2682   64.2508 P   0  0  0  0  0  0  0  0  0  0  0  0
  -34.9558   60.6166   65.2619 O   0  0  0  0  0  0  0  0  0  0  0  0
  -36.0536   60.5728   62.9630 O   0  0  0  0  0  0  0  0  0  0  0  0
  -36.4327   59.6964   63.1338 H   0  0  0  0  0  0  0  0  0  0  0  0
  -35.1947   62.7005   63.9269 O   0  0  0  0  0  0  0  0  0  0  0  0
  -34.2296   63.2877   64.8234 C   0  0  0  0  0  0  0  0  0  0  0  0
  -36.1734   64.6726   65.0386 O   0  0  0  0  0  0  0  0  0  0  0  0
  -34.9294   64.3322   65.6579 C   0  0  0  0  0  0  0  0  0  0  0  0
  -36.0118   64.9661   64.1283 H   0  0  0  0  0  0  0  0  0  0  0  0
  -34.3165   62.7748   67.3951 O   0  0  0  0  0  0  0  0  0  0  0  0
  -35.1624   63.8726   67.0772 C   0  0  0  0  0  0  0  0  0  0  0  0
  -34.4804   62.4944   68.3090 H   0  0  0  0  0  0  0  0  0  0  0  0
  -40.0461   59.8001   66.2471 O   0  0  0  0  0  0  0  0  0  0  0  0
  -41.3717   60.5933   64.6121 O   0  0  0  0  0  0  0  0  0  0  0  0
  -41.2361   60.0080   65.6516 C   0  0  0  0  0  0  0  0  0  0  0  0
  -42.3651   59.4069   66.4302 C   0  0  0  0  0  0  0  0  0  0  0  0
  -43.4282   58.8176   65.5086 C   0  0  0  0  0  0  0  0  0  0  0  0
  -44.0345   57.5202   66.0175 C   0  0  0  0  0  0  0  0  0  0  0  0
  -45.1745   56.9983   65.1503 C   0  0  0  0  0  0  0  0  0  0  0  0
  -46.2400   58.0340   64.8432 C   0  0  0  0  0  0  0  0  0  0  0  0
  -47.6403   57.6762   65.3494 C   0  0  0  0  0  0  0  0  0  0  0  0
  -48.5510   58.8699   65.6451 C   0  0  0  0  0  0  0  0  0  0  0  0
  -49.9942   58.5571   65.3858 C   0  0  0  0  0  0  0  0  0  0  0  0
  -50.5388   58.2605   64.2219 C   0  0  0  0  0  0  0  0  0  0  0  0
  -49.8248   58.1723   62.9101 C   0  0  0  0  0  0  0  0  0  0  0  0
  -50.7330   58.5028   61.7293 C   0  0  0  0  0  0  0  0  0  0  0  0
  -50.7739   57.4164   60.6691 C   0  0  0  0  0  0  0  0  0  0  0  0
  -49.5198   56.5605   60.6241 C   0  0  0  0  0  0  0  0  0  0  0  0
  -48.8489   56.4974   59.2620 C   0  0  0  0  0  0  0  0  0  0  0  0
  -47.8273   57.6018   59.0384 C   0  0  0  0  0  0  0  0  0  0  0  0
  -46.9784   57.4217   57.7955 C   0  0  0  0  0  0  0  0  0  0  0  0
  -47.6663   56.6091   56.7342 C   0  0  0  0  0  0  0  0  0  0  0  0
 21 22  1  0  0  0
  4  5  2  0  0  0
 25 24  1  0  0  0
 25 26  2  0  0  0
 25 27  1  0  0  0
 25 29  1  0  0  0
 22 20  1  0  0  0
  3  5  1  0  0  0
  3  2  1  0  0  0
 20 19  1  0  0  0
 24 23  1  0  0  0
 19 18  1  0  0  0
 18 17  1  0  0  0
 27 28  1  0  0  0
 17 16  1  0  0  0
 29 30  1  0  0  0
 16 15  1  0  0  0
 34 35  1  0  0  0
 34 36  1  0  0  0
 15 14  1  0  0  0
 31 32  1  0  0  0
 31 33  1  0  0  0
 14 13  1  0  0  0
 37  1  1  0  0  0
 37 39  1  0  0  0
 13 12  1  0  0  0
 38 39  2  0  0  0
 12 11  1  0  0  0
 11 10  1  0  0  0
 10  9  1  0  0  0
  9  8  1  0  0  0
  8  7  1  0  0  0
  7  6  1  0  0  0
  6  5  1  0  0  0
  2  1  1  0  0  0
  1 23  1  0  0  0
 30 32  1  0  0  0
 32 35  1  0  0  0
 39 40  1  0  0  0
 40 41  1  0  0  0
 41 42  1  0  0  0
 42 43  1  0  0  0
 43 44  1  0  0  0
 44 45  1  0  0  0
 45 46  1  0  0  0
 46 47  1  0  0  0
 47 48  2  0  0  0
 48 49  1  0  0  0
 49 50  1  0  0  0
 50 51  1  0  0  0
 51 52  1  0  0  0
 52 53  1  0  0  0
 53 54  1  0  0  0
 54 55  1  0  0  0
 55 56  1  0  0  0
M  CHG 1  26  -1
M  END
> <minimizedAffinity>
-8.71520

> <CNNscore>
0.6049163938

> <CNNaffinity>
7.3310012817

> <CNN_VS>
4.4346427917

> <CNNaffinity_variance>
0.5818144679

$$$$
/media/chris/experiments/cd1a-new-docking/inputs/ligands/7sh4_ligand.pdb


 56 55  0  0  0  0  0  0  0  0999 V2000
  -39.2117   59.7751   65.0953 C   0  0  0  0  0  0  0  0  0  0  0  0
  -40.5596   60.0163   65.7138 C   0  0  0  0  0  0  0  0  0  0  0  0
  -41.1116   58.6925   65.8752 O   0  0  0  0  0  0  0  0  0  0  0  0
  -42.7486   59.4383   67.2031 O   0  0  0  0  0  0  0  0  0  0  0  0
  -42.3060   58.6034   66.4611 C   0  0  0  0  0  0  0  0  0  0  0  0
  -43.0605   57.3996   65.9747 C   0  0  0  0  0  0  0  0  0  0  0  0
  -44.4879   57.6938   65.5453 C   0  0  0  0  0  0  0  0  0  0  0  0
  -45.5087   57.2910   66.5887 C   0  0  0  0  0  0  0  0  0  0  0  0
  -46.3097   58.4442   67.1489 C   0  0  0  0  0  0  0  0  0  0  0  0
  -47.6327   58.6482   66.4387 C   0  0  0  0  0  0  0  0  0  0  0  0
  -47.6755   59.9110   65.6136 C   0  0  0  0  0  0  0  0  0  0  0  0
  -48.6324   59.8243   64.4542 C   0  0  0  0  0  0  0  0  0  0  0  0
  -49.8639   58.9982   64.7528 C   0  0  0  0  0  0  0  0  0  0  0  0
  -51.1046   59.5258   64.0609 C   0  0  0  0  0  0  0  0  0  0  0  0
  -51.1818   59.1866   62.5871 C   0  0  0  0  0  0  0  0  0  0  0  0
  -50.6126   57.8155   62.2399 C   0  0  0  0  0  0  0  0  0  0  0  0
  -51.0140   57.3115   60.8669 C   0  0  0  0  0  0  0  0  0  0  0  0
  -50.0356   57.6945   59.7754 C   0  0  0  0  0  0  0  0  0  0  0  0
  -48.6504   57.0899   59.9578 C   0  0  0  0  0  0  0  0  0  0  0  0
  -48.4759   55.7504   59.2644 C   0  0  0  0  0  0  0  0  0  0  0  0
  -47.9245   56.3360   56.8793 C   0  0  0  0  0  0  0  0  0  0  0  0
  -47.4234   55.7334   58.1722 C   0  0  0  0  0  0  0  0  0  0  0  0
  -38.0967   60.3667   65.9191 C   0  0  0  0  0  0  0  0  0  0  0  0
  -37.4416   61.3959   65.1444 O   0  0  0  0  0  0  0  0  0  0  0  0
  -36.0056   61.1907   64.4680 P   0  0  0  0  0  0  0  0  0  0  0  0
  -35.2916   60.1365   65.2202 O   0  0  0  0  0  0  0  0  0  0  0  0
  -36.2034   61.0148   63.0091 O   0  0  0  0  0  0  0  0  0  0  0  0
  -36.6739   60.1826   62.8446 H   0  0  0  0  0  0  0  0  0  0  0  0
  -35.2312   62.5660   64.6952 O   0  0  0  0  0  0  0  0  0  0  0  0
  -35.9571   63.8122   64.6888 C   0  0  0  0  0  0  0  0  0  0  0  0
  -36.9341   63.8974   66.8753 O   0  0  0  0  0  0  0  0  0  0  0  0
  -35.8738   64.4182   66.0683 C   0  0  0  0  0  0  0  0  0  0  0  0
  -37.7846   64.0682   66.4413 H   0  0  0  0  0  0  0  0  0  0  0  0
  -34.6010   62.9979   67.5452 O   0  0  0  0  0  0  0  0  0  0  0  0
  -34.5410   64.1610   66.7296 C   0  0  0  0  0  0  0  0  0  0  0  0
  -33.7372   62.8494   67.9606 H   0  0  0  0  0  0  0  0  0  0  0  0
  -39.2252   60.3175   63.7331 O   0  0  0  0  0  0  0  0  0  0  0  0
  -40.3565   59.7143   61.8848 O   0  0  0  0  0  0  0  0  0  0  0  0
  -39.5513   59.4675   62.7406 C   0  0  0  0  0  0  0  0  0  0  0  0
  -38.7775   58.1881   62.8215 C   0  0  0  0  0  0  0  0  0  0  0  0
  -38.2602   57.7602   61.4518 C   0  0  0  0  0  0  0  0  0  0  0  0
  -37.5398   58.8627   60.6931 C   0  0  0  0  0  0  0  0  0  0  0  0
  -37.9733   58.9843   59.2367 C   0  0  0  0  0  0  0  0  0  0  0  0
  -37.3851   57.9218   58.3271 C   0  0  0  0  0  0  0  0  0  0  0  0
  -35.8931   58.0942   58.0283 C   0  0  0  0  0  0  0  0  0  0  0  0
  -35.0630   56.8103   58.0930 C   0  0  0  0  0  0  0  0  0  0  0  0
  -35.4309   55.9585   59.2708 C   0  0  0  0  0  0  0  0  0  0  0  0
  -34.9256   56.0355   60.4866 C   0  0  0  0  0  0  0  0  0  0  0  0
  -33.8748   56.9959   60.9466 C   0  0  0  0  0  0  0  0  0  0  0  0
  -34.3331   57.8350   62.1358 C   0  0  0  0  0  0  0  0  0  0  0  0
  -33.3131   58.8675   62.5824 C   0  0  0  0  0  0  0  0  0  0  0  0
  -32.0787   58.9273   61.6991 C   0  0  0  0  0  0  0  0  0  0  0  0
  -31.2985   60.2279   61.7944 C   0  0  0  0  0  0  0  0  0  0  0  0
  -32.0348   61.3216   62.5529 C   0  0  0  0  0  0  0  0  0  0  0  0
  -31.8159   62.7165   62.0016 C   0  0  0  0  0  0  0  0  0  0  0  0
  -33.0841   63.5209   61.9343 C   0  0  0  0  0  0  0  0  0  0  0  0
 21 22  1  0  0  0
  4  5  2  0  0  0
 25 24  1  0  0  0
 25 26  2  0  0  0
 25 27  1  0  0  0
 25 29  1  0  0  0
 22 20  1  0  0  0
  3  5  1  0  0  0
  3  2  1  0  0  0
 20 19  1  0  0  0
 24 23  1  0  0  0
 19 18  1  0  0  0
 18 17  1  0  0  0
 27 28  1  0  0  0
 17 16  1  0  0  0
 29 30  1  0  0  0
 16 15  1  0  0  0
 34 35  1  0  0  0
 34 36  1  0  0  0
 15 14  1  0  0  0
 31 32  1  0  0  0
 31 33  1  0  0  0
 14 13  1  0  0  0
 37  1  1  0  0  0
 37 39  1  0  0  0
 13 12  1  0  0  0
 38 39  2  0  0  0
 12 11  1  0  0  0
 11 10  1  0  0  0
 10  9  1  0  0  0
  9  8  1  0  0  0
  8  7  1  0  0  0
  7  6  1  0  0  0
  6  5  1  0  0  0
  2  1  1  0  0  0
  1 23  1  0  0  0
 30 32  1  0  0  0
 32 35  1  0  0  0
 39 40  1  0  0  0
 40 41  1  0  0  0
 41 42  1  0  0  0
 42 43  1  0  0  0
 43 44  1  0  0  0
 44 45  1  0  0  0
 45 46  1  0  0  0
 46 47  1  0  0  0
 47 48  2  0  0  0
 48 49  1  0  0  0
 49 50  1  0  0  0
 50 51  1  0  0  0
 51 52  1  0  0  0
 52 53  1  0  0  0
 53 54  1  0  0  0
 54 55  1  0  0  0
 55 56  1  0  0  0
M  CHG 1  26  -1
M  END
> <minimizedAffinity>
-8.82345

> <CNNscore>
0.5617377758

> <CNNaffinity>
7.1606302261

> <CNN_VS>
4.0223965645

> <CNNaffinity_variance>
0.7562861443

$$$$
/media/chris/experiments/cd1a-new-docking/inputs/ligands/7sh4_ligand.pdb


 56 55  0  0  0  0  0  0  0  0999 V2000
  -38.3789   60.0452   65.2183 C   0  0  0  0  0  0  0  0  0  0  0  0
  -37.6352   59.4166   64.0740 C   0  0  0  0  0  0  0  0  0  0  0  0
  -38.6550   59.1868   63.0789 O   0  0  0  0  0  0  0  0  0  0  0  0
  -38.7298   61.3752   62.6265 O   0  0  0  0  0  0  0  0  0  0  0  0
  -39.1354   60.2584   62.4475 C   0  0  0  0  0  0  0  0  0  0  0  0
  -40.1465   59.8680   61.4082 C   0  0  0  0  0  0  0  0  0  0  0  0
  -39.7651   60.2642   59.9919 C   0  0  0  0  0  0  0  0  0  0  0  0
  -38.3281   59.9258   59.6554 C   0  0  0  0  0  0  0  0  0  0  0  0
  -38.1688   58.7081   58.7736 C   0  0  0  0  0  0  0  0  0  0  0  0
  -36.7912   58.0838   58.8671 C   0  0  0  0  0  0  0  0  0  0  0  0
  -36.5097   57.0973   57.7603 C   0  0  0  0  0  0  0  0  0  0  0  0
  -36.5495   55.6653   58.2242 C   0  0  0  0  0  0  0  0  0  0  0  0
  -36.0292   55.4755   59.6318 C   0  0  0  0  0  0  0  0  0  0  0  0
  -34.5292   55.6663   59.7320 C   0  0  0  0  0  0  0  0  0  0  0  0
  -34.1070   56.7406   60.7122 C   0  0  0  0  0  0  0  0  0  0  0  0
  -32.9985   56.3050   61.6639 C   0  0  0  0  0  0  0  0  0  0  0  0
  -32.3115   57.4540   62.3767 C   0  0  0  0  0  0  0  0  0  0  0  0
  -32.4763   58.7846   61.6712 C   0  0  0  0  0  0  0  0  0  0  0  0
  -31.6523   59.9074   62.2859 C   0  0  0  0  0  0  0  0  0  0  0  0
  -30.2262   59.9682   61.7682 C   0  0  0  0  0  0  0  0  0  0  0  0
  -29.9507   62.3225   62.6149 C   0  0  0  0  0  0  0  0  0  0  0  0
  -29.3279   60.9500   62.4962 C   0  0  0  0  0  0  0  0  0  0  0  0
  -37.4629   60.4027   66.3606 C   0  0  0  0  0  0  0  0  0  0  0  0
  -36.3325   61.1361   65.8384 O   0  0  0  0  0  0  0  0  0  0  0  0
  -35.9485   62.6080   66.3364 P   0  0  0  0  0  0  0  0  0  0  0  0
  -36.7243   63.5793   65.5355 O   0  0  0  0  0  0  0  0  0  0  0  0
  -36.0726   62.6425   67.8136 O   0  0  0  0  0  0  0  0  0  0  0  0
  -37.0039   62.5338   68.0624 H   0  0  0  0  0  0  0  0  0  0  0  0
  -34.4072   62.7893   65.9699 O   0  0  0  0  0  0  0  0  0  0  0  0
  -33.7856   64.0854   66.0861 C   0  0  0  0  0  0  0  0  0  0  0  0
  -34.5698   64.7853   63.9325 O   0  0  0  0  0  0  0  0  0  0  0  0
  -33.3895   64.5484   64.7056 C   0  0  0  0  0  0  0  0  0  0  0  0
  -35.1129   63.9818   63.9172 H   0  0  0  0  0  0  0  0  0  0  0  0
  -32.8830   66.6735   63.6827 O   0  0  0  0  0  0  0  0  0  0  0  0
  -32.5312   65.7903   64.7400 C   0  0  0  0  0  0  0  0  0  0  0  0
  -32.3219   67.4638   63.7214 H   0  0  0  0  0  0  0  0  0  0  0  0
  -39.4385   59.1243   65.6416 O   0  0  0  0  0  0  0  0  0  0  0  0
  -40.8962   60.8274   65.8271 O   0  0  0  0  0  0  0  0  0  0  0  0
  -40.6644   59.6493   65.8298 C   0  0  0  0  0  0  0  0  0  0  0  0
  -41.7042   58.5895   66.0238 C   0  0  0  0  0  0  0  0  0  0  0  0
  -43.0513   59.0164   65.4495 C   0  0  0  0  0  0  0  0  0  0  0  0
  -44.2036   58.9081   66.4347 C   0  0  0  0  0  0  0  0  0  0  0  0
  -45.2552   57.8802   66.0326 C   0  0  0  0  0  0  0  0  0  0  0  0
  -45.6559   57.9471   64.5707 C   0  0  0  0  0  0  0  0  0  0  0  0
  -47.1342   58.2658   64.3296 C   0  0  0  0  0  0  0  0  0  0  0  0
  -47.5769   59.6666   64.7579 C   0  0  0  0  0  0  0  0  0  0  0  0
  -48.4539   59.6348   65.9736 C   0  0  0  0  0  0  0  0  0  0  0  0
  -49.6618   59.1124   66.0596 C   0  0  0  0  0  0  0  0  0  0  0  0
  -50.4122   58.4372   64.9554 C   0  0  0  0  0  0  0  0  0  0  0  0
  -51.1030   59.4322   64.0274 C   0  0  0  0  0  0  0  0  0  0  0  0
  -51.2062   58.9543   62.5897 C   0  0  0  0  0  0  0  0  0  0  0  0
  -49.9578   58.2472   62.0909 C   0  0  0  0  0  0  0  0  0  0  0  0
  -49.6906   58.4149   60.6044 C   0  0  0  0  0  0  0  0  0  0  0  0
  -49.2567   57.1287   59.9181 C   0  0  0  0  0  0  0  0  0  0  0  0
  -48.1058   57.2996   58.9466 C   0  0  0  0  0  0  0  0  0  0  0  0
  -48.3297   56.5777   57.6471 C   0  0  0  0  0  0  0  0  0  0  0  0
 21 22  1  0  0  0
  4  5  2  0  0  0
 25 24  1  0  0  0
 25 26  2  0  0  0
 25 27  1  0  0  0
 25 29  1  0  0  0
 22 20  1  0  0  0
  3  5  1  0  0  0
  3  2  1  0  0  0
 20 19  1  0  0  0
 24 23  1  0  0  0
 19 18  1  0  0  0
 18 17  1  0  0  0
 27 28  1  0  0  0
 17 16  1  0  0  0
 29 30  1  0  0  0
 16 15  1  0  0  0
 34 35  1  0  0  0
 34 36  1  0  0  0
 15 14  1  0  0  0
 31 32  1  0  0  0
 31 33  1  0  0  0
 14 13  1  0  0  0
 37  1  1  0  0  0
 37 39  1  0  0  0
 13 12  1  0  0  0
 38 39  2  0  0  0
 12 11  1  0  0  0
 11 10  1  0  0  0
 10  9  1  0  0  0
  9  8  1  0  0  0
  8  7  1  0  0  0
  7  6  1  0  0  0
  6  5  1  0  0  0
  2  1  1  0  0  0
  1 23  1  0  0  0
 30 32  1  0  0  0
 32 35  1  0  0  0
 39 40  1  0  0  0
 40 41  1  0  0  0
 41 42  1  0  0  0
 42 43  1  0  0  0
 43 44  1  0  0  0
 44 45  1  0  0  0
 45 46  1  0  0  0
 46 47  1  0  0  0
 47 48  2  0  0  0
 48 49  1  0  0  0
 49 50  1  0  0  0
 50 51  1  0  0  0
 51 52  1  0  0  0
 52 53  1  0  0  0
 53 54  1  0  0  0
 54 55  1  0  0  0
 55 56  1  0  0  0
M  CHG 1  26  -1
M  END
> <minimizedAffinity>
-8.42227

> <CNNscore>
0.5611499548

> <CNNaffinity>
7.3803949356

> <CNN_VS>
4.1415081024

> <CNNaffinity_variance>
0.3142432272

$$$$
/media/chris/experiments/cd1a-new-docking/inputs/ligands/7sh4_ligand.pdb


 56 55  0  0  0  0  0  0  0  0999 V2000
  -36.4495   60.2935   63.8358 C   0  0  0  0  0  0  0  0  0  0  0  0
  -34.9748   60.0353   63.7084 C   0  0  0  0  0  0  0  0  0  0  0  0
  -34.8623   59.2363   62.5117 O   0  0  0  0  0  0  0  0  0  0  0  0
  -32.6588   58.8568   62.5104 O   0  0  0  0  0  0  0  0  0  0  0  0
  -33.7866   58.4557   62.4054 C   0  0  0  0  0  0  0  0  0  0  0  0
  -34.1754   57.0120   62.2660 C   0  0  0  0  0  0  0  0  0  0  0  0
  -34.1499   56.4979   60.8364 C   0  0  0  0  0  0  0  0  0  0  0  0
  -35.5356   56.3247   60.2510 C   0  0  0  0  0  0  0  0  0  0  0  0
  -35.7933   57.1544   59.0138 C   0  0  0  0  0  0  0  0  0  0  0  0
  -37.1195   57.8863   59.0557 C   0  0  0  0  0  0  0  0  0  0  0  0
  -37.3928   58.5448   60.3857 C   0  0  0  0  0  0  0  0  0  0  0  0
  -38.1092   59.8627   60.2537 C   0  0  0  0  0  0  0  0  0  0  0  0
  -39.6080   59.7510   60.4249 C   0  0  0  0  0  0  0  0  0  0  0  0
  -40.3757   60.3384   59.2578 C   0  0  0  0  0  0  0  0  0  0  0  0
  -41.6512   59.5950   58.9204 C   0  0  0  0  0  0  0  0  0  0  0  0
  -41.7404   59.1545   57.4636 C   0  0  0  0  0  0  0  0  0  0  0  0
  -43.1575   58.9203   56.9764 C   0  0  0  0  0  0  0  0  0  0  0  0
  -44.1021   58.4641   58.0695 C   0  0  0  0  0  0  0  0  0  0  0  0
  -45.3183   57.7104   57.5498 C   0  0  0  0  0  0  0  0  0  0  0  0
  -46.4782   57.6793   58.5291 C   0  0  0  0  0  0  0  0  0  0  0  0
  -47.5923   56.1928   56.8307 C   0  0  0  0  0  0  0  0  0  0  0  0
  -47.7915   57.1978   57.9425 C   0  0  0  0  0  0  0  0  0  0  0  0
  -36.7464   61.7377   64.1485 C   0  0  0  0  0  0  0  0  0  0  0  0
  -35.6680   62.2716   64.9487 O   0  0  0  0  0  0  0  0  0  0  0  0
  -35.8915   62.8727   66.4152 P   0  0  0  0  0  0  0  0  0  0  0  0
  -36.7521   64.0691   66.2935 O   0  0  0  0  0  0  0  0  0  0  0  0
  -36.3273   61.7693   67.3048 O   0  0  0  0  0  0  0  0  0  0  0  0
  -37.2044   61.4595   67.0298 H   0  0  0  0  0  0  0  0  0  0  0  0
  -34.4498   63.3521   66.8994 O   0  0  0  0  0  0  0  0  0  0  0  0
  -33.3628   63.4365   65.9554 C   0  0  0  0  0  0  0  0  0  0  0  0
  -31.4998   64.9437   65.9622 O   0  0  0  0  0  0  0  0  0  0  0  0
  -32.9254   64.8776   65.8612 C   0  0  0  0  0  0  0  0  0  0  0  0
  -31.2139   64.5179   66.7855 H   0  0  0  0  0  0  0  0  0  0  0  0
  -34.6606   65.0363   64.1931 O   0  0  0  0  0  0  0  0  0  0  0  0
  -33.3884   65.5366   64.5840 C   0  0  0  0  0  0  0  0  0  0  0  0
  -34.9407   65.4707   63.3723 H   0  0  0  0  0  0  0  0  0  0  0  0
  -36.9883   59.3953   64.8619 O   0  0  0  0  0  0  0  0  0  0  0  0
  -36.7669   57.1657   64.6621 O   0  0  0  0  0  0  0  0  0  0  0  0
  -37.3857   58.1739   64.4566 C   0  0  0  0  0  0  0  0  0  0  0  0
  -38.6980   58.2217   63.7369 C   0  0  0  0  0  0  0  0  0  0  0  0
  -39.8220   57.6344   64.5845 C   0  0  0  0  0  0  0  0  0  0  0  0
  -40.7345   58.6784   65.2067 C   0  0  0  0  0  0  0  0  0  0  0  0
  -41.9961   58.0920   65.8301 C   0  0  0  0  0  0  0  0  0  0  0  0
  -42.8378   59.1029   66.5864 C   0  0  0  0  0  0  0  0  0  0  0  0
  -44.3248   58.7494   66.6814 C   0  0  0  0  0  0  0  0  0  0  0  0
  -44.7953   57.6493   65.7274 C   0  0  0  0  0  0  0  0  0  0  0  0
  -45.5977   58.1970   64.5854 C   0  0  0  0  0  0  0  0  0  0  0  0
  -46.9063   58.1269   64.4376 C   0  0  0  0  0  0  0  0  0  0  0  0
  -47.8685   57.4834   65.3855 C   0  0  0  0  0  0  0  0  0  0  0  0
  -49.3208   57.8172   65.0571 C   0  0  0  0  0  0  0  0  0  0  0  0
  -49.6199   59.3060   65.0614 C   0  0  0  0  0  0  0  0  0  0  0  0
  -50.9079   59.6714   64.3438 C   0  0  0  0  0  0  0  0  0  0  0  0
  -51.0421   59.0798   62.9505 C   0  0  0  0  0  0  0  0  0  0  0  0
  -49.9368   59.5129   61.9996 C   0  0  0  0  0  0  0  0  0  0  0  0
  -49.6552   58.5273   60.8828 C   0  0  0  0  0  0  0  0  0  0  0  0
  -50.5196   57.2998   60.9589 C   0  0  0  0  0  0  0  0  0  0  0  0
 21 22  1  0  0  0
  4  5  2  0  0  0
 25 24  1  0  0  0
 25 26  2  0  0  0
 25 27  1  0  0  0
 25 29  1  0  0  0
 22 20  1  0  0  0
  3  5  1  0  0  0
  3  2  1  0  0  0
 20 19  1  0  0  0
 24 23  1  0  0  0
 19 18  1  0  0  0
 18 17  1  0  0  0
 27 28  1  0  0  0
 17 16  1  0  0  0
 29 30  1  0  0  0
 16 15  1  0  0  0
 34 35  1  0  0  0
 34 36  1  0  0  0
 15 14  1  0  0  0
 31 32  1  0  0  0
 31 33  1  0  0  0
 14 13  1  0  0  0
 37  1  1  0  0  0
 37 39  1  0  0  0
 13 12  1  0  0  0
 38 39  2  0  0  0
 12 11  1  0  0  0
 11 10  1  0  0  0
 10  9  1  0  0  0
  9  8  1  0  0  0
  8  7  1  0  0  0
  7  6  1  0  0  0
  6  5  1  0  0  0
  2  1  1  0  0  0
  1 23  1  0  0  0
 30 32  1  0  0  0
 32 35  1  0  0  0
 39 40  1  0  0  0
 40 41  1  0  0  0
 41 42  1  0  0  0
 42 43  1  0  0  0
 43 44  1  0  0  0
 44 45  1  0  0  0
 45 46  1  0  0  0
 46 47  1  0  0  0
 47 48  2  0  0  0
 48 49  1  0  0  0
 49 50  1  0  0  0
 50 51  1  0  0  0
 51 52  1  0  0  0
 52 53  1  0  0  0
 53 54  1  0  0  0
 54 55  1  0  0  0
 55 56  1  0  0  0
M  CHG 1  26  -1
M  END
> <minimizedAffinity>
-8.19419

> <CNNscore>
0.4996809065

> <CNNaffinity>
7.3197984695

> <CNN_VS>
3.6575634480

> <CNNaffinity_variance>
0.9165978432

$$$$
/media/chris/experiments/cd1a-new-docking/inputs/ligands/7sh4_ligand.pdb


 56 55  0  0  0  0  0  0  0  0999 V2000
  -38.9693   59.9081   65.4037 C   0  0  0  0  0  0  0  0  0  0  0  0
  -40.3480   60.1659   65.9426 C   0  0  0  0  0  0  0  0  0  0  0  0
  -40.9799   58.8685   65.9204 O   0  0  0  0  0  0  0  0  0  0  0  0
  -42.7913   59.5638   64.8092 O   0  0  0  0  0  0  0  0  0  0  0  0
  -42.2767   58.8333   65.6125 C   0  0  0  0  0  0  0  0  0  0  0  0
  -42.9672   57.6916   66.3015 C   0  0  0  0  0  0  0  0  0  0  0  0
  -44.4581   57.6082   66.0213 C   0  0  0  0  0  0  0  0  0  0  0  0
  -45.2763   58.5004   66.9310 C   0  0  0  0  0  0  0  0  0  0  0  0
  -46.7482   58.5497   66.5897 C   0  0  0  0  0  0  0  0  0  0  0  0
  -47.1525   57.5183   65.5557 C   0  0  0  0  0  0  0  0  0  0  0  0
  -48.0357   58.0810   64.4691 C   0  0  0  0  0  0  0  0  0  0  0  0
  -49.2617   58.7712   65.0056 C   0  0  0  0  0  0  0  0  0  0  0  0
  -50.5434   58.3218   64.3399 C   0  0  0  0  0  0  0  0  0  0  0  0
  -51.0696   59.3324   63.3408 C   0  0  0  0  0  0  0  0  0  0  0  0
  -50.6589   59.0577   61.9093 C   0  0  0  0  0  0  0  0  0  0  0  0
  -50.9475   57.6336   61.4481 C   0  0  0  0  0  0  0  0  0  0  0  0
  -49.8524   57.0300   60.5898 C   0  0  0  0  0  0  0  0  0  0  0  0
  -48.5240   57.7472   60.7168 C   0  0  0  0  0  0  0  0  0  0  0  0
  -47.4413   57.1931   59.8014 C   0  0  0  0  0  0  0  0  0  0  0  0
  -47.3712   57.8876   58.4530 C   0  0  0  0  0  0  0  0  0  0  0  0
  -47.7904   55.9295   56.9281 C   0  0  0  0  0  0  0  0  0  0  0  0
  -46.8321   57.0297   57.3242 C   0  0  0  0  0  0  0  0  0  0  0  0
  -37.8952   60.4266   66.3253 C   0  0  0  0  0  0  0  0  0  0  0  0
  -37.3506   61.6432   65.7669 O   0  0  0  0  0  0  0  0  0  0  0  0
  -36.3556   62.6000   66.5770 P   0  0  0  0  0  0  0  0  0  0  0  0
  -36.7084   64.0008   66.2604 O   0  0  0  0  0  0  0  0  0  0  0  0
  -36.3541   62.1691   67.9958 O   0  0  0  0  0  0  0  0  0  0  0  0
  -37.2268   62.3356   68.3853 H   0  0  0  0  0  0  0  0  0  0  0  0
  -34.9076   62.3102   65.9754 O   0  0  0  0  0  0  0  0  0  0  0  0
  -34.6512   62.5321   64.5736 C   0  0  0  0  0  0  0  0  0  0  0  0
  -32.5217   62.6083   63.4773 O   0  0  0  0  0  0  0  0  0  0  0  0
  -33.3437   63.2737   64.4408 C   0  0  0  0  0  0  0  0  0  0  0  0
  -32.4026   61.6818   63.7387 H   0  0  0  0  0  0  0  0  0  0  0  0
  -34.5110   65.3378   64.8830 O   0  0  0  0  0  0  0  0  0  0  0  0
  -33.5397   64.7188   64.0493 C   0  0  0  0  0  0  0  0  0  0  0  0
  -34.6228   66.2637   64.6167 H   0  0  0  0  0  0  0  0  0  0  0  0
  -38.8752   60.5096   64.0698 O   0  0  0  0  0  0  0  0  0  0  0  0
  -40.3365   60.4388   62.3612 O   0  0  0  0  0  0  0  0  0  0  0  0
  -39.5392   59.8926   63.0736 C   0  0  0  0  0  0  0  0  0  0  0  0
  -39.1509   58.4518   62.9494 C   0  0  0  0  0  0  0  0  0  0  0  0
  -38.6200   58.1342   61.5551 C   0  0  0  0  0  0  0  0  0  0  0  0
  -37.6437   59.1673   61.0173 C   0  0  0  0  0  0  0  0  0  0  0  0
  -37.8549   59.4971   59.5439 C   0  0  0  0  0  0  0  0  0  0  0  0
  -37.8098   58.2879   58.6285 C   0  0  0  0  0  0  0  0  0  0  0  0
  -36.5991   58.2431   57.6919 C   0  0  0  0  0  0  0  0  0  0  0  0
  -35.5739   57.1507   58.0039 C   0  0  0  0  0  0  0  0  0  0  0  0
  -36.1389   56.0828   58.8918 C   0  0  0  0  0  0  0  0  0  0  0  0
  -35.8903   55.9135   60.1759 C   0  0  0  0  0  0  0  0  0  0  0  0
  -34.9883   56.7582   61.0192 C   0  0  0  0  0  0  0  0  0  0  0  0
  -33.6019   56.1427   61.1859 C   0  0  0  0  0  0  0  0  0  0  0  0
  -32.6995   56.9197   62.1283 C   0  0  0  0  0  0  0  0  0  0  0  0
  -32.7472   58.4232   61.9172 C   0  0  0  0  0  0  0  0  0  0  0  0
  -33.4679   59.1904   63.0133 C   0  0  0  0  0  0  0  0  0  0  0  0
  -34.0286   58.2972   64.1094 C   0  0  0  0  0  0  0  0  0  0  0  0
  -35.5338   58.3786   64.2691 C   0  0  0  0  0  0  0  0  0  0  0  0
  -36.1620   57.0420   64.5495 C   0  0  0  0  0  0  0  0  0  0  0  0
 21 22  1  0  0  0
  4  5  2  0  0  0
 25 24  1  0  0  0
 25 26  2  0  0  0
 25 27  1  0  0  0
 25 29  1  0  0  0
 22 20  1  0  0  0
  3  5  1  0  0  0
  3  2  1  0  0  0
 20 19  1  0  0  0
 24 23  1  0  0  0
 19 18  1  0  0  0
 18 17  1  0  0  0
 27 28  1  0  0  0
 17 16  1  0  0  0
 29 30  1  0  0  0
 16 15  1  0  0  0
 34 35  1  0  0  0
 34 36  1  0  0  0
 15 14  1  0  0  0
 31 32  1  0  0  0
 31 33  1  0  0  0
 14 13  1  0  0  0
 37  1  1  0  0  0
 37 39  1  0  0  0
 13 12  1  0  0  0
 38 39  2  0  0  0
 12 11  1  0  0  0
 11 10  1  0  0  0
 10  9  1  0  0  0
  9  8  1  0  0  0
  8  7  1  0  0  0
  7  6  1  0  0  0
  6  5  1  0  0  0
  2  1  1  0  0  0
  1 23  1  0  0  0
 30 32  1  0  0  0
 32 35  1  0  0  0
 39 40  1  0  0  0
 40 41  1  0  0  0
 41 42  1  0  0  0
 42 43  1  0  0  0
 43 44  1  0  0  0
 44 45  1  0  0  0
 45 46  1  0  0  0
 46 47  1  0  0  0
 47 48  2  0  0  0
 48 49  1  0  0  0
 49 50  1  0  0  0
 50 51  1  0  0  0
 51 52  1  0  0  0
 52 53  1  0  0  0
 53 54  1  0  0  0
 54 55  1  0  0  0
 55 56  1  0  0  0
M  CHG 1  26  -1
M  END
> <minimizedAffinity>
-8.52702

> <CNNscore>
0.4275223613

> <CNNaffinity>
7.3804998398

> <CNN_VS>
3.1553287506

> <CNNaffinity_variance>
0.8873756528

$$$$
/media/chris/experiments/cd1a-new-docking/inputs/ligands/7sh4_ligand.pdb


 56 55  0  0  0  0  0  0  0  0999 V2000
  -36.9506   60.5272   65.6507 C   0  0  0  0  0  0  0  0  0  0  0  0
  -38.3343   59.9806   65.8614 C   0  0  0  0  0  0  0  0  0  0  0  0
  -39.1310   60.6526   64.8631 O   0  0  0  0  0  0  0  0  0  0  0  0
  -41.2457   61.2070   64.3939 O   0  0  0  0  0  0  0  0  0  0  0  0
  -40.4515   60.4800   64.9273 C   0  0  0  0  0  0  0  0  0  0  0  0
  -40.7979   59.2035   65.6384 C   0  0  0  0  0  0  0  0  0  0  0  0
  -41.9847   59.3202   66.5799 C   0  0  0  0  0  0  0  0  0  0  0  0
  -43.1575   58.4623   66.1539 C   0  0  0  0  0  0  0  0  0  0  0  0
  -44.0354   59.0939   65.0976 C   0  0  0  0  0  0  0  0  0  0  0  0
  -45.4834   59.2189   65.5264 C   0  0  0  0  0  0  0  0  0  0  0  0
  -46.3485   58.0842   65.0350 C   0  0  0  0  0  0  0  0  0  0  0  0
  -47.6832   58.5454   64.5124 C   0  0  0  0  0  0  0  0  0  0  0  0
  -48.8382   58.1971   65.4249 C   0  0  0  0  0  0  0  0  0  0  0  0
  -50.1778   58.2454   64.7182 C   0  0  0  0  0  0  0  0  0  0  0  0
  -50.4052   59.5058   63.9102 C   0  0  0  0  0  0  0  0  0  0  0  0
  -51.1183   59.2672   62.5841 C   0  0  0  0  0  0  0  0  0  0  0  0
  -51.0142   57.8419   62.0762 C   0  0  0  0  0  0  0  0  0  0  0  0
  -50.5936   57.7498   60.6237 C   0  0  0  0  0  0  0  0  0  0  0  0
  -49.6565   56.5859   60.3323 C   0  0  0  0  0  0  0  0  0  0  0  0
  -48.8567   56.7553   59.0529 C   0  0  0  0  0  0  0  0  0  0  0  0
  -46.8332   57.7077   57.8980 C   0  0  0  0  0  0  0  0  0  0  0  0
  -47.5797   57.5596   59.2044 C   0  0  0  0  0  0  0  0  0  0  0  0
  -36.8391   61.9672   66.0815 C   0  0  0  0  0  0  0  0  0  0  0  0
  -35.4825   62.2207   66.5102 O   0  0  0  0  0  0  0  0  0  0  0  0
  -34.7398   63.6160   66.2588 P   0  0  0  0  0  0  0  0  0  0  0  0
  -35.5761   64.4214   65.3428 O   0  0  0  0  0  0  0  0  0  0  0  0
  -34.3732   64.1879   67.5768 O   0  0  0  0  0  0  0  0  0  0  0  0
  -35.1791   64.4225   68.0629 H   0  0  0  0  0  0  0  0  0  0  0  0
  -33.3910   63.2447   65.4935 O   0  0  0  0  0  0  0  0  0  0  0  0
  -32.7212   64.2370   64.6893 C   0  0  0  0  0  0  0  0  0  0  0  0
  -31.4817   65.3913   66.3845 O   0  0  0  0  0  0  0  0  0  0  0  0
  -32.6006   65.5040   65.5000 C   0  0  0  0  0  0  0  0  0  0  0  0
  -31.5847   64.6008   66.9370 H   0  0  0  0  0  0  0  0  0  0  0  0
  -31.8530   66.3978   63.3879 O   0  0  0  0  0  0  0  0  0  0  0  0
  -32.4567   66.7307   64.6314 C   0  0  0  0  0  0  0  0  0  0  0  0
  -31.7692   67.1971   62.8449 H   0  0  0  0  0  0  0  0  0  0  0  0
  -36.5967   60.3554   64.2382 O   0  0  0  0  0  0  0  0  0  0  0  0
  -34.6877   61.0532   63.2744 O   0  0  0  0  0  0  0  0  0  0  0  0
  -35.2859   60.2568   63.9449 C   0  0  0  0  0  0  0  0  0  0  0  0
  -34.6613   59.0475   64.5691 C   0  0  0  0  0  0  0  0  0  0  0  0
  -35.3738   57.7677   64.1434 C   0  0  0  0  0  0  0  0  0  0  0  0
  -34.7183   57.0585   62.9698 C   0  0  0  0  0  0  0  0  0  0  0  0
  -34.7413   57.8678   61.6781 C   0  0  0  0  0  0  0  0  0  0  0  0
  -33.6592   57.4800   60.6877 C   0  0  0  0  0  0  0  0  0  0  0  0
  -33.4146   55.9729   60.5697 C   0  0  0  0  0  0  0  0  0  0  0  0
  -34.0850   55.2958   59.3723 C   0  0  0  0  0  0  0  0  0  0  0  0
  -35.5674   55.1646   59.5545 C   0  0  0  0  0  0  0  0  0  0  0  0
  -36.5030   55.8105   58.8862 C   0  0  0  0  0  0  0  0  0  0  0  0
  -36.2783   56.8137   57.7992 C   0  0  0  0  0  0  0  0  0  0  0  0
  -36.5537   58.2423   58.2592 C   0  0  0  0  0  0  0  0  0  0  0  0
  -38.0168   58.5137   58.5622 C   0  0  0  0  0  0  0  0  0  0  0  0
  -38.2379   59.6886   59.4992 C   0  0  0  0  0  0  0  0  0  0  0  0
  -37.8526   59.4222   60.9449 C   0  0  0  0  0  0  0  0  0  0  0  0
  -39.0438   59.1351   61.8460 C   0  0  0  0  0  0  0  0  0  0  0  0
  -38.9266   57.8501   62.6415 C   0  0  0  0  0  0  0  0  0  0  0  0
  -38.1265   56.7958   61.9288 C   0  0  0  0  0  0  0  0  0  0  0  0
 21 22  1  0  0  0
  4  5  2  0  0  0
 25 24  1  0  0  0
 25 26  2  0  0  0
 25 27  1  0  0  0
 25 29  1  0  0  0
 22 20  1  0  0  0
  3  5  1  0  0  0
  3  2  1  0  0  0
 20 19  1  0  0  0
 24 23  1  0  0  0
 19 18  1  0  0  0
 18 17  1  0  0  0
 27 28  1  0  0  0
 17 16  1  0  0  0
 29 30  1  0  0  0
 16 15  1  0  0  0
 34 35  1  0  0  0
 34 36  1  0  0  0
 15 14  1  0  0  0
 31 32  1  0  0  0
 31 33  1  0  0  0
 14 13  1  0  0  0
 37  1  1  0  0  0
 37 39  1  0  0  0
 13 12  1  0  0  0
 38 39  2  0  0  0
 12 11  1  0  0  0
 11 10  1  0  0  0
 10  9  1  0  0  0
  9  8  1  0  0  0
  8  7  1  0  0  0
  7  6  1  0  0  0
  6  5  1  0  0  0
  2  1  1  0  0  0
  1 23  1  0  0  0
 30 32  1  0  0  0
 32 35  1  0  0  0
 39 40  1  0  0  0
 40 41  1  0  0  0
 41 42  1  0  0  0
 42 43  1  0  0  0
 43 44  1  0  0  0
 44 45  1  0  0  0
 45 46  1  0  0  0
 46 47  1  0  0  0
 47 48  2  0  0  0
 48 49  1  0  0  0
 49 50  1  0  0  0
 50 51  1  0  0  0
 51 52  1  0  0  0
 52 53  1  0  0  0
 53 54  1  0  0  0
 54 55  1  0  0  0
 55 56  1  0  0  0
M  CHG 1  26  -1
M  END
> <minimizedAffinity>
-8.61305

> <CNNscore>
0.4166934490

> <CNNaffinity>
7.3138451576

> <CNN_VS>
3.0476312637

> <CNNaffinity_variance>
0.4213657975

$$$$
/media/chris/experiments/cd1a-new-docking/inputs/ligands/7sh4_ligand.pdb


 56 55  0  0  0  0  0  0  0  0999 V2000
  -37.6533   61.0047   65.4844 C   0  0  0  0  0  0  0  0  0  0  0  0
  -36.8710   60.7734   64.2226 C   0  0  0  0  0  0  0  0  0  0  0  0
  -35.9380   59.7306   64.5764 O   0  0  0  0  0  0  0  0  0  0  0  0
  -34.2976   60.6190   63.3439 O   0  0  0  0  0  0  0  0  0  0  0  0
  -34.8068   59.6682   63.8735 C   0  0  0  0  0  0  0  0  0  0  0  0
  -34.2009   58.2959   63.9411 C   0  0  0  0  0  0  0  0  0  0  0  0
  -34.2907   57.5134   62.6418 C   0  0  0  0  0  0  0  0  0  0  0  0
  -35.5411   57.8333   61.8501 C   0  0  0  0  0  0  0  0  0  0  0  0
  -36.3090   56.6162   61.3868 C   0  0  0  0  0  0  0  0  0  0  0  0
  -37.7970   56.7154   61.6557 C   0  0  0  0  0  0  0  0  0  0  0  0
  -38.1335   57.6398   62.8001 C   0  0  0  0  0  0  0  0  0  0  0  0
  -39.3608   58.4732   62.5421 C   0  0  0  0  0  0  0  0  0  0  0  0
  -39.0576   59.8002   61.8825 C   0  0  0  0  0  0  0  0  0  0  0  0
  -39.9454   60.0753   60.6856 C   0  0  0  0  0  0  0  0  0  0  0  0
  -39.2841   59.8050   59.3504 C   0  0  0  0  0  0  0  0  0  0  0  0
  -37.8351   59.3445   59.4627 C   0  0  0  0  0  0  0  0  0  0  0  0
  -37.2543   58.8159   58.1652 C   0  0  0  0  0  0  0  0  0  0  0  0
  -37.4592   57.3267   57.9767 C   0  0  0  0  0  0  0  0  0  0  0  0
  -36.1599   56.5396   57.8775 C   0  0  0  0  0  0  0  0  0  0  0  0
  -34.9161   57.4039   57.9840 C   0  0  0  0  0  0  0  0  0  0  0  0
  -33.6444   55.5725   59.1520 C   0  0  0  0  0  0  0  0  0  0  0  0
  -33.6131   56.6328   58.0747 C   0  0  0  0  0  0  0  0  0  0  0  0
  -36.7599   61.3412   66.6508 C   0  0  0  0  0  0  0  0  0  0  0  0
  -35.7624   62.2912   66.2137 O   0  0  0  0  0  0  0  0  0  0  0  0
  -35.8513   63.8552   66.5422 P   0  0  0  0  0  0  0  0  0  0  0  0
  -36.4939   64.5286   65.3930 O   0  0  0  0  0  0  0  0  0  0  0  0
  -36.4550   64.0107   67.8875 O   0  0  0  0  0  0  0  0  0  0  0  0
  -37.3774   63.7115   67.8645 H   0  0  0  0  0  0  0  0  0  0  0  0
  -34.3397   64.3566   66.6225 O   0  0  0  0  0  0  0  0  0  0  0  0
  -33.8738   65.3894   65.7303 C   0  0  0  0  0  0  0  0  0  0  0  0
  -32.9460   65.7103   63.5443 O   0  0  0  0  0  0  0  0  0  0  0  0
  -33.1836   64.7318   64.5606 C   0  0  0  0  0  0  0  0  0  0  0  0
  -33.7848   66.1301   63.2972 H   0  0  0  0  0  0  0  0  0  0  0  0
  -31.2236   64.8216   65.9639 O   0  0  0  0  0  0  0  0  0  0  0  0
  -31.8871   64.0674   64.9575 C   0  0  0  0  0  0  0  0  0  0  0  0
  -30.3946   64.3797   66.2053 H   0  0  0  0  0  0  0  0  0  0  0  0
  -38.4643   59.8124   65.7498 O   0  0  0  0  0  0  0  0  0  0  0  0
  -40.3271   61.0501   65.9915 O   0  0  0  0  0  0  0  0  0  0  0  0
  -39.7980   59.9853   65.8242 C   0  0  0  0  0  0  0  0  0  0  0  0
  -40.5406   58.6961   65.6550 C   0  0  0  0  0  0  0  0  0  0  0  0
  -42.0292   58.9349   65.4231 C   0  0  0  0  0  0  0  0  0  0  0  0
  -42.9260   58.3022   66.4746 C   0  0  0  0  0  0  0  0  0  0  0  0
  -44.3333   57.9988   65.9733 C   0  0  0  0  0  0  0  0  0  0  0  0
  -44.9718   59.1378   65.2004 C   0  0  0  0  0  0  0  0  0  0  0  0
  -46.4918   59.2398   65.3564 C   0  0  0  0  0  0  0  0  0  0  0  0
  -47.2998   58.2273   64.5418 C   0  0  0  0  0  0  0  0  0  0  0  0
  -48.5968   57.8743   65.2059 C   0  0  0  0  0  0  0  0  0  0  0  0
  -49.8056   58.2170   64.8049 C   0  0  0  0  0  0  0  0  0  0  0  0
  -50.1360   59.0331   63.5953 C   0  0  0  0  0  0  0  0  0  0  0  0
  -50.7082   58.1878   62.4610 C   0  0  0  0  0  0  0  0  0  0  0  0
  -49.9777   58.3640   61.1414 C   0  0  0  0  0  0  0  0  0  0  0  0
  -50.2590   57.2603   60.1364 C   0  0  0  0  0  0  0  0  0  0  0  0
  -49.0597   56.3863   59.8087 C   0  0  0  0  0  0  0  0  0  0  0  0
  -48.0532   57.0596   58.8883 C   0  0  0  0  0  0  0  0  0  0  0  0
  -48.1104   56.5842   57.4501 C   0  0  0  0  0  0  0  0  0  0  0  0
  -47.6723   55.1549   57.2921 C   0  0  0  0  0  0  0  0  0  0  0  0
 21 22  1  0  0  0
  4  5  2  0  0  0
 25 24  1  0  0  0
 25 26  2  0  0  0
 25 27  1  0  0  0
 25 29  1  0  0  0
 22 20  1  0  0  0
  3  5  1  0  0  0
  3  2  1  0  0  0
 20 19  1  0  0  0
 24 23  1  0  0  0
 19 18  1  0  0  0
 18 17  1  0  0  0
 27 28  1  0  0  0
 17 16  1  0  0  0
 29 30  1  0  0  0
 16 15  1  0  0  0
 34 35  1  0  0  0
 34 36  1  0  0  0
 15 14  1  0  0  0
 31 32  1  0  0  0
 31 33  1  0  0  0
 14 13  1  0  0  0
 37  1  1  0  0  0
 37 39  1  0  0  0
 13 12  1  0  0  0
 38 39  2  0  0  0
 12 11  1  0  0  0
 11 10  1  0  0  0
 10  9  1  0  0  0
  9  8  1  0  0  0
  8  7  1  0  0  0
  7  6  1  0  0  0
  6  5  1  0  0  0
  2  1  1  0  0  0
  1 23  1  0  0  0
 30 32  1  0  0  0
 32 35  1  0  0  0
 39 40  1  0  0  0
 40 41  1  0  0  0
 41 42  1  0  0  0
 42 43  1  0  0  0
 43 44  1  0  0  0
 44 45  1  0  0  0
 45 46  1  0  0  0
 46 47  1  0  0  0
 47 48  2  0  0  0
 48 49  1  0  0  0
 49 50  1  0  0  0
 50 51  1  0  0  0
 51 52  1  0  0  0
 52 53  1  0  0  0
 53 54  1  0  0  0
 54 55  1  0  0  0
 55 56  1  0  0  0
M  CHG 1  26  -1
M  END
> <minimizedAffinity>
-8.74939

> <CNNscore>
0.4131464064

> <CNNaffinity>
7.4031500816

> <CNN_VS>
3.0585849285

> <CNNaffinity_variance>
0.6137694120

$$$$
