/media/chris/experiments/cd1a-new-docking/inputs/ligands/7sh4_ligand.pdb


 56 55  0  0  0  0  0  0  0  0999 V2000
  -39.5204   59.9438   64.0439 C   0  0  0  0  0  0  0  0  0  0  0  0
  -39.5771   59.2846   62.6949 C   0  0  0  0  0  0  0  0  0  0  0  0
  -39.9362   60.3563   61.7974 O   0  0  0  0  0  0  0  0  0  0  0  0
  -40.3973   60.3678   59.6095 O   0  0  0  0  0  0  0  0  0  0  0  0
  -39.6217   60.1982   60.5113 C   0  0  0  0  0  0  0  0  0  0  0  0
  -38.1580   59.9083   60.3423 C   0  0  0  0  0  0  0  0  0  0  0  0
  -37.8605   58.5396   59.7538 C   0  0  0  0  0  0  0  0  0  0  0  0
  -37.2045   58.6173   58.3913 C   0  0  0  0  0  0  0  0  0  0  0  0
  -37.1264   57.2934   57.6653 C   0  0  0  0  0  0  0  0  0  0  0  0
  -35.8779   56.5041   58.0035 C   0  0  0  0  0  0  0  0  0  0  0  0
  -36.1336   55.3732   58.9694 C   0  0  0  0  0  0  0  0  0  0  0  0
  -35.5534   55.6242   60.3362 C   0  0  0  0  0  0  0  0  0  0  0  0
  -34.1707   56.2364   60.2984 C   0  0  0  0  0  0  0  0  0  0  0  0
  -34.0681   57.5020   61.1254 C   0  0  0  0  0  0  0  0  0  0  0  0
  -32.9788   57.4666   62.1767 C   0  0  0  0  0  0  0  0  0  0  0  0
  -32.4963   58.8461   62.6106 C   0  0  0  0  0  0  0  0  0  0  0  0
  -31.3189   59.3674   61.8093 C   0  0  0  0  0  0  0  0  0  0  0  0
  -31.0182   60.8303   62.0636 C   0  0  0  0  0  0  0  0  0  0  0  0
  -32.2426   61.6459   62.4551 C   0  0  0  0  0  0  0  0  0  0  0  0
  -32.2016   63.0801   61.9585 C   0  0  0  0  0  0  0  0  0  0  0  0
  -31.4025   65.4424   62.3001 C   0  0  0  0  0  0  0  0  0  0  0  0
  -31.3187   64.0082   62.7710 C   0  0  0  0  0  0  0  0  0  0  0  0
  -38.1215   59.9663   64.6047 C   0  0  0  0  0  0  0  0  0  0  0  0
  -37.5246   61.2499   64.3143 O   0  0  0  0  0  0  0  0  0  0  0  0
  -36.1522   61.4052   63.5055 P   0  0  0  0  0  0  0  0  0  0  0  0
  -35.7886   60.0790   62.9616 O   0  0  0  0  0  0  0  0  0  0  0  0
  -36.2956   62.5447   62.5677 O   0  0  0  0  0  0  0  0  0  0  0  0
  -36.9559   62.3261   61.8917 H   0  0  0  0  0  0  0  0  0  0  0  0
  -35.0609   61.8040   64.5977 O   0  0  0  0  0  0  0  0  0  0  0  0
  -34.6804   63.1847   64.7668 C   0  0  0  0  0  0  0  0  0  0  0  0
  -33.6868   64.5591   66.4598 O   0  0  0  0  0  0  0  0  0  0  0  0
  -34.5991   63.4782   66.2448 C   0  0  0  0  0  0  0  0  0  0  0  0
  -32.8252   64.3368   66.0734 H   0  0  0  0  0  0  0  0  0  0  0  0
  -36.8008   62.6710   66.8099 O   0  0  0  0  0  0  0  0  0  0  0  0
  -35.9468   63.8075   66.8405 C   0  0  0  0  0  0  0  0  0  0  0  0
  -37.6601   62.9019   67.1962 H   0  0  0  0  0  0  0  0  0  0  0  0
  -40.4510   59.2472   64.9375 O   0  0  0  0  0  0  0  0  0  0  0  0
  -40.8662   61.1352   66.0878 O   0  0  0  0  0  0  0  0  0  0  0  0
  -41.1570   60.0072   65.7966 C   0  0  0  0  0  0  0  0  0  0  0  0
  -42.3554   59.2849   66.3295 C   0  0  0  0  0  0  0  0  0  0  0  0
  -43.3524   58.9626   65.2210 C   0  0  0  0  0  0  0  0  0  0  0  0
  -44.8038   58.9858   65.6715 C   0  0  0  0  0  0  0  0  0  0  0  0
  -45.6802   57.9627   64.9581 C   0  0  0  0  0  0  0  0  0  0  0  0
  -47.0055   58.5183   64.4711 C   0  0  0  0  0  0  0  0  0  0  0  0
  -48.2362   57.9360   65.1720 C   0  0  0  0  0  0  0  0  0  0  0  0
  -49.5057   58.7843   65.0712 C   0  0  0  0  0  0  0  0  0  0  0  0
  -49.4566   59.7397   63.9168 C   0  0  0  0  0  0  0  0  0  0  0  0
  -50.0836   59.6139   62.7633 C   0  0  0  0  0  0  0  0  0  0  0  0
  -50.9813   58.4852   62.3652 C   0  0  0  0  0  0  0  0  0  0  0  0
  -50.2762   57.4670   61.4737 C   0  0  0  0  0  0  0  0  0  0  0  0
  -48.9135   57.9253   60.9849 C   0  0  0  0  0  0  0  0  0  0  0  0
  -48.6512   57.6070   59.5231 C   0  0  0  0  0  0  0  0  0  0  0  0
  -47.2076   57.2546   59.2046 C   0  0  0  0  0  0  0  0  0  0  0  0
  -46.8070   57.5772   57.7731 C   0  0  0  0  0  0  0  0  0  0  0  0
  -47.4738   56.7038   56.7288 C   0  0  0  0  0  0  0  0  0  0  0  0
  -47.4240   55.2419   57.0755 C   0  0  0  0  0  0  0  0  0  0  0  0
 21 22  1  0  0  0
  4  5  2  0  0  0
 25 24  1  0  0  0
 25 26  2  0  0  0
 25 27  1  0  0  0
 25 29  1  0  0  0
 22 20  1  0  0  0
  3  5  1  0  0  0
  3  2  1  0  0  0
 20 19  1  0  0  0
 24 23  1  0  0  0
 19 18  1  0  0  0
 18 17  1  0  0  0
 27 28  1  0  0  0
 17 16  1  0  0  0
 29 30  1  0  0  0
 16 15  1  0  0  0
 34 35  1  0  0  0
 34 36  1  0  0  0
 15 14  1  0  0  0
 31 32  1  0  0  0
 31 33  1  0  0  0
 14 13  1  0  0  0
 37  1  1  0  0  0
 37 39  1  0  0  0
 13 12  1  0  0  0
 38 39  2  0  0  0
 12 11  1  0  0  0
 11 10  1  0  0  0
 10  9  1  0  0  0
  9  8  1  0  0  0
  8  7  1  0  0  0
  7  6  1  0  0  0
  6  5  1  0  0  0
  2  1  1  0  0  0
  1 23  1  0  0  0
 30 32  1  0  0  0
 32 35  1  0  0  0
 39 40  1  0  0  0
 40 41  1  0  0  0
 41 42  1  0  0  0
 42 43  1  0  0  0
 43 44  1  0  0  0
 44 45  1  0  0  0
 45 46  1  0  0  0
 46 47  1  0  0  0
 47 48  2  0  0  0
 48 49  1  0  0  0
 49 50  1  0  0  0
 50 51  1  0  0  0
 51 52  1  0  0  0
 52 53  1  0  0  0
 53 54  1  0  0  0
 54 55  1  0  0  0
 55 56  1  0  0  0
M  CHG 1  26  -1
M  END
> <minimizedAffinity>
-8.64423

> <CNNscore>
0.7338443398

> <CNNaffinity>
7.5153145790

> <CNN_VS>
5.5150709152

> <CNNaffinity_variance>
0.4229813516

$$$$
/media/chris/experiments/cd1a-new-docking/inputs/ligands/7sh4_ligand.pdb


 56 55  0  0  0  0  0  0  0  0999 V2000
  -38.8288   59.3512   65.2910 C   0  0  0  0  0  0  0  0  0  0  0  0
  -38.2823   60.2856   66.3330 C   0  0  0  0  0  0  0  0  0  0  0  0
  -37.6545   61.3349   65.5663 O   0  0  0  0  0  0  0  0  0  0  0  0
  -35.4884   60.7816   65.6035 O   0  0  0  0  0  0  0  0  0  0  0  0
  -36.3662   61.5750   65.8125 C   0  0  0  0  0  0  0  0  0  0  0  0
  -36.1542   62.9928   66.2594 C   0  0  0  0  0  0  0  0  0  0  0  0
  -34.8380   63.2254   66.9818 C   0  0  0  0  0  0  0  0  0  0  0  0
  -33.7211   63.6389   66.0467 C   0  0  0  0  0  0  0  0  0  0  0  0
  -34.1580   64.5576   64.9283 C   0  0  0  0  0  0  0  0  0  0  0  0
  -33.5144   65.9275   65.0002 C   0  0  0  0  0  0  0  0  0  0  0  0
  -32.4402   66.1345   63.9606 C   0  0  0  0  0  0  0  0  0  0  0  0
  -31.7637   64.8531   63.5503 C   0  0  0  0  0  0  0  0  0  0  0  0
  -31.9621   64.5103   62.0905 C   0  0  0  0  0  0  0  0  0  0  0  0
  -32.6517   63.1757   61.8912 C   0  0  0  0  0  0  0  0  0  0  0  0
  -31.7843   61.9774   62.2150 C   0  0  0  0  0  0  0  0  0  0  0  0
  -32.5734   60.7362   62.6165 C   0  0  0  0  0  0  0  0  0  0  0  0
  -32.0221   59.4441   62.0450 C   0  0  0  0  0  0  0  0  0  0  0  0
  -32.6158   58.2034   62.6801 C   0  0  0  0  0  0  0  0  0  0  0  0
  -32.7446   57.0286   61.7206 C   0  0  0  0  0  0  0  0  0  0  0  0
  -34.1615   56.4974   61.5970 C   0  0  0  0  0  0  0  0  0  0  0  0
  -34.1118   56.8099   59.0998 C   0  0  0  0  0  0  0  0  0  0  0  0
  -34.5000   55.9010   60.2439 C   0  0  0  0  0  0  0  0  0  0  0  0
  -39.0188   60.0348   63.9612 C   0  0  0  0  0  0  0  0  0  0  0  0
  -38.3356   59.2698   62.9432 O   0  0  0  0  0  0  0  0  0  0  0  0
  -36.8634   59.6304   62.4289 P   0  0  0  0  0  0  0  0  0  0  0  0
  -36.7828   61.0977   62.2636 O   0  0  0  0  0  0  0  0  0  0  0  0
  -35.8862   58.9592   63.3193 O   0  0  0  0  0  0  0  0  0  0  0  0
  -35.9382   59.3466   64.2071 H   0  0  0  0  0  0  0  0  0  0  0  0
  -36.7463   58.9664   60.9839 O   0  0  0  0  0  0  0  0  0  0  0  0
  -37.9063   58.3719   60.3668 C   0  0  0  0  0  0  0  0  0  0  0  0
  -38.7590   58.7134   58.1535 O   0  0  0  0  0  0  0  0  0  0  0  0
  -38.4927   59.3684   59.3972 C   0  0  0  0  0  0  0  0  0  0  0  0
  -37.9443   58.3032   57.8232 H   0  0  0  0  0  0  0  0  0  0  0  0
  -40.7229   60.1387   58.8961 O   0  0  0  0  0  0  0  0  0  0  0  0
  -39.7513   60.0131   59.9265 C   0  0  0  0  0  0  0  0  0  0  0  0
  -41.5228   60.5540   59.2548 H   0  0  0  0  0  0  0  0  0  0  0  0
  -40.0843   58.7838   65.7927 O   0  0  0  0  0  0  0  0  0  0  0  0
  -41.0083   60.8332   65.8740 O   0  0  0  0  0  0  0  0  0  0  0  0
  -41.0917   59.6456   66.0306 C   0  0  0  0  0  0  0  0  0  0  0  0
  -42.3308   58.9450   66.4950 C   0  0  0  0  0  0  0  0  0  0  0  0
  -43.5644   59.4338   65.7429 C   0  0  0  0  0  0  0  0  0  0  0  0
  -44.8504   58.7304   66.1451 C   0  0  0  0  0  0  0  0  0  0  0  0
  -45.4344   57.8516   65.0450 C   0  0  0  0  0  0  0  0  0  0  0  0
  -46.1715   56.6286   65.5583 C   0  0  0  0  0  0  0  0  0  0  0  0
  -47.6051   56.8981   66.0242 C   0  0  0  0  0  0  0  0  0  0  0  0
  -48.3886   57.9010   65.1746 C   0  0  0  0  0  0  0  0  0  0  0  0
  -49.7856   58.1005   65.6810 C   0  0  0  0  0  0  0  0  0  0  0  0
  -50.7076   58.8860   65.1591 C   0  0  0  0  0  0  0  0  0  0  0  0
  -50.5506   59.7454   63.9446 C   0  0  0  0  0  0  0  0  0  0  0  0
  -51.1581   59.1086   62.6981 C   0  0  0  0  0  0  0  0  0  0  0  0
  -50.1541   58.3443   61.8531 C   0  0  0  0  0  0  0  0  0  0  0  0
  -50.7925   57.3583   60.8901 C   0  0  0  0  0  0  0  0  0  0  0  0
  -50.2817   57.4525   59.4619 C   0  0  0  0  0  0  0  0  0  0  0  0
  -48.9615   56.7297   59.2421 C   0  0  0  0  0  0  0  0  0  0  0  0
  -48.4276   56.8265   57.8266 C   0  0  0  0  0  0  0  0  0  0  0  0
  -46.9833   57.2404   57.7769 C   0  0  0  0  0  0  0  0  0  0  0  0
 21 22  1  0  0  0
  4  5  2  0  0  0
 25 24  1  0  0  0
 25 26  2  0  0  0
 25 27  1  0  0  0
 25 29  1  0  0  0
 22 20  1  0  0  0
  3  5  1  0  0  0
  3  2  1  0  0  0
 20 19  1  0  0  0
 24 23  1  0  0  0
 19 18  1  0  0  0
 18 17  1  0  0  0
 27 28  1  0  0  0
 17 16  1  0  0  0
 29 30  1  0  0  0
 16 15  1  0  0  0
 34 35  1  0  0  0
 34 36  1  0  0  0
 15 14  1  0  0  0
 31 32  1  0  0  0
 31 33  1  0  0  0
 14 13  1  0  0  0
 37  1  1  0  0  0
 37 39  1  0  0  0
 13 12  1  0  0  0
 38 39  2  0  0  0
 12 11  1  0  0  0
 11 10  1  0  0  0
 10  9  1  0  0  0
  9  8  1  0  0  0
  8  7  1  0  0  0
  7  6  1  0  0  0
  6  5  1  0  0  0
  2  1  1  0  0  0
  1 23  1  0  0  0
 30 32  1  0  0  0
 32 35  1  0  0  0
 39 40  1  0  0  0
 40 41  1  0  0  0
 41 42  1  0  0  0
 42 43  1  0  0  0
 43 44  1  0  0  0
 44 45  1  0  0  0
 45 46  1  0  0  0
 46 47  1  0  0  0
 47 48  2  0  0  0
 48 49  1  0  0  0
 49 50  1  0  0  0
 50 51  1  0  0  0
 51 52  1  0  0  0
 52 53  1  0  0  0
 53 54  1  0  0  0
 54 55  1  0  0  0
 55 56  1  0  0  0
M  CHG 1  26  -1
M  END
> <minimizedAffinity>
-8.47272

> <CNNscore>
0.6948748827

> <CNNaffinity>
7.3117613792

> <CNN_VS>
5.0807595253

> <CNNaffinity_variance>
0.2501422763

$$$$
/media/chris/experiments/cd1a-new-docking/inputs/ligands/7sh4_ligand.pdb


 56 55  0  0  0  0  0  0  0  0999 V2000
  -39.3702   59.6770   65.3100 C   0  0  0  0  0  0  0  0  0  0  0  0
  -40.6450   60.3875   65.6674 C   0  0  0  0  0  0  0  0  0  0  0  0
  -41.4795   59.3492   66.2231 O   0  0  0  0  0  0  0  0  0  0  0  0
  -42.9219   59.4700   64.5189 O   0  0  0  0  0  0  0  0  0  0  0  0
  -42.6695   59.1601   65.6520 C   0  0  0  0  0  0  0  0  0  0  0  0
  -43.5945   58.4050   66.5626 C   0  0  0  0  0  0  0  0  0  0  0  0
  -43.7451   56.9342   66.2131 C   0  0  0  0  0  0  0  0  0  0  0  0
  -44.9103   56.6688   65.2833 C   0  0  0  0  0  0  0  0  0  0  0  0
  -46.2643   56.7353   65.9528 C   0  0  0  0  0  0  0  0  0  0  0  0
  -47.1766   57.7807   65.3436 C   0  0  0  0  0  0  0  0  0  0  0  0
  -48.1497   58.3702   66.3351 C   0  0  0  0  0  0  0  0  0  0  0  0
  -49.2022   59.2301   65.6865 C   0  0  0  0  0  0  0  0  0  0  0  0
  -50.1572   58.4509   64.8095 C   0  0  0  0  0  0  0  0  0  0  0  0
  -50.9585   59.3413   63.8814 C   0  0  0  0  0  0  0  0  0  0  0  0
  -51.2859   58.7066   62.5461 C   0  0  0  0  0  0  0  0  0  0  0  0
  -50.1717   57.8250   61.9934 C   0  0  0  0  0  0  0  0  0  0  0  0
  -50.4802   57.2197   60.6374 C   0  0  0  0  0  0  0  0  0  0  0  0
  -49.2607   56.6533   59.9396 C   0  0  0  0  0  0  0  0  0  0  0  0
  -48.1664   57.6822   59.6919 C   0  0  0  0  0  0  0  0  0  0  0  0
  -46.9299   57.1058   59.0253 C   0  0  0  0  0  0  0  0  0  0  0  0
  -47.7493   56.6676   56.6860 C   0  0  0  0  0  0  0  0  0  0  0  0
  -46.7857   57.4448   57.5538 C   0  0  0  0  0  0  0  0  0  0  0  0
  -38.1788   60.2552   66.0297 C   0  0  0  0  0  0  0  0  0  0  0  0
  -37.4598   61.1179   65.1202 O   0  0  0  0  0  0  0  0  0  0  0  0
  -36.0378   60.7288   64.4971 P   0  0  0  0  0  0  0  0  0  0  0  0
  -35.8592   59.2678   64.6408 O   0  0  0  0  0  0  0  0  0  0  0  0
  -35.9475   61.3276   63.1436 O   0  0  0  0  0  0  0  0  0  0  0  0
  -36.5960   60.9050   62.5591 H   0  0  0  0  0  0  0  0  0  0  0  0
  -34.9589   61.4489   65.4244 O   0  0  0  0  0  0  0  0  0  0  0  0
  -34.4230   62.7328   65.0445 C   0  0  0  0  0  0  0  0  0  0  0  0
  -36.5212   63.8503   64.7420 O   0  0  0  0  0  0  0  0  0  0  0  0
  -35.3490   63.8066   65.5610 C   0  0  0  0  0  0  0  0  0  0  0  0
  -36.2644   63.9894   63.8169 H   0  0  0  0  0  0  0  0  0  0  0  0
  -34.6156   63.1248   67.7555 O   0  0  0  0  0  0  0  0  0  0  0  0
  -35.7305   63.5904   67.0058 C   0  0  0  0  0  0  0  0  0  0  0  0
  -34.8799   62.9922   68.6793 H   0  0  0  0  0  0  0  0  0  0  0  0
  -39.2032   59.7328   63.8544 O   0  0  0  0  0  0  0  0  0  0  0  0
  -39.1634   57.4863   63.7455 O   0  0  0  0  0  0  0  0  0  0  0  0
  -39.1400   58.5565   63.2014 C   0  0  0  0  0  0  0  0  0  0  0  0
  -39.0561   58.7426   61.7181 C   0  0  0  0  0  0  0  0  0  0  0  0
  -37.6373   59.0881   61.2775 C   0  0  0  0  0  0  0  0  0  0  0  0
  -37.5106   59.3983   59.7950 C   0  0  0  0  0  0  0  0  0  0  0  0
  -37.8488   58.2164   58.8937 C   0  0  0  0  0  0  0  0  0  0  0  0
  -36.8113   57.9417   57.8210 C   0  0  0  0  0  0  0  0  0  0  0  0
  -35.4829   57.3901   58.3465 C   0  0  0  0  0  0  0  0  0  0  0  0
  -35.6024   56.1869   59.2844 C   0  0  0  0  0  0  0  0  0  0  0  0
  -34.2681   55.7379   59.8001 C   0  0  0  0  0  0  0  0  0  0  0  0
  -33.7283   56.0482   60.9627 C   0  0  0  0  0  0  0  0  0  0  0  0
  -34.3399   56.9169   62.0162 C   0  0  0  0  0  0  0  0  0  0  0  0
  -34.0389   58.3967   61.7976 C   0  0  0  0  0  0  0  0  0  0  0  0
  -32.8851   58.9145   62.6382 C   0  0  0  0  0  0  0  0  0  0  0  0
  -31.5670   58.9860   61.8868 C   0  0  0  0  0  0  0  0  0  0  0  0
  -31.0276   60.3936   61.6940 C   0  0  0  0  0  0  0  0  0  0  0  0
  -31.7992   61.4495   62.4709 C   0  0  0  0  0  0  0  0  0  0  0  0
  -31.0721   62.7719   62.6135 C   0  0  0  0  0  0  0  0  0  0  0  0
  -30.8829   63.1798   64.0479 C   0  0  0  0  0  0  0  0  0  0  0  0
 21 22  1  0  0  0
  4  5  2  0  0  0
 25 24  1  0  0  0
 25 26  2  0  0  0
 25 27  1  0  0  0
 25 29  1  0  0  0
 22 20  1  0  0  0
  3  5  1  0  0  0
  3  2  1  0  0  0
 20 19  1  0  0  0
 24 23  1  0  0  0
 19 18  1  0  0  0
 18 17  1  0  0  0
 27 28  1  0  0  0
 17 16  1  0  0  0
 29 30  1  0  0  0
 16 15  1  0  0  0
 34 35  1  0  0  0
 34 36  1  0  0  0
 15 14  1  0  0  0
 31 32  1  0  0  0
 31 33  1  0  0  0
 14 13  1  0  0  0
 37  1  1  0  0  0
 37 39  1  0  0  0
 13 12  1  0  0  0
 38 39  2  0  0  0
 12 11  1  0  0  0
 11 10  1  0  0  0
 10  9  1  0  0  0
  9  8  1  0  0  0
  8  7  1  0  0  0
  7  6  1  0  0  0
  6  5  1  0  0  0
  2  1  1  0  0  0
  1 23  1  0  0  0
 30 32  1  0  0  0
 32 35  1  0  0  0
 39 40  1  0  0  0
 40 41  1  0  0  0
 41 42  1  0  0  0
 42 43  1  0  0  0
 43 44  1  0  0  0
 44 45  1  0  0  0
 45 46  1  0  0  0
 46 47  1  0  0  0
 47 48  2  0  0  0
 48 49  1  0  0  0
 49 50  1  0  0  0
 50 51  1  0  0  0
 51 52  1  0  0  0
 52 53  1  0  0  0
 53 54  1  0  0  0
 54 55  1  0  0  0
 55 56  1  0  0  0
M  CHG 1  26  -1
M  END
> <minimizedAffinity>
-8.35704

> <CNNscore>
0.6710885763

> <CNNaffinity>
7.3067331314

> <CNN_VS>
4.9034652710

> <CNNaffinity_variance>
0.5720922351

$$$$
/media/chris/experiments/cd1a-new-docking/inputs/ligands/7sh4_ligand.pdb


 56 55  0  0  0  0  0  0  0  0999 V2000
  -39.0434   59.5166   65.1391 C   0  0  0  0  0  0  0  0  0  0  0  0
  -38.6538   58.0663   65.1882 C   0  0  0  0  0  0  0  0  0  0  0  0
  -38.7681   57.6274   63.8180 O   0  0  0  0  0  0  0  0  0  0  0  0
  -36.5862   57.1526   63.7042 O   0  0  0  0  0  0  0  0  0  0  0  0
  -37.6312   57.3924   63.1620 C   0  0  0  0  0  0  0  0  0  0  0  0
  -37.8606   57.3442   61.6788 C   0  0  0  0  0  0  0  0  0  0  0  0
  -38.5380   58.5817   61.1152 C   0  0  0  0  0  0  0  0  0  0  0  0
  -37.8236   59.1403   59.9026 C   0  0  0  0  0  0  0  0  0  0  0  0
  -37.7887   58.2019   58.7176 C   0  0  0  0  0  0  0  0  0  0  0  0
  -36.4872   58.2706   57.9447 C   0  0  0  0  0  0  0  0  0  0  0  0
  -35.7871   56.9377   57.8407 C   0  0  0  0  0  0  0  0  0  0  0  0
  -36.4647   55.8534   58.6362 C   0  0  0  0  0  0  0  0  0  0  0  0
  -35.5448   55.1682   59.6223 C   0  0  0  0  0  0  0  0  0  0  0  0
  -34.2577   55.9343   59.8518 C   0  0  0  0  0  0  0  0  0  0  0  0
  -34.2551   56.7750   61.1113 C   0  0  0  0  0  0  0  0  0  0  0  0
  -32.9131   56.7973   61.8343 C   0  0  0  0  0  0  0  0  0  0  0  0
  -32.8056   57.8699   62.9011 C   0  0  0  0  0  0  0  0  0  0  0  0
  -32.5591   59.2551   62.3392 C   0  0  0  0  0  0  0  0  0  0  0  0
  -31.0850   59.5811   62.1442 C   0  0  0  0  0  0  0  0  0  0  0  0
  -30.8326   61.0102   61.6977 C   0  0  0  0  0  0  0  0  0  0  0  0
  -32.2596   63.0677   61.9545 C   0  0  0  0  0  0  0  0  0  0  0  0
  -31.3548   62.0730   62.6457 C   0  0  0  0  0  0  0  0  0  0  0  0
  -37.9610   60.4125   65.6846 C   0  0  0  0  0  0  0  0  0  0  0  0
  -37.6815   61.4474   64.7155 O   0  0  0  0  0  0  0  0  0  0  0  0
  -36.3493   61.4683   63.8286 P   0  0  0  0  0  0  0  0  0  0  0  0
  -35.5532   60.2698   64.1699 O   0  0  0  0  0  0  0  0  0  0  0  0
  -36.7396   61.6852   62.4146 O   0  0  0  0  0  0  0  0  0  0  0  0
  -37.2360   60.9158   62.0945 H   0  0  0  0  0  0  0  0  0  0  0  0
  -35.5379   62.7518   64.3152 O   0  0  0  0  0  0  0  0  0  0  0  0
  -34.4228   62.6012   65.2173 C   0  0  0  0  0  0  0  0  0  0  0  0
  -34.1957   62.9230   67.5810 O   0  0  0  0  0  0  0  0  0  0  0  0
  -34.6091   63.5592   66.3682 C   0  0  0  0  0  0  0  0  0  0  0  0
  -34.6898   62.0962   67.6972 H   0  0  0  0  0  0  0  0  0  0  0  0
  -33.3837   65.3530   67.4165 O   0  0  0  0  0  0  0  0  0  0  0  0
  -33.8493   64.8491   66.1712 C   0  0  0  0  0  0  0  0  0  0  0  0
  -32.8989   66.1802   67.2697 H   0  0  0  0  0  0  0  0  0  0  0  0
  -40.3029   59.6812   65.8715 O   0  0  0  0  0  0  0  0  0  0  0  0
  -41.6022   60.5912   64.2764 O   0  0  0  0  0  0  0  0  0  0  0  0
  -41.4286   59.7726   65.1376 C   0  0  0  0  0  0  0  0  0  0  0  0
  -42.4279   58.7218   65.5108 C   0  0  0  0  0  0  0  0  0  0  0  0
  -43.8569   59.2025   65.2802 C   0  0  0  0  0  0  0  0  0  0  0  0
  -44.8459   58.7213   66.3293 C   0  0  0  0  0  0  0  0  0  0  0  0
  -44.9106   57.2035   66.4555 C   0  0  0  0  0  0  0  0  0  0  0  0
  -45.9991   56.5605   65.6164 C   0  0  0  0  0  0  0  0  0  0  0  0
  -47.3654   56.4752   66.3028 C   0  0  0  0  0  0  0  0  0  0  0  0
  -48.4633   57.3390   65.6783 C   0  0  0  0  0  0  0  0  0  0  0  0
  -47.9823   58.0719   64.4621 C   0  0  0  0  0  0  0  0  0  0  0  0
  -48.7306   58.5885   63.5067 C   0  0  0  0  0  0  0  0  0  0  0  0
  -50.2247   58.5516   63.4386 C   0  0  0  0  0  0  0  0  0  0  0  0
  -50.7475   58.7332   62.0166 C   0  0  0  0  0  0  0  0  0  0  0  0
  -50.9872   57.4250   61.2837 C   0  0  0  0  0  0  0  0  0  0  0  0
  -50.2196   57.3077   59.9782 C   0  0  0  0  0  0  0  0  0  0  0  0
  -48.8599   57.9864   59.9841 C   0  0  0  0  0  0  0  0  0  0  0  0
  -47.6948   57.0085   59.9836 C   0  0  0  0  0  0  0  0  0  0  0  0
  -46.4754   57.4941   59.2253 C   0  0  0  0  0  0  0  0  0  0  0  0
  -46.7806   57.8427   57.7953 C   0  0  0  0  0  0  0  0  0  0  0  0
 21 22  1  0  0  0
  4  5  2  0  0  0
 25 24  1  0  0  0
 25 26  2  0  0  0
 25 27  1  0  0  0
 25 29  1  0  0  0
 22 20  1  0  0  0
  3  5  1  0  0  0
  3  2  1  0  0  0
 20 19  1  0  0  0
 24 23  1  0  0  0
 19 18  1  0  0  0
 18 17  1  0  0  0
 27 28  1  0  0  0
 17 16  1  0  0  0
 29 30  1  0  0  0
 16 15  1  0  0  0
 34 35  1  0  0  0
 34 36  1  0  0  0
 15 14  1  0  0  0
 31 32  1  0  0  0
 31 33  1  0  0  0
 14 13  1  0  0  0
 37  1  1  0  0  0
 37 39  1  0  0  0
 13 12  1  0  0  0
 38 39  2  0  0  0
 12 11  1  0  0  0
 11 10  1  0  0  0
 10  9  1  0  0  0
  9  8  1  0  0  0
  8  7  1  0  0  0
  7  6  1  0  0  0
  6  5  1  0  0  0
  2  1  1  0  0  0
  1 23  1  0  0  0
 30 32  1  0  0  0
 32 35  1  0  0  0
 39 40  1  0  0  0
 40 41  1  0  0  0
 41 42  1  0  0  0
 42 43  1  0  0  0
 43 44  1  0  0  0
 44 45  1  0  0  0
 45 46  1  0  0  0
 46 47  1  0  0  0
 47 48  2  0  0  0
 48 49  1  0  0  0
 49 50  1  0  0  0
 50 51  1  0  0  0
 51 52  1  0  0  0
 52 53  1  0  0  0
 53 54  1  0  0  0
 54 55  1  0  0  0
 55 56  1  0  0  0
M  CHG 1  26  -1
M  END
> <minimizedAffinity>
-8.82675

> <CNNscore>
0.5396150947

> <CNNaffinity>
7.4052672386

> <CNN_VS>
3.9959940910

> <CNNaffinity_variance>
0.7465158701

$$$$
/media/chris/experiments/cd1a-new-docking/inputs/ligands/7sh4_ligand.pdb


 56 55  0  0  0  0  0  0  0  0999 V2000
  -38.7466   59.4048   64.4135 C   0  0  0  0  0  0  0  0  0  0  0  0
  -37.6168   58.4733   64.7505 C   0  0  0  0  0  0  0  0  0  0  0  0
  -37.4433   57.6871   63.5527 O   0  0  0  0  0  0  0  0  0  0  0  0
  -35.3673   56.9832   63.9936 O   0  0  0  0  0  0  0  0  0  0  0  0
  -36.1930   57.3725   63.2124 C   0  0  0  0  0  0  0  0  0  0  0  0
  -35.9998   57.4491   61.7252 C   0  0  0  0  0  0  0  0  0  0  0  0
  -36.6943   56.3414   60.9515 C   0  0  0  0  0  0  0  0  0  0  0  0
  -35.8410   55.7847   59.8314 C   0  0  0  0  0  0  0  0  0  0  0  0
  -36.3855   56.0521   58.4465 C   0  0  0  0  0  0  0  0  0  0  0  0
  -36.3306   57.5162   58.0600 C   0  0  0  0  0  0  0  0  0  0  0  0
  -37.6779   58.1943   58.1083 C   0  0  0  0  0  0  0  0  0  0  0  0
  -37.7358   59.3176   59.1097 C   0  0  0  0  0  0  0  0  0  0  0  0
  -38.8789   59.1880   60.0918 C   0  0  0  0  0  0  0  0  0  0  0  0
  -40.0902   60.0056   59.6913 C   0  0  0  0  0  0  0  0  0  0  0  0
  -40.7083   59.5895   58.3730 C   0  0  0  0  0  0  0  0  0  0  0  0
  -42.2328   59.5967   58.3778 C   0  0  0  0  0  0  0  0  0  0  0  0
  -42.8569   58.4972   57.5401 C   0  0  0  0  0  0  0  0  0  0  0  0
  -44.3481   58.6691   57.3355 C   0  0  0  0  0  0  0  0  0  0  0  0
  -45.1948   57.8454   58.2958 C   0  0  0  0  0  0  0  0  0  0  0  0
  -46.6602   57.7735   57.9053 C   0  0  0  0  0  0  0  0  0  0  0  0
  -48.4165   56.3533   56.7942 C   0  0  0  0  0  0  0  0  0  0  0  0
  -47.1876   56.3700   57.6746 C   0  0  0  0  0  0  0  0  0  0  0  0
  -38.3892   60.3455   63.2915 C   0  0  0  0  0  0  0  0  0  0  0  0
  -37.7150   61.4968   63.8468 O   0  0  0  0  0  0  0  0  0  0  0  0
  -36.2574   61.9598   63.3747 P   0  0  0  0  0  0  0  0  0  0  0  0
  -35.4005   60.7576   63.2889 O   0  0  0  0  0  0  0  0  0  0  0  0
  -36.4111   62.8122   62.1712 O   0  0  0  0  0  0  0  0  0  0  0  0
  -36.7489   62.2765   61.4364 H   0  0  0  0  0  0  0  0  0  0  0  0
  -35.7017   62.8755   64.5559 O   0  0  0  0  0  0  0  0  0  0  0  0
  -36.4556   63.0134   65.7776 C   0  0  0  0  0  0  0  0  0  0  0  0
  -36.3109   63.9473   67.9797 O   0  0  0  0  0  0  0  0  0  0  0  0
  -35.7418   64.0006   66.6682 C   0  0  0  0  0  0  0  0  0  0  0  0
  -37.2652   64.1129   67.9251 H   0  0  0  0  0  0  0  0  0  0  0  0
  -33.9717   62.6517   67.5983 O   0  0  0  0  0  0  0  0  0  0  0  0
  -34.2553   63.7448   66.7344 C   0  0  0  0  0  0  0  0  0  0  0  0
  -33.0136   62.5029   67.6277 H   0  0  0  0  0  0  0  0  0  0  0  0
  -39.1243   60.1312   65.6298 O   0  0  0  0  0  0  0  0  0  0  0  0
  -40.9840   61.1712   66.3513 O   0  0  0  0  0  0  0  0  0  0  0  0
  -40.4377   60.1919   65.9217 C   0  0  0  0  0  0  0  0  0  0  0  0
  -41.1371   58.9005   65.6296 C   0  0  0  0  0  0  0  0  0  0  0  0
  -42.4692   59.1335   64.9242 C   0  0  0  0  0  0  0  0  0  0  0  0
  -43.6225   59.4322   65.8681 C   0  0  0  0  0  0  0  0  0  0  0  0
  -44.9944   59.2887   65.2192 C   0  0  0  0  0  0  0  0  0  0  0  0
  -45.2422   57.9282   64.5947 C   0  0  0  0  0  0  0  0  0  0  0  0
  -45.2765   56.7665   65.5919 C   0  0  0  0  0  0  0  0  0  0  0  0
  -46.3633   56.8608   66.6649 C   0  0  0  0  0  0  0  0  0  0  0  0
  -47.6836   56.3429   66.1788 C   0  0  0  0  0  0  0  0  0  0  0  0
  -48.7095   57.0634   65.7691 C   0  0  0  0  0  0  0  0  0  0  0  0
  -48.7686   58.5569   65.7024 C   0  0  0  0  0  0  0  0  0  0  0  0
  -50.1539   59.0682   65.3175 C   0  0  0  0  0  0  0  0  0  0  0  0
  -50.1533   59.9678   64.0941 C   0  0  0  0  0  0  0  0  0  0  0  0
  -51.1219   59.5252   63.0111 C   0  0  0  0  0  0  0  0  0  0  0  0
  -50.9250   58.0950   62.5364 C   0  0  0  0  0  0  0  0  0  0  0  0
  -49.5201   57.8145   62.0253 C   0  0  0  0  0  0  0  0  0  0  0  0
  -49.4738   56.9923   60.7526 C   0  0  0  0  0  0  0  0  0  0  0  0
  -50.2875   57.5945   59.6413 C   0  0  0  0  0  0  0  0  0  0  0  0
 21 22  1  0  0  0
  4  5  2  0  0  0
 25 24  1  0  0  0
 25 26  2  0  0  0
 25 27  1  0  0  0
 25 29  1  0  0  0
 22 20  1  0  0  0
  3  5  1  0  0  0
  3  2  1  0  0  0
 20 19  1  0  0  0
 24 23  1  0  0  0
 19 18  1  0  0  0
 18 17  1  0  0  0
 27 28  1  0  0  0
 17 16  1  0  0  0
 29 30  1  0  0  0
 16 15  1  0  0  0
 34 35  1  0  0  0
 34 36  1  0  0  0
 15 14  1  0  0  0
 31 32  1  0  0  0
 31 33  1  0  0  0
 14 13  1  0  0  0
 37  1  1  0  0  0
 37 39  1  0  0  0
 13 12  1  0  0  0
 38 39  2  0  0  0
 12 11  1  0  0  0
 11 10  1  0  0  0
 10  9  1  0  0  0
  9  8  1  0  0  0
  8  7  1  0  0  0
  7  6  1  0  0  0
  6  5  1  0  0  0
  2  1  1  0  0  0
  1 23  1  0  0  0
 30 32  1  0  0  0
 32 35  1  0  0  0
 39 40  1  0  0  0
 40 41  1  0  0  0
 41 42  1  0  0  0
 42 43  1  0  0  0
 43 44  1  0  0  0
 44 45  1  0  0  0
 45 46  1  0  0  0
 46 47  1  0  0  0
 47 48  2  0  0  0
 48 49  1  0  0  0
 49 50  1  0  0  0
 50 51  1  0  0  0
 51 52  1  0  0  0
 52 53  1  0  0  0
 53 54  1  0  0  0
 54 55  1  0  0  0
 55 56  1  0  0  0
M  CHG 1  26  -1
M  END
> <minimizedAffinity>
-7.98315

> <CNNscore>
0.5374642611

> <CNNaffinity>
7.6855559349

> <CNN_VS>
4.1307115555

> <CNNaffinity_variance>
0.4063498080

$$$$
/media/chris/experiments/cd1a-new-docking/inputs/ligands/7sh4_ligand.pdb


 56 55  0  0  0  0  0  0  0  0999 V2000
  -37.6399   60.5403   64.1957 C   0  0  0  0  0  0  0  0  0  0  0  0
  -36.9127   59.2659   64.5197 C   0  0  0  0  0  0  0  0  0  0  0  0
  -36.4079   58.8180   63.2439 O   0  0  0  0  0  0  0  0  0  0  0  0
  -34.5194   58.1221   64.2179 O   0  0  0  0  0  0  0  0  0  0  0  0
  -35.1875   58.2809   63.2320 C   0  0  0  0  0  0  0  0  0  0  0  0
  -34.8221   57.7946   61.8591 C   0  0  0  0  0  0  0  0  0  0  0  0
  -35.8758   56.9113   61.2128 C   0  0  0  0  0  0  0  0  0  0  0  0
  -35.3663   56.1985   59.9779 C   0  0  0  0  0  0  0  0  0  0  0  0
  -36.2786   56.3107   58.7775 C   0  0  0  0  0  0  0  0  0  0  0  0
  -36.3848   57.7246   58.2431 C   0  0  0  0  0  0  0  0  0  0  0  0
  -37.7795   58.2928   58.3394 C   0  0  0  0  0  0  0  0  0  0  0  0
  -37.8807   59.4435   59.3056 C   0  0  0  0  0  0  0  0  0  0  0  0
  -38.8881   59.2130   60.4102 C   0  0  0  0  0  0  0  0  0  0  0  0
  -40.1283   60.0706   60.2596 C   0  0  0  0  0  0  0  0  0  0  0  0
  -40.6892   60.1046   58.8535 C   0  0  0  0  0  0  0  0  0  0  0  0
  -42.0699   59.4709   58.7254 C   0  0  0  0  0  0  0  0  0  0  0  0
  -42.4011   58.9932   57.3246 C   0  0  0  0  0  0  0  0  0  0  0  0
  -43.8431   58.5578   57.1624 C   0  0  0  0  0  0  0  0  0  0  0  0
  -44.4914   58.0977   58.4607 C   0  0  0  0  0  0  0  0  0  0  0  0
  -45.9781   57.8182   58.3317 C   0  0  0  0  0  0  0  0  0  0  0  0
  -47.5490   56.2570   57.1355 C   0  0  0  0  0  0  0  0  0  0  0  0
  -46.4003   57.2303   56.9986 C   0  0  0  0  0  0  0  0  0  0  0  0
  -36.7474   61.7485   64.3190 C   0  0  0  0  0  0  0  0  0  0  0  0
  -36.9524   62.3476   65.6180 O   0  0  0  0  0  0  0  0  0  0  0  0
  -35.9076   63.3640   66.2791 P   0  0  0  0  0  0  0  0  0  0  0  0
  -36.5620   64.6856   66.3899 O   0  0  0  0  0  0  0  0  0  0  0  0
  -35.3636   62.7336   67.5059 O   0  0  0  0  0  0  0  0  0  0  0  0
  -36.0702   62.6444   68.1644 H   0  0  0  0  0  0  0  0  0  0  0  0
  -34.7180   63.4920   65.2252 O   0  0  0  0  0  0  0  0  0  0  0  0
  -33.3592   63.2379   65.6364 C   0  0  0  0  0  0  0  0  0  0  0  0
  -31.1920   64.2023   65.2963 O   0  0  0  0  0  0  0  0  0  0  0  0
  -32.4311   63.9003   64.6480 C   0  0  0  0  0  0  0  0  0  0  0  0
  -31.3614   64.7512   66.0780 H   0  0  0  0  0  0  0  0  0  0  0  0
  -33.2746   62.1572   63.2098 O   0  0  0  0  0  0  0  0  0  0  0  0
  -32.1861   63.0456   63.4277 C   0  0  0  0  0  0  0  0  0  0  0  0
  -33.0990   61.6177   62.4230 H   0  0  0  0  0  0  0  0  0  0  0  0
  -38.8103   60.6397   65.0733 O   0  0  0  0  0  0  0  0  0  0  0  0
  -40.5078   60.1508   63.6805 O   0  0  0  0  0  0  0  0  0  0  0  0
  -39.9104   59.9561   64.7038 C   0  0  0  0  0  0  0  0  0  0  0  0
  -40.2874   58.9141   65.7107 C   0  0  0  0  0  0  0  0  0  0  0  0
  -41.7241   58.4411   65.5144 C   0  0  0  0  0  0  0  0  0  0  0  0
  -42.7259   59.1125   66.4396 C   0  0  0  0  0  0  0  0  0  0  0  0
  -44.1409   59.1600   65.8746 C   0  0  0  0  0  0  0  0  0  0  0  0
  -44.3997   58.1492   64.7730 C   0  0  0  0  0  0  0  0  0  0  0  0
  -45.0375   56.8401   65.2469 C   0  0  0  0  0  0  0  0  0  0  0  0
  -46.0122   56.9770   66.4185 C   0  0  0  0  0  0  0  0  0  0  0  0
  -47.4038   56.5606   66.0473 C   0  0  0  0  0  0  0  0  0  0  0  0
  -48.4600   57.3441   65.9480 C   0  0  0  0  0  0  0  0  0  0  0  0
  -48.4888   58.8211   66.1851 C   0  0  0  0  0  0  0  0  0  0  0  0
  -49.6403   59.5058   65.4545 C   0  0  0  0  0  0  0  0  0  0  0  0
  -49.5126   59.4647   63.9419 C   0  0  0  0  0  0  0  0  0  0  0  0
  -50.8400   59.3006   63.2220 C   0  0  0  0  0  0  0  0  0  0  0  0
  -50.9501   58.0372   62.3846 C   0  0  0  0  0  0  0  0  0  0  0  0
  -49.6206   57.5753   61.8076 C   0  0  0  0  0  0  0  0  0  0  0  0
  -49.2987   58.1559   60.4448 C   0  0  0  0  0  0  0  0  0  0  0  0
  -50.0982   57.5239   59.3398 C   0  0  0  0  0  0  0  0  0  0  0  0
 21 22  1  0  0  0
  4  5  2  0  0  0
 25 24  1  0  0  0
 25 26  2  0  0  0
 25 27  1  0  0  0
 25 29  1  0  0  0
 22 20  1  0  0  0
  3  5  1  0  0  0
  3  2  1  0  0  0
 20 19  1  0  0  0
 24 23  1  0  0  0
 19 18  1  0  0  0
 18 17  1  0  0  0
 27 28  1  0  0  0
 17 16  1  0  0  0
 29 30  1  0  0  0
 16 15  1  0  0  0
 34 35  1  0  0  0
 34 36  1  0  0  0
 15 14  1  0  0  0
 31 32  1  0  0  0
 31 33  1  0  0  0
 14 13  1  0  0  0
 37  1  1  0  0  0
 37 39  1  0  0  0
 13 12  1  0  0  0
 38 39  2  0  0  0
 12 11  1  0  0  0
 11 10  1  0  0  0
 10  9  1  0  0  0
  9  8  1  0  0  0
  8  7  1  0  0  0
  7  6  1  0  0  0
  6  5  1  0  0  0
  2  1  1  0  0  0
  1 23  1  0  0  0
 30 32  1  0  0  0
 32 35  1  0  0  0
 39 40  1  0  0  0
 40 41  1  0  0  0
 41 42  1  0  0  0
 42 43  1  0  0  0
 43 44  1  0  0  0
 44 45  1  0  0  0
 45 46  1  0  0  0
 46 47  1  0  0  0
 47 48  2  0  0  0
 48 49  1  0  0  0
 49 50  1  0  0  0
 50 51  1  0  0  0
 51 52  1  0  0  0
 52 53  1  0  0  0
 53 54  1  0  0  0
 54 55  1  0  0  0
 55 56  1  0  0  0
M  CHG 1  26  -1
M  END
> <minimizedAffinity>
-7.90181

> <CNNscore>
0.5315210223

> <CNNaffinity>
7.5422325134

> <CNN_VS>
4.0088553429

> <CNNaffinity_variance>
0.6866708994

$$$$
/media/chris/experiments/cd1a-new-docking/inputs/ligands/7sh4_ligand.pdb


 56 55  0  0  0  0  0  0  0  0999 V2000
  -39.2729   59.9477   65.1872 C   0  0  0  0  0  0  0  0  0  0  0  0
  -40.6442   60.2194   65.7380 C   0  0  0  0  0  0  0  0  0  0  0  0
  -41.2628   58.9165   65.7931 O   0  0  0  0  0  0  0  0  0  0  0  0
  -43.1507   59.5868   64.8002 O   0  0  0  0  0  0  0  0  0  0  0  0
  -42.5755   58.8609   65.5655 C   0  0  0  0  0  0  0  0  0  0  0  0
  -43.2030   57.7040   66.2886 C   0  0  0  0  0  0  0  0  0  0  0  0
  -44.6534   57.4512   65.9139 C   0  0  0  0  0  0  0  0  0  0  0  0
  -45.6266   57.9810   66.9459 C   0  0  0  0  0  0  0  0  0  0  0  0
  -46.7767   58.7714   66.3642 C   0  0  0  0  0  0  0  0  0  0  0  0
  -47.5965   57.9790   65.3662 C   0  0  0  0  0  0  0  0  0  0  0  0
  -48.9839   57.6532   65.8626 C   0  0  0  0  0  0  0  0  0  0  0  0
  -49.9160   58.8353   65.8221 C   0  0  0  0  0  0  0  0  0  0  0  0
  -49.7958   59.6515   64.5543 C   0  0  0  0  0  0  0  0  0  0  0  0
  -51.1382   59.9345   63.9109 C   0  0  0  0  0  0  0  0  0  0  0  0
  -51.3643   59.2021   62.6049 C   0  0  0  0  0  0  0  0  0  0  0  0
  -50.6327   57.8678   62.5121 C   0  0  0  0  0  0  0  0  0  0  0  0
  -49.3426   57.9264   61.7169 C   0  0  0  0  0  0  0  0  0  0  0  0
  -49.5608   58.0962   60.2274 C   0  0  0  0  0  0  0  0  0  0  0  0
  -48.4216   57.5506   59.3776 C   0  0  0  0  0  0  0  0  0  0  0  0
  -48.4638   56.0433   59.2001 C   0  0  0  0  0  0  0  0  0  0  0  0
  -47.6336   56.0496   56.8238 C   0  0  0  0  0  0  0  0  0  0  0  0
  -47.4492   55.4914   58.2167 C   0  0  0  0  0  0  0  0  0  0  0  0
  -38.9879   58.4715   65.0805 C   0  0  0  0  0  0  0  0  0  0  0  0
  -37.5585   58.2681   65.1433 O   0  0  0  0  0  0  0  0  0  0  0  0
  -36.6723   57.9349   63.8528 P   0  0  0  0  0  0  0  0  0  0  0  0
  -35.8872   59.1410   63.5126 O   0  0  0  0  0  0  0  0  0  0  0  0
  -35.9518   56.6634   64.1035 O   0  0  0  0  0  0  0  0  0  0  0  0
  -35.3079   56.7918   64.8174 H   0  0  0  0  0  0  0  0  0  0  0  0
  -37.7180   57.6816   62.6760 O   0  0  0  0  0  0  0  0  0  0  0  0
  -37.4227   58.1335   61.3387 C   0  0  0  0  0  0  0  0  0  0  0  0
  -38.0395   60.3901   61.8581 O   0  0  0  0  0  0  0  0  0  0  0  0
  -38.3465   59.2803   61.0090 C   0  0  0  0  0  0  0  0  0  0  0  0
  -38.1005   60.1139   62.7860 H   0  0  0  0  0  0  0  0  0  0  0  0
  -39.3949   59.2415   58.8370 O   0  0  0  0  0  0  0  0  0  0  0  0
  -38.2563   59.6926   59.5594 C   0  0  0  0  0  0  0  0  0  0  0  0
  -39.3189   59.5156   57.9097 H   0  0  0  0  0  0  0  0  0  0  0  0
  -38.2911   60.6289   66.0367 O   0  0  0  0  0  0  0  0  0  0  0  0
  -37.5679   61.8682   64.3042 O   0  0  0  0  0  0  0  0  0  0  0  0
  -37.4255   61.4593   65.4243 C   0  0  0  0  0  0  0  0  0  0  0  0
  -36.2766   61.8256   66.3119 C   0  0  0  0  0  0  0  0  0  0  0  0
  -35.6992   63.1888   65.9448 C   0  0  0  0  0  0  0  0  0  0  0  0
  -34.3038   63.1260   65.3455 C   0  0  0  0  0  0  0  0  0  0  0  0
  -34.1128   64.0486   64.1471 C   0  0  0  0  0  0  0  0  0  0  0  0
  -32.6743   64.1600   63.6773 C   0  0  0  0  0  0  0  0  0  0  0  0
  -31.9501   62.8198   63.5204 C   0  0  0  0  0  0  0  0  0  0  0  0
  -32.0258   62.1978   62.1244 C   0  0  0  0  0  0  0  0  0  0  0  0
  -31.0595   61.0637   61.9581 C   0  0  0  0  0  0  0  0  0  0  0  0
  -31.3337   59.7765   62.0442 C   0  0  0  0  0  0  0  0  0  0  0  0
  -32.6751   59.1768   62.3259 C   0  0  0  0  0  0  0  0  0  0  0  0
  -32.5757   57.7446   62.8430 C   0  0  0  0  0  0  0  0  0  0  0  0
  -32.7210   56.6930   61.7571 C   0  0  0  0  0  0  0  0  0  0  0  0
  -33.9802   56.8487   60.9220 C   0  0  0  0  0  0  0  0  0  0  0  0
  -34.0607   55.9166   59.7244 C   0  0  0  0  0  0  0  0  0  0  0  0
  -34.0558   56.6446   58.3889 C   0  0  0  0  0  0  0  0  0  0  0  0
  -35.4110   57.1748   57.9644 C   0  0  0  0  0  0  0  0  0  0  0  0
  -36.5186   56.1827   58.1849 C   0  0  0  0  0  0  0  0  0  0  0  0
 21 22  1  0  0  0
  4  5  2  0  0  0
 25 24  1  0  0  0
 25 26  2  0  0  0
 25 27  1  0  0  0
 25 29  1  0  0  0
 22 20  1  0  0  0
  3  5  1  0  0  0
  3  2  1  0  0  0
 20 19  1  0  0  0
 24 23  1  0  0  0
 19 18  1  0  0  0
 18 17  1  0  0  0
 27 28  1  0  0  0
 17 16  1  0  0  0
 29 30  1  0  0  0
 16 15  1  0  0  0
 34 35  1  0  0  0
 34 36  1  0  0  0
 15 14  1  0  0  0
 31 32  1  0  0  0
 31 33  1  0  0  0
 14 13  1  0  0  0
 37  1  1  0  0  0
 37 39  1  0  0  0
 13 12  1  0  0  0
 38 39  2  0  0  0
 12 11  1  0  0  0
 11 10  1  0  0  0
 10  9  1  0  0  0
  9  8  1  0  0  0
  8  7  1  0  0  0
  7  6  1  0  0  0
  6  5  1  0  0  0
  2  1  1  0  0  0
  1 23  1  0  0  0
 30 32  1  0  0  0
 32 35  1  0  0  0
 39 40  1  0  0  0
 40 41  1  0  0  0
 41 42  1  0  0  0
 42 43  1  0  0  0
 43 44  1  0  0  0
 44 45  1  0  0  0
 45 46  1  0  0  0
 46 47  1  0  0  0
 47 48  2  0  0  0
 48 49  1  0  0  0
 49 50  1  0  0  0
 50 51  1  0  0  0
 51 52  1  0  0  0
 52 53  1  0  0  0
 53 54  1  0  0  0
 54 55  1  0  0  0
 55 56  1  0  0  0
M  CHG 1  26  -1
M  END
> <minimizedAffinity>
-8.37418

> <CNNscore>
0.4837934375

> <CNNaffinity>
7.0245909691

> <CNN_VS>
3.3984510899

> <CNNaffinity_variance>
0.9471290708

$$$$
/media/chris/experiments/cd1a-new-docking/inputs/ligands/7sh4_ligand.pdb


 56 55  0  0  0  0  0  0  0  0999 V2000
  -37.1782   60.8876   64.5047 C   0  0  0  0  0  0  0  0  0  0  0  0
  -36.1320   59.8980   64.9335 C   0  0  0  0  0  0  0  0  0  0  0  0
  -35.5527   59.4425   63.6925 O   0  0  0  0  0  0  0  0  0  0  0  0
  -34.5703   57.7278   64.7383 O   0  0  0  0  0  0  0  0  0  0  0  0
  -34.7052   58.4155   63.7624 C   0  0  0  0  0  0  0  0  0  0  0  0
  -34.0477   58.1633   62.4361 C   0  0  0  0  0  0  0  0  0  0  0  0
  -34.1949   56.7377   61.9318 C   0  0  0  0  0  0  0  0  0  0  0  0
  -33.2778   56.4304   60.7668 C   0  0  0  0  0  0  0  0  0  0  0  0
  -33.9476   55.6939   59.6289 C   0  0  0  0  0  0  0  0  0  0  0  0
  -34.3556   56.6065   58.4902 C   0  0  0  0  0  0  0  0  0  0  0  0
  -35.8483   56.6553   58.2737 C   0  0  0  0  0  0  0  0  0  0  0  0
  -36.5709   57.4464   59.3319 C   0  0  0  0  0  0  0  0  0  0  0  0
  -37.3443   56.5830   60.3037 C   0  0  0  0  0  0  0  0  0  0  0  0
  -37.6710   57.3043   61.5956 C   0  0  0  0  0  0  0  0  0  0  0  0
  -37.9726   58.7780   61.4214 C   0  0  0  0  0  0  0  0  0  0  0  0
  -39.4501   59.0827   61.2017 C   0  0  0  0  0  0  0  0  0  0  0  0
  -39.7345   60.5285   60.8428 C   0  0  0  0  0  0  0  0  0  0  0  0
  -40.3196   60.7006   59.4561 C   0  0  0  0  0  0  0  0  0  0  0  0
  -41.4257   59.7059   59.1327 C   0  0  0  0  0  0  0  0  0  0  0  0
  -41.3909   59.2027   57.7006 C   0  0  0  0  0  0  0  0  0  0  0  0
  -43.7981   58.4779   57.8260 C   0  0  0  0  0  0  0  0  0  0  0  0
  -42.7382   59.1758   57.0043 C   0  0  0  0  0  0  0  0  0  0  0  0
  -36.6461   62.2975   64.4764 C   0  0  0  0  0  0  0  0  0  0  0  0
  -35.5185   62.3872   65.3759 O   0  0  0  0  0  0  0  0  0  0  0  0
  -35.4096   63.4989   66.5222 P   0  0  0  0  0  0  0  0  0  0  0  0
  -36.7783   63.8170   66.9830 O   0  0  0  0  0  0  0  0  0  0  0  0
  -34.4118   63.0390   67.5179 O   0  0  0  0  0  0  0  0  0  0  0  0
  -34.7475   62.2501   67.9715 H   0  0  0  0  0  0  0  0  0  0  0  0
  -34.8211   64.7934   65.8008 O   0  0  0  0  0  0  0  0  0  0  0  0
  -33.5427   65.3256   66.2038 C   0  0  0  0  0  0  0  0  0  0  0  0
  -31.8996   66.7087   65.1409 O   0  0  0  0  0  0  0  0  0  0  0  0
  -32.7049   65.5390   64.9671 C   0  0  0  0  0  0  0  0  0  0  0  0
  -32.4700   67.4669   65.3432 H   0  0  0  0  0  0  0  0  0  0  0  0
  -32.4600   63.1414   65.0659 O   0  0  0  0  0  0  0  0  0  0  0  0
  -31.8324   64.3479   64.6512 C   0  0  0  0  0  0  0  0  0  0  0  0
  -31.8854   62.3889   64.8549 H   0  0  0  0  0  0  0  0  0  0  0  0
  -38.3293   60.7611   65.4041 O   0  0  0  0  0  0  0  0  0  0  0  0
  -40.2733   60.9725   64.2921 O   0  0  0  0  0  0  0  0  0  0  0  0
  -39.4723   60.2896   64.8702 C   0  0  0  0  0  0  0  0  0  0  0  0
  -39.6155   58.8122   65.0670 C   0  0  0  0  0  0  0  0  0  0  0  0
  -41.0796   58.4051   65.1979 C   0  0  0  0  0  0  0  0  0  0  0  0
  -41.7175   58.8140   66.5155 C   0  0  0  0  0  0  0  0  0  0  0  0
  -43.1907   59.1852   66.3903 C   0  0  0  0  0  0  0  0  0  0  0  0
  -43.7240   59.1238   64.9710 C   0  0  0  0  0  0  0  0  0  0  0  0
  -44.9997   58.2931   64.8056 C   0  0  0  0  0  0  0  0  0  0  0  0
  -46.2621   58.9099   65.4118 C   0  0  0  0  0  0  0  0  0  0  0  0
  -47.3881   57.9235   65.4967 C   0  0  0  0  0  0  0  0  0  0  0  0
  -48.3444   57.7418   64.6068 C   0  0  0  0  0  0  0  0  0  0  0  0
  -48.5045   58.4857   63.3187 C   0  0  0  0  0  0  0  0  0  0  0  0
  -49.8774   58.2702   62.6886 C   0  0  0  0  0  0  0  0  0  0  0  0
  -49.9400   58.6494   61.2194 C   0  0  0  0  0  0  0  0  0  0  0  0
  -50.3619   57.5066   60.3121 C   0  0  0  0  0  0  0  0  0  0  0  0
  -49.3024   56.4351   60.1149 C   0  0  0  0  0  0  0  0  0  0  0  0
  -48.0702   56.9309   59.3735 C   0  0  0  0  0  0  0  0  0  0  0  0
  -47.6227   56.0306   58.2390 C   0  0  0  0  0  0  0  0  0  0  0  0
  -47.0831   56.7990   57.0651 C   0  0  0  0  0  0  0  0  0  0  0  0
 21 22  1  0  0  0
  4  5  2  0  0  0
 25 24  1  0  0  0
 25 26  2  0  0  0
 25 27  1  0  0  0
 25 29  1  0  0  0
 22 20  1  0  0  0
  3  5  1  0  0  0
  3  2  1  0  0  0
 20 19  1  0  0  0
 24 23  1  0  0  0
 19 18  1  0  0  0
 18 17  1  0  0  0
 27 28  1  0  0  0
 17 16  1  0  0  0
 29 30  1  0  0  0
 16 15  1  0  0  0
 34 35  1  0  0  0
 34 36  1  0  0  0
 15 14  1  0  0  0
 31 32  1  0  0  0
 31 33  1  0  0  0
 14 13  1  0  0  0
 37  1  1  0  0  0
 37 39  1  0  0  0
 13 12  1  0  0  0
 38 39  2  0  0  0
 12 11  1  0  0  0
 11 10  1  0  0  0
 10  9  1  0  0  0
  9  8  1  0  0  0
  8  7  1  0  0  0
  7  6  1  0  0  0
  6  5  1  0  0  0
  2  1  1  0  0  0
  1 23  1  0  0  0
 30 32  1  0  0  0
 32 35  1  0  0  0
 39 40  1  0  0  0
 40 41  1  0  0  0
 41 42  1  0  0  0
 42 43  1  0  0  0
 43 44  1  0  0  0
 44 45  1  0  0  0
 45 46  1  0  0  0
 46 47  1  0  0  0
 47 48  2  0  0  0
 48 49  1  0  0  0
 49 50  1  0  0  0
 50 51  1  0  0  0
 51 52  1  0  0  0
 52 53  1  0  0  0
 53 54  1  0  0  0
 54 55  1  0  0  0
 55 56  1  0  0  0
M  CHG 1  26  -1
M  END
> <minimizedAffinity>
-7.67639

> <CNNscore>
0.4696069956

> <CNNaffinity>
7.3527832031

> <CNN_VS>
3.4529185295

> <CNNaffinity_variance>
0.5599254370

$$$$
/media/chris/experiments/cd1a-new-docking/inputs/ligands/7sh4_ligand.pdb


 56 55  0  0  0  0  0  0  0  0999 V2000
  -39.2240   59.4213   64.1295 C   0  0  0  0  0  0  0  0  0  0  0  0
  -38.7216   58.0442   63.7994 C   0  0  0  0  0  0  0  0  0  0  0  0
  -37.6263   57.8427   64.7175 O   0  0  0  0  0  0  0  0  0  0  0  0
  -35.7541   56.6286   64.8596 O   0  0  0  0  0  0  0  0  0  0  0  0
  -36.5114   57.3071   64.2195 C   0  0  0  0  0  0  0  0  0  0  0  0
  -36.4009   57.5589   62.7432 C   0  0  0  0  0  0  0  0  0  0  0  0
  -35.2144   58.4215   62.3480 C   0  0  0  0  0  0  0  0  0  0  0  0
  -34.0585   57.6124   61.7984 C   0  0  0  0  0  0  0  0  0  0  0  0
  -34.4547   56.2606   61.2492 C   0  0  0  0  0  0  0  0  0  0  0  0
  -33.8326   55.9629   59.9000 C   0  0  0  0  0  0  0  0  0  0  0  0
  -34.2612   56.9285   58.8222 C   0  0  0  0  0  0  0  0  0  0  0  0
  -35.1036   56.2822   57.7543 C   0  0  0  0  0  0  0  0  0  0  0  0
  -36.5774   56.5993   57.8785 C   0  0  0  0  0  0  0  0  0  0  0  0
  -36.8397   58.0676   58.1458 C   0  0  0  0  0  0  0  0  0  0  0  0
  -37.5538   58.3399   59.4531 C   0  0  0  0  0  0  0  0  0  0  0  0
  -38.0681   59.7687   59.5882 C   0  0  0  0  0  0  0  0  0  0  0  0
  -39.0727   59.9586   60.7084 C   0  0  0  0  0  0  0  0  0  0  0  0
  -40.4406   60.3926   60.2230 C   0  0  0  0  0  0  0  0  0  0  0  0
  -40.7288   60.0011   58.7804 C   0  0  0  0  0  0  0  0  0  0  0  0
  -42.0616   59.2976   58.5962 C   0  0  0  0  0  0  0  0  0  0  0  0
  -43.8351   58.4373   57.0309 C   0  0  0  0  0  0  0  0  0  0  0  0
  -42.5016   59.1390   57.1532 C   0  0  0  0  0  0  0  0  0  0  0  0
  -38.6263   59.9506   65.4079 C   0  0  0  0  0  0  0  0  0  0  0  0
  -37.9311   61.1844   65.1204 O   0  0  0  0  0  0  0  0  0  0  0  0
  -36.5556   61.5909   65.8307 P   0  0  0  0  0  0  0  0  0  0  0  0
  -36.8129   61.7317   67.2801 O   0  0  0  0  0  0  0  0  0  0  0  0
  -35.5070   60.6433   65.3822 O   0  0  0  0  0  0  0  0  0  0  0  0
  -35.7060   59.7566   65.7211 H   0  0  0  0  0  0  0  0  0  0  0  0
  -36.1922   63.0325   65.2542 O   0  0  0  0  0  0  0  0  0  0  0  0
  -35.8042   64.0920   66.1524 C   0  0  0  0  0  0  0  0  0  0  0  0
  -33.8678   62.8983   66.9062 O   0  0  0  0  0  0  0  0  0  0  0  0
  -34.2989   64.0987   66.2581 C   0  0  0  0  0  0  0  0  0  0  0  0
  -34.3043   62.8221   67.7692 H   0  0  0  0  0  0  0  0  0  0  0  0
  -34.5048   64.8450   63.9736 O   0  0  0  0  0  0  0  0  0  0  0  0
  -33.6287   64.2335   64.9118 C   0  0  0  0  0  0  0  0  0  0  0  0
  -34.0573   64.9230   63.1166 H   0  0  0  0  0  0  0  0  0  0  0  0
  -40.6881   59.3752   64.1945 O   0  0  0  0  0  0  0  0  0  0  0  0
  -41.0475   57.5555   65.4672 O   0  0  0  0  0  0  0  0  0  0  0  0
  -41.2326   58.7195   65.2372 C   0  0  0  0  0  0  0  0  0  0  0  0
  -42.0797   59.6181   66.0839 C   0  0  0  0  0  0  0  0  0  0  0  0
  -43.4237   58.9748   66.4105 C   0  0  0  0  0  0  0  0  0  0  0  0
  -44.4533   59.1007   65.2995 C   0  0  0  0  0  0  0  0  0  0  0  0
  -45.0763   57.7704   64.8920 C   0  0  0  0  0  0  0  0  0  0  0  0
  -45.6435   56.9736   66.0521 C   0  0  0  0  0  0  0  0  0  0  0  0
  -47.1498   56.7112   65.9683 C   0  0  0  0  0  0  0  0  0  0  0  0
  -47.9838   57.8715   65.4208 C   0  0  0  0  0  0  0  0  0  0  0  0
  -49.4206   57.7814   65.8396 C   0  0  0  0  0  0  0  0  0  0  0  0
  -50.4260   58.4881   65.3610 C   0  0  0  0  0  0  0  0  0  0  0  0
  -50.3415   59.5320   64.2926 C   0  0  0  0  0  0  0  0  0  0  0  0
  -51.3043   59.2644   63.1395 C   0  0  0  0  0  0  0  0  0  0  0  0
  -50.6154   58.8232   61.8601 C   0  0  0  0  0  0  0  0  0  0  0  0
  -51.0242   57.4365   61.3942 C   0  0  0  0  0  0  0  0  0  0  0  0
  -50.1250   56.8415   60.3233 C   0  0  0  0  0  0  0  0  0  0  0  0
  -49.2786   57.8774   59.5991 C   0  0  0  0  0  0  0  0  0  0  0  0
  -48.2103   57.2887   58.6990 C   0  0  0  0  0  0  0  0  0  0  0  0
  -46.8505   57.2792   59.3398 C   0  0  0  0  0  0  0  0  0  0  0  0
 21 22  1  0  0  0
  4  5  2  0  0  0
 25 24  1  0  0  0
 25 26  2  0  0  0
 25 27  1  0  0  0
 25 29  1  0  0  0
 22 20  1  0  0  0
  3  5  1  0  0  0
  3  2  1  0  0  0
 20 19  1  0  0  0
 24 23  1  0  0  0
 19 18  1  0  0  0
 18 17  1  0  0  0
 27 28  1  0  0  0
 17 16  1  0  0  0
 29 30  1  0  0  0
 16 15  1  0  0  0
 34 35  1  0  0  0
 34 36  1  0  0  0
 15 14  1  0  0  0
 31 32  1  0  0  0
 31 33  1  0  0  0
 14 13  1  0  0  0
 37  1  1  0  0  0
 37 39  1  0  0  0
 13 12  1  0  0  0
 38 39  2  0  0  0
 12 11  1  0  0  0
 11 10  1  0  0  0
 10  9  1  0  0  0
  9  8  1  0  0  0
  8  7  1  0  0  0
  7  6  1  0  0  0
  6  5  1  0  0  0
  2  1  1  0  0  0
  1 23  1  0  0  0
 30 32  1  0  0  0
 32 35  1  0  0  0
 39 40  1  0  0  0
 40 41  1  0  0  0
 41 42  1  0  0  0
 42 43  1  0  0  0
 43 44  1  0  0  0
 44 45  1  0  0  0
 45 46  1  0  0  0
 46 47  1  0  0  0
 47 48  2  0  0  0
 48 49  1  0  0  0
 49 50  1  0  0  0
 50 51  1  0  0  0
 51 52  1  0  0  0
 52 53  1  0  0  0
 53 54  1  0  0  0
 54 55  1  0  0  0
 55 56  1  0  0  0
M  CHG 1  26  -1
M  END
> <minimizedAffinity>
-8.00252

> <CNNscore>
0.4444704652

> <CNNaffinity>
7.4274435043

> <CNN_VS>
3.3012793064

> <CNNaffinity_variance>
0.7164601088

$$$$
