/media/chris/experiments/cd1a-new-docking/inputs/ligands/7sh4_ligand.pdb


 56 55  0  0  0  0  0  0  0  0999 V2000
  -37.4398   60.1733   65.3158 C   0  0  0  0  0  0  0  0  0  0  0  0
  -38.3808   60.8917   64.3906 C   0  0  0  0  0  0  0  0  0  0  0  0
  -39.6684   60.7571   65.0286 O   0  0  0  0  0  0  0  0  0  0  0  0
  -40.8727   60.5407   63.1571 O   0  0  0  0  0  0  0  0  0  0  0  0
  -40.6530   60.2333   64.2977 C   0  0  0  0  0  0  0  0  0  0  0  0
  -41.3559   59.1347   65.0419 C   0  0  0  0  0  0  0  0  0  0  0  0
  -42.8690   59.2705   65.0653 C   0  0  0  0  0  0  0  0  0  0  0  0
  -43.4729   58.8709   66.3951 C   0  0  0  0  0  0  0  0  0  0  0  0
  -44.9663   58.6389   66.3521 C   0  0  0  0  0  0  0  0  0  0  0  0
  -45.3390   57.1701   66.3620 C   0  0  0  0  0  0  0  0  0  0  0  0
  -46.7738   56.9241   66.7601 C   0  0  0  0  0  0  0  0  0  0  0  0
  -47.7197   56.9355   65.5884 C   0  0  0  0  0  0  0  0  0  0  0  0
  -48.9184   57.8350   65.7933 C   0  0  0  0  0  0  0  0  0  0  0  0
  -49.2274   58.6846   64.5772 C   0  0  0  0  0  0  0  0  0  0  0  0
  -50.4547   58.2409   63.8091 C   0  0  0  0  0  0  0  0  0  0  0  0
  -50.5252   58.7916   62.3892 C   0  0  0  0  0  0  0  0  0  0  0  0
  -50.8714   57.7513   61.3413 C   0  0  0  0  0  0  0  0  0  0  0  0
  -49.7369   56.7909   61.0489 C   0  0  0  0  0  0  0  0  0  0  0  0
  -48.7052   57.3434   60.0753 C   0  0  0  0  0  0  0  0  0  0  0  0
  -48.2055   56.3184   59.0729 C   0  0  0  0  0  0  0  0  0  0  0  0
  -46.6561   57.9239   57.9077 C   0  0  0  0  0  0  0  0  0  0  0  0
  -47.7536   56.8967   57.7454 C   0  0  0  0  0  0  0  0  0  0  0  0
  -36.4588   61.1138   65.9677 C   0  0  0  0  0  0  0  0  0  0  0  0
  -36.6858   62.4477   65.4602 O   0  0  0  0  0  0  0  0  0  0  0  0
  -36.0061   63.7472   66.1016 P   0  0  0  0  0  0  0  0  0  0  0  0
  -36.1371   64.8575   65.1337 O   0  0  0  0  0  0  0  0  0  0  0  0
  -36.5514   63.9260   67.4688 O   0  0  0  0  0  0  0  0  0  0  0  0
  -37.4952   64.1436   67.4147 H   0  0  0  0  0  0  0  0  0  0  0  0
  -34.4573   63.3918   66.2345 O   0  0  0  0  0  0  0  0  0  0  0  0
  -33.5840   63.5348   65.0957 C   0  0  0  0  0  0  0  0  0  0  0  0
  -31.2037   63.8010   65.0201 O   0  0  0  0  0  0  0  0  0  0  0  0
  -32.4130   64.3965   65.4995 C   0  0  0  0  0  0  0  0  0  0  0  0
  -31.1350   62.8935   65.3557 H   0  0  0  0  0  0  0  0  0  0  0  0
  -33.7936   66.0076   64.3520 O   0  0  0  0  0  0  0  0  0  0  0  0
  -32.5363   65.8112   64.9863 C   0  0  0  0  0  0  0  0  0  0  0  0
  -33.8540   66.9204   64.0295 H   0  0  0  0  0  0  0  0  0  0  0  0
  -36.7579   59.1215   64.5551 O   0  0  0  0  0  0  0  0  0  0  0  0
  -38.1874   57.5202   65.2277 O   0  0  0  0  0  0  0  0  0  0  0  0
  -37.4032   57.9465   64.4246 C   0  0  0  0  0  0  0  0  0  0  0  0
  -37.0402   57.2461   63.1520 C   0  0  0  0  0  0  0  0  0  0  0  0
  -38.2317   57.1567   62.2038 C   0  0  0  0  0  0  0  0  0  0  0  0
  -38.6050   58.4803   61.5565 C   0  0  0  0  0  0  0  0  0  0  0  0
  -37.6100   58.9439   60.4989 C   0  0  0  0  0  0  0  0  0  0  0  0
  -37.9019   58.4193   59.1052 C   0  0  0  0  0  0  0  0  0  0  0  0
  -36.6827   58.3549   58.1809 C   0  0  0  0  0  0  0  0  0  0  0  0
  -36.3108   56.9542   57.6897 C   0  0  0  0  0  0  0  0  0  0  0  0
  -36.6476   55.8949   58.6958 C   0  0  0  0  0  0  0  0  0  0  0  0
  -35.8087   55.2942   59.5173 C   0  0  0  0  0  0  0  0  0  0  0  0
  -34.3377   55.5477   59.6178 C   0  0  0  0  0  0  0  0  0  0  0  0
  -33.9385   56.1327   60.9694 C   0  0  0  0  0  0  0  0  0  0  0  0
  -33.6710   57.6270   60.9318 C   0  0  0  0  0  0  0  0  0  0  0  0
  -34.0355   58.3444   62.2202 C   0  0  0  0  0  0  0  0  0  0  0  0
  -32.8683   59.0294   62.9114 C   0  0  0  0  0  0  0  0  0  0  0  0
  -31.5949   59.0424   62.0796 C   0  0  0  0  0  0  0  0  0  0  0  0
  -31.0556   60.4289   61.7893 C   0  0  0  0  0  0  0  0  0  0  0  0
  -31.9247   61.5199   62.3498 C   0  0  0  0  0  0  0  0  0  0  0  0
 21 22  1  0  0  0
  4  5  2  0  0  0
 25 24  1  0  0  0
 25 26  2  0  0  0
 25 27  1  0  0  0
 25 29  1  0  0  0
 22 20  1  0  0  0
  3  5  1  0  0  0
  3  2  1  0  0  0
 20 19  1  0  0  0
 24 23  1  0  0  0
 19 18  1  0  0  0
 18 17  1  0  0  0
 27 28  1  0  0  0
 17 16  1  0  0  0
 29 30  1  0  0  0
 16 15  1  0  0  0
 34 35  1  0  0  0
 34 36  1  0  0  0
 15 14  1  0  0  0
 31 32  1  0  0  0
 31 33  1  0  0  0
 14 13  1  0  0  0
 37  1  1  0  0  0
 37 39  1  0  0  0
 13 12  1  0  0  0
 38 39  2  0  0  0
 12 11  1  0  0  0
 11 10  1  0  0  0
 10  9  1  0  0  0
  9  8  1  0  0  0
  8  7  1  0  0  0
  7  6  1  0  0  0
  6  5  1  0  0  0
  2  1  1  0  0  0
  1 23  1  0  0  0
 30 32  1  0  0  0
 32 35  1  0  0  0
 39 40  1  0  0  0
 40 41  1  0  0  0
 41 42  1  0  0  0
 42 43  1  0  0  0
 43 44  1  0  0  0
 44 45  1  0  0  0
 45 46  1  0  0  0
 46 47  1  0  0  0
 47 48  2  0  0  0
 48 49  1  0  0  0
 49 50  1  0  0  0
 50 51  1  0  0  0
 51 52  1  0  0  0
 52 53  1  0  0  0
 53 54  1  0  0  0
 54 55  1  0  0  0
 55 56  1  0  0  0
M  CHG 1  26  -1
M  END
> <minimizedAffinity>
-8.73335

> <CNNscore>
0.6341959238

> <CNNaffinity>
7.4807686806

> <CNN_VS>
4.7442731857

> <CNNaffinity_variance>
0.5067486763

$$$$
/media/chris/experiments/cd1a-new-docking/inputs/ligands/7sh4_ligand.pdb


 56 55  0  0  0  0  0  0  0  0999 V2000
  -35.4733   59.8725   63.8249 C   0  0  0  0  0  0  0  0  0  0  0  0
  -35.1746   58.4012   63.7634 C   0  0  0  0  0  0  0  0  0  0  0  0
  -35.8904   57.9481   62.5949 O   0  0  0  0  0  0  0  0  0  0  0  0
  -34.0363   58.0200   61.3472 O   0  0  0  0  0  0  0  0  0  0  0  0
  -35.1611   57.6360   61.5230 C   0  0  0  0  0  0  0  0  0  0  0  0
  -35.8807   56.6538   60.6444 C   0  0  0  0  0  0  0  0  0  0  0  0
  -37.3043   57.0570   60.2991 C   0  0  0  0  0  0  0  0  0  0  0  0
  -37.3720   58.0484   59.1565 C   0  0  0  0  0  0  0  0  0  0  0  0
  -37.8730   59.4182   59.5542 C   0  0  0  0  0  0  0  0  0  0  0  0
  -38.7276   59.3973   60.8054 C   0  0  0  0  0  0  0  0  0  0  0  0
  -40.0901   60.0145   60.6045 C   0  0  0  0  0  0  0  0  0  0  0  0
  -40.4467   60.1935   59.1524 C   0  0  0  0  0  0  0  0  0  0  0  0
  -41.8003   59.6230   58.7918 C   0  0  0  0  0  0  0  0  0  0  0  0
  -41.8508   59.0858   57.3758 C   0  0  0  0  0  0  0  0  0  0  0  0
  -43.2237   58.6179   56.9409 C   0  0  0  0  0  0  0  0  0  0  0  0
  -44.1953   58.4019   58.0957 C   0  0  0  0  0  0  0  0  0  0  0  0
  -45.6028   58.0444   57.6581 C   0  0  0  0  0  0  0  0  0  0  0  0
  -46.4599   57.4932   58.7790 C   0  0  0  0  0  0  0  0  0  0  0  0
  -47.6599   56.6926   58.2925 C   0  0  0  0  0  0  0  0  0  0  0  0
  -48.1860   55.7032   59.3169 C   0  0  0  0  0  0  0  0  0  0  0  0
  -49.9971   57.4423   59.4938 C   0  0  0  0  0  0  0  0  0  0  0  0
  -49.4393   56.1498   60.0454 C   0  0  0  0  0  0  0  0  0  0  0  0
  -34.2270   60.7094   63.6907 C   0  0  0  0  0  0  0  0  0  0  0  0
  -34.6048   62.0455   63.2903 O   0  0  0  0  0  0  0  0  0  0  0  0
  -33.5607   63.2563   63.2147 P   0  0  0  0  0  0  0  0  0  0  0  0
  -32.2507   62.7616   63.6903 O   0  0  0  0  0  0  0  0  0  0  0  0
  -33.6470   63.8563   61.8616 O   0  0  0  0  0  0  0  0  0  0  0  0
  -33.3306   63.2175   61.2037 H   0  0  0  0  0  0  0  0  0  0  0  0
  -34.0884   64.3352   64.2637 O   0  0  0  0  0  0  0  0  0  0  0  0
  -34.9976   63.9389   65.3106 C   0  0  0  0  0  0  0  0  0  0  0  0
  -34.0802   63.3416   67.4424 O   0  0  0  0  0  0  0  0  0  0  0  0
  -34.4624   64.4518   66.6249 C   0  0  0  0  0  0  0  0  0  0  0  0
  -34.8375   62.7455   67.5526 H   0  0  0  0  0  0  0  0  0  0  0  0
  -32.9824   66.0478   67.6647 O   0  0  0  0  0  0  0  0  0  0  0  0
  -33.2944   65.3913   66.4426 C   0  0  0  0  0  0  0  0  0  0  0  0
  -32.2311   66.6458   67.5278 H   0  0  0  0  0  0  0  0  0  0  0  0
  -36.1783   60.1482   65.0806 O   0  0  0  0  0  0  0  0  0  0  0  0
  -37.7463   61.5709   64.3208 O   0  0  0  0  0  0  0  0  0  0  0  0
  -37.4365   60.6189   64.9838 C   0  0  0  0  0  0  0  0  0  0  0  0
  -38.4032   59.8036   65.7855 C   0  0  0  0  0  0  0  0  0  0  0  0
  -38.6135   58.4231   65.1716 C   0  0  0  0  0  0  0  0  0  0  0  0
  -40.0463   58.1505   64.7440 C   0  0  0  0  0  0  0  0  0  0  0  0
  -40.7514   59.3701   64.1619 C   0  0  0  0  0  0  0  0  0  0  0  0
  -42.1086   59.6515   64.7797 C   0  0  0  0  0  0  0  0  0  0  0  0
  -42.1595   59.4963   66.3023 C   0  0  0  0  0  0  0  0  0  0  0  0
  -43.3197   58.6512   66.8326 C   0  0  0  0  0  0  0  0  0  0  0  0
  -43.2938   57.2532   66.2914 C   0  0  0  0  0  0  0  0  0  0  0  0
  -44.2175   56.6812   65.5437 C   0  0  0  0  0  0  0  0  0  0  0  0
  -45.4905   57.3129   65.0760 C   0  0  0  0  0  0  0  0  0  0  0  0
  -46.4995   57.4957   66.2060 C   0  0  0  0  0  0  0  0  0  0  0  0
  -47.9316   57.1971   65.7986 C   0  0  0  0  0  0  0  0  0  0  0  0
  -48.8762   58.3721   65.9845 C   0  0  0  0  0  0  0  0  0  0  0  0
  -50.2893   58.1298   65.4807 C   0  0  0  0  0  0  0  0  0  0  0  0
  -50.8234   59.2569   64.6100 C   0  0  0  0  0  0  0  0  0  0  0  0
  -50.7937   58.9622   63.1235 C   0  0  0  0  0  0  0  0  0  0  0  0
  -49.6521   59.6404   62.4189 C   0  0  0  0  0  0  0  0  0  0  0  0
 21 22  1  0  0  0
  4  5  2  0  0  0
 25 24  1  0  0  0
 25 26  2  0  0  0
 25 27  1  0  0  0
 25 29  1  0  0  0
 22 20  1  0  0  0
  3  5  1  0  0  0
  3  2  1  0  0  0
 20 19  1  0  0  0
 24 23  1  0  0  0
 19 18  1  0  0  0
 18 17  1  0  0  0
 27 28  1  0  0  0
 17 16  1  0  0  0
 29 30  1  0  0  0
 16 15  1  0  0  0
 34 35  1  0  0  0
 34 36  1  0  0  0
 15 14  1  0  0  0
 31 32  1  0  0  0
 31 33  1  0  0  0
 14 13  1  0  0  0
 37  1  1  0  0  0
 37 39  1  0  0  0
 13 12  1  0  0  0
 38 39  2  0  0  0
 12 11  1  0  0  0
 11 10  1  0  0  0
 10  9  1  0  0  0
  9  8  1  0  0  0
  8  7  1  0  0  0
  7  6  1  0  0  0
  6  5  1  0  0  0
  2  1  1  0  0  0
  1 23  1  0  0  0
 30 32  1  0  0  0
 32 35  1  0  0  0
 39 40  1  0  0  0
 40 41  1  0  0  0
 41 42  1  0  0  0
 42 43  1  0  0  0
 43 44  1  0  0  0
 44 45  1  0  0  0
 45 46  1  0  0  0
 46 47  1  0  0  0
 47 48  2  0  0  0
 48 49  1  0  0  0
 49 50  1  0  0  0
 50 51  1  0  0  0
 51 52  1  0  0  0
 52 53  1  0  0  0
 53 54  1  0  0  0
 54 55  1  0  0  0
 55 56  1  0  0  0
M  CHG 1  26  -1
M  END
> <minimizedAffinity>
-8.38396

> <CNNscore>
0.5957512856

> <CNNaffinity>
7.6655321121

> <CNN_VS>
4.5667505264

> <CNNaffinity_variance>
0.5893173218

$$$$
/media/chris/experiments/cd1a-new-docking/inputs/ligands/7sh4_ligand.pdb


 56 55  0  0  0  0  0  0  0  0999 V2000
  -36.6055   60.8902   64.9716 C   0  0  0  0  0  0  0  0  0  0  0  0
  -37.9592   60.4015   65.4032 C   0  0  0  0  0  0  0  0  0  0  0  0
  -38.8330   60.7954   64.3241 O   0  0  0  0  0  0  0  0  0  0  0  0
  -40.7191   60.1724   63.2976 O   0  0  0  0  0  0  0  0  0  0  0  0
  -40.0399   60.2295   64.2869 C   0  0  0  0  0  0  0  0  0  0  0  0
  -40.3721   59.5737   65.5962 C   0  0  0  0  0  0  0  0  0  0  0  0
  -41.5313   58.5941   65.5230 C   0  0  0  0  0  0  0  0  0  0  0  0
  -42.3392   58.5452   66.8027 C   0  0  0  0  0  0  0  0  0  0  0  0
  -43.8227   58.7607   66.6070 C   0  0  0  0  0  0  0  0  0  0  0  0
  -44.2219   58.8500   65.1479 C   0  0  0  0  0  0  0  0  0  0  0  0
  -45.0798   57.6939   64.6950 C   0  0  0  0  0  0  0  0  0  0  0  0
  -45.5501   56.8285   65.8342 C   0  0  0  0  0  0  0  0  0  0  0  0
  -47.0436   56.8977   66.0639 C   0  0  0  0  0  0  0  0  0  0  0  0
  -47.7232   57.9313   65.1887 C   0  0  0  0  0  0  0  0  0  0  0  0
  -48.7138   58.8090   65.9244 C   0  0  0  0  0  0  0  0  0  0  0  0
  -50.1689   58.4059   65.7139 C   0  0  0  0  0  0  0  0  0  0  0  0
  -50.9588   59.3753   64.8556 C   0  0  0  0  0  0  0  0  0  0  0  0
  -50.0911   60.2099   63.9361 C   0  0  0  0  0  0  0  0  0  0  0  0
  -50.2316   59.8433   62.4652 C   0  0  0  0  0  0  0  0  0  0  0  0
  -49.5908   58.5145   62.1062 C   0  0  0  0  0  0  0  0  0  0  0  0
  -50.3448   57.1381   60.1383 C   0  0  0  0  0  0  0  0  0  0  0  0
  -49.4505   58.2590   60.6176 C   0  0  0  0  0  0  0  0  0  0  0  0
  -36.5420   62.3945   64.9027 C   0  0  0  0  0  0  0  0  0  0  0  0
  -35.2224   62.8233   65.3065 O   0  0  0  0  0  0  0  0  0  0  0  0
  -34.9257   63.4936   66.7295 P   0  0  0  0  0  0  0  0  0  0  0  0
  -36.2085   63.9769   67.2843 O   0  0  0  0  0  0  0  0  0  0  0  0
  -34.1176   62.5414   67.5286 O   0  0  0  0  0  0  0  0  0  0  0  0
  -34.6504   61.7569   67.7328 H   0  0  0  0  0  0  0  0  0  0  0  0
  -34.0162   64.7653   66.4159 O   0  0  0  0  0  0  0  0  0  0  0  0
  -33.6298   65.0588   65.0578 C   0  0  0  0  0  0  0  0  0  0  0  0
  -31.5567   65.2012   66.2513 O   0  0  0  0  0  0  0  0  0  0  0  0
  -32.1268   64.9666   64.9603 C   0  0  0  0  0  0  0  0  0  0  0  0
  -31.8589   66.0595   66.5871 H   0  0  0  0  0  0  0  0  0  0  0  0
  -32.7796   62.7998   64.1252 O   0  0  0  0  0  0  0  0  0  0  0  0
  -31.6664   63.6333   64.4216 C   0  0  0  0  0  0  0  0  0  0  0  0
  -32.4643   61.9495   63.7811 H   0  0  0  0  0  0  0  0  0  0  0  0
  -36.2827   60.2748   63.6805 O   0  0  0  0  0  0  0  0  0  0  0  0
  -34.1085   60.3025   63.1040 O   0  0  0  0  0  0  0  0  0  0  0  0
  -35.0596   59.7248   63.5550 C   0  0  0  0  0  0  0  0  0  0  0  0
  -35.0239   58.3162   64.0614 C   0  0  0  0  0  0  0  0  0  0  0  0
  -35.8897   57.3938   63.2090 C   0  0  0  0  0  0  0  0  0  0  0  0
  -35.5925   57.4711   61.7204 C   0  0  0  0  0  0  0  0  0  0  0  0
  -36.5550   56.6570   60.8634 C   0  0  0  0  0  0  0  0  0  0  0  0
  -37.3598   57.4876   59.8810 C   0  0  0  0  0  0  0  0  0  0  0  0
  -38.1988   58.5965   60.5224 C   0  0  0  0  0  0  0  0  0  0  0  0
  -38.6953   59.6774   59.5597 C   0  0  0  0  0  0  0  0  0  0  0  0
  -40.0706   60.1592   59.9122 C   0  0  0  0  0  0  0  0  0  0  0  0
  -41.1599   60.0360   59.1789 C   0  0  0  0  0  0  0  0  0  0  0  0
  -41.2505   59.3842   57.8353 C   0  0  0  0  0  0  0  0  0  0  0  0
  -42.6639   59.4261   57.2618 C   0  0  0  0  0  0  0  0  0  0  0  0
  -43.4522   58.1482   57.4894 C   0  0  0  0  0  0  0  0  0  0  0  0
  -44.9303   58.3818   57.7503 C   0  0  0  0  0  0  0  0  0  0  0  0
  -45.4625   57.7081   59.0042 C   0  0  0  0  0  0  0  0  0  0  0  0
  -46.7679   56.9595   58.7819 C   0  0  0  0  0  0  0  0  0  0  0  0
  -47.1560   56.8049   57.3249 C   0  0  0  0  0  0  0  0  0  0  0  0
  -47.9476   55.5540   57.0635 C   0  0  0  0  0  0  0  0  0  0  0  0
 21 22  1  0  0  0
  4  5  2  0  0  0
 25 24  1  0  0  0
 25 26  2  0  0  0
 25 27  1  0  0  0
 25 29  1  0  0  0
 22 20  1  0  0  0
  3  5  1  0  0  0
  3  2  1  0  0  0
 20 19  1  0  0  0
 24 23  1  0  0  0
 19 18  1  0  0  0
 18 17  1  0  0  0
 27 28  1  0  0  0
 17 16  1  0  0  0
 29 30  1  0  0  0
 16 15  1  0  0  0
 34 35  1  0  0  0
 34 36  1  0  0  0
 15 14  1  0  0  0
 31 32  1  0  0  0
 31 33  1  0  0  0
 14 13  1  0  0  0
 37  1  1  0  0  0
 37 39  1  0  0  0
 13 12  1  0  0  0
 38 39  2  0  0  0
 12 11  1  0  0  0
 11 10  1  0  0  0
 10  9  1  0  0  0
  9  8  1  0  0  0
  8  7  1  0  0  0
  7  6  1  0  0  0
  6  5  1  0  0  0
  2  1  1  0  0  0
  1 23  1  0  0  0
 30 32  1  0  0  0
 32 35  1  0  0  0
 39 40  1  0  0  0
 40 41  1  0  0  0
 41 42  1  0  0  0
 42 43  1  0  0  0
 43 44  1  0  0  0
 44 45  1  0  0  0
 45 46  1  0  0  0
 46 47  1  0  0  0
 47 48  2  0  0  0
 48 49  1  0  0  0
 49 50  1  0  0  0
 50 51  1  0  0  0
 51 52  1  0  0  0
 52 53  1  0  0  0
 53 54  1  0  0  0
 54 55  1  0  0  0
 55 56  1  0  0  0
M  CHG 1  26  -1
M  END
> <minimizedAffinity>
-8.28715

> <CNNscore>
0.5202229619

> <CNNaffinity>
7.3446755409

> <CNN_VS>
3.8208689690

> <CNNaffinity_variance>
0.7323078513

$$$$
/media/chris/experiments/cd1a-new-docking/inputs/ligands/7sh4_ligand.pdb


 56 55  0  0  0  0  0  0  0  0999 V2000
  -36.5989   61.5603   63.6126 C   0  0  0  0  0  0  0  0  0  0  0  0
  -37.9302   61.0227   63.1698 C   0  0  0  0  0  0  0  0  0  0  0  0
  -38.7736   61.1788   64.3306 O   0  0  0  0  0  0  0  0  0  0  0  0
  -38.5397   59.8038   66.0782 O   0  0  0  0  0  0  0  0  0  0  0  0
  -39.0532   60.0764   65.0267 C   0  0  0  0  0  0  0  0  0  0  0  0
  -40.1701   59.3011   64.3896 C   0  0  0  0  0  0  0  0  0  0  0  0
  -40.6808   58.1436   65.2309 C   0  0  0  0  0  0  0  0  0  0  0  0
  -42.0607   58.3968   65.8004 C   0  0  0  0  0  0  0  0  0  0  0  0
  -42.6696   57.2039   66.5018 C   0  0  0  0  0  0  0  0  0  0  0  0
  -44.1450   57.0297   66.2037 C   0  0  0  0  0  0  0  0  0  0  0  0
  -44.8933   58.3379   66.1236 C   0  0  0  0  0  0  0  0  0  0  0  0
  -45.6528   58.5034   64.8338 C   0  0  0  0  0  0  0  0  0  0  0  0
  -47.0848   58.9478   65.0331 C   0  0  0  0  0  0  0  0  0  0  0  0
  -48.0891   57.9128   64.5680 C   0  0  0  0  0  0  0  0  0  0  0  0
  -49.4052   58.4961   64.0984 C   0  0  0  0  0  0  0  0  0  0  0  0
  -49.5874   58.4659   62.5851 C   0  0  0  0  0  0  0  0  0  0  0  0
  -50.9089   57.8730   62.1353 C   0  0  0  0  0  0  0  0  0  0  0  0
  -50.8958   57.3942   60.6982 C   0  0  0  0  0  0  0  0  0  0  0  0
  -49.6703   56.5639   60.3427 C   0  0  0  0  0  0  0  0  0  0  0  0
  -49.0235   56.9666   59.0294 C   0  0  0  0  0  0  0  0  0  0  0  0
  -46.8113   57.4724   57.9402 C   0  0  0  0  0  0  0  0  0  0  0  0
  -47.6754   57.6479   59.1685 C   0  0  0  0  0  0  0  0  0  0  0  0
  -36.2230   62.8196   62.8746 C   0  0  0  0  0  0  0  0  0  0  0  0
  -34.8053   62.7897   62.5959 O   0  0  0  0  0  0  0  0  0  0  0  0
  -33.7447   63.6811   63.3975 P   0  0  0  0  0  0  0  0  0  0  0  0
  -32.9240   62.7768   64.2315 O   0  0  0  0  0  0  0  0  0  0  0  0
  -33.0621   64.5703   62.4270 O   0  0  0  0  0  0  0  0  0  0  0  0
  -32.5257   64.0361   61.8206 H   0  0  0  0  0  0  0  0  0  0  0  0
  -34.6133   64.5956   64.3732 O   0  0  0  0  0  0  0  0  0  0  0  0
  -34.0429   65.0799   65.6061 C   0  0  0  0  0  0  0  0  0  0  0  0
  -34.1874   64.7854   67.9799 O   0  0  0  0  0  0  0  0  0  0  0  0
  -34.4807   64.1660   66.7241 C   0  0  0  0  0  0  0  0  0  0  0  0
  -33.2428   65.0022   68.0207 H   0  0  0  0  0  0  0  0  0  0  0  0
  -36.4003   63.2576   67.8681 O   0  0  0  0  0  0  0  0  0  0  0  0
  -35.9486   63.8212   66.6433 C   0  0  0  0  0  0  0  0  0  0  0  0
  -37.3435   63.0431   67.7968 H   0  0  0  0  0  0  0  0  0  0  0  0
  -35.5938   60.5078   63.4347 O   0  0  0  0  0  0  0  0  0  0  0  0
  -34.8781   60.4483   65.5664 O   0  0  0  0  0  0  0  0  0  0  0  0
  -35.1617   59.8819   64.5463 C   0  0  0  0  0  0  0  0  0  0  0  0
  -35.0953   58.3973   64.3638 C   0  0  0  0  0  0  0  0  0  0  0  0
  -36.4547   57.8198   63.9824 C   0  0  0  0  0  0  0  0  0  0  0  0
  -36.5585   57.3982   62.5258 C   0  0  0  0  0  0  0  0  0  0  0  0
  -37.9861   57.1122   62.0741 C   0  0  0  0  0  0  0  0  0  0  0  0
  -38.5730   58.1806   61.1705 C   0  0  0  0  0  0  0  0  0  0  0  0
  -37.5692   58.8230   60.2088 C   0  0  0  0  0  0  0  0  0  0  0  0
  -37.8147   58.5389   58.7254 C   0  0  0  0  0  0  0  0  0  0  0  0
  -36.5609   58.1264   58.0142 C   0  0  0  0  0  0  0  0  0  0  0  0
  -35.9891   56.9385   58.0516 C   0  0  0  0  0  0  0  0  0  0  0  0
  -36.4767   55.7478   58.8148 C   0  0  0  0  0  0  0  0  0  0  0  0
  -35.3983   55.1511   59.7145 C   0  0  0  0  0  0  0  0  0  0  0  0
  -34.0975   55.9348   59.7088 C   0  0  0  0  0  0  0  0  0  0  0  0
  -33.5873   56.2800   61.0973 C   0  0  0  0  0  0  0  0  0  0  0  0
  -33.1896   57.7355   61.2781 C   0  0  0  0  0  0  0  0  0  0  0  0
  -32.2588   57.9668   62.4587 C   0  0  0  0  0  0  0  0  0  0  0  0
  -31.2498   59.0780   62.2470 C   0  0  0  0  0  0  0  0  0  0  0  0
  -31.8972   60.4140   62.0110 C   0  0  0  0  0  0  0  0  0  0  0  0
 21 22  1  0  0  0
  4  5  2  0  0  0
 25 24  1  0  0  0
 25 26  2  0  0  0
 25 27  1  0  0  0
 25 29  1  0  0  0
 22 20  1  0  0  0
  3  5  1  0  0  0
  3  2  1  0  0  0
 20 19  1  0  0  0
 24 23  1  0  0  0
 19 18  1  0  0  0
 18 17  1  0  0  0
 27 28  1  0  0  0
 17 16  1  0  0  0
 29 30  1  0  0  0
 16 15  1  0  0  0
 34 35  1  0  0  0
 34 36  1  0  0  0
 15 14  1  0  0  0
 31 32  1  0  0  0
 31 33  1  0  0  0
 14 13  1  0  0  0
 37  1  1  0  0  0
 37 39  1  0  0  0
 13 12  1  0  0  0
 38 39  2  0  0  0
 12 11  1  0  0  0
 11 10  1  0  0  0
 10  9  1  0  0  0
  9  8  1  0  0  0
  8  7  1  0  0  0
  7  6  1  0  0  0
  6  5  1  0  0  0
  2  1  1  0  0  0
  1 23  1  0  0  0
 30 32  1  0  0  0
 32 35  1  0  0  0
 39 40  1  0  0  0
 40 41  1  0  0  0
 41 42  1  0  0  0
 42 43  1  0  0  0
 43 44  1  0  0  0
 44 45  1  0  0  0
 45 46  1  0  0  0
 46 47  1  0  0  0
 47 48  2  0  0  0
 48 49  1  0  0  0
 49 50  1  0  0  0
 50 51  1  0  0  0
 51 52  1  0  0  0
 52 53  1  0  0  0
 53 54  1  0  0  0
 54 55  1  0  0  0
 55 56  1  0  0  0
M  CHG 1  26  -1
M  END
> <minimizedAffinity>
-8.91728

> <CNNscore>
0.5132977366

> <CNNaffinity>
7.3032293320

> <CNN_VS>
3.7487311363

> <CNNaffinity_variance>
0.8656996489

$$$$
/media/chris/experiments/cd1a-new-docking/inputs/ligands/7sh4_ligand.pdb


 56 55  0  0  0  0  0  0  0  0999 V2000
  -37.7738   60.7202   65.2475 C   0  0  0  0  0  0  0  0  0  0  0  0
  -38.8328   60.0466   66.0737 C   0  0  0  0  0  0  0  0  0  0  0  0
  -40.0420   60.7610   65.7414 O   0  0  0  0  0  0  0  0  0  0  0  0
  -40.9827   59.8904   63.9093 O   0  0  0  0  0  0  0  0  0  0  0  0
  -40.9886   60.0788   65.0959 C   0  0  0  0  0  0  0  0  0  0  0  0
  -41.9770   59.4817   66.0556 C   0  0  0  0  0  0  0  0  0  0  0  0
  -43.0926   58.6953   65.3883 C   0  0  0  0  0  0  0  0  0  0  0  0
  -43.7596   57.7121   66.3270 C   0  0  0  0  0  0  0  0  0  0  0  0
  -45.2214   57.4662   66.0296 C   0  0  0  0  0  0  0  0  0  0  0  0
  -45.7945   58.4429   65.0228 C   0  0  0  0  0  0  0  0  0  0  0  0
  -46.7004   59.4761   65.6468 C   0  0  0  0  0  0  0  0  0  0  0  0
  -48.0325   59.5866   64.9533 C   0  0  0  0  0  0  0  0  0  0  0  0
  -49.2011   59.2007   65.8327 C   0  0  0  0  0  0  0  0  0  0  0  0
  -50.3740   58.6567   65.0424 C   0  0  0  0  0  0  0  0  0  0  0  0
  -51.0138   59.6660   64.1124 C   0  0  0  0  0  0  0  0  0  0  0  0
  -51.3639   59.1032   62.7395 C   0  0  0  0  0  0  0  0  0  0  0  0
  -50.5143   57.9173   62.3247 C   0  0  0  0  0  0  0  0  0  0  0  0
  -50.8815   57.3600   60.9647 C   0  0  0  0  0  0  0  0  0  0  0  0
  -49.9642   57.8305   59.8445 C   0  0  0  0  0  0  0  0  0  0  0  0
  -48.5209   57.3918   60.0162 C   0  0  0  0  0  0  0  0  0  0  0  0
  -48.3788   56.6364   57.6194 C   0  0  0  0  0  0  0  0  0  0  0  0
  -47.7012   57.3922   58.7400 C   0  0  0  0  0  0  0  0  0  0  0  0
  -36.9159   59.7264   64.5072 C   0  0  0  0  0  0  0  0  0  0  0  0
  -37.5385   59.4296   63.2373 O   0  0  0  0  0  0  0  0  0  0  0  0
  -37.9418   57.9451   62.7948 P   0  0  0  0  0  0  0  0  0  0  0  0
  -36.7646   57.0724   62.9936 O   0  0  0  0  0  0  0  0  0  0  0  0
  -39.2130   57.5914   63.4710 O   0  0  0  0  0  0  0  0  0  0  0  0
  -39.0646   57.5309   64.4277 H   0  0  0  0  0  0  0  0  0  0  0  0
  -38.2281   58.0342   61.2287 O   0  0  0  0  0  0  0  0  0  0  0  0
  -37.6064   59.0688   60.4393 C   0  0  0  0  0  0  0  0  0  0  0  0
  -39.0061   58.9666   58.4969 O   0  0  0  0  0  0  0  0  0  0  0  0
  -38.6788   59.7650   59.6380 C   0  0  0  0  0  0  0  0  0  0  0  0
  -38.2029   58.7961   57.9804 H   0  0  0  0  0  0  0  0  0  0  0  0
  -39.5893   60.7389   61.6482 O   0  0  0  0  0  0  0  0  0  0  0  0
  -39.9188   60.0405   60.4543 C   0  0  0  0  0  0  0  0  0  0  0  0
  -40.3971   60.9064   62.1582 H   0  0  0  0  0  0  0  0  0  0  0  0
  -36.9737   61.5747   66.1303 O   0  0  0  0  0  0  0  0  0  0  0  0
  -36.6452   63.2714   64.6904 O   0  0  0  0  0  0  0  0  0  0  0  0
  -36.2326   62.5344   65.5438 C   0  0  0  0  0  0  0  0  0  0  0  0
  -34.8415   62.5839   66.0955 C   0  0  0  0  0  0  0  0  0  0  0  0
  -34.4698   63.9923   66.5485 C   0  0  0  0  0  0  0  0  0  0  0  0
  -33.7693   64.8180   65.4820 C   0  0  0  0  0  0  0  0  0  0  0  0
  -32.2542   64.8635   65.6435 C   0  0  0  0  0  0  0  0  0  0  0  0
  -31.5001   64.0238   64.6291 C   0  0  0  0  0  0  0  0  0  0  0  0
  -31.5588   64.5545   63.1938 C   0  0  0  0  0  0  0  0  0  0  0  0
  -32.1052   63.5704   62.1572 C   0  0  0  0  0  0  0  0  0  0  0  0
  -32.9935   62.5332   62.7762 C   0  0  0  0  0  0  0  0  0  0  0  0
  -32.7883   61.2305   62.7947 C   0  0  0  0  0  0  0  0  0  0  0  0
  -31.6184   60.5126   62.1996 C   0  0  0  0  0  0  0  0  0  0  0  0
  -31.9706   59.0976   61.7500 C   0  0  0  0  0  0  0  0  0  0  0  0
  -33.2717   58.5780   62.3359 C   0  0  0  0  0  0  0  0  0  0  0  0
  -33.5396   57.1155   62.0246 C   0  0  0  0  0  0  0  0  0  0  0  0
  -33.4375   56.7564   60.5515 C   0  0  0  0  0  0  0  0  0  0  0  0
  -34.7741   56.3943   59.9223 C   0  0  0  0  0  0  0  0  0  0  0  0
  -34.9309   56.8544   58.4866 C   0  0  0  0  0  0  0  0  0  0  0  0
  -36.3161   56.6239   57.9501 C   0  0  0  0  0  0  0  0  0  0  0  0
 21 22  1  0  0  0
  4  5  2  0  0  0
 25 24  1  0  0  0
 25 26  2  0  0  0
 25 27  1  0  0  0
 25 29  1  0  0  0
 22 20  1  0  0  0
  3  5  1  0  0  0
  3  2  1  0  0  0
 20 19  1  0  0  0
 24 23  1  0  0  0
 19 18  1  0  0  0
 18 17  1  0  0  0
 27 28  1  0  0  0
 17 16  1  0  0  0
 29 30  1  0  0  0
 16 15  1  0  0  0
 34 35  1  0  0  0
 34 36  1  0  0  0
 15 14  1  0  0  0
 31 32  1  0  0  0
 31 33  1  0  0  0
 14 13  1  0  0  0
 37  1  1  0  0  0
 37 39  1  0  0  0
 13 12  1  0  0  0
 38 39  2  0  0  0
 12 11  1  0  0  0
 11 10  1  0  0  0
 10  9  1  0  0  0
  9  8  1  0  0  0
  8  7  1  0  0  0
  7  6  1  0  0  0
  6  5  1  0  0  0
  2  1  1  0  0  0
  1 23  1  0  0  0
 30 32  1  0  0  0
 32 35  1  0  0  0
 39 40  1  0  0  0
 40 41  1  0  0  0
 41 42  1  0  0  0
 42 43  1  0  0  0
 43 44  1  0  0  0
 44 45  1  0  0  0
 45 46  1  0  0  0
 46 47  1  0  0  0
 47 48  2  0  0  0
 48 49  1  0  0  0
 49 50  1  0  0  0
 50 51  1  0  0  0
 51 52  1  0  0  0
 52 53  1  0  0  0
 53 54  1  0  0  0
 54 55  1  0  0  0
 55 56  1  0  0  0
M  CHG 1  26  -1
M  END
> <minimizedAffinity>
-8.37999

> <CNNscore>
0.4895756543

> <CNNaffinity>
7.1567826271

> <CNN_VS>
3.5037865639

> <CNNaffinity_variance>
0.6209082603

$$$$
/media/chris/experiments/cd1a-new-docking/inputs/ligands/7sh4_ligand.pdb


 56 55  0  0  0  0  0  0  0  0999 V2000
  -38.1061   61.1436   63.8578 C   0  0  0  0  0  0  0  0  0  0  0  0
  -39.3625   60.5091   63.3319 C   0  0  0  0  0  0  0  0  0  0  0  0
  -40.4146   61.1256   64.1039 O   0  0  0  0  0  0  0  0  0  0  0  0
  -40.4692   60.6823   66.2948 O   0  0  0  0  0  0  0  0  0  0  0  0
  -40.8465   60.4604   65.1759 C   0  0  0  0  0  0  0  0  0  0  0  0
  -41.9427   59.5005   64.8133 C   0  0  0  0  0  0  0  0  0  0  0  0
  -42.4556   58.6746   65.9810 C   0  0  0  0  0  0  0  0  0  0  0  0
  -43.8683   58.1728   65.7683 C   0  0  0  0  0  0  0  0  0  0  0  0
  -44.8401   59.2353   65.3075 C   0  0  0  0  0  0  0  0  0  0  0  0
  -46.2892   58.8455   65.5181 C   0  0  0  0  0  0  0  0  0  0  0  0
  -47.2306   60.0248   65.4968 C   0  0  0  0  0  0  0  0  0  0  0  0
  -48.6712   59.6246   65.3175 C   0  0  0  0  0  0  0  0  0  0  0  0
  -49.2689   60.1015   64.0124 C   0  0  0  0  0  0  0  0  0  0  0  0
  -50.7690   59.8976   63.9464 C   0  0  0  0  0  0  0  0  0  0  0  0
  -51.2628   59.3684   62.6163 C   0  0  0  0  0  0  0  0  0  0  0  0
  -51.0202   57.8763   62.4186 C   0  0  0  0  0  0  0  0  0  0  0  0
  -50.8635   57.4646   60.9674 C   0  0  0  0  0  0  0  0  0  0  0  0
  -49.4550   57.6442   60.4394 C   0  0  0  0  0  0  0  0  0  0  0  0
  -49.3178   57.3461   58.9528 C   0  0  0  0  0  0  0  0  0  0  0  0
  -47.9944   56.7011   58.5819 C   0  0  0  0  0  0  0  0  0  0  0  0
  -45.6904   57.6588   58.9139 C   0  0  0  0  0  0  0  0  0  0  0  0
  -46.9418   57.6635   58.0654 C   0  0  0  0  0  0  0  0  0  0  0  0
  -37.2013   61.6130   62.7475 C   0  0  0  0  0  0  0  0  0  0  0  0
  -36.5623   62.8429   63.1568 O   0  0  0  0  0  0  0  0  0  0  0  0
  -35.0491   63.2018   62.7784 P   0  0  0  0  0  0  0  0  0  0  0  0
  -34.2270   61.9889   62.9786 O   0  0  0  0  0  0  0  0  0  0  0  0
  -35.0482   63.8508   61.4453 O   0  0  0  0  0  0  0  0  0  0  0  0
  -35.3240   63.2086   60.7727 H   0  0  0  0  0  0  0  0  0  0  0  0
  -34.5913   64.2879   63.8525 O   0  0  0  0  0  0  0  0  0  0  0  0
  -33.1921   64.4530   64.1604 C   0  0  0  0  0  0  0  0  0  0  0  0
  -31.8112   64.5237   66.1177 O   0  0  0  0  0  0  0  0  0  0  0  0
  -32.9322   63.8618   65.5242 C   0  0  0  0  0  0  0  0  0  0  0  0
  -31.0451   64.4549   65.5267 H   0  0  0  0  0  0  0  0  0  0  0  0
  -34.1312   62.9044   67.3854 O   0  0  0  0  0  0  0  0  0  0  0  0
  -34.1351   63.9589   66.4316 C   0  0  0  0  0  0  0  0  0  0  0  0
  -34.9101   62.9836   67.9581 H   0  0  0  0  0  0  0  0  0  0  0  0
  -37.4333   60.1788   64.7332 O   0  0  0  0  0  0  0  0  0  0  0  0
  -36.6875   61.5049   66.3901 O   0  0  0  0  0  0  0  0  0  0  0  0
  -36.4856   60.6615   65.5596 C   0  0  0  0  0  0  0  0  0  0  0  0
  -35.1576   60.0086   65.3315 C   0  0  0  0  0  0  0  0  0  0  0  0
  -35.2124   59.0216   64.1697 C   0  0  0  0  0  0  0  0  0  0  0  0
  -34.1079   57.9777   64.1953 C   0  0  0  0  0  0  0  0  0  0  0  0
  -32.9753   58.2643   63.2162 C   0  0  0  0  0  0  0  0  0  0  0  0
  -32.8949   57.2833   62.0613 C   0  0  0  0  0  0  0  0  0  0  0  0
  -34.1423   57.2409   61.1740 C   0  0  0  0  0  0  0  0  0  0  0  0
  -34.0945   56.2246   60.0310 C   0  0  0  0  0  0  0  0  0  0  0  0
  -35.3794   55.4635   59.8978 C   0  0  0  0  0  0  0  0  0  0  0  0
  -36.2708   55.5863   58.9336 C   0  0  0  0  0  0  0  0  0  0  0  0
  -36.1838   56.5152   57.7641 C   0  0  0  0  0  0  0  0  0  0  0  0
  -36.3912   57.9737   58.1621 C   0  0  0  0  0  0  0  0  0  0  0  0
  -37.8513   58.3626   58.3132 C   0  0  0  0  0  0  0  0  0  0  0  0
  -38.1446   59.1516   59.5777 C   0  0  0  0  0  0  0  0  0  0  0  0
  -37.4823   58.6023   60.8304 C   0  0  0  0  0  0  0  0  0  0  0  0
  -38.1896   57.3844   61.4049 C   0  0  0  0  0  0  0  0  0  0  0  0
  -37.8661   57.1057   62.8593 C   0  0  0  0  0  0  0  0  0  0  0  0
  -39.0203   57.3961   63.7776 C   0  0  0  0  0  0  0  0  0  0  0  0
 21 22  1  0  0  0
  4  5  2  0  0  0
 25 24  1  0  0  0
 25 26  2  0  0  0
 25 27  1  0  0  0
 25 29  1  0  0  0
 22 20  1  0  0  0
  3  5  1  0  0  0
  3  2  1  0  0  0
 20 19  1  0  0  0
 24 23  1  0  0  0
 19 18  1  0  0  0
 18 17  1  0  0  0
 27 28  1  0  0  0
 17 16  1  0  0  0
 29 30  1  0  0  0
 16 15  1  0  0  0
 34 35  1  0  0  0
 34 36  1  0  0  0
 15 14  1  0  0  0
 31 32  1  0  0  0
 31 33  1  0  0  0
 14 13  1  0  0  0
 37  1  1  0  0  0
 37 39  1  0  0  0
 13 12  1  0  0  0
 38 39  2  0  0  0
 12 11  1  0  0  0
 11 10  1  0  0  0
 10  9  1  0  0  0
  9  8  1  0  0  0
  8  7  1  0  0  0
  7  6  1  0  0  0
  6  5  1  0  0  0
  2  1  1  0  0  0
  1 23  1  0  0  0
 30 32  1  0  0  0
 32 35  1  0  0  0
 39 40  1  0  0  0
 40 41  1  0  0  0
 41 42  1  0  0  0
 42 43  1  0  0  0
 43 44  1  0  0  0
 44 45  1  0  0  0
 45 46  1  0  0  0
 46 47  1  0  0  0
 47 48  2  0  0  0
 48 49  1  0  0  0
 49 50  1  0  0  0
 50 51  1  0  0  0
 51 52  1  0  0  0
 52 53  1  0  0  0
 53 54  1  0  0  0
 54 55  1  0  0  0
 55 56  1  0  0  0
M  CHG 1  26  -1
M  END
> <minimizedAffinity>
-8.68763

> <CNNscore>
0.4643257856

> <CNNaffinity>
7.3451929092

> <CNN_VS>
3.4105625153

> <CNNaffinity_variance>
0.7004138231

$$$$
/media/chris/experiments/cd1a-new-docking/inputs/ligands/7sh4_ligand.pdb


 56 55  0  0  0  0  0  0  0  0999 V2000
  -38.2504   60.0513   64.7039 C   0  0  0  0  0  0  0  0  0  0  0  0
  -39.6868   60.1941   64.2867 C   0  0  0  0  0  0  0  0  0  0  0  0
  -40.4277   59.9805   65.5068 O   0  0  0  0  0  0  0  0  0  0  0  0
  -40.9301   57.8087   65.3323 O   0  0  0  0  0  0  0  0  0  0  0  0
  -41.2673   58.9448   65.5301 C   0  0  0  0  0  0  0  0  0  0  0  0
  -42.6429   59.3710   65.9554 C   0  0  0  0  0  0  0  0  0  0  0  0
  -43.7537   58.4537   65.4725 C   0  0  0  0  0  0  0  0  0  0  0  0
  -45.0956   59.1504   65.3915 C   0  0  0  0  0  0  0  0  0  0  0  0
  -46.2088   58.2879   64.8413 C   0  0  0  0  0  0  0  0  0  0  0  0
  -46.7911   57.3418   65.8719 C   0  0  0  0  0  0  0  0  0  0  0  0
  -48.2968   57.2564   65.8161 C   0  0  0  0  0  0  0  0  0  0  0  0
  -48.9493   58.5742   65.4918 C   0  0  0  0  0  0  0  0  0  0  0  0
  -50.3920   58.4391   65.0578 C   0  0  0  0  0  0  0  0  0  0  0  0
  -50.5473   58.3820   63.5516 C   0  0  0  0  0  0  0  0  0  0  0  0
  -49.5834   59.2731   62.7967 C   0  0  0  0  0  0  0  0  0  0  0  0
  -49.7544   59.2224   61.2827 C   0  0  0  0  0  0  0  0  0  0  0  0
  -50.1611   57.8604   60.7538 C   0  0  0  0  0  0  0  0  0  0  0  0
  -49.1881   57.2929   59.7408 C   0  0  0  0  0  0  0  0  0  0  0  0
  -47.7273   57.4871   60.1225 C   0  0  0  0  0  0  0  0  0  0  0  0
  -46.7542   57.0736   59.0328 C   0  0  0  0  0  0  0  0  0  0  0  0
  -47.3860   56.6313   56.6368 C   0  0  0  0  0  0  0  0  0  0  0  0
  -47.0336   57.6776   57.6698 C   0  0  0  0  0  0  0  0  0  0  0  0
  -37.5951   61.3872   64.9440 C   0  0  0  0  0  0  0  0  0  0  0  0
  -37.3073   62.0001   63.6673 O   0  0  0  0  0  0  0  0  0  0  0  0
  -35.9778   62.8480   63.3921 P   0  0  0  0  0  0  0  0  0  0  0  0
  -34.8249   62.0648   63.8863 O   0  0  0  0  0  0  0  0  0  0  0  0
  -35.9907   63.2790   61.9735 O   0  0  0  0  0  0  0  0  0  0  0  0
  -35.9099   62.5018   61.3986 H   0  0  0  0  0  0  0  0  0  0  0  0
  -36.1122   64.1511   64.3013 O   0  0  0  0  0  0  0  0  0  0  0  0
  -35.0083   64.5698   65.1296 C   0  0  0  0  0  0  0  0  0  0  0  0
  -36.8227   64.1698   66.6432 O   0  0  0  0  0  0  0  0  0  0  0  0
  -35.4167   64.4255   66.5751 C   0  0  0  0  0  0  0  0  0  0  0  0
  -37.3026   64.8785   66.1866 H   0  0  0  0  0  0  0  0  0  0  0  0
  -33.6566   62.7826   66.4285 O   0  0  0  0  0  0  0  0  0  0  0  0
  -34.6531   63.3311   67.2816 C   0  0  0  0  0  0  0  0  0  0  0  0
  -33.1778   62.0826   66.8991 H   0  0  0  0  0  0  0  0  0  0  0  0
  -37.5457   59.2793   63.6757 O   0  0  0  0  0  0  0  0  0  0  0  0
  -37.7524   57.4036   64.9001 O   0  0  0  0  0  0  0  0  0  0  0  0
  -37.4126   57.9562   63.8897 C   0  0  0  0  0  0  0  0  0  0  0  0
  -36.8084   57.2560   62.7121 C   0  0  0  0  0  0  0  0  0  0  0  0
  -37.8445   57.0001   61.6222 C   0  0  0  0  0  0  0  0  0  0  0  0
  -37.9126   58.0927   60.5678 C   0  0  0  0  0  0  0  0  0  0  0  0
  -36.9792   57.8582   59.3857 C   0  0  0  0  0  0  0  0  0  0  0  0
  -36.9420   56.4194   58.9048 C   0  0  0  0  0  0  0  0  0  0  0  0
  -35.5395   55.8870   58.5972 C   0  0  0  0  0  0  0  0  0  0  0  0
  -34.3882   56.7066   59.1839 C   0  0  0  0  0  0  0  0  0  0  0  0
  -33.7529   56.0271   60.3597 C   0  0  0  0  0  0  0  0  0  0  0  0
  -33.3475   56.6007   61.4760 C   0  0  0  0  0  0  0  0  0  0  0  0
  -33.4394   58.0575   61.8037 C   0  0  0  0  0  0  0  0  0  0  0  0
  -32.1454   58.8061   61.4975 C   0  0  0  0  0  0  0  0  0  0  0  0
  -31.8500   59.9353   62.4689 C   0  0  0  0  0  0  0  0  0  0  0  0
  -30.9870   61.0373   61.8788 C   0  0  0  0  0  0  0  0  0  0  0  0
  -31.5129   62.4434   62.1147 C   0  0  0  0  0  0  0  0  0  0  0  0
  -31.4584   62.8737   63.5726 C   0  0  0  0  0  0  0  0  0  0  0  0
  -31.3120   64.3687   63.7750 C   0  0  0  0  0  0  0  0  0  0  0  0
  -31.7967   65.1653   62.5959 C   0  0  0  0  0  0  0  0  0  0  0  0
 21 22  1  0  0  0
  4  5  2  0  0  0
 25 24  1  0  0  0
 25 26  2  0  0  0
 25 27  1  0  0  0
 25 29  1  0  0  0
 22 20  1  0  0  0
  3  5  1  0  0  0
  3  2  1  0  0  0
 20 19  1  0  0  0
 24 23  1  0  0  0
 19 18  1  0  0  0
 18 17  1  0  0  0
 27 28  1  0  0  0
 17 16  1  0  0  0
 29 30  1  0  0  0
 16 15  1  0  0  0
 34 35  1  0  0  0
 34 36  1  0  0  0
 15 14  1  0  0  0
 31 32  1  0  0  0
 31 33  1  0  0  0
 14 13  1  0  0  0
 37  1  1  0  0  0
 37 39  1  0  0  0
 13 12  1  0  0  0
 38 39  2  0  0  0
 12 11  1  0  0  0
 11 10  1  0  0  0
 10  9  1  0  0  0
  9  8  1  0  0  0
  8  7  1  0  0  0
  7  6  1  0  0  0
  6  5  1  0  0  0
  2  1  1  0  0  0
  1 23  1  0  0  0
 30 32  1  0  0  0
 32 35  1  0  0  0
 39 40  1  0  0  0
 40 41  1  0  0  0
 41 42  1  0  0  0
 42 43  1  0  0  0
 43 44  1  0  0  0
 44 45  1  0  0  0
 45 46  1  0  0  0
 46 47  1  0  0  0
 47 48  2  0  0  0
 48 49  1  0  0  0
 49 50  1  0  0  0
 50 51  1  0  0  0
 51 52  1  0  0  0
 52 53  1  0  0  0
 53 54  1  0  0  0
 54 55  1  0  0  0
 55 56  1  0  0  0
M  CHG 1  26  -1
M  END
> <minimizedAffinity>
-8.22670

> <CNNscore>
0.4572243094

> <CNNaffinity>
7.0743055344

> <CNN_VS>
3.2345445156

> <CNNaffinity_variance>
0.5454657078

$$$$
/media/chris/experiments/cd1a-new-docking/inputs/ligands/7sh4_ligand.pdb


 56 55  0  0  0  0  0  0  0  0999 V2000
  -36.9886   61.0882   65.4356 C   0  0  0  0  0  0  0  0  0  0  0  0
  -38.1243   60.3645   66.1021 C   0  0  0  0  0  0  0  0  0  0  0  0
  -39.2465   60.5913   65.2233 O   0  0  0  0  0  0  0  0  0  0  0  0
  -41.0376   61.2506   66.3882 O   0  0  0  0  0  0  0  0  0  0  0  0
  -40.4633   60.4175   65.7403 C   0  0  0  0  0  0  0  0  0  0  0  0
  -41.0575   59.1101   65.3018 C   0  0  0  0  0  0  0  0  0  0  0  0
  -42.5707   59.1303   65.1669 C   0  0  0  0  0  0  0  0  0  0  0  0
  -43.2575   58.1798   66.1248 C   0  0  0  0  0  0  0  0  0  0  0  0
  -44.6414   58.6185   66.5467 C   0  0  0  0  0  0  0  0  0  0  0  0
  -45.3906   59.3520   65.4526 C   0  0  0  0  0  0  0  0  0  0  0  0
  -46.6694   58.6630   65.0437 C   0  0  0  0  0  0  0  0  0  0  0  0
  -47.6821   58.5936   66.1560 C   0  0  0  0  0  0  0  0  0  0  0  0
  -49.0773   58.2581   65.6777 C   0  0  0  0  0  0  0  0  0  0  0  0
  -49.3899   58.8542   64.3201 C   0  0  0  0  0  0  0  0  0  0  0  0
  -50.8652   58.8757   63.9794 C   0  0  0  0  0  0  0  0  0  0  0  0
  -51.1657   58.5452   62.5218 C   0  0  0  0  0  0  0  0  0  0  0  0
  -49.9969   57.9308   61.7757 C   0  0  0  0  0  0  0  0  0  0  0  0
  -49.7980   58.5073   60.3889 C   0  0  0  0  0  0  0  0  0  0  0  0
  -49.6839   57.4504   59.2992 C   0  0  0  0  0  0  0  0  0  0  0  0
  -48.3468   56.7312   59.2877 C   0  0  0  0  0  0  0  0  0  0  0  0
  -46.4871   57.9132   58.0710 C   0  0  0  0  0  0  0  0  0  0  0  0
  -47.5683   56.8592   57.9922 C   0  0  0  0  0  0  0  0  0  0  0  0
  -36.2611   62.0005   66.3896 C   0  0  0  0  0  0  0  0  0  0  0  0
  -36.0934   63.2914   65.7619 O   0  0  0  0  0  0  0  0  0  0  0  0
  -34.6595   63.9643   65.5318 P   0  0  0  0  0  0  0  0  0  0  0  0
  -34.8216   65.0661   64.5588 O   0  0  0  0  0  0  0  0  0  0  0  0
  -34.0733   64.2670   66.8596 O   0  0  0  0  0  0  0  0  0  0  0  0
  -34.6000   64.9544   67.2966 H   0  0  0  0  0  0  0  0  0  0  0  0
  -33.7669   62.8332   64.8484 O   0  0  0  0  0  0  0  0  0  0  0  0
  -32.4539   63.1556   64.3463 C   0  0  0  0  0  0  0  0  0  0  0  0
  -33.2184   61.5094   62.7816 O   0  0  0  0  0  0  0  0  0  0  0  0
  -32.3412   62.6289   62.9368 C   0  0  0  0  0  0  0  0  0  0  0  0
  -33.0086   60.8390   63.4505 H   0  0  0  0  0  0  0  0  0  0  0  0
  -34.0582   63.7997   61.7123 O   0  0  0  0  0  0  0  0  0  0  0  0
  -32.6539   63.6835   61.9023 C   0  0  0  0  0  0  0  0  0  0  0  0
  -34.2389   64.4806   61.0456 H   0  0  0  0  0  0  0  0  0  0  0  0
  -37.5218   61.8227   64.2840 O   0  0  0  0  0  0  0  0  0  0  0  0
  -36.2361   62.4446   62.5461 O   0  0  0  0  0  0  0  0  0  0  0  0
  -36.9153   61.6226   63.0982 C   0  0  0  0  0  0  0  0  0  0  0  0
  -37.1738   60.2490   62.5612 C   0  0  0  0  0  0  0  0  0  0  0  0
  -38.4677   60.1986   61.7547 C   0  0  0  0  0  0  0  0  0  0  0  0
  -39.3003   58.9515   62.0027 C   0  0  0  0  0  0  0  0  0  0  0  0
  -38.4790   57.7504   62.4570 C   0  0  0  0  0  0  0  0  0  0  0  0
  -38.6954   57.3689   63.9097 C   0  0  0  0  0  0  0  0  0  0  0  0
  -37.4330   57.4164   64.7753 C   0  0  0  0  0  0  0  0  0  0  0  0
  -36.1490   56.9582   64.0805 C   0  0  0  0  0  0  0  0  0  0  0  0
  -34.9730   57.8137   64.4454 C   0  0  0  0  0  0  0  0  0  0  0  0
  -34.0892   58.3326   63.6153 C   0  0  0  0  0  0  0  0  0  0  0  0
  -34.0771   58.1756   62.1275 C   0  0  0  0  0  0  0  0  0  0  0  0
  -33.2519   56.9743   61.6753 C   0  0  0  0  0  0  0  0  0  0  0  0
  -34.0524   55.9414   60.9018 C   0  0  0  0  0  0  0  0  0  0  0  0
  -35.5144   56.3123   60.7221 C   0  0  0  0  0  0  0  0  0  0  0  0
  -36.2068   55.6033   59.5700 C   0  0  0  0  0  0  0  0  0  0  0  0
  -36.4195   56.4906   58.3530 C   0  0  0  0  0  0  0  0  0  0  0  0
  -36.4975   57.9711   58.6685 C   0  0  0  0  0  0  0  0  0  0  0  0
  -37.8855   58.5268   58.5116 C   0  0  0  0  0  0  0  0  0  0  0  0
 21 22  1  0  0  0
  4  5  2  0  0  0
 25 24  1  0  0  0
 25 26  2  0  0  0
 25 27  1  0  0  0
 25 29  1  0  0  0
 22 20  1  0  0  0
  3  5  1  0  0  0
  3  2  1  0  0  0
 20 19  1  0  0  0
 24 23  1  0  0  0
 19 18  1  0  0  0
 18 17  1  0  0  0
 27 28  1  0  0  0
 17 16  1  0  0  0
 29 30  1  0  0  0
 16 15  1  0  0  0
 34 35  1  0  0  0
 34 36  1  0  0  0
 15 14  1  0  0  0
 31 32  1  0  0  0
 31 33  1  0  0  0
 14 13  1  0  0  0
 37  1  1  0  0  0
 37 39  1  0  0  0
 13 12  1  0  0  0
 38 39  2  0  0  0
 12 11  1  0  0  0
 11 10  1  0  0  0
 10  9  1  0  0  0
  9  8  1  0  0  0
  8  7  1  0  0  0
  7  6  1  0  0  0
  6  5  1  0  0  0
  2  1  1  0  0  0
  1 23  1  0  0  0
 30 32  1  0  0  0
 32 35  1  0  0  0
 39 40  1  0  0  0
 40 41  1  0  0  0
 41 42  1  0  0  0
 42 43  1  0  0  0
 43 44  1  0  0  0
 44 45  1  0  0  0
 45 46  1  0  0  0
 46 47  1  0  0  0
 47 48  2  0  0  0
 48 49  1  0  0  0
 49 50  1  0  0  0
 50 51  1  0  0  0
 51 52  1  0  0  0
 52 53  1  0  0  0
 53 54  1  0  0  0
 54 55  1  0  0  0
 55 56  1  0  0  0
M  CHG 1  26  -1
M  END
> <minimizedAffinity>
-8.69710

> <CNNscore>
0.4285174906

> <CNNaffinity>
7.3615431786

> <CNN_VS>
3.1545500755

> <CNNaffinity_variance>
0.9224273562

$$$$
/media/chris/experiments/cd1a-new-docking/inputs/ligands/7sh4_ligand.pdb


 56 55  0  0  0  0  0  0  0  0999 V2000
  -38.8945   58.5887   65.4349 C   0  0  0  0  0  0  0  0  0  0  0  0
  -40.3136   58.1042   65.3387 C   0  0  0  0  0  0  0  0  0  0  0  0
  -40.9317   58.5913   66.5485 O   0  0  0  0  0  0  0  0  0  0  0  0
  -42.9497   59.4679   66.9472 O   0  0  0  0  0  0  0  0  0  0  0  0
  -42.2629   58.5419   66.6089 C   0  0  0  0  0  0  0  0  0  0  0  0
  -42.7816   57.2344   66.0836 C   0  0  0  0  0  0  0  0  0  0  0  0
  -44.2748   57.0348   66.2812 C   0  0  0  0  0  0  0  0  0  0  0  0
  -45.0806   57.3776   65.0460 C   0  0  0  0  0  0  0  0  0  0  0  0
  -45.8516   58.6740   65.1497 C   0  0  0  0  0  0  0  0  0  0  0  0
  -46.5972   58.8176   66.4610 C   0  0  0  0  0  0  0  0  0  0  0  0
  -48.0558   59.1606   66.2804 C   0  0  0  0  0  0  0  0  0  0  0  0
  -48.8897   57.9805   65.8567 C   0  0  0  0  0  0  0  0  0  0  0  0
  -50.1191   58.3674   65.0650 C   0  0  0  0  0  0  0  0  0  0  0  0
  -49.8057   58.6922   63.6185 C   0  0  0  0  0  0  0  0  0  0  0  0
  -51.0301   58.8583   62.7431 C   0  0  0  0  0  0  0  0  0  0  0  0
  -51.1978   57.7565   61.7029 C   0  0  0  0  0  0  0  0  0  0  0  0
  -49.8910   57.1403   61.2418 C   0  0  0  0  0  0  0  0  0  0  0  0
  -49.6683   57.2492   59.7473 C   0  0  0  0  0  0  0  0  0  0  0  0
  -48.3598   56.6283   59.2784 C   0  0  0  0  0  0  0  0  0  0  0  0
  -47.3130   57.6506   58.8731 C   0  0  0  0  0  0  0  0  0  0  0  0
  -47.6192   56.6563   56.5811 C   0  0  0  0  0  0  0  0  0  0  0  0
  -46.6996   57.4228   57.5046 C   0  0  0  0  0  0  0  0  0  0  0  0
  -38.7141   59.9425   64.7975 C   0  0  0  0  0  0  0  0  0  0  0  0
  -39.9872   60.6263   64.7897 O   0  0  0  0  0  0  0  0  0  0  0  0
  -40.8561   60.8265   63.4605 P   0  0  0  0  0  0  0  0  0  0  0  0
  -41.8324   59.7186   63.3805 O   0  0  0  0  0  0  0  0  0  0  0  0
  -41.3586   62.2213   63.4433 O   0  0  0  0  0  0  0  0  0  0  0  0
  -41.9887   62.3471   64.1701 H   0  0  0  0  0  0  0  0  0  0  0  0
  -39.8265   60.6617   62.2540 O   0  0  0  0  0  0  0  0  0  0  0  0
  -40.2137   61.0427   60.9180 C   0  0  0  0  0  0  0  0  0  0  0  0
  -40.8488   59.9711   58.8708 O   0  0  0  0  0  0  0  0  0  0  0  0
  -39.9778   59.8678   60.0010 C   0  0  0  0  0  0  0  0  0  0  0  0
  -41.7679   60.0308   59.1753 H   0  0  0  0  0  0  0  0  0  0  0  0
  -37.6573   59.8170   60.6579 O   0  0  0  0  0  0  0  0  0  0  0  0
  -38.5414   59.7738   59.5451 C   0  0  0  0  0  0  0  0  0  0  0  0
  -36.7411   59.7555   60.3455 H   0  0  0  0  0  0  0  0  0  0  0  0
  -38.0207   57.5818   64.8245 O   0  0  0  0  0  0  0  0  0  0  0  0
  -38.6954   57.6532   62.6798 O   0  0  0  0  0  0  0  0  0  0  0  0
  -37.8157   57.6757   63.4966 C   0  0  0  0  0  0  0  0  0  0  0  0
  -36.3641   57.8298   63.1632 C   0  0  0  0  0  0  0  0  0  0  0  0
  -35.5213   58.0356   64.4179 C   0  0  0  0  0  0  0  0  0  0  0  0
  -34.7167   59.3251   64.4152 C   0  0  0  0  0  0  0  0  0  0  0  0
  -35.3287   60.4239   63.5541 C   0  0  0  0  0  0  0  0  0  0  0  0
  -34.8008   61.8134   63.8598 C   0  0  0  0  0  0  0  0  0  0  0  0
  -33.2751   61.9380   63.8191 C   0  0  0  0  0  0  0  0  0  0  0  0
  -32.6533   61.8742   62.4223 C   0  0  0  0  0  0  0  0  0  0  0  0
  -31.3599   61.1158   62.4139 C   0  0  0  0  0  0  0  0  0  0  0  0
  -31.1867   59.8589   62.0541 C   0  0  0  0  0  0  0  0  0  0  0  0
  -32.2511   58.9231   61.5751 C   0  0  0  0  0  0  0  0  0  0  0  0
  -32.3003   57.6322   62.3872 C   0  0  0  0  0  0  0  0  0  0  0  0
  -33.0317   56.4998   61.6881 C   0  0  0  0  0  0  0  0  0  0  0  0
  -33.8857   56.9561   60.5176 C   0  0  0  0  0  0  0  0  0  0  0  0
  -34.1962   55.8682   59.5029 C   0  0  0  0  0  0  0  0  0  0  0  0
  -35.6001   55.2981   59.6368 C   0  0  0  0  0  0  0  0  0  0  0  0
  -36.7048   56.2794   59.2988 C   0  0  0  0  0  0  0  0  0  0  0  0
  -36.6008   56.8119   57.8969 C   0  0  0  0  0  0  0  0  0  0  0  0
 21 22  1  0  0  0
  4  5  2  0  0  0
 25 24  1  0  0  0
 25 26  2  0  0  0
 25 27  1  0  0  0
 25 29  1  0  0  0
 22 20  1  0  0  0
  3  5  1  0  0  0
  3  2  1  0  0  0
 20 19  1  0  0  0
 24 23  1  0  0  0
 19 18  1  0  0  0
 18 17  1  0  0  0
 27 28  1  0  0  0
 17 16  1  0  0  0
 29 30  1  0  0  0
 16 15  1  0  0  0
 34 35  1  0  0  0
 34 36  1  0  0  0
 15 14  1  0  0  0
 31 32  1  0  0  0
 31 33  1  0  0  0
 14 13  1  0  0  0
 37  1  1  0  0  0
 37 39  1  0  0  0
 13 12  1  0  0  0
 38 39  2  0  0  0
 12 11  1  0  0  0
 11 10  1  0  0  0
 10  9  1  0  0  0
  9  8  1  0  0  0
  8  7  1  0  0  0
  7  6  1  0  0  0
  6  5  1  0  0  0
  2  1  1  0  0  0
  1 23  1  0  0  0
 30 32  1  0  0  0
 32 35  1  0  0  0
 39 40  1  0  0  0
 40 41  1  0  0  0
 41 42  1  0  0  0
 42 43  1  0  0  0
 43 44  1  0  0  0
 44 45  1  0  0  0
 45 46  1  0  0  0
 46 47  1  0  0  0
 47 48  2  0  0  0
 48 49  1  0  0  0
 49 50  1  0  0  0
 50 51  1  0  0  0
 51 52  1  0  0  0
 52 53  1  0  0  0
 53 54  1  0  0  0
 54 55  1  0  0  0
 55 56  1  0  0  0
M  CHG 1  26  -1
M  END
> <minimizedAffinity>
-8.05118

> <CNNscore>
0.3409837484

> <CNNaffinity>
7.2124662399

> <CNN_VS>
2.4593336582

> <CNNaffinity_variance>
0.6359627247

$$$$
