/media/chris/experiments/cd1a-new-docking/inputs/ligands/7sh4_ligand.pdb


 56 55  0  0  0  0  0  0  0  0999 V2000
  -35.3939   59.3943   63.4012 C   0  0  0  0  0  0  0  0  0  0  0  0
  -36.8154   59.8725   63.4928 C   0  0  0  0  0  0  0  0  0  0  0  0
  -37.3064   59.2766   64.7122 O   0  0  0  0  0  0  0  0  0  0  0  0
  -38.7407   60.8861   65.3051 O   0  0  0  0  0  0  0  0  0  0  0  0
  -38.4753   59.7215   65.1740 C   0  0  0  0  0  0  0  0  0  0  0  0
  -39.4416   58.5914   65.3835 C   0  0  0  0  0  0  0  0  0  0  0  0
  -40.8894   58.9515   65.0961 C   0  0  0  0  0  0  0  0  0  0  0  0
  -41.8708   58.0058   65.7557 C   0  0  0  0  0  0  0  0  0  0  0  0
  -42.5681   58.5825   66.9668 C   0  0  0  0  0  0  0  0  0  0  0  0
  -44.0588   58.7632   66.7632 C   0  0  0  0  0  0  0  0  0  0  0  0
  -44.4945   58.5410   65.3354 C   0  0  0  0  0  0  0  0  0  0  0  0
  -45.7717   57.7505   65.2263 C   0  0  0  0  0  0  0  0  0  0  0  0
  -46.9019   58.5220   64.5818 C   0  0  0  0  0  0  0  0  0  0  0  0
  -47.9803   58.9159   65.5707 C   0  0  0  0  0  0  0  0  0  0  0  0
  -49.0179   57.8402   65.8147 C   0  0  0  0  0  0  0  0  0  0  0  0
  -50.4174   58.2154   65.3408 C   0  0  0  0  0  0  0  0  0  0  0  0
  -50.4677   59.4841   64.5114 C   0  0  0  0  0  0  0  0  0  0  0  0
  -51.1768   59.3080   63.1842 C   0  0  0  0  0  0  0  0  0  0  0  0
  -50.6899   58.1060   62.3870 C   0  0  0  0  0  0  0  0  0  0  0  0
  -49.2716   58.2560   61.8665 C   0  0  0  0  0  0  0  0  0  0  0  0
  -50.1953   57.4640   59.6630 C   0  0  0  0  0  0  0  0  0  0  0  0
  -48.9888   57.5166   60.5725 C   0  0  0  0  0  0  0  0  0  0  0  0
  -34.4084   60.4752   63.7649 C   0  0  0  0  0  0  0  0  0  0  0  0
  -34.8190   61.7098   63.1359 O   0  0  0  0  0  0  0  0  0  0  0  0
  -33.9016   63.0213   63.1187 P   0  0  0  0  0  0  0  0  0  0  0  0
  -32.5886   62.6693   63.7008 O   0  0  0  0  0  0  0  0  0  0  0  0
  -33.9440   63.5964   61.7527 O   0  0  0  0  0  0  0  0  0  0  0  0
  -33.5140   62.9874   61.1320 H   0  0  0  0  0  0  0  0  0  0  0  0
  -34.6164   64.0498   64.1055 O   0  0  0  0  0  0  0  0  0  0  0  0
  -35.9151   63.7417   64.6518 C   0  0  0  0  0  0  0  0  0  0  0  0
  -37.0380   64.2530   66.7061 O   0  0  0  0  0  0  0  0  0  0  0  0
  -35.8137   63.7564   66.1573 C   0  0  0  0  0  0  0  0  0  0  0  0
  -37.2273   65.1287   66.3341 H   0  0  0  0  0  0  0  0  0  0  0  0
  -36.2860   62.1418   67.8860 O   0  0  0  0  0  0  0  0  0  0  0  0
  -35.5031   62.3926   66.7259 C   0  0  0  0  0  0  0  0  0  0  0  0
  -36.0727   61.2627   68.2361 H   0  0  0  0  0  0  0  0  0  0  0  0
  -35.1644   58.8862   62.0451 O   0  0  0  0  0  0  0  0  0  0  0  0
  -35.0098   56.7766   62.8108 O   0  0  0  0  0  0  0  0  0  0  0  0
  -34.8768   57.5759   61.9246 C   0  0  0  0  0  0  0  0  0  0  0  0
  -34.3902   57.2328   60.5507 C   0  0  0  0  0  0  0  0  0  0  0  0
  -34.9903   55.9203   60.0569 C   0  0  0  0  0  0  0  0  0  0  0  0
  -36.3069   56.0850   59.3156 C   0  0  0  0  0  0  0  0  0  0  0  0
  -36.2498   57.1145   58.1928 C   0  0  0  0  0  0  0  0  0  0  0  0
  -37.4434   58.0507   58.1529 C   0  0  0  0  0  0  0  0  0  0  0  0
  -37.5172   59.0382   59.3209 C   0  0  0  0  0  0  0  0  0  0  0  0
  -38.5608   58.7064   60.3897 C   0  0  0  0  0  0  0  0  0  0  0  0
  -39.4801   59.8598   60.6589 C   0  0  0  0  0  0  0  0  0  0  0  0
  -40.4229   60.3187   59.8589 C   0  0  0  0  0  0  0  0  0  0  0  0
  -40.7742   59.7793   58.5083 C   0  0  0  0  0  0  0  0  0  0  0  0
  -42.2449   59.3865   58.4028 C   0  0  0  0  0  0  0  0  0  0  0  0
  -42.6676   58.9779   57.0026 C   0  0  0  0  0  0  0  0  0  0  0  0
  -43.9745   58.2050   56.9613 C   0  0  0  0  0  0  0  0  0  0  0  0
  -44.7244   58.1647   58.2824 C   0  0  0  0  0  0  0  0  0  0  0  0
  -46.2368   58.1612   58.1205 C   0  0  0  0  0  0  0  0  0  0  0  0
  -46.8354   56.7863   57.8986 C   0  0  0  0  0  0  0  0  0  0  0  0
  -47.4140   56.6193   56.5212 C   0  0  0  0  0  0  0  0  0  0  0  0
 21 22  1  0  0  0
  4  5  2  0  0  0
 25 24  1  0  0  0
 25 26  2  0  0  0
 25 27  1  0  0  0
 25 29  1  0  0  0
 22 20  1  0  0  0
  3  5  1  0  0  0
  3  2  1  0  0  0
 20 19  1  0  0  0
 24 23  1  0  0  0
 19 18  1  0  0  0
 18 17  1  0  0  0
 27 28  1  0  0  0
 17 16  1  0  0  0
 29 30  1  0  0  0
 16 15  1  0  0  0
 34 35  1  0  0  0
 34 36  1  0  0  0
 15 14  1  0  0  0
 31 32  1  0  0  0
 31 33  1  0  0  0
 14 13  1  0  0  0
 37  1  1  0  0  0
 37 39  1  0  0  0
 13 12  1  0  0  0
 38 39  2  0  0  0
 12 11  1  0  0  0
 11 10  1  0  0  0
 10  9  1  0  0  0
  9  8  1  0  0  0
  8  7  1  0  0  0
  7  6  1  0  0  0
  6  5  1  0  0  0
  2  1  1  0  0  0
  1 23  1  0  0  0
 30 32  1  0  0  0
 32 35  1  0  0  0
 39 40  1  0  0  0
 40 41  1  0  0  0
 41 42  1  0  0  0
 42 43  1  0  0  0
 43 44  1  0  0  0
 44 45  1  0  0  0
 45 46  1  0  0  0
 46 47  1  0  0  0
 47 48  2  0  0  0
 48 49  1  0  0  0
 49 50  1  0  0  0
 50 51  1  0  0  0
 51 52  1  0  0  0
 52 53  1  0  0  0
 53 54  1  0  0  0
 54 55  1  0  0  0
 55 56  1  0  0  0
M  CHG 1  26  -1
M  END
> <minimizedAffinity>
-8.49211

> <CNNscore>
0.6249196529

> <CNNaffinity>
7.8502030373

> <CNN_VS>
4.9057459831

> <CNNaffinity_variance>
0.7182611227

$$$$
/media/chris/experiments/cd1a-new-docking/inputs/ligands/7sh4_ligand.pdb


 56 55  0  0  0  0  0  0  0  0999 V2000
  -38.4429   59.5626   65.3696 C   0  0  0  0  0  0  0  0  0  0  0  0
  -39.8630   59.9621   65.0844 C   0  0  0  0  0  0  0  0  0  0  0  0
  -40.6492   58.9184   65.6974 O   0  0  0  0  0  0  0  0  0  0  0  0
  -42.5536   59.7299   64.8527 O   0  0  0  0  0  0  0  0  0  0  0  0
  -41.9742   59.0634   65.6674 C   0  0  0  0  0  0  0  0  0  0  0  0
  -42.6387   58.1932   66.6950 C   0  0  0  0  0  0  0  0  0  0  0  0
  -43.3756   56.9985   66.1136 C   0  0  0  0  0  0  0  0  0  0  0  0
  -44.8670   57.2312   65.9938 C   0  0  0  0  0  0  0  0  0  0  0  0
  -45.3283   57.5864   64.5986 C   0  0  0  0  0  0  0  0  0  0  0  0
  -46.6944   58.2417   64.5741 C   0  0  0  0  0  0  0  0  0  0  0  0
  -46.8557   59.3181   65.6196 C   0  0  0  0  0  0  0  0  0  0  0  0
  -48.2721   59.4509   66.1136 C   0  0  0  0  0  0  0  0  0  0  0  0
  -49.1549   58.2855   65.7258 C   0  0  0  0  0  0  0  0  0  0  0  0
  -50.4543   58.7244   65.0816 C   0  0  0  0  0  0  0  0  0  0  0  0
  -50.2820   59.7426   63.9740 C   0  0  0  0  0  0  0  0  0  0  0  0
  -50.9245   59.3317   62.6541 C   0  0  0  0  0  0  0  0  0  0  0  0
  -50.8444   57.8448   62.3663 C   0  0  0  0  0  0  0  0  0  0  0  0
  -50.8691   57.5156   60.8877 C   0  0  0  0  0  0  0  0  0  0  0  0
  -49.5786   56.8870   60.3808 C   0  0  0  0  0  0  0  0  0  0  0  0
  -49.3707   57.0479   58.8855 C   0  0  0  0  0  0  0  0  0  0  0  0
  -47.7658   56.5814   57.0032 C   0  0  0  0  0  0  0  0  0  0  0  0
  -47.9207   57.0253   58.4401 C   0  0  0  0  0  0  0  0  0  0  0  0
  -37.7419   60.5587   66.2574 C   0  0  0  0  0  0  0  0  0  0  0  0
  -36.6232   61.1194   65.5346 O   0  0  0  0  0  0  0  0  0  0  0  0
  -35.9122   62.4880   65.9628 P   0  0  0  0  0  0  0  0  0  0  0  0
  -36.7110   63.6082   65.4206 O   0  0  0  0  0  0  0  0  0  0  0  0
  -35.6547   62.4376   67.4221 O   0  0  0  0  0  0  0  0  0  0  0  0
  -36.4991   62.4394   67.8996 H   0  0  0  0  0  0  0  0  0  0  0  0
  -34.5031   62.4835   65.2164 O   0  0  0  0  0  0  0  0  0  0  0  0
  -33.3113   62.8847   65.9225 C   0  0  0  0  0  0  0  0  0  0  0  0
  -31.6721   64.6312   65.9960 O   0  0  0  0  0  0  0  0  0  0  0  0
  -32.9907   64.3098   65.5436 C   0  0  0  0  0  0  0  0  0  0  0  0
  -31.6107   64.4740   66.9513 H   0  0  0  0  0  0  0  0  0  0  0  0
  -33.0571   65.9400   63.7671 O   0  0  0  0  0  0  0  0  0  0  0  0
  -33.1045   64.5489   64.0572 C   0  0  0  0  0  0  0  0  0  0  0  0
  -33.1315   66.0732   62.8092 H   0  0  0  0  0  0  0  0  0  0  0  0
  -37.7458   59.3921   64.0910 O   0  0  0  0  0  0  0  0  0  0  0  0
  -38.8037   57.5592   63.3284 O   0  0  0  0  0  0  0  0  0  0  0  0
  -37.7888   58.1681   63.5306 C   0  0  0  0  0  0  0  0  0  0  0  0
  -36.4236   57.6667   63.1739 C   0  0  0  0  0  0  0  0  0  0  0  0
  -35.6015   57.3504   64.4192 C   0  0  0  0  0  0  0  0  0  0  0  0
  -34.4095   58.2716   64.6211 C   0  0  0  0  0  0  0  0  0  0  0  0
  -34.1365   59.1850   63.4316 C   0  0  0  0  0  0  0  0  0  0  0  0
  -32.8161   58.9129   62.7350 C   0  0  0  0  0  0  0  0  0  0  0  0
  -32.7585   57.5838   61.9766 C   0  0  0  0  0  0  0  0  0  0  0  0
  -33.8535   57.3851   60.9264 C   0  0  0  0  0  0  0  0  0  0  0  0
  -33.7337   56.0636   60.2284 C   0  0  0  0  0  0  0  0  0  0  0  0
  -34.7178   55.3545   59.7106 C   0  0  0  0  0  0  0  0  0  0  0  0
  -36.1674   55.7246   59.7106 C   0  0  0  0  0  0  0  0  0  0  0  0
  -36.7699   55.7185   58.3086 C   0  0  0  0  0  0  0  0  0  0  0  0
  -36.5039   56.9921   57.5255 C   0  0  0  0  0  0  0  0  0  0  0  0
  -36.5735   58.2529   58.3697 C   0  0  0  0  0  0  0  0  0  0  0  0
  -37.9834   58.7462   58.6498 C   0  0  0  0  0  0  0  0  0  0  0  0
  -38.3109   58.8338   60.1326 C   0  0  0  0  0  0  0  0  0  0  0  0
  -39.0709   60.0840   60.5289 C   0  0  0  0  0  0  0  0  0  0  0  0
  -40.3529   60.2529   59.7622 C   0  0  0  0  0  0  0  0  0  0  0  0
 21 22  1  0  0  0
  4  5  2  0  0  0
 25 24  1  0  0  0
 25 26  2  0  0  0
 25 27  1  0  0  0
 25 29  1  0  0  0
 22 20  1  0  0  0
  3  5  1  0  0  0
  3  2  1  0  0  0
 20 19  1  0  0  0
 24 23  1  0  0  0
 19 18  1  0  0  0
 18 17  1  0  0  0
 27 28  1  0  0  0
 17 16  1  0  0  0
 29 30  1  0  0  0
 16 15  1  0  0  0
 34 35  1  0  0  0
 34 36  1  0  0  0
 15 14  1  0  0  0
 31 32  1  0  0  0
 31 33  1  0  0  0
 14 13  1  0  0  0
 37  1  1  0  0  0
 37 39  1  0  0  0
 13 12  1  0  0  0
 38 39  2  0  0  0
 12 11  1  0  0  0
 11 10  1  0  0  0
 10  9  1  0  0  0
  9  8  1  0  0  0
  8  7  1  0  0  0
  7  6  1  0  0  0
  6  5  1  0  0  0
  2  1  1  0  0  0
  1 23  1  0  0  0
 30 32  1  0  0  0
 32 35  1  0  0  0
 39 40  1  0  0  0
 40 41  1  0  0  0
 41 42  1  0  0  0
 42 43  1  0  0  0
 43 44  1  0  0  0
 44 45  1  0  0  0
 45 46  1  0  0  0
 46 47  1  0  0  0
 47 48  2  0  0  0
 48 49  1  0  0  0
 49 50  1  0  0  0
 50 51  1  0  0  0
 51 52  1  0  0  0
 52 53  1  0  0  0
 53 54  1  0  0  0
 54 55  1  0  0  0
 55 56  1  0  0  0
M  CHG 1  26  -1
M  END
> <minimizedAffinity>
-8.68884

> <CNNscore>
0.6117601395

> <CNNaffinity>
7.4125432968

> <CNN_VS>
4.5346984863

> <CNNaffinity_variance>
0.8269308805

$$$$
/media/chris/experiments/cd1a-new-docking/inputs/ligands/7sh4_ligand.pdb


 56 55  0  0  0  0  0  0  0  0999 V2000
  -35.6717   59.9353   63.5829 C   0  0  0  0  0  0  0  0  0  0  0  0
  -37.1634   60.1139   63.5613 C   0  0  0  0  0  0  0  0  0  0  0  0
  -37.6106   59.4625   64.7692 O   0  0  0  0  0  0  0  0  0  0  0  0
  -38.9013   60.8916   65.9054 O   0  0  0  0  0  0  0  0  0  0  0  0
  -38.7708   59.8724   65.2826 C   0  0  0  0  0  0  0  0  0  0  0  0
  -39.8956   58.9654   64.8738 C   0  0  0  0  0  0  0  0  0  0  0  0
  -41.2392   59.6628   64.7439 C   0  0  0  0  0  0  0  0  0  0  0  0
  -42.1952   59.3065   65.8626 C   0  0  0  0  0  0  0  0  0  0  0  0
  -43.6441   59.2290   65.4379 C   0  0  0  0  0  0  0  0  0  0  0  0
  -44.5786   58.8772   66.5778 C   0  0  0  0  0  0  0  0  0  0  0  0
  -45.1273   57.4744   66.4846 C   0  0  0  0  0  0  0  0  0  0  0  0
  -45.4887   57.0762   65.0779 C   0  0  0  0  0  0  0  0  0  0  0  0
  -46.8190   57.6317   64.6198 C   0  0  0  0  0  0  0  0  0  0  0  0
  -47.8729   57.5994   65.7080 C   0  0  0  0  0  0  0  0  0  0  0  0
  -48.6794   58.8757   65.8252 C   0  0  0  0  0  0  0  0  0  0  0  0
  -48.1735   60.0078   64.9383 C   0  0  0  0  0  0  0  0  0  0  0  0
  -49.2311   60.5925   64.0221 C   0  0  0  0  0  0  0  0  0  0  0  0
  -50.5633   59.8760   64.1061 C   0  0  0  0  0  0  0  0  0  0  0  0
  -51.1715   59.5572   62.7474 C   0  0  0  0  0  0  0  0  0  0  0  0
  -50.8892   58.1433   62.2718 C   0  0  0  0  0  0  0  0  0  0  0  0
  -48.9207   57.6610   60.7790 C   0  0  0  0  0  0  0  0  0  0  0  0
  -49.4184   57.7789   62.2017 C   0  0  0  0  0  0  0  0  0  0  0  0
  -34.9444   61.2540   63.6430 C   0  0  0  0  0  0  0  0  0  0  0  0
  -35.0925   61.8069   64.9700 O   0  0  0  0  0  0  0  0  0  0  0  0
  -35.7740   63.2286   65.2462 P   0  0  0  0  0  0  0  0  0  0  0  0
  -36.0372   63.8715   63.9407 O   0  0  0  0  0  0  0  0  0  0  0  0
  -36.9069   63.0238   66.1806 O   0  0  0  0  0  0  0  0  0  0  0  0
  -37.5969   62.5013   65.7426 H   0  0  0  0  0  0  0  0  0  0  0  0
  -34.6647   64.0890   66.0023 O   0  0  0  0  0  0  0  0  0  0  0  0
  -33.2660   63.8476   65.7466 C   0  0  0  0  0  0  0  0  0  0  0  0
  -31.6836   65.5802   65.2599 O   0  0  0  0  0  0  0  0  0  0  0  0
  -32.7898   64.8490   64.7230 C   0  0  0  0  0  0  0  0  0  0  0  0
  -31.9457   65.9947   66.0969 H   0  0  0  0  0  0  0  0  0  0  0  0
  -33.4585   64.2875   62.4745 O   0  0  0  0  0  0  0  0  0  0  0  0
  -32.3993   64.1963   63.4187 C   0  0  0  0  0  0  0  0  0  0  0  0
  -33.1891   63.8635   61.6447 H   0  0  0  0  0  0  0  0  0  0  0  0
  -35.2831   59.1558   62.4034 O   0  0  0  0  0  0  0  0  0  0  0  0
  -35.3779   57.1576   63.4323 O   0  0  0  0  0  0  0  0  0  0  0  0
  -34.8862   57.8861   62.6142 C   0  0  0  0  0  0  0  0  0  0  0  0
  -33.7732   57.4869   61.6955 C   0  0  0  0  0  0  0  0  0  0  0  0
  -34.1693   56.3026   60.8195 C   0  0  0  0  0  0  0  0  0  0  0  0
  -35.5579   56.4218   60.2132 C   0  0  0  0  0  0  0  0  0  0  0  0
  -35.5919   57.2308   58.9217 C   0  0  0  0  0  0  0  0  0  0  0  0
  -36.9867   57.6418   58.4877 C   0  0  0  0  0  0  0  0  0  0  0  0
  -37.5188   58.9058   59.1690 C   0  0  0  0  0  0  0  0  0  0  0  0
  -38.4992   58.6628   60.3184 C   0  0  0  0  0  0  0  0  0  0  0  0
  -39.3708   59.8546   60.5790 C   0  0  0  0  0  0  0  0  0  0  0  0
  -40.3272   60.3166   59.7973 C   0  0  0  0  0  0  0  0  0  0  0  0
  -40.7451   59.7431   58.4803 C   0  0  0  0  0  0  0  0  0  0  0  0
  -42.2297   59.3921   58.4426 C   0  0  0  0  0  0  0  0  0  0  0  0
  -42.6622   58.7096   57.1569 C   0  0  0  0  0  0  0  0  0  0  0  0
  -44.1365   58.3456   57.1258 C   0  0  0  0  0  0  0  0  0  0  0  0
  -44.7548   58.1053   58.4931 C   0  0  0  0  0  0  0  0  0  0  0  0
  -46.2160   57.6874   58.4320 C   0  0  0  0  0  0  0  0  0  0  0  0
  -46.5216   56.6462   57.3736 C   0  0  0  0  0  0  0  0  0  0  0  0
  -47.7126   57.0064   56.5301 C   0  0  0  0  0  0  0  0  0  0  0  0
 21 22  1  0  0  0
  4  5  2  0  0  0
 25 24  1  0  0  0
 25 26  2  0  0  0
 25 27  1  0  0  0
 25 29  1  0  0  0
 22 20  1  0  0  0
  3  5  1  0  0  0
  3  2  1  0  0  0
 20 19  1  0  0  0
 24 23  1  0  0  0
 19 18  1  0  0  0
 18 17  1  0  0  0
 27 28  1  0  0  0
 17 16  1  0  0  0
 29 30  1  0  0  0
 16 15  1  0  0  0
 34 35  1  0  0  0
 34 36  1  0  0  0
 15 14  1  0  0  0
 31 32  1  0  0  0
 31 33  1  0  0  0
 14 13  1  0  0  0
 37  1  1  0  0  0
 37 39  1  0  0  0
 13 12  1  0  0  0
 38 39  2  0  0  0
 12 11  1  0  0  0
 11 10  1  0  0  0
 10  9  1  0  0  0
  9  8  1  0  0  0
  8  7  1  0  0  0
  7  6  1  0  0  0
  6  5  1  0  0  0
  2  1  1  0  0  0
  1 23  1  0  0  0
 30 32  1  0  0  0
 32 35  1  0  0  0
 39 40  1  0  0  0
 40 41  1  0  0  0
 41 42  1  0  0  0
 42 43  1  0  0  0
 43 44  1  0  0  0
 44 45  1  0  0  0
 45 46  1  0  0  0
 46 47  1  0  0  0
 47 48  2  0  0  0
 48 49  1  0  0  0
 49 50  1  0  0  0
 50 51  1  0  0  0
 51 52  1  0  0  0
 52 53  1  0  0  0
 53 54  1  0  0  0
 54 55  1  0  0  0
 55 56  1  0  0  0
M  CHG 1  26  -1
M  END
> <minimizedAffinity>
-7.73024

> <CNNscore>
0.5848855972

> <CNNaffinity>
7.5993118286

> <CNN_VS>
4.4447278976

> <CNNaffinity_variance>
0.5661410093

$$$$
/media/chris/experiments/cd1a-new-docking/inputs/ligands/7sh4_ligand.pdb


 56 55  0  0  0  0  0  0  0  0999 V2000
  -36.6406   59.6928   64.0958 C   0  0  0  0  0  0  0  0  0  0  0  0
  -35.7172   58.5162   63.9530 C   0  0  0  0  0  0  0  0  0  0  0  0
  -34.4549   59.1065   63.5771 O   0  0  0  0  0  0  0  0  0  0  0  0
  -32.9188   59.1418   61.9528 O   0  0  0  0  0  0  0  0  0  0  0  0
  -33.8638   58.6236   62.4839 C   0  0  0  0  0  0  0  0  0  0  0  0
  -34.4514   57.2992   62.0895 C   0  0  0  0  0  0  0  0  0  0  0  0
  -33.4989   56.4034   61.3158 C   0  0  0  0  0  0  0  0  0  0  0  0
  -34.1574   55.7357   60.1270 C   0  0  0  0  0  0  0  0  0  0  0  0
  -34.5673   56.6906   59.0289 C   0  0  0  0  0  0  0  0  0  0  0  0
  -36.0366   56.5891   58.6722 C   0  0  0  0  0  0  0  0  0  0  0  0
  -36.8164   57.8374   59.0058 C   0  0  0  0  0  0  0  0  0  0  0  0
  -37.3929   57.8169   60.3968 C   0  0  0  0  0  0  0  0  0  0  0  0
  -38.2121   59.0453   60.7253 C   0  0  0  0  0  0  0  0  0  0  0  0
  -38.9534   59.5933   59.5228 C   0  0  0  0  0  0  0  0  0  0  0  0
  -40.2121   60.3605   59.8696 C   0  0  0  0  0  0  0  0  0  0  0  0
  -41.4690   59.8173   59.1994 C   0  0  0  0  0  0  0  0  0  0  0  0
  -41.2819   59.4580   57.7379 C   0  0  0  0  0  0  0  0  0  0  0  0
  -42.5748   59.4556   56.9483 C   0  0  0  0  0  0  0  0  0  0  0  0
  -43.3864   58.1779   57.1102 C   0  0  0  0  0  0  0  0  0  0  0  0
  -44.7724   58.4072   57.6858 C   0  0  0  0  0  0  0  0  0  0  0  0
  -46.4207   57.3625   59.2758 C   0  0  0  0  0  0  0  0  0  0  0  0
  -44.9933   57.8139   59.0644 C   0  0  0  0  0  0  0  0  0  0  0  0
  -35.8892   60.9748   64.3482 C   0  0  0  0  0  0  0  0  0  0  0  0
  -35.6852   61.1219   65.7713 O   0  0  0  0  0  0  0  0  0  0  0  0
  -35.7718   62.5348   66.5184 P   0  0  0  0  0  0  0  0  0  0  0  0
  -36.5116   63.4704   65.6443 O   0  0  0  0  0  0  0  0  0  0  0  0
  -36.2714   62.2995   67.8945 O   0  0  0  0  0  0  0  0  0  0  0  0
  -37.1883   61.9851   67.8562 H   0  0  0  0  0  0  0  0  0  0  0  0
  -34.2663   63.0492   66.6252 O   0  0  0  0  0  0  0  0  0  0  0  0
  -33.8471   64.2128   65.8835 C   0  0  0  0  0  0  0  0  0  0  0  0
  -33.6052   64.3028   63.5011 O   0  0  0  0  0  0  0  0  0  0  0  0
  -33.0390   63.7537   64.6947 C   0  0  0  0  0  0  0  0  0  0  0  0
  -34.5396   64.0493   63.4402 H   0  0  0  0  0  0  0  0  0  0  0  0
  -31.3544   64.9041   65.9820 O   0  0  0  0  0  0  0  0  0  0  0  0
  -31.5833   64.1386   64.8058 C   0  0  0  0  0  0  0  0  0  0  0  0
  -30.4155   65.1414   66.0356 H   0  0  0  0  0  0  0  0  0  0  0  0
  -37.5942   59.4033   65.1713 O   0  0  0  0  0  0  0  0  0  0  0  0
  -38.9936   60.9039   66.0934 O   0  0  0  0  0  0  0  0  0  0  0  0
  -38.7190   60.1434   65.2057 C   0  0  0  0  0  0  0  0  0  0  0  0
  -39.5750   59.9186   63.9978 C   0  0  0  0  0  0  0  0  0  0  0  0
  -41.0472   59.7833   64.3737 C   0  0  0  0  0  0  0  0  0  0  0  0
  -41.3464   58.5971   65.2756 C   0  0  0  0  0  0  0  0  0  0  0  0
  -41.8831   58.9934   66.6462 C   0  0  0  0  0  0  0  0  0  0  0  0
  -43.3979   59.0250   66.7302 C   0  0  0  0  0  0  0  0  0  0  0  0
  -44.1106   58.1268   65.7151 C   0  0  0  0  0  0  0  0  0  0  0  0
  -45.6149   57.9572   65.9386 C   0  0  0  0  0  0  0  0  0  0  0  0
  -46.3922   58.0724   64.6617 C   0  0  0  0  0  0  0  0  0  0  0  0
  -47.7019   57.9939   64.5274 C   0  0  0  0  0  0  0  0  0  0  0  0
  -48.6905   57.7738   65.6284 C   0  0  0  0  0  0  0  0  0  0  0  0
  -49.5698   58.9965   65.8745 C   0  0  0  0  0  0  0  0  0  0  0  0
  -50.7539   59.0958   64.9290 C   0  0  0  0  0  0  0  0  0  0  0  0
  -50.5285   60.0480   63.7672 C   0  0  0  0  0  0  0  0  0  0  0  0
  -50.8776   59.4727   62.4047 C   0  0  0  0  0  0  0  0  0  0  0  0
  -51.0158   57.9579   62.4041 C   0  0  0  0  0  0  0  0  0  0  0  0
  -51.1426   57.3453   61.0234 C   0  0  0  0  0  0  0  0  0  0  0  0
  -49.8100   57.0514   60.3929 C   0  0  0  0  0  0  0  0  0  0  0  0
 21 22  1  0  0  0
  4  5  2  0  0  0
 25 24  1  0  0  0
 25 26  2  0  0  0
 25 27  1  0  0  0
 25 29  1  0  0  0
 22 20  1  0  0  0
  3  5  1  0  0  0
  3  2  1  0  0  0
 20 19  1  0  0  0
 24 23  1  0  0  0
 19 18  1  0  0  0
 18 17  1  0  0  0
 27 28  1  0  0  0
 17 16  1  0  0  0
 29 30  1  0  0  0
 16 15  1  0  0  0
 34 35  1  0  0  0
 34 36  1  0  0  0
 15 14  1  0  0  0
 31 32  1  0  0  0
 31 33  1  0  0  0
 14 13  1  0  0  0
 37  1  1  0  0  0
 37 39  1  0  0  0
 13 12  1  0  0  0
 38 39  2  0  0  0
 12 11  1  0  0  0
 11 10  1  0  0  0
 10  9  1  0  0  0
  9  8  1  0  0  0
  8  7  1  0  0  0
  7  6  1  0  0  0
  6  5  1  0  0  0
  2  1  1  0  0  0
  1 23  1  0  0  0
 30 32  1  0  0  0
 32 35  1  0  0  0
 39 40  1  0  0  0
 40 41  1  0  0  0
 41 42  1  0  0  0
 42 43  1  0  0  0
 43 44  1  0  0  0
 44 45  1  0  0  0
 45 46  1  0  0  0
 46 47  1  0  0  0
 47 48  2  0  0  0
 48 49  1  0  0  0
 49 50  1  0  0  0
 50 51  1  0  0  0
 51 52  1  0  0  0
 52 53  1  0  0  0
 53 54  1  0  0  0
 54 55  1  0  0  0
 55 56  1  0  0  0
M  CHG 1  26  -1
M  END
> <minimizedAffinity>
-8.08413

> <CNNscore>
0.5094354749

> <CNNaffinity>
7.4452414513

> <CNN_VS>
3.7928700447

> <CNNaffinity_variance>
0.7969512343

$$$$
/media/chris/experiments/cd1a-new-docking/inputs/ligands/7sh4_ligand.pdb


 56 55  0  0  0  0  0  0  0  0999 V2000
  -37.7696   60.4199   65.1272 C   0  0  0  0  0  0  0  0  0  0  0  0
  -38.9453   59.7597   65.7901 C   0  0  0  0  0  0  0  0  0  0  0  0
  -40.0456   60.6543   65.5214 O   0  0  0  0  0  0  0  0  0  0  0  0
  -41.7801   60.1101   64.2197 O   0  0  0  0  0  0  0  0  0  0  0  0
  -41.2346   60.0972   65.2902 C   0  0  0  0  0  0  0  0  0  0  0  0
  -41.7302   59.3554   66.4980 C   0  0  0  0  0  0  0  0  0  0  0  0
  -43.1886   58.9377   66.4144 C   0  0  0  0  0  0  0  0  0  0  0  0
  -43.3604   57.4520   66.1779 C   0  0  0  0  0  0  0  0  0  0  0  0
  -44.7347   57.0579   65.6864 C   0  0  0  0  0  0  0  0  0  0  0  0
  -45.3221   58.0529   64.7061 C   0  0  0  0  0  0  0  0  0  0  0  0
  -46.8253   57.9679   64.6024 C   0  0  0  0  0  0  0  0  0  0  0  0
  -47.4861   59.3180   64.5102 C   0  0  0  0  0  0  0  0  0  0  0  0
  -48.9892   59.2416   64.3589 C   0  0  0  0  0  0  0  0  0  0  0  0
  -49.4844   59.9074   63.0910 C   0  0  0  0  0  0  0  0  0  0  0  0
  -50.8227   59.3920   62.6046 C   0  0  0  0  0  0  0  0  0  0  0  0
  -50.8387   57.8950   62.3169 C   0  0  0  0  0  0  0  0  0  0  0  0
  -50.8540   57.5515   60.8398 C   0  0  0  0  0  0  0  0  0  0  0  0
  -49.7059   56.6577   60.4176 C   0  0  0  0  0  0  0  0  0  0  0  0
  -48.4555   57.4232   60.0077 C   0  0  0  0  0  0  0  0  0  0  0  0
  -47.4739   56.5948   59.1981 C   0  0  0  0  0  0  0  0  0  0  0  0
  -47.9156   56.5764   56.7201 C   0  0  0  0  0  0  0  0  0  0  0  0
  -47.1105   57.1820   57.8474 C   0  0  0  0  0  0  0  0  0  0  0  0
  -37.0030   61.3004   66.0804 C   0  0  0  0  0  0  0  0  0  0  0  0
  -36.5579   62.4778   65.3703 O   0  0  0  0  0  0  0  0  0  0  0  0
  -35.9554   63.7619   66.1120 P   0  0  0  0  0  0  0  0  0  0  0  0
  -36.6896   64.9532   65.6340 O   0  0  0  0  0  0  0  0  0  0  0  0
  -35.9233   63.4815   67.5676 O   0  0  0  0  0  0  0  0  0  0  0  0
  -36.8305   63.4073   67.9026 H   0  0  0  0  0  0  0  0  0  0  0  0
  -34.4489   63.8762   65.6018 O   0  0  0  0  0  0  0  0  0  0  0  0
  -34.0974   64.8568   64.6044 C   0  0  0  0  0  0  0  0  0  0  0  0
  -32.2168   65.6202   63.3303 O   0  0  0  0  0  0  0  0  0  0  0  0
  -32.7475   64.4943   64.0358 C   0  0  0  0  0  0  0  0  0  0  0  0
  -32.8477   65.9016   62.6493 H   0  0  0  0  0  0  0  0  0  0  0  0
  -31.8016   64.9301   66.2115 O   0  0  0  0  0  0  0  0  0  0  0  0
  -31.7776   64.0424   65.1010 C   0  0  0  0  0  0  0  0  0  0  0  0
  -31.1732   64.6237   66.8839 H   0  0  0  0  0  0  0  0  0  0  0  0
  -38.2568   61.1728   63.9671 O   0  0  0  0  0  0  0  0  0  0  0  0
  -36.7065   60.8193   62.3758 O   0  0  0  0  0  0  0  0  0  0  0  0
  -37.8447   60.7586   62.7535 C   0  0  0  0  0  0  0  0  0  0  0  0
  -38.9702   60.1976   61.9407 C   0  0  0  0  0  0  0  0  0  0  0  0
  -39.1606   58.7072   62.2036 C   0  0  0  0  0  0  0  0  0  0  0  0
  -37.8872   57.8892   62.0645 C   0  0  0  0  0  0  0  0  0  0  0  0
  -37.6534   57.3601   60.6542 C   0  0  0  0  0  0  0  0  0  0  0  0
  -37.3745   58.4421   59.6275 C   0  0  0  0  0  0  0  0  0  0  0  0
  -37.3877   57.9594   58.1743 C   0  0  0  0  0  0  0  0  0  0  0  0
  -36.5009   56.7470   57.8825 C   0  0  0  0  0  0  0  0  0  0  0  0
  -35.0448   57.1038   57.8629 C   0  0  0  0  0  0  0  0  0  0  0  0
  -34.1237   56.7004   58.7163 C   0  0  0  0  0  0  0  0  0  0  0  0
  -34.3415   55.7960   59.8880 C   0  0  0  0  0  0  0  0  0  0  0  0
  -34.0994   56.5002   61.2200 C   0  0  0  0  0  0  0  0  0  0  0  0
  -32.7076   56.2755   61.7840 C   0  0  0  0  0  0  0  0  0  0  0  0
  -32.1389   57.4855   62.5049 C   0  0  0  0  0  0  0  0  0  0  0  0
  -32.3957   58.8116   61.8084 C   0  0  0  0  0  0  0  0  0  0  0  0
  -31.2902   59.8336   62.0251 C   0  0  0  0  0  0  0  0  0  0  0  0
  -31.7875   61.2362   62.3133 C   0  0  0  0  0  0  0  0  0  0  0  0
  -30.9305   62.2982   61.6828 C   0  0  0  0  0  0  0  0  0  0  0  0
 21 22  1  0  0  0
  4  5  2  0  0  0
 25 24  1  0  0  0
 25 26  2  0  0  0
 25 27  1  0  0  0
 25 29  1  0  0  0
 22 20  1  0  0  0
  3  5  1  0  0  0
  3  2  1  0  0  0
 20 19  1  0  0  0
 24 23  1  0  0  0
 19 18  1  0  0  0
 18 17  1  0  0  0
 27 28  1  0  0  0
 17 16  1  0  0  0
 29 30  1  0  0  0
 16 15  1  0  0  0
 34 35  1  0  0  0
 34 36  1  0  0  0
 15 14  1  0  0  0
 31 32  1  0  0  0
 31 33  1  0  0  0
 14 13  1  0  0  0
 37  1  1  0  0  0
 37 39  1  0  0  0
 13 12  1  0  0  0
 38 39  2  0  0  0
 12 11  1  0  0  0
 11 10  1  0  0  0
 10  9  1  0  0  0
  9  8  1  0  0  0
  8  7  1  0  0  0
  7  6  1  0  0  0
  6  5  1  0  0  0
  2  1  1  0  0  0
  1 23  1  0  0  0
 30 32  1  0  0  0
 32 35  1  0  0  0
 39 40  1  0  0  0
 40 41  1  0  0  0
 41 42  1  0  0  0
 42 43  1  0  0  0
 43 44  1  0  0  0
 44 45  1  0  0  0
 45 46  1  0  0  0
 46 47  1  0  0  0
 47 48  2  0  0  0
 48 49  1  0  0  0
 49 50  1  0  0  0
 50 51  1  0  0  0
 51 52  1  0  0  0
 52 53  1  0  0  0
 53 54  1  0  0  0
 54 55  1  0  0  0
 55 56  1  0  0  0
M  CHG 1  26  -1
M  END
> <minimizedAffinity>
-9.04324

> <CNNscore>
0.4945359826

> <CNNaffinity>
7.2601232529

> <CNN_VS>
3.5903921127

> <CNNaffinity_variance>
0.5698722601

$$$$
/media/chris/experiments/cd1a-new-docking/inputs/ligands/7sh4_ligand.pdb


 56 55  0  0  0  0  0  0  0  0999 V2000
  -37.6851   60.6419   64.9048 C   0  0  0  0  0  0  0  0  0  0  0  0
  -38.6126   60.1566   65.9827 C   0  0  0  0  0  0  0  0  0  0  0  0
  -39.9239   60.2634   65.3892 O   0  0  0  0  0  0  0  0  0  0  0  0
  -40.6083   58.1374   65.2850 O   0  0  0  0  0  0  0  0  0  0  0  0
  -40.7816   59.2731   65.6369 C   0  0  0  0  0  0  0  0  0  0  0  0
  -41.9110   59.7391   66.5099 C   0  0  0  0  0  0  0  0  0  0  0  0
  -43.1151   58.8125   66.5141 C   0  0  0  0  0  0  0  0  0  0  0  0
  -44.0623   59.0768   65.3627 C   0  0  0  0  0  0  0  0  0  0  0  0
  -45.3944   58.3720   65.4824 C   0  0  0  0  0  0  0  0  0  0  0  0
  -46.4789   59.2494   66.0743 C   0  0  0  0  0  0  0  0  0  0  0  0
  -47.8124   58.5517   66.1862 C   0  0  0  0  0  0  0  0  0  0  0  0
  -48.9130   59.2636   65.4449 C   0  0  0  0  0  0  0  0  0  0  0  0
  -49.5667   58.4127   64.3788 C   0  0  0  0  0  0  0  0  0  0  0  0
  -50.7865   59.0731   63.7690 C   0  0  0  0  0  0  0  0  0  0  0  0
  -51.1714   58.5257   62.4105 C   0  0  0  0  0  0  0  0  0  0  0  0
  -50.0573   57.7446   61.7229 C   0  0  0  0  0  0  0  0  0  0  0  0
  -49.6211   58.3330   60.3950 C   0  0  0  0  0  0  0  0  0  0  0  0
  -49.4883   57.3010   59.2938 C   0  0  0  0  0  0  0  0  0  0  0  0
  -48.7354   56.0481   59.7192 C   0  0  0  0  0  0  0  0  0  0  0  0
  -47.9649   55.3890   58.5891 C   0  0  0  0  0  0  0  0  0  0  0  0
  -46.9847   57.0100   56.9316 C   0  0  0  0  0  0  0  0  0  0  0  0
  -48.1209   56.0609   57.2381 C   0  0  0  0  0  0  0  0  0  0  0  0
  -36.6807   61.6366   65.4277 C   0  0  0  0  0  0  0  0  0  0  0  0
  -36.8351   62.8779   64.7040 O   0  0  0  0  0  0  0  0  0  0  0  0
  -35.6484   63.5441   63.8615 P   0  0  0  0  0  0  0  0  0  0  0  0
  -34.4732   62.6500   63.9399 O   0  0  0  0  0  0  0  0  0  0  0  0
  -36.1786   63.9081   62.5255 O   0  0  0  0  0  0  0  0  0  0  0  0
  -36.4045   63.1014   62.0365 H   0  0  0  0  0  0  0  0  0  0  0  0
  -35.2904   64.8941   64.6309 O   0  0  0  0  0  0  0  0  0  0  0  0
  -33.9217   65.3435   64.7007 C   0  0  0  0  0  0  0  0  0  0  0  0
  -32.7581   63.8063   66.1240 O   0  0  0  0  0  0  0  0  0  0  0  0
  -33.4056   65.0818   66.0943 C   0  0  0  0  0  0  0  0  0  0  0  0
  -33.3753   63.1233   65.8179 H   0  0  0  0  0  0  0  0  0  0  0  0
  -32.4020   66.1877   67.9885 O   0  0  0  0  0  0  0  0  0  0  0  0
  -32.4585   66.1581   66.5681 C   0  0  0  0  0  0  0  0  0  0  0  0
  -31.7898   66.8841   68.2732 H   0  0  0  0  0  0  0  0  0  0  0  0
  -38.4938   61.2079   63.8205 O   0  0  0  0  0  0  0  0  0  0  0  0
  -37.1837   61.0183   62.0017 O   0  0  0  0  0  0  0  0  0  0  0  0
  -38.2165   60.7907   62.5702 C   0  0  0  0  0  0  0  0  0  0  0  0
  -39.3407   59.9950   61.9826 C   0  0  0  0  0  0  0  0  0  0  0  0
  -39.1694   58.5032   62.2510 C   0  0  0  0  0  0  0  0  0  0  0  0
  -37.7879   57.9700   61.9086 C   0  0  0  0  0  0  0  0  0  0  0  0
  -37.6839   57.4093   60.4949 C   0  0  0  0  0  0  0  0  0  0  0  0
  -37.6506   58.4707   59.4110 C   0  0  0  0  0  0  0  0  0  0  0  0
  -37.3867   57.9332   58.0016 C   0  0  0  0  0  0  0  0  0  0  0  0
  -36.5148   56.6774   57.9359 C   0  0  0  0  0  0  0  0  0  0  0  0
  -35.0646   57.0060   57.7440 C   0  0  0  0  0  0  0  0  0  0  0  0
  -34.0578   56.5896   58.4872 C   0  0  0  0  0  0  0  0  0  0  0  0
  -34.1540   55.6959   59.6831 C   0  0  0  0  0  0  0  0  0  0  0  0
  -34.1215   56.4738   60.9955 C   0  0  0  0  0  0  0  0  0  0  0  0
  -32.7710   56.4427   61.6891 C   0  0  0  0  0  0  0  0  0  0  0  0
  -32.3728   57.7712   62.3085 C   0  0  0  0  0  0  0  0  0  0  0  0
  -33.5381   58.6023   62.8194 C   0  0  0  0  0  0  0  0  0  0  0  0
  -33.8760   58.3389   64.2789 C   0  0  0  0  0  0  0  0  0  0  0  0
  -35.3612   58.2417   64.5658 C   0  0  0  0  0  0  0  0  0  0  0  0
  -35.8793   56.8332   64.4793 C   0  0  0  0  0  0  0  0  0  0  0  0
 21 22  1  0  0  0
  4  5  2  0  0  0
 25 24  1  0  0  0
 25 26  2  0  0  0
 25 27  1  0  0  0
 25 29  1  0  0  0
 22 20  1  0  0  0
  3  5  1  0  0  0
  3  2  1  0  0  0
 20 19  1  0  0  0
 24 23  1  0  0  0
 19 18  1  0  0  0
 18 17  1  0  0  0
 27 28  1  0  0  0
 17 16  1  0  0  0
 29 30  1  0  0  0
 16 15  1  0  0  0
 34 35  1  0  0  0
 34 36  1  0  0  0
 15 14  1  0  0  0
 31 32  1  0  0  0
 31 33  1  0  0  0
 14 13  1  0  0  0
 37  1  1  0  0  0
 37 39  1  0  0  0
 13 12  1  0  0  0
 38 39  2  0  0  0
 12 11  1  0  0  0
 11 10  1  0  0  0
 10  9  1  0  0  0
  9  8  1  0  0  0
  8  7  1  0  0  0
  7  6  1  0  0  0
  6  5  1  0  0  0
  2  1  1  0  0  0
  1 23  1  0  0  0
 30 32  1  0  0  0
 32 35  1  0  0  0
 39 40  1  0  0  0
 40 41  1  0  0  0
 41 42  1  0  0  0
 42 43  1  0  0  0
 43 44  1  0  0  0
 44 45  1  0  0  0
 45 46  1  0  0  0
 46 47  1  0  0  0
 47 48  2  0  0  0
 48 49  1  0  0  0
 49 50  1  0  0  0
 50 51  1  0  0  0
 51 52  1  0  0  0
 52 53  1  0  0  0
 53 54  1  0  0  0
 54 55  1  0  0  0
 55 56  1  0  0  0
M  CHG 1  26  -1
M  END
> <minimizedAffinity>
-9.10023

> <CNNscore>
0.4911769629

> <CNNaffinity>
7.1972045898

> <CNN_VS>
3.5351011753

> <CNNaffinity_variance>
0.7720509768

$$$$
/media/chris/experiments/cd1a-new-docking/inputs/ligands/7sh4_ligand.pdb


 56 55  0  0  0  0  0  0  0  0999 V2000
  -36.1549   59.7094   63.7235 C   0  0  0  0  0  0  0  0  0  0  0  0
  -35.6853   58.3769   63.2123 C   0  0  0  0  0  0  0  0  0  0  0  0
  -34.2479   58.5028   63.1781 O   0  0  0  0  0  0  0  0  0  0  0  0
  -32.7285   58.7588   61.5578 O   0  0  0  0  0  0  0  0  0  0  0  0
  -33.6366   58.1440   62.0488 C   0  0  0  0  0  0  0  0  0  0  0  0
  -34.1459   56.8213   61.5529 C   0  0  0  0  0  0  0  0  0  0  0  0
  -33.1979   56.1076   60.6040 C   0  0  0  0  0  0  0  0  0  0  0  0
  -33.8713   55.6734   59.3192 C   0  0  0  0  0  0  0  0  0  0  0  0
  -34.3164   56.8170   58.4362 C   0  0  0  0  0  0  0  0  0  0  0  0
  -35.7400   56.6642   57.9399 C   0  0  0  0  0  0  0  0  0  0  0  0
  -36.7226   57.5430   58.6745 C   0  0  0  0  0  0  0  0  0  0  0  0
  -37.3142   56.8770   59.8887 C   0  0  0  0  0  0  0  0  0  0  0  0
  -38.0315   57.8378   60.8108 C   0  0  0  0  0  0  0  0  0  0  0  0
  -37.9768   59.2706   60.3207 C   0  0  0  0  0  0  0  0  0  0  0  0
  -38.8616   60.2235   61.0968 C   0  0  0  0  0  0  0  0  0  0  0  0
  -40.3497   60.0506   60.8145 C   0  0  0  0  0  0  0  0  0  0  0  0
  -40.7588   60.4377   59.4064 C   0  0  0  0  0  0  0  0  0  0  0  0
  -41.2467   59.2669   58.5779 C   0  0  0  0  0  0  0  0  0  0  0  0
  -42.2301   59.6607   57.4846 C   0  0  0  0  0  0  0  0  0  0  0  0
  -43.2428   58.5774   57.1591 C   0  0  0  0  0  0  0  0  0  0  0  0
  -45.6395   58.1228   57.7797 C   0  0  0  0  0  0  0  0  0  0  0  0
  -44.2189   58.2642   58.2773 C   0  0  0  0  0  0  0  0  0  0  0  0
  -35.0175   60.6837   63.8929 C   0  0  0  0  0  0  0  0  0  0  0  0
  -35.3955   61.9474   63.3024 O   0  0  0  0  0  0  0  0  0  0  0  0
  -34.4283   63.2226   63.2897 P   0  0  0  0  0  0  0  0  0  0  0  0
  -33.1212   62.8115   63.8457 O   0  0  0  0  0  0  0  0  0  0  0  0
  -34.4694   63.8196   61.9331 O   0  0  0  0  0  0  0  0  0  0  0  0
  -34.0729   63.2040   61.2968 H   0  0  0  0  0  0  0  0  0  0  0  0
  -35.0875   64.2628   64.3027 O   0  0  0  0  0  0  0  0  0  0  0  0
  -34.3207   64.7746   65.4118 C   0  0  0  0  0  0  0  0  0  0  0  0
  -34.4441   64.6838   67.8033 O   0  0  0  0  0  0  0  0  0  0  0  0
  -34.5813   63.9005   66.6140 C   0  0  0  0  0  0  0  0  0  0  0  0
  -33.5651   65.0938   67.8208 H   0  0  0  0  0  0  0  0  0  0  0  0
  -36.9636   64.2122   66.8277 O   0  0  0  0  0  0  0  0  0  0  0  0
  -35.9451   63.2541   66.5700 C   0  0  0  0  0  0  0  0  0  0  0  0
  -37.8307   63.7788   66.7952 H   0  0  0  0  0  0  0  0  0  0  0  0
  -36.8748   59.4931   64.9824 O   0  0  0  0  0  0  0  0  0  0  0  0
  -38.6369   60.8646   65.2550 O   0  0  0  0  0  0  0  0  0  0  0  0
  -38.1904   59.7818   64.9908 C   0  0  0  0  0  0  0  0  0  0  0  0
  -39.0264   58.5980   64.6141 C   0  0  0  0  0  0  0  0  0  0  0  0
  -40.5094   58.9522   64.5710 C   0  0  0  0  0  0  0  0  0  0  0  0
  -41.3655   58.1382   65.5275 C   0  0  0  0  0  0  0  0  0  0  0  0
  -42.2275   58.9914   66.4509 C   0  0  0  0  0  0  0  0  0  0  0  0
  -43.6004   58.4072   66.7276 C   0  0  0  0  0  0  0  0  0  0  0  0
  -43.8181   56.9993   66.1658 C   0  0  0  0  0  0  0  0  0  0  0  0
  -45.1433   56.7893   65.4301 C   0  0  0  0  0  0  0  0  0  0  0  0
  -45.6387   58.0501   64.7875 C   0  0  0  0  0  0  0  0  0  0  0  0
  -46.8975   58.3986   64.6048 C   0  0  0  0  0  0  0  0  0  0  0  0
  -48.1004   57.6040   65.0045 C   0  0  0  0  0  0  0  0  0  0  0  0
  -49.0658   58.4059   65.8725 C   0  0  0  0  0  0  0  0  0  0  0  0
  -50.4021   58.6793   65.2051 C   0  0  0  0  0  0  0  0  0  0  0  0
  -50.2813   59.3784   63.8620 C   0  0  0  0  0  0  0  0  0  0  0  0
  -51.1736   58.8075   62.7724 C   0  0  0  0  0  0  0  0  0  0  0  0
  -50.4798   57.7699   61.9031 C   0  0  0  0  0  0  0  0  0  0  0  0
  -49.2172   58.2678   61.2281 C   0  0  0  0  0  0  0  0  0  0  0  0
  -49.1282   57.8562   59.7850 C   0  0  0  0  0  0  0  0  0  0  0  0
 21 22  1  0  0  0
  4  5  2  0  0  0
 25 24  1  0  0  0
 25 26  2  0  0  0
 25 27  1  0  0  0
 25 29  1  0  0  0
 22 20  1  0  0  0
  3  5  1  0  0  0
  3  2  1  0  0  0
 20 19  1  0  0  0
 24 23  1  0  0  0
 19 18  1  0  0  0
 18 17  1  0  0  0
 27 28  1  0  0  0
 17 16  1  0  0  0
 29 30  1  0  0  0
 16 15  1  0  0  0
 34 35  1  0  0  0
 34 36  1  0  0  0
 15 14  1  0  0  0
 31 32  1  0  0  0
 31 33  1  0  0  0
 14 13  1  0  0  0
 37  1  1  0  0  0
 37 39  1  0  0  0
 13 12  1  0  0  0
 38 39  2  0  0  0
 12 11  1  0  0  0
 11 10  1  0  0  0
 10  9  1  0  0  0
  9  8  1  0  0  0
  8  7  1  0  0  0
  7  6  1  0  0  0
  6  5  1  0  0  0
  2  1  1  0  0  0
  1 23  1  0  0  0
 30 32  1  0  0  0
 32 35  1  0  0  0
 39 40  1  0  0  0
 40 41  1  0  0  0
 41 42  1  0  0  0
 42 43  1  0  0  0
 43 44  1  0  0  0
 44 45  1  0  0  0
 45 46  1  0  0  0
 46 47  1  0  0  0
 47 48  2  0  0  0
 48 49  1  0  0  0
 49 50  1  0  0  0
 50 51  1  0  0  0
 51 52  1  0  0  0
 52 53  1  0  0  0
 53 54  1  0  0  0
 54 55  1  0  0  0
 55 56  1  0  0  0
M  CHG 1  26  -1
M  END
> <minimizedAffinity>
-7.99829

> <CNNscore>
0.4681036472

> <CNNaffinity>
7.5555877686

> <CNN_VS>
3.5367982388

> <CNNaffinity_variance>
0.7356868982

$$$$
/media/chris/experiments/cd1a-new-docking/inputs/ligands/7sh4_ligand.pdb


 56 55  0  0  0  0  0  0  0  0999 V2000
  -38.6679   58.4736   64.9949 C   0  0  0  0  0  0  0  0  0  0  0  0
  -40.0711   57.9365   64.9972 C   0  0  0  0  0  0  0  0  0  0  0  0
  -40.8062   58.8838   65.8006 O   0  0  0  0  0  0  0  0  0  0  0  0
  -42.2238   59.7965   64.3321 O   0  0  0  0  0  0  0  0  0  0  0  0
  -42.0207   59.2268   65.3703 C   0  0  0  0  0  0  0  0  0  0  0  0
  -43.0891   58.6998   66.2844 C   0  0  0  0  0  0  0  0  0  0  0  0
  -43.2782   57.1938   66.2144 C   0  0  0  0  0  0  0  0  0  0  0  0
  -44.5891   56.7970   65.5688 C   0  0  0  0  0  0  0  0  0  0  0  0
  -45.2531   57.9051   64.7835 C   0  0  0  0  0  0  0  0  0  0  0  0
  -46.7410   58.0120   65.0501 C   0  0  0  0  0  0  0  0  0  0  0  0
  -47.0782   58.9849   66.1535 C   0  0  0  0  0  0  0  0  0  0  0  0
  -48.5406   59.3419   66.1966 C   0  0  0  0  0  0  0  0  0  0  0  0
  -49.4016   58.4518   65.3281 C   0  0  0  0  0  0  0  0  0  0  0  0
  -50.1674   59.2259   64.2743 C   0  0  0  0  0  0  0  0  0  0  0  0
  -49.8529   58.8109   62.8523 C   0  0  0  0  0  0  0  0  0  0  0  0
  -50.8652   57.8395   62.2559 C   0  0  0  0  0  0  0  0  0  0  0  0
  -50.6045   57.4929   60.8027 C   0  0  0  0  0  0  0  0  0  0  0  0
  -49.3431   58.1244   60.2501 C   0  0  0  0  0  0  0  0  0  0  0  0
  -48.8528   57.4808   58.9605 C   0  0  0  0  0  0  0  0  0  0  0  0
  -47.4865   56.8308   59.0870 C   0  0  0  0  0  0  0  0  0  0  0  0
  -47.7422   55.2490   57.1458 C   0  0  0  0  0  0  0  0  0  0  0  0
  -47.4231   55.3900   58.6168 C   0  0  0  0  0  0  0  0  0  0  0  0
  -38.5691   59.8025   65.6992 C   0  0  0  0  0  0  0  0  0  0  0  0
  -38.3122   60.8313   64.7173 O   0  0  0  0  0  0  0  0  0  0  0  0
  -36.8442   61.3905   64.4107 P   0  0  0  0  0  0  0  0  0  0  0  0
  -35.9207   60.8307   65.4210 O   0  0  0  0  0  0  0  0  0  0  0  0
  -36.5533   61.1610   62.9750 O   0  0  0  0  0  0  0  0  0  0  0  0
  -36.4936   60.2077   62.8056 H   0  0  0  0  0  0  0  0  0  0  0  0
  -36.9340   62.9649   64.6467 O   0  0  0  0  0  0  0  0  0  0  0  0
  -35.7284   63.7522   64.7285 C   0  0  0  0  0  0  0  0  0  0  0  0
  -36.8886   64.1217   66.7925 O   0  0  0  0  0  0  0  0  0  0  0  0
  -35.6696   64.3918   66.0940 C   0  0  0  0  0  0  0  0  0  0  0  0
  -37.6400   64.4334   66.2640 H   0  0  0  0  0  0  0  0  0  0  0  0
  -34.7996   62.7000   67.5769 O   0  0  0  0  0  0  0  0  0  0  0  0
  -34.4882   63.9127   66.9029 C   0  0  0  0  0  0  0  0  0  0  0  0
  -34.0298   62.4086   68.0901 H   0  0  0  0  0  0  0  0  0  0  0  0
  -38.2097   58.5619   63.6049 O   0  0  0  0  0  0  0  0  0  0  0  0
  -36.4859   57.1443   63.8862 O   0  0  0  0  0  0  0  0  0  0  0  0
  -37.3376   57.6238   63.1886 C   0  0  0  0  0  0  0  0  0  0  0  0
  -37.5686   57.2379   61.7604 C   0  0  0  0  0  0  0  0  0  0  0  0
  -37.0772   58.3189   60.8030 C   0  0  0  0  0  0  0  0  0  0  0  0
  -38.0843   58.6946   59.7284 C   0  0  0  0  0  0  0  0  0  0  0  0
  -37.6405   58.3197   58.3190 C   0  0  0  0  0  0  0  0  0  0  0  0
  -36.3747   57.4841   58.2725 C   0  0  0  0  0  0  0  0  0  0  0  0
  -36.6062   55.9727   58.3573 C   0  0  0  0  0  0  0  0  0  0  0  0
  -35.7649   55.2426   59.4065 C   0  0  0  0  0  0  0  0  0  0  0  0
  -34.2969   55.4850   59.2219 C   0  0  0  0  0  0  0  0  0  0  0  0
  -33.4936   56.1221   60.0515 C   0  0  0  0  0  0  0  0  0  0  0  0
  -33.8824   56.7380   61.3583 C   0  0  0  0  0  0  0  0  0  0  0  0
  -32.6720   57.1103   62.2096 C   0  0  0  0  0  0  0  0  0  0  0  0
  -32.6332   58.5756   62.6061 C   0  0  0  0  0  0  0  0  0  0  0  0
  -31.4608   59.3373   62.0126 C   0  0  0  0  0  0  0  0  0  0  0  0
  -31.4716   60.8304   62.2956 C   0  0  0  0  0  0  0  0  0  0  0  0
  -32.8339   61.3563   62.7208 C   0  0  0  0  0  0  0  0  0  0  0  0
  -32.9272   62.8683   62.7769 C   0  0  0  0  0  0  0  0  0  0  0  0
  -31.9543   63.5457   61.8526 C   0  0  0  0  0  0  0  0  0  0  0  0
 21 22  1  0  0  0
  4  5  2  0  0  0
 25 24  1  0  0  0
 25 26  2  0  0  0
 25 27  1  0  0  0
 25 29  1  0  0  0
 22 20  1  0  0  0
  3  5  1  0  0  0
  3  2  1  0  0  0
 20 19  1  0  0  0
 24 23  1  0  0  0
 19 18  1  0  0  0
 18 17  1  0  0  0
 27 28  1  0  0  0
 17 16  1  0  0  0
 29 30  1  0  0  0
 16 15  1  0  0  0
 34 35  1  0  0  0
 34 36  1  0  0  0
 15 14  1  0  0  0
 31 32  1  0  0  0
 31 33  1  0  0  0
 14 13  1  0  0  0
 37  1  1  0  0  0
 37 39  1  0  0  0
 13 12  1  0  0  0
 38 39  2  0  0  0
 12 11  1  0  0  0
 11 10  1  0  0  0
 10  9  1  0  0  0
  9  8  1  0  0  0
  8  7  1  0  0  0
  7  6  1  0  0  0
  6  5  1  0  0  0
  2  1  1  0  0  0
  1 23  1  0  0  0
 30 32  1  0  0  0
 32 35  1  0  0  0
 39 40  1  0  0  0
 40 41  1  0  0  0
 41 42  1  0  0  0
 42 43  1  0  0  0
 43 44  1  0  0  0
 44 45  1  0  0  0
 45 46  1  0  0  0
 46 47  1  0  0  0
 47 48  2  0  0  0
 48 49  1  0  0  0
 49 50  1  0  0  0
 50 51  1  0  0  0
 51 52  1  0  0  0
 52 53  1  0  0  0
 53 54  1  0  0  0
 54 55  1  0  0  0
 55 56  1  0  0  0
M  CHG 1  26  -1
M  END
> <minimizedAffinity>
-8.70351

> <CNNscore>
0.4642893672

> <CNNaffinity>
7.2484488487

> <CNN_VS>
3.3653776646

> <CNNaffinity_variance>
0.8838182688

$$$$
/media/chris/experiments/cd1a-new-docking/inputs/ligands/7sh4_ligand.pdb


 56 55  0  0  0  0  0  0  0  0999 V2000
  -37.3446   61.3698   63.8365 C   0  0  0  0  0  0  0  0  0  0  0  0
  -37.6855   61.2889   62.3754 C   0  0  0  0  0  0  0  0  0  0  0  0
  -38.8848   60.4865   62.3406 O   0  0  0  0  0  0  0  0  0  0  0  0
  -40.5783   60.1418   60.9220 O   0  0  0  0  0  0  0  0  0  0  0  0
  -39.3992   60.2209   61.1396 C   0  0  0  0  0  0  0  0  0  0  0  0
  -38.3263   60.1612   60.0908 C   0  0  0  0  0  0  0  0  0  0  0  0
  -38.4537   58.9838   59.1390 C   0  0  0  0  0  0  0  0  0  0  0  0
  -37.1383   58.6109   58.4883 C   0  0  0  0  0  0  0  0  0  0  0  0
  -37.2060   57.3771   57.6173 C   0  0  0  0  0  0  0  0  0  0  0  0
  -36.1599   56.3406   57.9744 C   0  0  0  0  0  0  0  0  0  0  0  0
  -34.7604   56.9029   58.0278 C   0  0  0  0  0  0  0  0  0  0  0  0
  -33.8348   56.0958   58.8993 C   0  0  0  0  0  0  0  0  0  0  0  0
  -34.3453   55.9156   60.3117 C   0  0  0  0  0  0  0  0  0  0  0  0
  -33.2750   56.1581   61.3565 C   0  0  0  0  0  0  0  0  0  0  0  0
  -32.7834   57.5892   61.4169 C   0  0  0  0  0  0  0  0  0  0  0  0
  -32.5886   58.1142   62.8349 C   0  0  0  0  0  0  0  0  0  0  0  0
  -33.8230   58.7686   63.4247 C   0  0  0  0  0  0  0  0  0  0  0  0
  -34.5261   57.9088   64.4551 C   0  0  0  0  0  0  0  0  0  0  0  0
  -35.9017   57.4291   64.0135 C   0  0  0  0  0  0  0  0  0  0  0  0
  -36.2839   57.8828   62.6160 C   0  0  0  0  0  0  0  0  0  0  0  0
  -38.6853   57.1384   62.7382 C   0  0  0  0  0  0  0  0  0  0  0  0
  -37.3879   57.0715   61.9649 C   0  0  0  0  0  0  0  0  0  0  0  0
  -35.8566   61.4329   64.0680 C   0  0  0  0  0  0  0  0  0  0  0  0
  -35.2368   62.0826   62.9357 O   0  0  0  0  0  0  0  0  0  0  0  0
  -34.0766   63.1743   63.0903 P   0  0  0  0  0  0  0  0  0  0  0  0
  -33.0247   62.6046   63.9596 O   0  0  0  0  0  0  0  0  0  0  0  0
  -33.7027   63.6456   61.7351 O   0  0  0  0  0  0  0  0  0  0  0  0
  -33.2918   62.9184   61.2418 H   0  0  0  0  0  0  0  0  0  0  0  0
  -34.7465   64.3957   63.8661 O   0  0  0  0  0  0  0  0  0  0  0  0
  -34.3603   64.6863   65.2250 C   0  0  0  0  0  0  0  0  0  0  0  0
  -36.7557   64.6541   65.2821 O   0  0  0  0  0  0  0  0  0  0  0  0
  -35.5847   64.5805   66.1006 C   0  0  0  0  0  0  0  0  0  0  0  0
  -36.7358   65.4728   64.7621 H   0  0  0  0  0  0  0  0  0  0  0  0
  -34.3963   63.1808   67.6649 O   0  0  0  0  0  0  0  0  0  0  0  0
  -35.5991   63.3110   66.9178 C   0  0  0  0  0  0  0  0  0  0  0  0
  -34.4244   62.3609   68.1824 H   0  0  0  0  0  0  0  0  0  0  0  0
  -37.9502   60.2203   64.5161 O   0  0  0  0  0  0  0  0  0  0  0  0
  -37.9136   60.8528   66.6746 O   0  0  0  0  0  0  0  0  0  0  0  0
  -38.5153   60.4493   65.7171 C   0  0  0  0  0  0  0  0  0  0  0  0
  -39.9842   60.1585   65.7100 C   0  0  0  0  0  0  0  0  0  0  0  0
  -40.2668   58.7188   65.2927 C   0  0  0  0  0  0  0  0  0  0  0  0
  -41.6436   58.2186   65.6981 C   0  0  0  0  0  0  0  0  0  0  0  0
  -42.3425   59.1138   66.7148 C   0  0  0  0  0  0  0  0  0  0  0  0
  -43.8558   59.0030   66.6971 C   0  0  0  0  0  0  0  0  0  0  0  0
  -44.4775   58.9989   65.2976 C   0  0  0  0  0  0  0  0  0  0  0  0
  -45.9246   58.5063   65.2291 C   0  0  0  0  0  0  0  0  0  0  0  0
  -46.8589   59.3887   66.0014 C   0  0  0  0  0  0  0  0  0  0  0  0
  -48.0478   59.8074   65.6134 C   0  0  0  0  0  0  0  0  0  0  0  0
  -48.7163   59.4858   64.3142 C   0  0  0  0  0  0  0  0  0  0  0  0
  -50.2255   59.3161   64.4623 C   0  0  0  0  0  0  0  0  0  0  0  0
  -50.9388   59.0360   63.1513 C   0  0  0  0  0  0  0  0  0  0  0  0
  -50.1607   58.1269   62.2157 C   0  0  0  0  0  0  0  0  0  0  0  0
  -51.0128   57.4085   61.1826 C   0  0  0  0  0  0  0  0  0  0  0  0
  -50.3953   57.3938   59.7926 C   0  0  0  0  0  0  0  0  0  0  0  0
  -48.9113   57.7022   59.7679 C   0  0  0  0  0  0  0  0  0  0  0  0
  -48.0880   56.5576   59.2465 C   0  0  0  0  0  0  0  0  0  0  0  0
 21 22  1  0  0  0
  4  5  2  0  0  0
 25 24  1  0  0  0
 25 26  2  0  0  0
 25 27  1  0  0  0
 25 29  1  0  0  0
 22 20  1  0  0  0
  3  5  1  0  0  0
  3  2  1  0  0  0
 20 19  1  0  0  0
 24 23  1  0  0  0
 19 18  1  0  0  0
 18 17  1  0  0  0
 27 28  1  0  0  0
 17 16  1  0  0  0
 29 30  1  0  0  0
 16 15  1  0  0  0
 34 35  1  0  0  0
 34 36  1  0  0  0
 15 14  1  0  0  0
 31 32  1  0  0  0
 31 33  1  0  0  0
 14 13  1  0  0  0
 37  1  1  0  0  0
 37 39  1  0  0  0
 13 12  1  0  0  0
 38 39  2  0  0  0
 12 11  1  0  0  0
 11 10  1  0  0  0
 10  9  1  0  0  0
  9  8  1  0  0  0
  8  7  1  0  0  0
  7  6  1  0  0  0
  6  5  1  0  0  0
  2  1  1  0  0  0
  1 23  1  0  0  0
 30 32  1  0  0  0
 32 35  1  0  0  0
 39 40  1  0  0  0
 40 41  1  0  0  0
 41 42  1  0  0  0
 42 43  1  0  0  0
 43 44  1  0  0  0
 44 45  1  0  0  0
 45 46  1  0  0  0
 46 47  1  0  0  0
 47 48  2  0  0  0
 48 49  1  0  0  0
 49 50  1  0  0  0
 50 51  1  0  0  0
 51 52  1  0  0  0
 52 53  1  0  0  0
 53 54  1  0  0  0
 54 55  1  0  0  0
 55 56  1  0  0  0
M  CHG 1  26  -1
M  END
> <minimizedAffinity>
-8.66397

> <CNNscore>
0.4459042251

> <CNNaffinity>
7.3416695595

> <CNN_VS>
3.2736814022

> <CNNaffinity_variance>
0.9680151939

$$$$
