/media/chris/experiments/cd1a-new-docking/inputs/ligands/7sh4_ligand.pdb


 56 55  0  0  0  0  0  0  0  0999 V2000
  -36.5747   59.9700   64.9737 C   0  0  0  0  0  0  0  0  0  0  0  0
  -37.8337   60.6834   65.3783 C   0  0  0  0  0  0  0  0  0  0  0  0
  -38.7023   59.6258   65.8370 O   0  0  0  0  0  0  0  0  0  0  0  0
  -40.4798   60.9717   66.0057 O   0  0  0  0  0  0  0  0  0  0  0  0
  -40.0116   59.8777   65.8389 C   0  0  0  0  0  0  0  0  0  0  0  0
  -40.8008   58.6506   65.4836 C   0  0  0  0  0  0  0  0  0  0  0  0
  -42.3060   58.8572   65.4912 C   0  0  0  0  0  0  0  0  0  0  0  0
  -43.0330   57.8410   66.3465 C   0  0  0  0  0  0  0  0  0  0  0  0
  -44.2724   57.2626   65.7023 C   0  0  0  0  0  0  0  0  0  0  0  0
  -45.2212   58.3237   65.1827 C   0  0  0  0  0  0  0  0  0  0  0  0
  -46.0821   58.9313   66.2631 C   0  0  0  0  0  0  0  0  0  0  0  0
  -47.3188   59.5999   65.7235 C   0  0  0  0  0  0  0  0  0  0  0  0
  -48.5886   58.8254   65.9985 C   0  0  0  0  0  0  0  0  0  0  0  0
  -49.1550   58.1694   64.7555 C   0  0  0  0  0  0  0  0  0  0  0  0
  -50.4049   58.8360   64.2200 C   0  0  0  0  0  0  0  0  0  0  0  0
  -50.8296   58.3342   62.8445 C   0  0  0  0  0  0  0  0  0  0  0  0
  -49.6812   57.8339   61.9895 C   0  0  0  0  0  0  0  0  0  0  0  0
  -49.7165   58.3573   60.5681 C   0  0  0  0  0  0  0  0  0  0  0  0
  -48.5812   57.8364   59.6978 C   0  0  0  0  0  0  0  0  0  0  0  0
  -49.0474   56.9466   58.5594 C   0  0  0  0  0  0  0  0  0  0  0  0
  -47.2738   56.6149   56.8043 C   0  0  0  0  0  0  0  0  0  0  0  0
  -47.9832   56.0214   58.0002 C   0  0  0  0  0  0  0  0  0  0  0  0
  -35.9571   60.5691   63.7362 C   0  0  0  0  0  0  0  0  0  0  0  0
  -36.2839   61.9760   63.6879 O   0  0  0  0  0  0  0  0  0  0  0  0
  -35.2576   63.0873   63.1647 P   0  0  0  0  0  0  0  0  0  0  0  0
  -33.9097   62.4808   63.1195 O   0  0  0  0  0  0  0  0  0  0  0  0
  -35.8133   63.6817   61.9251 O   0  0  0  0  0  0  0  0  0  0  0  0
  -35.8285   63.0116   61.2239 H   0  0  0  0  0  0  0  0  0  0  0  0
  -35.2500   64.2179   64.2893 O   0  0  0  0  0  0  0  0  0  0  0  0
  -36.1600   64.1320   65.4049 C   0  0  0  0  0  0  0  0  0  0  0  0
  -36.2361   63.9907   67.7958 O   0  0  0  0  0  0  0  0  0  0  0  0
  -35.3494   64.0379   66.6741 C   0  0  0  0  0  0  0  0  0  0  0  0
  -36.8195   64.7654   67.7798 H   0  0  0  0  0  0  0  0  0  0  0  0
  -33.1597   63.1741   66.1473 O   0  0  0  0  0  0  0  0  0  0  0  0
  -34.4330   62.8379   66.6833 C   0  0  0  0  0  0  0  0  0  0  0  0
  -32.5862   62.3919   66.1616 H   0  0  0  0  0  0  0  0  0  0  0  0
  -36.8881   58.5495   64.7892 O   0  0  0  0  0  0  0  0  0  0  0  0
  -35.0482   57.3056   64.4316 O   0  0  0  0  0  0  0  0  0  0  0  0
  -36.0454   57.8332   64.0205 C   0  0  0  0  0  0  0  0  0  0  0  0
  -36.5099   57.7584   62.5990 C   0  0  0  0  0  0  0  0  0  0  0  0
  -37.8422   57.0246   62.4843 C   0  0  0  0  0  0  0  0  0  0  0  0
  -39.0566   57.9337   62.5774 C   0  0  0  0  0  0  0  0  0  0  0  0
  -38.8038   59.3439   62.0568 C   0  0  0  0  0  0  0  0  0  0  0  0
  -39.7605   59.7780   60.9618 C   0  0  0  0  0  0  0  0  0  0  0  0
  -39.1155   59.9478   59.5834 C   0  0  0  0  0  0  0  0  0  0  0  0
  -37.8763   59.0856   59.3332 C   0  0  0  0  0  0  0  0  0  0  0  0
  -37.9675   58.3261   58.0436 C   0  0  0  0  0  0  0  0  0  0  0  0
  -37.1243   57.4105   57.6079 C   0  0  0  0  0  0  0  0  0  0  0  0
  -35.8945   56.9350   58.3148 C   0  0  0  0  0  0  0  0  0  0  0  0
  -36.1761   55.7598   59.2467 C   0  0  0  0  0  0  0  0  0  0  0  0
  -34.9264   55.1624   59.8691 C   0  0  0  0  0  0  0  0  0  0  0  0
  -33.8335   56.1817   60.1409 C   0  0  0  0  0  0  0  0  0  0  0  0
  -33.4834   56.3529   61.6098 C   0  0  0  0  0  0  0  0  0  0  0  0
  -32.3373   57.3237   61.8500 C   0  0  0  0  0  0  0  0  0  0  0  0
  -32.7775   58.7356   62.1828 C   0  0  0  0  0  0  0  0  0  0  0  0
  -31.6566   59.7324   62.0853 C   0  0  0  0  0  0  0  0  0  0  0  0
 21 22  1  0  0  0
  4  5  2  0  0  0
 25 24  1  0  0  0
 25 26  2  0  0  0
 25 27  1  0  0  0
 25 29  1  0  0  0
 22 20  1  0  0  0
  3  5  1  0  0  0
  3  2  1  0  0  0
 20 19  1  0  0  0
 24 23  1  0  0  0
 19 18  1  0  0  0
 18 17  1  0  0  0
 27 28  1  0  0  0
 17 16  1  0  0  0
 29 30  1  0  0  0
 16 15  1  0  0  0
 34 35  1  0  0  0
 34 36  1  0  0  0
 15 14  1  0  0  0
 31 32  1  0  0  0
 31 33  1  0  0  0
 14 13  1  0  0  0
 37  1  1  0  0  0
 37 39  1  0  0  0
 13 12  1  0  0  0
 38 39  2  0  0  0
 12 11  1  0  0  0
 11 10  1  0  0  0
 10  9  1  0  0  0
  9  8  1  0  0  0
  8  7  1  0  0  0
  7  6  1  0  0  0
  6  5  1  0  0  0
  2  1  1  0  0  0
  1 23  1  0  0  0
 30 32  1  0  0  0
 32 35  1  0  0  0
 39 40  1  0  0  0
 40 41  1  0  0  0
 41 42  1  0  0  0
 42 43  1  0  0  0
 43 44  1  0  0  0
 44 45  1  0  0  0
 45 46  1  0  0  0
 46 47  1  0  0  0
 47 48  2  0  0  0
 48 49  1  0  0  0
 49 50  1  0  0  0
 50 51  1  0  0  0
 51 52  1  0  0  0
 52 53  1  0  0  0
 53 54  1  0  0  0
 54 55  1  0  0  0
 55 56  1  0  0  0
M  CHG 1  26  -1
M  END
> <minimizedAffinity>
-8.84104

> <CNNscore>
0.6944382787

> <CNNaffinity>
7.7582297325

> <CNN_VS>
5.3876118660

> <CNNaffinity_variance>
0.5754952431

$$$$
/media/chris/experiments/cd1a-new-docking/inputs/ligands/7sh4_ligand.pdb


 56 55  0  0  0  0  0  0  0  0999 V2000
  -39.3439   59.9812   65.2034 C   0  0  0  0  0  0  0  0  0  0  0  0
  -40.4011   60.1432   66.2587 C   0  0  0  0  0  0  0  0  0  0  0  0
  -41.3439   59.0883   65.9734 O   0  0  0  0  0  0  0  0  0  0  0  0
  -42.7103   59.5853   67.6720 O   0  0  0  0  0  0  0  0  0  0  0  0
  -42.5401   59.1733   66.5562 C   0  0  0  0  0  0  0  0  0  0  0  0
  -43.6376   58.8098   65.5980 C   0  0  0  0  0  0  0  0  0  0  0  0
  -44.0872   57.3614   65.6899 C   0  0  0  0  0  0  0  0  0  0  0  0
  -45.2159   57.1595   66.6786 C   0  0  0  0  0  0  0  0  0  0  0  0
  -46.4751   57.9277   66.3465 C   0  0  0  0  0  0  0  0  0  0  0  0
  -47.5679   57.0531   65.7663 C   0  0  0  0  0  0  0  0  0  0  0  0
  -48.9396   57.6755   65.8604 C   0  0  0  0  0  0  0  0  0  0  0  0
  -49.0531   58.9677   65.0954 C   0  0  0  0  0  0  0  0  0  0  0  0
  -49.9657   58.8751   63.8927 C   0  0  0  0  0  0  0  0  0  0  0  0
  -49.4982   59.7348   62.7357 C   0  0  0  0  0  0  0  0  0  0  0  0
  -49.7870   59.1448   61.3713 C   0  0  0  0  0  0  0  0  0  0  0  0
  -50.7560   57.9683   61.4013 C   0  0  0  0  0  0  0  0  0  0  0  0
  -50.3154   56.7854   60.5607 C   0  0  0  0  0  0  0  0  0  0  0  0
  -48.9026   56.9173   60.0295 C   0  0  0  0  0  0  0  0  0  0  0  0
  -48.8011   56.7563   58.5192 C   0  0  0  0  0  0  0  0  0  0  0  0
  -47.4959   57.2717   57.9395 C   0  0  0  0  0  0  0  0  0  0  0  0
  -45.1049   57.9583   58.3232 C   0  0  0  0  0  0  0  0  0  0  0  0
  -46.4106   57.5448   58.9635 C   0  0  0  0  0  0  0  0  0  0  0  0
  -37.9536   60.1214   65.7685 C   0  0  0  0  0  0  0  0  0  0  0  0
  -37.5403   61.5011   65.6499 O   0  0  0  0  0  0  0  0  0  0  0  0
  -36.4009   61.9809   64.6333 P   0  0  0  0  0  0  0  0  0  0  0  0
  -36.2476   60.9409   63.5933 O   0  0  0  0  0  0  0  0  0  0  0  0
  -36.7119   63.3684   64.2129 O   0  0  0  0  0  0  0  0  0  0  0  0
  -37.5273   63.3720   63.6876 H   0  0  0  0  0  0  0  0  0  0  0  0
  -35.0576   62.0186   65.4919 O   0  0  0  0  0  0  0  0  0  0  0  0
  -33.8508   62.5630   64.9198 C   0  0  0  0  0  0  0  0  0  0  0  0
  -31.9636   63.8866   65.5749 O   0  0  0  0  0  0  0  0  0  0  0  0
  -33.3573   63.6717   65.8166 C   0  0  0  0  0  0  0  0  0  0  0  0
  -31.4808   63.0555   65.7053 H   0  0  0  0  0  0  0  0  0  0  0  0
  -34.2706   65.2455   64.2332 O   0  0  0  0  0  0  0  0  0  0  0  0
  -34.1248   64.9566   65.6177 C   0  0  0  0  0  0  0  0  0  0  0  0
  -34.7654   66.0729   64.1259 H   0  0  0  0  0  0  0  0  0  0  0  0
  -39.5981   60.9597   64.1414 O   0  0  0  0  0  0  0  0  0  0  0  0
  -41.7756   61.1991   63.6301 O   0  0  0  0  0  0  0  0  0  0  0  0
  -40.6876   60.7599   63.3751 C   0  0  0  0  0  0  0  0  0  0  0  0
  -40.3760   59.9417   62.1603 C   0  0  0  0  0  0  0  0  0  0  0  0
  -39.1355   59.0794   62.3705 C   0  0  0  0  0  0  0  0  0  0  0  0
  -38.5214   58.5585   61.0815 C   0  0  0  0  0  0  0  0  0  0  0  0
  -38.2993   59.6407   60.0311 C   0  0  0  0  0  0  0  0  0  0  0  0
  -37.4273   59.2028   58.8690 C   0  0  0  0  0  0  0  0  0  0  0  0
  -37.7555   57.8135   58.3149 C   0  0  0  0  0  0  0  0  0  0  0  0
  -36.5511   57.0056   57.8267 C   0  0  0  0  0  0  0  0  0  0  0  0
  -36.4447   55.6781   58.5155 C   0  0  0  0  0  0  0  0  0  0  0  0
  -35.6314   55.3682   59.5064 C   0  0  0  0  0  0  0  0  0  0  0  0
  -34.6408   56.2831   60.1543 C   0  0  0  0  0  0  0  0  0  0  0  0
  -35.2801   57.1795   61.2108 C   0  0  0  0  0  0  0  0  0  0  0  0
  -34.3067   57.6597   62.2728 C   0  0  0  0  0  0  0  0  0  0  0  0
  -32.8822   57.8150   61.7690 C   0  0  0  0  0  0  0  0  0  0  0  0
  -31.8760   58.2097   62.8373 C   0  0  0  0  0  0  0  0  0  0  0  0
  -30.9642   59.3526   62.4177 C   0  0  0  0  0  0  0  0  0  0  0  0
  -31.6815   60.5049   61.7428 C   0  0  0  0  0  0  0  0  0  0  0  0
  -31.0849   61.8416   62.0847 C   0  0  0  0  0  0  0  0  0  0  0  0
 21 22  1  0  0  0
  4  5  2  0  0  0
 25 24  1  0  0  0
 25 26  2  0  0  0
 25 27  1  0  0  0
 25 29  1  0  0  0
 22 20  1  0  0  0
  3  5  1  0  0  0
  3  2  1  0  0  0
 20 19  1  0  0  0
 24 23  1  0  0  0
 19 18  1  0  0  0
 18 17  1  0  0  0
 27 28  1  0  0  0
 17 16  1  0  0  0
 29 30  1  0  0  0
 16 15  1  0  0  0
 34 35  1  0  0  0
 34 36  1  0  0  0
 15 14  1  0  0  0
 31 32  1  0  0  0
 31 33  1  0  0  0
 14 13  1  0  0  0
 37  1  1  0  0  0
 37 39  1  0  0  0
 13 12  1  0  0  0
 38 39  2  0  0  0
 12 11  1  0  0  0
 11 10  1  0  0  0
 10  9  1  0  0  0
  9  8  1  0  0  0
  8  7  1  0  0  0
  7  6  1  0  0  0
  6  5  1  0  0  0
  2  1  1  0  0  0
  1 23  1  0  0  0
 30 32  1  0  0  0
 32 35  1  0  0  0
 39 40  1  0  0  0
 40 41  1  0  0  0
 41 42  1  0  0  0
 42 43  1  0  0  0
 43 44  1  0  0  0
 44 45  1  0  0  0
 45 46  1  0  0  0
 46 47  1  0  0  0
 47 48  2  0  0  0
 48 49  1  0  0  0
 49 50  1  0  0  0
 50 51  1  0  0  0
 51 52  1  0  0  0
 52 53  1  0  0  0
 53 54  1  0  0  0
 54 55  1  0  0  0
 55 56  1  0  0  0
M  CHG 1  26  -1
M  END
> <minimizedAffinity>
-8.13988

> <CNNscore>
0.5064471960

> <CNNaffinity>
7.5652909279

> <CNN_VS>
3.8314204216

> <CNNaffinity_variance>
0.4447785914

$$$$
/media/chris/experiments/cd1a-new-docking/inputs/ligands/7sh4_ligand.pdb


 56 55  0  0  0  0  0  0  0  0999 V2000
  -37.3209   61.2328   64.5956 C   0  0  0  0  0  0  0  0  0  0  0  0
  -37.0727   61.6091   63.1622 C   0  0  0  0  0  0  0  0  0  0  0  0
  -35.6378   61.7401   63.0791 O   0  0  0  0  0  0  0  0  0  0  0  0
  -35.8488   63.8939   62.5170 O   0  0  0  0  0  0  0  0  0  0  0  0
  -35.1604   62.9269   62.7029 C   0  0  0  0  0  0  0  0  0  0  0  0
  -33.6592   62.9216   62.6681 C   0  0  0  0  0  0  0  0  0  0  0  0
  -33.0316   61.6293   63.1626 C   0  0  0  0  0  0  0  0  0  0  0  0
  -31.9446   61.1157   62.2420 C   0  0  0  0  0  0  0  0  0  0  0  0
  -31.8877   59.6090   62.1312 C   0  0  0  0  0  0  0  0  0  0  0  0
  -33.2020   58.9386   62.4760 C   0  0  0  0  0  0  0  0  0  0  0  0
  -33.3237   57.5442   61.9116 C   0  0  0  0  0  0  0  0  0  0  0  0
  -34.6758   56.9272   62.1542 C   0  0  0  0  0  0  0  0  0  0  0  0
  -35.7863   57.9460   62.2829 C   0  0  0  0  0  0  0  0  0  0  0  0
  -37.1375   57.3936   61.8763 C   0  0  0  0  0  0  0  0  0  0  0  0
  -38.1499   58.4539   61.4970 C   0  0  0  0  0  0  0  0  0  0  0  0
  -37.8197   59.1856   60.2010 C   0  0  0  0  0  0  0  0  0  0  0  0
  -38.0925   58.3746   58.9488 C   0  0  0  0  0  0  0  0  0  0  0  0
  -36.8889   58.2523   58.0367 C   0  0  0  0  0  0  0  0  0  0  0  0
  -36.4333   56.8165   57.8169 C   0  0  0  0  0  0  0  0  0  0  0  0
  -35.4854   56.3089   58.8888 C   0  0  0  0  0  0  0  0  0  0  0  0
  -33.5255   57.3459   57.6974 C   0  0  0  0  0  0  0  0  0  0  0  0
  -34.0487   56.1340   58.4345 C   0  0  0  0  0  0  0  0  0  0  0  0
  -36.0539   61.2449   65.4117 C   0  0  0  0  0  0  0  0  0  0  0  0
  -36.2913   61.9877   66.6284 O   0  0  0  0  0  0  0  0  0  0  0  0
  -36.0136   63.5590   66.7536 P   0  0  0  0  0  0  0  0  0  0  0  0
  -36.6197   64.2260   65.5812 O   0  0  0  0  0  0  0  0  0  0  0  0
  -36.4232   63.9933   68.1109 O   0  0  0  0  0  0  0  0  0  0  0  0
  -37.3849   63.9057   68.2020 H   0  0  0  0  0  0  0  0  0  0  0  0
  -34.4306   63.7180   66.6452 O   0  0  0  0  0  0  0  0  0  0  0  0
  -33.8148   64.9969   66.9006 C   0  0  0  0  0  0  0  0  0  0  0  0
  -32.1133   63.8428   65.6697 O   0  0  0  0  0  0  0  0  0  0  0  0
  -32.6223   65.1416   65.9874 C   0  0  0  0  0  0  0  0  0  0  0  0
  -31.9029   63.3685   66.4893 H   0  0  0  0  0  0  0  0  0  0  0  0
  -34.3490   65.8253   64.4481 O   0  0  0  0  0  0  0  0  0  0  0  0
  -32.9555   65.8945   64.7217 C   0  0  0  0  0  0  0  0  0  0  0  0
  -34.5432   66.3139   63.6330 H   0  0  0  0  0  0  0  0  0  0  0  0
  -37.9696   59.9181   64.6219 O   0  0  0  0  0  0  0  0  0  0  0  0
  -39.5018   60.5946   66.1235 O   0  0  0  0  0  0  0  0  0  0  0  0
  -39.1498   59.8323   65.2652 C   0  0  0  0  0  0  0  0  0  0  0  0
  -39.9762   58.6861   64.7697 C   0  0  0  0  0  0  0  0  0  0  0  0
  -41.3175   58.6108   65.4921 C   0  0  0  0  0  0  0  0  0  0  0  0
  -42.4429   59.3433   64.7801 C   0  0  0  0  0  0  0  0  0  0  0  0
  -43.7792   59.2640   65.5094 C   0  0  0  0  0  0  0  0  0  0  0  0
  -44.7890   58.3442   64.8485 C   0  0  0  0  0  0  0  0  0  0  0  0
  -46.2357   58.5542   65.3049 C   0  0  0  0  0  0  0  0  0  0  0  0
  -47.2997   58.3023   64.2344 C   0  0  0  0  0  0  0  0  0  0  0  0
  -48.6181   57.9086   64.8301 C   0  0  0  0  0  0  0  0  0  0  0  0
  -49.7866   58.4753   64.6002 C   0  0  0  0  0  0  0  0  0  0  0  0
  -50.0413   59.6353   63.6905 C   0  0  0  0  0  0  0  0  0  0  0  0
  -51.1072   59.3300   62.6420 C   0  0  0  0  0  0  0  0  0  0  0  0
  -50.9981   57.9359   62.0500 C   0  0  0  0  0  0  0  0  0  0  0  0
  -50.1649   57.8755   60.7813 C   0  0  0  0  0  0  0  0  0  0  0  0
  -49.9620   56.4750   60.2273 C   0  0  0  0  0  0  0  0  0  0  0  0
  -48.6022   56.2723   59.5765 C   0  0  0  0  0  0  0  0  0  0  0  0
  -47.6792   57.4705   59.6780 C   0  0  0  0  0  0  0  0  0  0  0  0
  -47.0356   57.8216   58.3657 C   0  0  0  0  0  0  0  0  0  0  0  0
 21 22  1  0  0  0
  4  5  2  0  0  0
 25 24  1  0  0  0
 25 26  2  0  0  0
 25 27  1  0  0  0
 25 29  1  0  0  0
 22 20  1  0  0  0
  3  5  1  0  0  0
  3  2  1  0  0  0
 20 19  1  0  0  0
 24 23  1  0  0  0
 19 18  1  0  0  0
 18 17  1  0  0  0
 27 28  1  0  0  0
 17 16  1  0  0  0
 29 30  1  0  0  0
 16 15  1  0  0  0
 34 35  1  0  0  0
 34 36  1  0  0  0
 15 14  1  0  0  0
 31 32  1  0  0  0
 31 33  1  0  0  0
 14 13  1  0  0  0
 37  1  1  0  0  0
 37 39  1  0  0  0
 13 12  1  0  0  0
 38 39  2  0  0  0
 12 11  1  0  0  0
 11 10  1  0  0  0
 10  9  1  0  0  0
  9  8  1  0  0  0
  8  7  1  0  0  0
  7  6  1  0  0  0
  6  5  1  0  0  0
  2  1  1  0  0  0
  1 23  1  0  0  0
 30 32  1  0  0  0
 32 35  1  0  0  0
 39 40  1  0  0  0
 40 41  1  0  0  0
 41 42  1  0  0  0
 42 43  1  0  0  0
 43 44  1  0  0  0
 44 45  1  0  0  0
 45 46  1  0  0  0
 46 47  1  0  0  0
 47 48  2  0  0  0
 48 49  1  0  0  0
 49 50  1  0  0  0
 50 51  1  0  0  0
 51 52  1  0  0  0
 52 53  1  0  0  0
 53 54  1  0  0  0
 54 55  1  0  0  0
 55 56  1  0  0  0
M  CHG 1  26  -1
M  END
> <minimizedAffinity>
-8.56670

> <CNNscore>
0.5003283024

> <CNNaffinity>
7.1311950684

> <CNN_VS>
3.5679388046

> <CNNaffinity_variance>
0.7505629659

$$$$
/media/chris/experiments/cd1a-new-docking/inputs/ligands/7sh4_ligand.pdb


 56 55  0  0  0  0  0  0  0  0999 V2000
  -38.4443   58.6241   64.1549 C   0  0  0  0  0  0  0  0  0  0  0  0
  -39.5031   58.2398   65.1494 C   0  0  0  0  0  0  0  0  0  0  0  0
  -40.5814   59.1621   64.8854 O   0  0  0  0  0  0  0  0  0  0  0  0
  -40.5094   61.0098   66.1425 O   0  0  0  0  0  0  0  0  0  0  0  0
  -40.9800   59.9314   65.8989 C   0  0  0  0  0  0  0  0  0  0  0  0
  -42.1627   59.3313   66.6031 C   0  0  0  0  0  0  0  0  0  0  0  0
  -42.9830   58.3854   65.7425 C   0  0  0  0  0  0  0  0  0  0  0  0
  -44.0942   59.0896   64.9927 C   0  0  0  0  0  0  0  0  0  0  0  0
  -45.4455   59.0054   65.6654 C   0  0  0  0  0  0  0  0  0  0  0  0
  -45.7933   57.6040   66.1247 C   0  0  0  0  0  0  0  0  0  0  0  0
  -47.1038   57.1043   65.5674 C   0  0  0  0  0  0  0  0  0  0  0  0
  -48.3022   57.7230   66.2372 C   0  0  0  0  0  0  0  0  0  0  0  0
  -49.2163   58.4522   65.2777 C   0  0  0  0  0  0  0  0  0  0  0  0
  -49.0107   58.0289   63.8374 C   0  0  0  0  0  0  0  0  0  0  0  0
  -48.8623   59.1836   62.8690 C   0  0  0  0  0  0  0  0  0  0  0  0
  -50.0225   59.3193   61.8895 C   0  0  0  0  0  0  0  0  0  0  0  0
  -51.1053   58.2724   62.0680 C   0  0  0  0  0  0  0  0  0  0  0  0
  -51.0774   57.1907   61.0076 C   0  0  0  0  0  0  0  0  0  0  0  0
  -50.3330   57.5951   59.7428 C   0  0  0  0  0  0  0  0  0  0  0  0
  -49.1016   56.7512   59.4662 C   0  0  0  0  0  0  0  0  0  0  0  0
  -46.7034   57.4354   59.8074 C   0  0  0  0  0  0  0  0  0  0  0  0
  -47.9174   57.5192   58.9103 C   0  0  0  0  0  0  0  0  0  0  0  0
  -37.1804   59.0955   64.8272 C   0  0  0  0  0  0  0  0  0  0  0  0
  -37.4252   60.3891   65.4231 O   0  0  0  0  0  0  0  0  0  0  0  0
  -36.4570   61.6440   65.2001 P   0  0  0  0  0  0  0  0  0  0  0  0
  -35.0704   61.1403   65.0991 O   0  0  0  0  0  0  0  0  0  0  0  0
  -37.0030   62.4558   64.0858 O   0  0  0  0  0  0  0  0  0  0  0  0
  -36.9453   61.9511   63.2596 H   0  0  0  0  0  0  0  0  0  0  0  0
  -36.5699   62.5071   66.5362 O   0  0  0  0  0  0  0  0  0  0  0  0
  -36.2287   63.9084   66.5209 C   0  0  0  0  0  0  0  0  0  0  0  0
  -34.4075   62.8351   67.6493 O   0  0  0  0  0  0  0  0  0  0  0  0
  -34.8183   64.0603   67.0353 C   0  0  0  0  0  0  0  0  0  0  0  0
  -35.0375   62.5958   68.3469 H   0  0  0  0  0  0  0  0  0  0  0  0
  -32.7175   63.5855   65.9493 O   0  0  0  0  0  0  0  0  0  0  0  0
  -33.8477   64.4482   65.9457 C   0  0  0  0  0  0  0  0  0  0  0  0
  -32.1066   63.8499   65.2438 H   0  0  0  0  0  0  0  0  0  0  0  0
  -38.9982   59.6483   63.2638 O   0  0  0  0  0  0  0  0  0  0  0  0
  -37.7850   60.7778   61.7430 O   0  0  0  0  0  0  0  0  0  0  0  0
  -38.4039   59.8004   62.0647 C   0  0  0  0  0  0  0  0  0  0  0  0
  -38.5916   58.5998   61.1898 C   0  0  0  0  0  0  0  0  0  0  0  0
  -37.3916   58.3829   60.2736 C   0  0  0  0  0  0  0  0  0  0  0  0
  -37.7208   58.4810   58.7931 C   0  0  0  0  0  0  0  0  0  0  0  0
  -36.5235   58.2278   57.8841 C   0  0  0  0  0  0  0  0  0  0  0  0
  -35.9496   56.8275   57.9955 C   0  0  0  0  0  0  0  0  0  0  0  0
  -34.4208   56.7695   58.0622 C   0  0  0  0  0  0  0  0  0  0  0  0
  -33.8502   55.8875   59.1749 C   0  0  0  0  0  0  0  0  0  0  0  0
  -34.5716   56.0809   60.4750 C   0  0  0  0  0  0  0  0  0  0  0  0
  -34.0329   56.4095   61.6331 C   0  0  0  0  0  0  0  0  0  0  0  0
  -32.5809   56.6606   61.8916 C   0  0  0  0  0  0  0  0  0  0  0  0
  -32.3369   57.9900   62.5999 C   0  0  0  0  0  0  0  0  0  0  0  0
  -32.0692   59.1456   61.6518 C   0  0  0  0  0  0  0  0  0  0  0  0
  -30.9871   60.0946   62.1372 C   0  0  0  0  0  0  0  0  0  0  0  0
  -31.2045   61.5481   61.7504 C   0  0  0  0  0  0  0  0  0  0  0  0
  -32.3634   62.2037   62.4859 C   0  0  0  0  0  0  0  0  0  0  0  0
  -32.7402   63.5737   61.9577 C   0  0  0  0  0  0  0  0  0  0  0  0
  -31.5908   64.5422   61.9810 C   0  0  0  0  0  0  0  0  0  0  0  0
 21 22  1  0  0  0
  4  5  2  0  0  0
 25 24  1  0  0  0
 25 26  2  0  0  0
 25 27  1  0  0  0
 25 29  1  0  0  0
 22 20  1  0  0  0
  3  5  1  0  0  0
  3  2  1  0  0  0
 20 19  1  0  0  0
 24 23  1  0  0  0
 19 18  1  0  0  0
 18 17  1  0  0  0
 27 28  1  0  0  0
 17 16  1  0  0  0
 29 30  1  0  0  0
 16 15  1  0  0  0
 34 35  1  0  0  0
 34 36  1  0  0  0
 15 14  1  0  0  0
 31 32  1  0  0  0
 31 33  1  0  0  0
 14 13  1  0  0  0
 37  1  1  0  0  0
 37 39  1  0  0  0
 13 12  1  0  0  0
 38 39  2  0  0  0
 12 11  1  0  0  0
 11 10  1  0  0  0
 10  9  1  0  0  0
  9  8  1  0  0  0
  8  7  1  0  0  0
  7  6  1  0  0  0
  6  5  1  0  0  0
  2  1  1  0  0  0
  1 23  1  0  0  0
 30 32  1  0  0  0
 32 35  1  0  0  0
 39 40  1  0  0  0
 40 41  1  0  0  0
 41 42  1  0  0  0
 42 43  1  0  0  0
 43 44  1  0  0  0
 44 45  1  0  0  0
 45 46  1  0  0  0
 46 47  1  0  0  0
 47 48  2  0  0  0
 48 49  1  0  0  0
 49 50  1  0  0  0
 50 51  1  0  0  0
 51 52  1  0  0  0
 52 53  1  0  0  0
 53 54  1  0  0  0
 54 55  1  0  0  0
 55 56  1  0  0  0
M  CHG 1  26  -1
M  END
> <minimizedAffinity>
-8.78670

> <CNNscore>
0.4998564720

> <CNNaffinity>
7.2613143921

> <CNN_VS>
3.6296150684

> <CNNaffinity_variance>
0.6511403322

$$$$
/media/chris/experiments/cd1a-new-docking/inputs/ligands/7sh4_ligand.pdb


 56 55  0  0  0  0  0  0  0  0999 V2000
  -38.9260   60.1881   65.2736 C   0  0  0  0  0  0  0  0  0  0  0  0
  -40.1698   60.1241   66.1140 C   0  0  0  0  0  0  0  0  0  0  0  0
  -40.7875   58.8777   65.7293 O   0  0  0  0  0  0  0  0  0  0  0  0
  -42.6526   59.4710   64.6481 O   0  0  0  0  0  0  0  0  0  0  0  0
  -42.1084   58.8890   65.5474 C   0  0  0  0  0  0  0  0  0  0  0  0
  -42.7989   57.9862   66.5287 C   0  0  0  0  0  0  0  0  0  0  0  0
  -43.7152   56.9579   65.8874 C   0  0  0  0  0  0  0  0  0  0  0  0
  -45.1644   57.3960   65.8665 C   0  0  0  0  0  0  0  0  0  0  0  0
  -45.6930   57.7224   64.4882 C   0  0  0  0  0  0  0  0  0  0  0  0
  -47.1020   58.2793   64.5096 C   0  0  0  0  0  0  0  0  0  0  0  0
  -47.6094   58.5581   65.9033 C   0  0  0  0  0  0  0  0  0  0  0  0
  -48.9474   59.2492   65.9151 C   0  0  0  0  0  0  0  0  0  0  0  0
  -50.0509   58.4317   65.2812 C   0  0  0  0  0  0  0  0  0  0  0  0
  -50.9493   59.2578   64.3832 C   0  0  0  0  0  0  0  0  0  0  0  0
  -50.5458   59.2436   62.9237 C   0  0  0  0  0  0  0  0  0  0  0  0
  -50.1976   57.8570   62.3943 C   0  0  0  0  0  0  0  0  0  0  0  0
  -50.6804   57.5982   60.9800 C   0  0  0  0  0  0  0  0  0  0  0  0
  -49.6544   56.8985   60.1122 C   0  0  0  0  0  0  0  0  0  0  0  0
  -48.2523   57.4780   60.2374 C   0  0  0  0  0  0  0  0  0  0  0  0
  -47.5046   57.5502   58.9180 C   0  0  0  0  0  0  0  0  0  0  0  0
  -47.6935   56.6146   56.5889 C   0  0  0  0  0  0  0  0  0  0  0  0
  -47.6005   56.2997   58.0647 C   0  0  0  0  0  0  0  0  0  0  0  0
  -37.7187   60.5947   66.0791 C   0  0  0  0  0  0  0  0  0  0  0  0
  -37.1822   61.8181   65.5278 O   0  0  0  0  0  0  0  0  0  0  0  0
  -36.1993   62.7804   66.3462 P   0  0  0  0  0  0  0  0  0  0  0  0
  -36.6189   64.1774   66.1030 O   0  0  0  0  0  0  0  0  0  0  0  0
  -36.1313   62.2901   67.7439 O   0  0  0  0  0  0  0  0  0  0  0  0
  -36.9959   62.4033   68.1686 H   0  0  0  0  0  0  0  0  0  0  0  0
  -34.7624   62.5771   65.6852 O   0  0  0  0  0  0  0  0  0  0  0  0
  -33.5848   63.0779   66.3506 C   0  0  0  0  0  0  0  0  0  0  0  0
  -31.7234   64.5088   65.8709 O   0  0  0  0  0  0  0  0  0  0  0  0
  -33.1200   64.3174   65.6264 C   0  0  0  0  0  0  0  0  0  0  0  0
  -31.5653   64.5513   66.8269 H   0  0  0  0  0  0  0  0  0  0  0  0
  -34.6376   64.8423   63.8265 O   0  0  0  0  0  0  0  0  0  0  0  0
  -33.3845   64.2488   64.1414 C   0  0  0  0  0  0  0  0  0  0  0  0
  -34.7894   64.7887   62.8699 H   0  0  0  0  0  0  0  0  0  0  0  0
  -39.1689   61.1095   64.1591 O   0  0  0  0  0  0  0  0  0  0  0  0
  -40.5515   60.7080   62.4308 O   0  0  0  0  0  0  0  0  0  0  0  0
  -39.4899   60.5604   62.9718 C   0  0  0  0  0  0  0  0  0  0  0  0
  -38.3601   59.7609   62.4003 C   0  0  0  0  0  0  0  0  0  0  0  0
  -38.8656   58.6758   61.4550 C   0  0  0  0  0  0  0  0  0  0  0  0
  -38.1068   57.3632   61.5616 C   0  0  0  0  0  0  0  0  0  0  0  0
  -37.2221   57.0707   60.3552 C   0  0  0  0  0  0  0  0  0  0  0  0
  -37.3406   58.0938   59.2408 C   0  0  0  0  0  0  0  0  0  0  0  0
  -37.1498   57.5253   57.8317 C   0  0  0  0  0  0  0  0  0  0  0  0
  -36.0533   56.4662   57.6993 C   0  0  0  0  0  0  0  0  0  0  0  0
  -34.6800   57.0589   57.8034 C   0  0  0  0  0  0  0  0  0  0  0  0
  -33.7365   56.7143   58.6580 C   0  0  0  0  0  0  0  0  0  0  0  0
  -33.8404   55.6526   59.7070 C   0  0  0  0  0  0  0  0  0  0  0  0
  -33.6449   56.2049   61.1160 C   0  0  0  0  0  0  0  0  0  0  0  0
  -33.6187   57.7220   61.1777 C   0  0  0  0  0  0  0  0  0  0  0  0
  -33.3179   58.2710   62.5617 C   0  0  0  0  0  0  0  0  0  0  0  0
  -34.4316   59.1141   63.1604 C   0  0  0  0  0  0  0  0  0  0  0  0
  -35.0300   58.5171   64.4250 C   0  0  0  0  0  0  0  0  0  0  0  0
  -35.7233   57.1853   64.2165 C   0  0  0  0  0  0  0  0  0  0  0  0
  -37.0825   57.1308   64.8560 C   0  0  0  0  0  0  0  0  0  0  0  0
 21 22  1  0  0  0
  4  5  2  0  0  0
 25 24  1  0  0  0
 25 26  2  0  0  0
 25 27  1  0  0  0
 25 29  1  0  0  0
 22 20  1  0  0  0
  3  5  1  0  0  0
  3  2  1  0  0  0
 20 19  1  0  0  0
 24 23  1  0  0  0
 19 18  1  0  0  0
 18 17  1  0  0  0
 27 28  1  0  0  0
 17 16  1  0  0  0
 29 30  1  0  0  0
 16 15  1  0  0  0
 34 35  1  0  0  0
 34 36  1  0  0  0
 15 14  1  0  0  0
 31 32  1  0  0  0
 31 33  1  0  0  0
 14 13  1  0  0  0
 37  1  1  0  0  0
 37 39  1  0  0  0
 13 12  1  0  0  0
 38 39  2  0  0  0
 12 11  1  0  0  0
 11 10  1  0  0  0
 10  9  1  0  0  0
  9  8  1  0  0  0
  8  7  1  0  0  0
  7  6  1  0  0  0
  6  5  1  0  0  0
  2  1  1  0  0  0
  1 23  1  0  0  0
 30 32  1  0  0  0
 32 35  1  0  0  0
 39 40  1  0  0  0
 40 41  1  0  0  0
 41 42  1  0  0  0
 42 43  1  0  0  0
 43 44  1  0  0  0
 44 45  1  0  0  0
 45 46  1  0  0  0
 46 47  1  0  0  0
 47 48  2  0  0  0
 48 49  1  0  0  0
 49 50  1  0  0  0
 50 51  1  0  0  0
 51 52  1  0  0  0
 52 53  1  0  0  0
 53 54  1  0  0  0
 54 55  1  0  0  0
 55 56  1  0  0  0
M  CHG 1  26  -1
M  END
> <minimizedAffinity>
-8.93093

> <CNNscore>
0.4145668149

> <CNNaffinity>
7.2795395851

> <CNN_VS>
3.0178556442

> <CNNaffinity_variance>
0.7956790924

$$$$
/media/chris/experiments/cd1a-new-docking/inputs/ligands/7sh4_ligand.pdb


 56 55  0  0  0  0  0  0  0  0999 V2000
  -33.0806   61.4668   63.3190 C   0  0  0  0  0  0  0  0  0  0  0  0
  -34.3957   61.6409   64.0246 C   0  0  0  0  0  0  0  0  0  0  0  0
  -35.3673   61.6417   62.9573 O   0  0  0  0  0  0  0  0  0  0  0  0
  -37.1957   61.6990   64.2431 O   0  0  0  0  0  0  0  0  0  0  0  0
  -36.6136   61.2899   63.2748 C   0  0  0  0  0  0  0  0  0  0  0  0
  -37.2228   60.4277   62.2069 C   0  0  0  0  0  0  0  0  0  0  0  0
  -38.6888   60.7198   61.9349 C   0  0  0  0  0  0  0  0  0  0  0  0
  -39.2707   59.8383   60.8501 C   0  0  0  0  0  0  0  0  0  0  0  0
  -40.4160   60.4670   60.0892 C   0  0  0  0  0  0  0  0  0  0  0  0
  -40.6700   59.8083   58.7484 C   0  0  0  0  0  0  0  0  0  0  0  0
  -42.1141   59.4226   58.5401 C   0  0  0  0  0  0  0  0  0  0  0  0
  -42.4226   59.0450   57.1153 C   0  0  0  0  0  0  0  0  0  0  0  0
  -43.7216   58.2852   56.9635 C   0  0  0  0  0  0  0  0  0  0  0  0
  -44.5500   58.2828   58.2323 C   0  0  0  0  0  0  0  0  0  0  0  0
  -46.0254   58.0270   58.0065 C   0  0  0  0  0  0  0  0  0  0  0  0
  -46.6959   57.2512   59.1346 C   0  0  0  0  0  0  0  0  0  0  0  0
  -47.5300   56.0756   58.6631 C   0  0  0  0  0  0  0  0  0  0  0  0
  -48.8142   55.8958   59.4468 C   0  0  0  0  0  0  0  0  0  0  0  0
  -49.6532   57.1624   59.5423 C   0  0  0  0  0  0  0  0  0  0  0  0
  -50.6797   57.1285   60.6604 C   0  0  0  0  0  0  0  0  0  0  0  0
  -49.0421   58.3944   62.0927 C   0  0  0  0  0  0  0  0  0  0  0  0
  -50.4947   58.1936   61.7245 C   0  0  0  0  0  0  0  0  0  0  0  0
  -32.6071   62.7472   62.6801 C   0  0  0  0  0  0  0  0  0  0  0  0
  -33.1353   63.8641   63.4297 O   0  0  0  0  0  0  0  0  0  0  0  0
  -32.2042   64.8818   64.2417 P   0  0  0  0  0  0  0  0  0  0  0  0
  -31.0793   64.1136   64.8172 O   0  0  0  0  0  0  0  0  0  0  0  0
  -31.9020   66.0349   63.3597 O   0  0  0  0  0  0  0  0  0  0  0  0
  -31.3530   65.7387   62.6170 H   0  0  0  0  0  0  0  0  0  0  0  0
  -33.1057   65.4096   65.4464 O   0  0  0  0  0  0  0  0  0  0  0  0
  -34.4798   64.9859   65.5587 C   0  0  0  0  0  0  0  0  0  0  0  0
  -34.1292   64.7806   67.9204 O   0  0  0  0  0  0  0  0  0  0  0  0
  -34.6030   64.0853   66.7632 C   0  0  0  0  0  0  0  0  0  0  0  0
  -33.2195   65.0805   67.7676 H   0  0  0  0  0  0  0  0  0  0  0  0
  -36.0588   62.5891   67.9716 O   0  0  0  0  0  0  0  0  0  0  0  0
  -36.0194   63.6111   66.9839 C   0  0  0  0  0  0  0  0  0  0  0  0
  -36.9752   62.2979   68.0992 H   0  0  0  0  0  0  0  0  0  0  0  0
  -33.2246   60.3908   62.3334 O   0  0  0  0  0  0  0  0  0  0  0  0
  -31.1353   59.6181   62.0203 O   0  0  0  0  0  0  0  0  0  0  0  0
  -32.2791   59.4315   62.3343 C   0  0  0  0  0  0  0  0  0  0  0  0
  -32.8201   58.1118   62.7904 C   0  0  0  0  0  0  0  0  0  0  0  0
  -33.8541   57.5635   61.8122 C   0  0  0  0  0  0  0  0  0  0  0  0
  -35.1876   57.2181   62.4545 C   0  0  0  0  0  0  0  0  0  0  0  0
  -35.3046   57.6796   63.9026 C   0  0  0  0  0  0  0  0  0  0  0  0
  -36.7141   57.6095   64.4604 C   0  0  0  0  0  0  0  0  0  0  0  0
  -37.7786   57.1767   63.4481 C   0  0  0  0  0  0  0  0  0  0  0  0
  -39.2040   57.6330   63.7664 C   0  0  0  0  0  0  0  0  0  0  0  0
  -39.2485   58.5760   64.9313 C   0  0  0  0  0  0  0  0  0  0  0  0
  -40.3218   58.9536   65.5980 C   0  0  0  0  0  0  0  0  0  0  0  0
  -41.7270   58.5158   65.3299 C   0  0  0  0  0  0  0  0  0  0  0  0
  -42.6362   58.7023   66.5412 C   0  0  0  0  0  0  0  0  0  0  0  0
  -44.0786   59.0098   66.1790 C   0  0  0  0  0  0  0  0  0  0  0  0
  -44.6428   58.1031   65.0988 C   0  0  0  0  0  0  0  0  0  0  0  0
  -45.1446   56.7601   65.6029 C   0  0  0  0  0  0  0  0  0  0  0  0
  -46.5665   56.8081   66.1411 C   0  0  0  0  0  0  0  0  0  0  0  0
  -47.5148   57.6572   65.3179 C   0  0  0  0  0  0  0  0  0  0  0  0
  -48.9091   57.6821   65.8790 C   0  0  0  0  0  0  0  0  0  0  0  0
 21 22  1  0  0  0
  4  5  2  0  0  0
 25 24  1  0  0  0
 25 26  2  0  0  0
 25 27  1  0  0  0
 25 29  1  0  0  0
 22 20  1  0  0  0
  3  5  1  0  0  0
  3  2  1  0  0  0
 20 19  1  0  0  0
 24 23  1  0  0  0
 19 18  1  0  0  0
 18 17  1  0  0  0
 27 28  1  0  0  0
 17 16  1  0  0  0
 29 30  1  0  0  0
 16 15  1  0  0  0
 34 35  1  0  0  0
 34 36  1  0  0  0
 15 14  1  0  0  0
 31 32  1  0  0  0
 31 33  1  0  0  0
 14 13  1  0  0  0
 37  1  1  0  0  0
 37 39  1  0  0  0
 13 12  1  0  0  0
 38 39  2  0  0  0
 12 11  1  0  0  0
 11 10  1  0  0  0
 10  9  1  0  0  0
  9  8  1  0  0  0
  8  7  1  0  0  0
  7  6  1  0  0  0
  6  5  1  0  0  0
  2  1  1  0  0  0
  1 23  1  0  0  0
 30 32  1  0  0  0
 32 35  1  0  0  0
 39 40  1  0  0  0
 40 41  1  0  0  0
 41 42  1  0  0  0
 42 43  1  0  0  0
 43 44  1  0  0  0
 44 45  1  0  0  0
 45 46  1  0  0  0
 46 47  1  0  0  0
 47 48  2  0  0  0
 48 49  1  0  0  0
 49 50  1  0  0  0
 50 51  1  0  0  0
 51 52  1  0  0  0
 52 53  1  0  0  0
 53 54  1  0  0  0
 54 55  1  0  0  0
 55 56  1  0  0  0
M  CHG 1  26  -1
M  END
> <minimizedAffinity>
-8.07712

> <CNNscore>
0.4098995030

> <CNNaffinity>
7.2047624588

> <CNN_VS>
2.9532284737

> <CNNaffinity_variance>
0.6934473515

$$$$
/media/chris/experiments/cd1a-new-docking/inputs/ligands/7sh4_ligand.pdb


 56 55  0  0  0  0  0  0  0  0999 V2000
  -39.4516   59.8588   65.3303 C   0  0  0  0  0  0  0  0  0  0  0  0
  -40.6404   60.1772   66.1922 C   0  0  0  0  0  0  0  0  0  0  0  0
  -41.5448   59.0765   65.9601 O   0  0  0  0  0  0  0  0  0  0  0  0
  -42.6640   59.5758   67.8302 O   0  0  0  0  0  0  0  0  0  0  0  0
  -42.5446   58.9227   66.8287 C   0  0  0  0  0  0  0  0  0  0  0  0
  -43.5507   57.9271   66.3274 C   0  0  0  0  0  0  0  0  0  0  0  0
  -44.8842   58.5381   65.9314 C   0  0  0  0  0  0  0  0  0  0  0  0
  -45.8471   58.6484   67.0947 C   0  0  0  0  0  0  0  0  0  0  0  0
  -46.5457   57.3542   67.4452 C   0  0  0  0  0  0  0  0  0  0  0  0
  -47.1207   56.6441   66.2365 C   0  0  0  0  0  0  0  0  0  0  0  0
  -48.4606   57.1907   65.8081 C   0  0  0  0  0  0  0  0  0  0  0  0
  -48.3870   58.0042   64.5430 C   0  0  0  0  0  0  0  0  0  0  0  0
  -49.7110   58.6188   64.1465 C   0  0  0  0  0  0  0  0  0  0  0  0
  -49.5552   59.7593   63.1611 C   0  0  0  0  0  0  0  0  0  0  0  0
  -50.0068   59.4267   61.7545 C   0  0  0  0  0  0  0  0  0  0  0  0
  -50.7076   58.0781   61.6351 C   0  0  0  0  0  0  0  0  0  0  0  0
  -50.5004   57.3922   60.2985 C   0  0  0  0  0  0  0  0  0  0  0  0
  -49.6377   56.1499   60.3866 C   0  0  0  0  0  0  0  0  0  0  0  0
  -48.5270   56.1033   59.3466 C   0  0  0  0  0  0  0  0  0  0  0  0
  -47.9417   57.4658   59.0212 C   0  0  0  0  0  0  0  0  0  0  0  0
  -47.4028   56.7286   56.6755 C   0  0  0  0  0  0  0  0  0  0  0  0
  -46.9168   57.4658   57.9028 C   0  0  0  0  0  0  0  0  0  0  0  0
  -38.1574   59.9392   66.0987 C   0  0  0  0  0  0  0  0  0  0  0  0
  -37.8301   61.3302   66.3142 O   0  0  0  0  0  0  0  0  0  0  0  0
  -36.5899   62.0498   65.6029 P   0  0  0  0  0  0  0  0  0  0  0  0
  -35.3563   61.3413   66.0067 O   0  0  0  0  0  0  0  0  0  0  0  0
  -36.8973   62.1779   64.1580 O   0  0  0  0  0  0  0  0  0  0  0  0
  -36.9335   61.2961   63.7557 H   0  0  0  0  0  0  0  0  0  0  0  0
  -36.5395   63.5172   66.2250 O   0  0  0  0  0  0  0  0  0  0  0  0
  -35.2705   64.1174   66.5559 C   0  0  0  0  0  0  0  0  0  0  0  0
  -34.7224   65.5912   64.7476 O   0  0  0  0  0  0  0  0  0  0  0  0
  -34.4782   64.2871   65.2830 C   0  0  0  0  0  0  0  0  0  0  0  0
  -35.6755   65.7132   64.6154 H   0  0  0  0  0  0  0  0  0  0  0  0
  -32.4768   65.0566   66.3878 O   0  0  0  0  0  0  0  0  0  0  0  0
  -32.9977   64.0799   65.4954 C   0  0  0  0  0  0  0  0  0  0  0  0
  -31.5264   64.9074   66.5116 H   0  0  0  0  0  0  0  0  0  0  0  0
  -39.4570   60.7700   64.1816 O   0  0  0  0  0  0  0  0  0  0  0  0
  -40.3254   60.9003   62.1106 O   0  0  0  0  0  0  0  0  0  0  0  0
  -39.8332   60.2549   62.9953 C   0  0  0  0  0  0  0  0  0  0  0  0
  -39.5475   58.7877   62.9056 C   0  0  0  0  0  0  0  0  0  0  0  0
  -38.5892   58.4740   61.7611 C   0  0  0  0  0  0  0  0  0  0  0  0
  -38.0037   57.0724   61.8141 C   0  0  0  0  0  0  0  0  0  0  0  0
  -36.6154   57.0149   62.4411 C   0  0  0  0  0  0  0  0  0  0  0  0
  -36.5953   57.3307   63.9252 C   0  0  0  0  0  0  0  0  0  0  0  0
  -35.4028   58.1770   64.3799 C   0  0  0  0  0  0  0  0  0  0  0  0
  -34.9104   59.2086   63.3627 C   0  0  0  0  0  0  0  0  0  0  0  0
  -33.4154   59.2198   63.2480 C   0  0  0  0  0  0  0  0  0  0  0  0
  -32.6946   58.6586   62.2968 C   0  0  0  0  0  0  0  0  0  0  0  0
  -33.2220   57.8905   61.1264 C   0  0  0  0  0  0  0  0  0  0  0  0
  -33.2629   56.3874   61.3868 C   0  0  0  0  0  0  0  0  0  0  0  0
  -33.4913   55.5580   60.1355 C   0  0  0  0  0  0  0  0  0  0  0  0
  -34.5081   56.1608   59.1815 C   0  0  0  0  0  0  0  0  0  0  0  0
  -35.8637   55.4740   59.1899 C   0  0  0  0  0  0  0  0  0  0  0  0
  -36.8533   56.0753   58.2035 C   0  0  0  0  0  0  0  0  0  0  0  0
  -36.5320   57.4976   57.7890 C   0  0  0  0  0  0  0  0  0  0  0  0
  -37.4561   58.5073   58.4103 C   0  0  0  0  0  0  0  0  0  0  0  0
 21 22  1  0  0  0
  4  5  2  0  0  0
 25 24  1  0  0  0
 25 26  2  0  0  0
 25 27  1  0  0  0
 25 29  1  0  0  0
 22 20  1  0  0  0
  3  5  1  0  0  0
  3  2  1  0  0  0
 20 19  1  0  0  0
 24 23  1  0  0  0
 19 18  1  0  0  0
 18 17  1  0  0  0
 27 28  1  0  0  0
 17 16  1  0  0  0
 29 30  1  0  0  0
 16 15  1  0  0  0
 34 35  1  0  0  0
 34 36  1  0  0  0
 15 14  1  0  0  0
 31 32  1  0  0  0
 31 33  1  0  0  0
 14 13  1  0  0  0
 37  1  1  0  0  0
 37 39  1  0  0  0
 13 12  1  0  0  0
 38 39  2  0  0  0
 12 11  1  0  0  0
 11 10  1  0  0  0
 10  9  1  0  0  0
  9  8  1  0  0  0
  8  7  1  0  0  0
  7  6  1  0  0  0
  6  5  1  0  0  0
  2  1  1  0  0  0
  1 23  1  0  0  0
 30 32  1  0  0  0
 32 35  1  0  0  0
 39 40  1  0  0  0
 40 41  1  0  0  0
 41 42  1  0  0  0
 42 43  1  0  0  0
 43 44  1  0  0  0
 44 45  1  0  0  0
 45 46  1  0  0  0
 46 47  1  0  0  0
 47 48  2  0  0  0
 48 49  1  0  0  0
 49 50  1  0  0  0
 50 51  1  0  0  0
 51 52  1  0  0  0
 52 53  1  0  0  0
 53 54  1  0  0  0
 54 55  1  0  0  0
 55 56  1  0  0  0
M  CHG 1  26  -1
M  END
> <minimizedAffinity>
-8.69208

> <CNNscore>
0.4057973027

> <CNNaffinity>
7.4072661400

> <CNN_VS>
3.0058486462

> <CNNaffinity_variance>
0.4378877580

$$$$
/media/chris/experiments/cd1a-new-docking/inputs/ligands/7sh4_ligand.pdb


 56 55  0  0  0  0  0  0  0  0999 V2000
  -38.3075   60.2819   65.4022 C   0  0  0  0  0  0  0  0  0  0  0  0
  -37.4173   60.9180   66.4320 C   0  0  0  0  0  0  0  0  0  0  0  0
  -36.9481   62.1232   65.7915 O   0  0  0  0  0  0  0  0  0  0  0  0
  -36.4248   63.5703   67.4137 O   0  0  0  0  0  0  0  0  0  0  0  0
  -36.0988   62.8836   66.4832 C   0  0  0  0  0  0  0  0  0  0  0  0
  -34.6840   62.6689   66.0281 C   0  0  0  0  0  0  0  0  0  0  0  0
  -34.1249   63.8021   65.1845 C   0  0  0  0  0  0  0  0  0  0  0  0
  -32.7887   64.3046   65.6892 C   0  0  0  0  0  0  0  0  0  0  0  0
  -31.6050   63.8514   64.8651 C   0  0  0  0  0  0  0  0  0  0  0  0
  -31.7949   64.0787   63.3791 C   0  0  0  0  0  0  0  0  0  0  0  0
  -31.1054   63.0416   62.5266 C   0  0  0  0  0  0  0  0  0  0  0  0
  -31.8474   61.7321   62.4780 C   0  0  0  0  0  0  0  0  0  0  0  0
  -31.0014   60.5808   61.9814 C   0  0  0  0  0  0  0  0  0  0  0  0
  -31.8252   59.3593   61.6271 C   0  0  0  0  0  0  0  0  0  0  0  0
  -32.1385   58.4620   62.8060 C   0  0  0  0  0  0  0  0  0  0  0  0
  -33.0705   57.3039   62.4682 C   0  0  0  0  0  0  0  0  0  0  0  0
  -33.6852   57.3910   61.0845 C   0  0  0  0  0  0  0  0  0  0  0  0
  -34.2971   56.0872   60.6143 C   0  0  0  0  0  0  0  0  0  0  0  0
  -33.9042   55.7060   59.1938 C   0  0  0  0  0  0  0  0  0  0  0  0
  -34.0467   56.8431   58.1980 C   0  0  0  0  0  0  0  0  0  0  0  0
  -36.4594   56.1920   57.8966 C   0  0  0  0  0  0  0  0  0  0  0  0
  -35.4682   57.3299   57.9895 C   0  0  0  0  0  0  0  0  0  0  0  0
  -38.1286   60.9004   64.0394 C   0  0  0  0  0  0  0  0  0  0  0  0
  -38.1218   59.8486   63.0485 O   0  0  0  0  0  0  0  0  0  0  0  0
  -36.8128   58.9978   62.6956 P   0  0  0  0  0  0  0  0  0  0  0  0
  -35.6502   59.9110   62.7292 O   0  0  0  0  0  0  0  0  0  0  0  0
  -36.7979   57.7935   63.5606 O   0  0  0  0  0  0  0  0  0  0  0  0
  -36.6755   58.0609   64.4849 H   0  0  0  0  0  0  0  0  0  0  0  0
  -37.0156   58.5163   61.1890 O   0  0  0  0  0  0  0  0  0  0  0  0
  -38.3460   58.3530   60.6566 C   0  0  0  0  0  0  0  0  0  0  0  0
  -38.6830   58.8507   58.3368 O   0  0  0  0  0  0  0  0  0  0  0  0
  -38.5872   59.4393   59.6374 C   0  0  0  0  0  0  0  0  0  0  0  0
  -37.8809   58.3366   58.1547 H   0  0  0  0  0  0  0  0  0  0  0  0
  -40.8462   59.9738   58.9820 O   0  0  0  0  0  0  0  0  0  0  0  0
  -39.8289   60.2441   59.9378 C   0  0  0  0  0  0  0  0  0  0  0  0
  -41.6344   60.4989   59.1913 H   0  0  0  0  0  0  0  0  0  0  0  0
  -39.6950   60.3838   65.8653 O   0  0  0  0  0  0  0  0  0  0  0  0
  -40.1320   58.2782   65.2052 O   0  0  0  0  0  0  0  0  0  0  0  0
  -40.5143   59.3565   65.5697 C   0  0  0  0  0  0  0  0  0  0  0  0
  -41.9550   59.7137   65.7675 C   0  0  0  0  0  0  0  0  0  0  0  0
  -42.8729   58.5453   65.4228 C   0  0  0  0  0  0  0  0  0  0  0  0
  -44.3335   58.9346   65.2653 C   0  0  0  0  0  0  0  0  0  0  0  0
  -45.2460   57.7584   64.9370 C   0  0  0  0  0  0  0  0  0  0  0  0
  -46.7156   58.0239   65.2061 C   0  0  0  0  0  0  0  0  0  0  0  0
  -47.4423   58.7748   64.0867 C   0  0  0  0  0  0  0  0  0  0  0  0
  -48.7963   58.1884   63.6810 C   0  0  0  0  0  0  0  0  0  0  0  0
  -49.6583   59.1925   62.9760 C   0  0  0  0  0  0  0  0  0  0  0  0
  -50.5744   58.9397   62.0616 C   0  0  0  0  0  0  0  0  0  0  0  0
  -50.9474   57.5898   61.5354 C   0  0  0  0  0  0  0  0  0  0  0  0
  -50.2659   57.2739   60.2071 C   0  0  0  0  0  0  0  0  0  0  0  0
  -48.9324   56.5638   60.3600 C   0  0  0  0  0  0  0  0  0  0  0  0
  -48.4290   55.9282   59.0755 C   0  0  0  0  0  0  0  0  0  0  0  0
  -48.1010   56.9178   57.9698 C   0  0  0  0  0  0  0  0  0  0  0  0
  -47.1521   58.0229   58.4081 C   0  0  0  0  0  0  0  0  0  0  0  0
  -45.7520   57.5454   58.7392 C   0  0  0  0  0  0  0  0  0  0  0  0
  -44.6975   58.2066   57.8964 C   0  0  0  0  0  0  0  0  0  0  0  0
 21 22  1  0  0  0
  4  5  2  0  0  0
 25 24  1  0  0  0
 25 26  2  0  0  0
 25 27  1  0  0  0
 25 29  1  0  0  0
 22 20  1  0  0  0
  3  5  1  0  0  0
  3  2  1  0  0  0
 20 19  1  0  0  0
 24 23  1  0  0  0
 19 18  1  0  0  0
 18 17  1  0  0  0
 27 28  1  0  0  0
 17 16  1  0  0  0
 29 30  1  0  0  0
 16 15  1  0  0  0
 34 35  1  0  0  0
 34 36  1  0  0  0
 15 14  1  0  0  0
 31 32  1  0  0  0
 31 33  1  0  0  0
 14 13  1  0  0  0
 37  1  1  0  0  0
 37 39  1  0  0  0
 13 12  1  0  0  0
 38 39  2  0  0  0
 12 11  1  0  0  0
 11 10  1  0  0  0
 10  9  1  0  0  0
  9  8  1  0  0  0
  8  7  1  0  0  0
  7  6  1  0  0  0
  6  5  1  0  0  0
  2  1  1  0  0  0
  1 23  1  0  0  0
 30 32  1  0  0  0
 32 35  1  0  0  0
 39 40  1  0  0  0
 40 41  1  0  0  0
 41 42  1  0  0  0
 42 43  1  0  0  0
 43 44  1  0  0  0
 44 45  1  0  0  0
 45 46  1  0  0  0
 46 47  1  0  0  0
 47 48  2  0  0  0
 48 49  1  0  0  0
 49 50  1  0  0  0
 50 51  1  0  0  0
 51 52  1  0  0  0
 52 53  1  0  0  0
 53 54  1  0  0  0
 54 55  1  0  0  0
 55 56  1  0  0  0
M  CHG 1  26  -1
M  END
> <minimizedAffinity>
-8.71817

> <CNNscore>
0.3695223629

> <CNNaffinity>
7.0338997841

> <CNN_VS>
2.5991833210

> <CNNaffinity_variance>
0.7388370633

$$$$
/media/chris/experiments/cd1a-new-docking/inputs/ligands/7sh4_ligand.pdb


 56 55  0  0  0  0  0  0  0  0999 V2000
  -38.4602   58.8014   63.5401 C   0  0  0  0  0  0  0  0  0  0  0  0
  -39.1259   58.2458   64.7673 C   0  0  0  0  0  0  0  0  0  0  0  0
  -40.5014   58.6636   64.6378 O   0  0  0  0  0  0  0  0  0  0  0  0
  -40.4423   60.5268   65.8725 O   0  0  0  0  0  0  0  0  0  0  0  0
  -40.9718   59.4910   65.5716 C   0  0  0  0  0  0  0  0  0  0  0  0
  -42.2981   59.0203   66.0952 C   0  0  0  0  0  0  0  0  0  0  0  0
  -42.5256   57.5247   65.9539 C   0  0  0  0  0  0  0  0  0  0  0  0
  -43.9181   57.1015   66.3716 C   0  0  0  0  0  0  0  0  0  0  0  0
  -44.8504   56.8136   65.2167 C   0  0  0  0  0  0  0  0  0  0  0  0
  -45.4546   58.0664   64.6154 C   0  0  0  0  0  0  0  0  0  0  0  0
  -46.7713   58.4517   65.2443 C   0  0  0  0  0  0  0  0  0  0  0  0
  -47.7237   57.2923   65.3726 C   0  0  0  0  0  0  0  0  0  0  0  0
  -49.1123   57.7017   65.8110 C   0  0  0  0  0  0  0  0  0  0  0  0
  -49.4283   59.1464   65.4804 C   0  0  0  0  0  0  0  0  0  0  0  0
  -50.7177   59.3360   64.7093 C   0  0  0  0  0  0  0  0  0  0  0  0
  -50.7028   58.7083   63.3201 C   0  0  0  0  0  0  0  0  0  0  0  0
  -49.5683   59.1920   62.4375 C   0  0  0  0  0  0  0  0  0  0  0  0
  -48.8599   58.0736   61.7007 C   0  0  0  0  0  0  0  0  0  0  0  0
  -49.1335   58.0602   60.2032 C   0  0  0  0  0  0  0  0  0  0  0  0
  -48.6463   56.8017   59.5077 C   0  0  0  0  0  0  0  0  0  0  0  0
  -46.2657   57.4792   59.0498 C   0  0  0  0  0  0  0  0  0  0  0  0
  -47.5805   57.0314   58.4529 C   0  0  0  0  0  0  0  0  0  0  0  0
  -39.4205   58.9340   62.3860 C   0  0  0  0  0  0  0  0  0  0  0  0
  -38.7577   58.5001   61.1773 O   0  0  0  0  0  0  0  0  0  0  0  0
  -38.1998   59.5222   60.0792 P   0  0  0  0  0  0  0  0  0  0  0  0
  -39.2690   59.7540   59.0843 O   0  0  0  0  0  0  0  0  0  0  0  0
  -37.6203   60.6891   60.7871 O   0  0  0  0  0  0  0  0  0  0  0  0
  -38.3266   61.1761   61.2397 H   0  0  0  0  0  0  0  0  0  0  0  0
  -37.0096   58.7508   59.3504 O   0  0  0  0  0  0  0  0  0  0  0  0
  -37.2624   58.0190   58.1335 C   0  0  0  0  0  0  0  0  0  0  0  0
  -35.0328   57.1665   57.9215 O   0  0  0  0  0  0  0  0  0  0  0  0
  -36.3953   56.7840   58.1322 C   0  0  0  0  0  0  0  0  0  0  0  0
  -34.9632   57.6747   57.0983 H   0  0  0  0  0  0  0  0  0  0  0  0
  -35.5654   56.4261   60.3686 O   0  0  0  0  0  0  0  0  0  0  0  0
  -36.5221   55.9912   59.4109 C   0  0  0  0  0  0  0  0  0  0  0  0
  -35.6624   55.9062   61.1817 H   0  0  0  0  0  0  0  0  0  0  0  0
  -37.3228   57.9400   63.2021 O   0  0  0  0  0  0  0  0  0  0  0  0
  -35.8580   59.6125   62.8598 O   0  0  0  0  0  0  0  0  0  0  0  0
  -36.0988   58.5006   63.2437 C   0  0  0  0  0  0  0  0  0  0  0  0
  -35.0806   57.5798   63.8416 C   0  0  0  0  0  0  0  0  0  0  0  0
  -33.7001   58.2269   63.8869 C   0  0  0  0  0  0  0  0  0  0  0  0
  -32.7465   57.7201   62.8174 C   0  0  0  0  0  0  0  0  0  0  0  0
  -32.2331   58.8153   61.8897 C   0  0  0  0  0  0  0  0  0  0  0  0
  -32.3579   60.2158   62.4604 C   0  0  0  0  0  0  0  0  0  0  0  0
  -31.3287   61.2154   61.9252 C   0  0  0  0  0  0  0  0  0  0  0  0
  -31.6327   62.6855   62.2219 C   0  0  0  0  0  0  0  0  0  0  0  0
  -31.1331   63.1042   63.5722 C   0  0  0  0  0  0  0  0  0  0  0  0
  -31.3934   64.2396   64.1907 C   0  0  0  0  0  0  0  0  0  0  0  0
  -32.2479   65.3522   63.6710 C   0  0  0  0  0  0  0  0  0  0  0  0
  -33.2719   65.8283   64.6974 C   0  0  0  0  0  0  0  0  0  0  0  0
  -33.1594   65.1284   66.0404 C   0  0  0  0  0  0  0  0  0  0  0  0
  -34.3512   64.2463   66.3701 C   0  0  0  0  0  0  0  0  0  0  0  0
  -34.0801   62.7550   66.2609 C   0  0  0  0  0  0  0  0  0  0  0  0
  -34.4730   62.1651   64.9150 C   0  0  0  0  0  0  0  0  0  0  0  0
  -35.6356   62.8685   64.2431 C   0  0  0  0  0  0  0  0  0  0  0  0
  -35.3218   63.2972   62.8370 C   0  0  0  0  0  0  0  0  0  0  0  0
 21 22  1  0  0  0
  4  5  2  0  0  0
 25 24  1  0  0  0
 25 26  2  0  0  0
 25 27  1  0  0  0
 25 29  1  0  0  0
 22 20  1  0  0  0
  3  5  1  0  0  0
  3  2  1  0  0  0
 20 19  1  0  0  0
 24 23  1  0  0  0
 19 18  1  0  0  0
 18 17  1  0  0  0
 27 28  1  0  0  0
 17 16  1  0  0  0
 29 30  1  0  0  0
 16 15  1  0  0  0
 34 35  1  0  0  0
 34 36  1  0  0  0
 15 14  1  0  0  0
 31 32  1  0  0  0
 31 33  1  0  0  0
 14 13  1  0  0  0
 37  1  1  0  0  0
 37 39  1  0  0  0
 13 12  1  0  0  0
 38 39  2  0  0  0
 12 11  1  0  0  0
 11 10  1  0  0  0
 10  9  1  0  0  0
  9  8  1  0  0  0
  8  7  1  0  0  0
  7  6  1  0  0  0
  6  5  1  0  0  0
  2  1  1  0  0  0
  1 23  1  0  0  0
 30 32  1  0  0  0
 32 35  1  0  0  0
 39 40  1  0  0  0
 40 41  1  0  0  0
 41 42  1  0  0  0
 42 43  1  0  0  0
 43 44  1  0  0  0
 44 45  1  0  0  0
 45 46  1  0  0  0
 46 47  1  0  0  0
 47 48  2  0  0  0
 48 49  1  0  0  0
 49 50  1  0  0  0
 50 51  1  0  0  0
 51 52  1  0  0  0
 52 53  1  0  0  0
 53 54  1  0  0  0
 54 55  1  0  0  0
 55 56  1  0  0  0
M  CHG 1  26  -1
M  END
> <minimizedAffinity>
-8.13635

> <CNNscore>
0.3382388055

> <CNNaffinity>
6.9706459045

> <CNN_VS>
2.3577430248

> <CNNaffinity_variance>
1.0284736156

$$$$
