/media/chris/experiments/cd1a-new-docking/inputs/ligands/7sh4_ligand.pdb


 56 55  0  0  0  0  0  0  0  0999 V2000
  -38.6239   60.7001   63.6569 C   0  0  0  0  0  0  0  0  0  0  0  0
  -38.2734   59.8898   62.4411 C   0  0  0  0  0  0  0  0  0  0  0  0
  -39.3406   60.1744   61.5121 O   0  0  0  0  0  0  0  0  0  0  0  0
  -39.5716   60.5221   59.3156 O   0  0  0  0  0  0  0  0  0  0  0  0
  -39.1174   59.8877   60.2292 C   0  0  0  0  0  0  0  0  0  0  0  0
  -38.1353   58.7605   60.0880 C   0  0  0  0  0  0  0  0  0  0  0  0
  -37.2750   58.8400   58.8382 C   0  0  0  0  0  0  0  0  0  0  0  0
  -37.5271   57.6956   57.8793 C   0  0  0  0  0  0  0  0  0  0  0  0
  -36.3499   56.7631   57.7050 C   0  0  0  0  0  0  0  0  0  0  0  0
  -36.5078   55.4602   58.4622 C   0  0  0  0  0  0  0  0  0  0  0  0
  -35.9459   55.5147   59.8619 C   0  0  0  0  0  0  0  0  0  0  0  0
  -34.4660   55.7918   59.8914 C   0  0  0  0  0  0  0  0  0  0  0  0
  -34.1225   57.1629   60.4300 C   0  0  0  0  0  0  0  0  0  0  0  0
  -33.7498   57.1385   61.8985 C   0  0  0  0  0  0  0  0  0  0  0  0
  -32.3694   57.6861   62.1950 C   0  0  0  0  0  0  0  0  0  0  0  0
  -32.2417   59.1887   61.9720 C   0  0  0  0  0  0  0  0  0  0  0  0
  -30.9836   59.7947   62.5637 C   0  0  0  0  0  0  0  0  0  0  0  0
  -30.1292   60.5217   61.5455 C   0  0  0  0  0  0  0  0  0  0  0  0
  -29.5091   61.8070   62.0756 C   0  0  0  0  0  0  0  0  0  0  0  0
  -30.4195   62.5789   63.0140 C   0  0  0  0  0  0  0  0  0  0  0  0
  -32.2478   63.8386   61.8281 C   0  0  0  0  0  0  0  0  0  0  0  0
  -30.8877   63.9205   62.4831 C   0  0  0  0  0  0  0  0  0  0  0  0
  -37.3978   61.1681   64.3981 C   0  0  0  0  0  0  0  0  0  0  0  0
  -37.0346   62.4806   63.9144 O   0  0  0  0  0  0  0  0  0  0  0  0
  -35.6121   62.7982   63.2529 P   0  0  0  0  0  0  0  0  0  0  0  0
  -34.8559   61.5306   63.1625 O   0  0  0  0  0  0  0  0  0  0  0  0
  -35.8433   63.5796   62.0141 O   0  0  0  0  0  0  0  0  0  0  0  0
  -36.2992   63.0247   61.3621 H   0  0  0  0  0  0  0  0  0  0  0  0
  -34.8630   63.7436   64.2958 O   0  0  0  0  0  0  0  0  0  0  0  0
  -33.9825   63.1720   65.2848 C   0  0  0  0  0  0  0  0  0  0  0  0
  -33.8886   62.5065   67.5850 O   0  0  0  0  0  0  0  0  0  0  0  0
  -34.7750   62.9344   66.5467 C   0  0  0  0  0  0  0  0  0  0  0  0
  -33.4041   61.7188   67.2923 H   0  0  0  0  0  0  0  0  0  0  0  0
  -36.9135   64.0461   66.6440 O   0  0  0  0  0  0  0  0  0  0  0  0
  -35.5382   64.1610   66.9857 C   0  0  0  0  0  0  0  0  0  0  0  0
  -37.3862   64.8420   66.9334 H   0  0  0  0  0  0  0  0  0  0  0  0
  -39.4991   59.8930   64.5128 O   0  0  0  0  0  0  0  0  0  0  0  0
  -41.2374   61.2653   64.1188 O   0  0  0  0  0  0  0  0  0  0  0  0
  -40.7363   60.3718   64.7452 C   0  0  0  0  0  0  0  0  0  0  0  0
  -41.4176   59.6456   65.8635 C   0  0  0  0  0  0  0  0  0  0  0  0
  -42.5063   58.7128   65.3428 C   0  0  0  0  0  0  0  0  0  0  0  0
  -43.8645   59.3769   65.1876 C   0  0  0  0  0  0  0  0  0  0  0  0
  -45.0364   58.4241   65.3938 C   0  0  0  0  0  0  0  0  0  0  0  0
  -45.9740   58.8327   66.5147 C   0  0  0  0  0  0  0  0  0  0  0  0
  -47.2877   59.4655   66.0469 C   0  0  0  0  0  0  0  0  0  0  0  0
  -48.0031   58.7217   64.9171 C   0  0  0  0  0  0  0  0  0  0  0  0
  -49.2514   58.0400   65.3913 C   0  0  0  0  0  0  0  0  0  0  0  0
  -50.4907   58.4556   65.2159 C   0  0  0  0  0  0  0  0  0  0  0  0
  -50.9113   59.7010   64.5014 C   0  0  0  0  0  0  0  0  0  0  0  0
  -51.5033   59.4112   63.1252 C   0  0  0  0  0  0  0  0  0  0  0  0
  -50.4616   59.0781   62.0714 C   0  0  0  0  0  0  0  0  0  0  0  0
  -50.6939   57.7433   61.3848 C   0  0  0  0  0  0  0  0  0  0  0  0
  -49.4636   57.1598   60.7099 C   0  0  0  0  0  0  0  0  0  0  0  0
  -49.5462   57.1650   59.1910 C   0  0  0  0  0  0  0  0  0  0  0  0
  -48.4222   56.4147   58.5043 C   0  0  0  0  0  0  0  0  0  0  0  0
  -47.3996   57.3314   57.8930 C   0  0  0  0  0  0  0  0  0  0  0  0
 21 22  1  0  0  0
  4  5  2  0  0  0
 25 24  1  0  0  0
 25 26  2  0  0  0
 25 27  1  0  0  0
 25 29  1  0  0  0
 22 20  1  0  0  0
  3  5  1  0  0  0
  3  2  1  0  0  0
 20 19  1  0  0  0
 24 23  1  0  0  0
 19 18  1  0  0  0
 18 17  1  0  0  0
 27 28  1  0  0  0
 17 16  1  0  0  0
 29 30  1  0  0  0
 16 15  1  0  0  0
 34 35  1  0  0  0
 34 36  1  0  0  0
 15 14  1  0  0  0
 31 32  1  0  0  0
 31 33  1  0  0  0
 14 13  1  0  0  0
 37  1  1  0  0  0
 37 39  1  0  0  0
 13 12  1  0  0  0
 38 39  2  0  0  0
 12 11  1  0  0  0
 11 10  1  0  0  0
 10  9  1  0  0  0
  9  8  1  0  0  0
  8  7  1  0  0  0
  7  6  1  0  0  0
  6  5  1  0  0  0
  2  1  1  0  0  0
  1 23  1  0  0  0
 30 32  1  0  0  0
 32 35  1  0  0  0
 39 40  1  0  0  0
 40 41  1  0  0  0
 41 42  1  0  0  0
 42 43  1  0  0  0
 43 44  1  0  0  0
 44 45  1  0  0  0
 45 46  1  0  0  0
 46 47  1  0  0  0
 47 48  2  0  0  0
 48 49  1  0  0  0
 49 50  1  0  0  0
 50 51  1  0  0  0
 51 52  1  0  0  0
 52 53  1  0  0  0
 53 54  1  0  0  0
 54 55  1  0  0  0
 55 56  1  0  0  0
M  CHG 1  26  -1
M  END
> <minimizedAffinity>
-8.93999

> <CNNscore>
0.7964215279

> <CNNaffinity>
7.3624343872

> <CNN_VS>
5.8636012077

> <CNNaffinity_variance>
0.6109341383

$$$$
/media/chris/experiments/cd1a-new-docking/inputs/ligands/7sh4_ligand.pdb


 56 55  0  0  0  0  0  0  0  0999 V2000
  -38.8171   59.7207   65.1813 C   0  0  0  0  0  0  0  0  0  0  0  0
  -38.4446   58.2768   65.3657 C   0  0  0  0  0  0  0  0  0  0  0  0
  -38.7942   57.6624   64.1073 O   0  0  0  0  0  0  0  0  0  0  0  0
  -36.6736   57.5241   63.4123 O   0  0  0  0  0  0  0  0  0  0  0  0
  -37.8464   57.6226   63.1704 C   0  0  0  0  0  0  0  0  0  0  0  0
  -38.4452   57.5902   61.7937 C   0  0  0  0  0  0  0  0  0  0  0  0
  -38.9310   58.9412   61.2963 C   0  0  0  0  0  0  0  0  0  0  0  0
  -38.4380   59.2642   59.9016 C   0  0  0  0  0  0  0  0  0  0  0  0
  -37.1866   58.5177   59.4988 C   0  0  0  0  0  0  0  0  0  0  0  0
  -37.3471   57.7447   58.2054 C   0  0  0  0  0  0  0  0  0  0  0  0
  -36.4349   56.5460   58.1126 C   0  0  0  0  0  0  0  0  0  0  0  0
  -36.3577   55.7647   59.3977 C   0  0  0  0  0  0  0  0  0  0  0  0
  -34.9572   55.3054   59.7379 C   0  0  0  0  0  0  0  0  0  0  0  0
  -33.9597   56.4456   59.7736 C   0  0  0  0  0  0  0  0  0  0  0  0
  -34.1821   57.4260   60.9061 C   0  0  0  0  0  0  0  0  0  0  0  0
  -33.4332   57.0698   62.1852 C   0  0  0  0  0  0  0  0  0  0  0  0
  -32.6695   58.2295   62.7953 C   0  0  0  0  0  0  0  0  0  0  0  0
  -31.8348   58.9960   61.7898 C   0  0  0  0  0  0  0  0  0  0  0  0
  -31.7897   60.4951   62.0507 C   0  0  0  0  0  0  0  0  0  0  0  0
  -30.4586   61.1338   61.6964 C   0  0  0  0  0  0  0  0  0  0  0  0
  -30.5545   62.7455   63.6274 C   0  0  0  0  0  0  0  0  0  0  0  0
  -30.3062   62.5745   62.1460 C   0  0  0  0  0  0  0  0  0  0  0  0
  -37.8311   60.6488   65.8431 C   0  0  0  0  0  0  0  0  0  0  0  0
  -37.2227   61.4804   64.8298 O   0  0  0  0  0  0  0  0  0  0  0  0
  -35.8475   61.0987   64.1053 P   0  0  0  0  0  0  0  0  0  0  0  0
  -35.0355   60.3053   65.0528 O   0  0  0  0  0  0  0  0  0  0  0  0
  -36.1701   60.5148   62.7810 O   0  0  0  0  0  0  0  0  0  0  0  0
  -36.6266   59.6678   62.9037 H   0  0  0  0  0  0  0  0  0  0  0  0
  -35.1001   62.4859   63.8600 O   0  0  0  0  0  0  0  0  0  0  0  0
  -34.2778   63.0559   64.8987 C   0  0  0  0  0  0  0  0  0  0  0  0
  -36.0869   64.6043   64.6300 O   0  0  0  0  0  0  0  0  0  0  0  0
  -35.0143   64.2282   65.4989 C   0  0  0  0  0  0  0  0  0  0  0  0
  -35.7355   64.7946   63.7462 H   0  0  0  0  0  0  0  0  0  0  0  0
  -36.9657   63.9303   66.8853 O   0  0  0  0  0  0  0  0  0  0  0  0
  -35.5439   63.9279   66.8806 C   0  0  0  0  0  0  0  0  0  0  0  0
  -37.2864   63.7359   67.7797 H   0  0  0  0  0  0  0  0  0  0  0  0
  -40.1756   59.9164   65.6973 O   0  0  0  0  0  0  0  0  0  0  0  0
  -40.9464   61.2745   64.0781 O   0  0  0  0  0  0  0  0  0  0  0  0
  -41.1051   60.3456   64.8223 C   0  0  0  0  0  0  0  0  0  0  0  0
  -42.3505   59.5159   64.8755 C   0  0  0  0  0  0  0  0  0  0  0  0
  -42.6047   58.9790   66.2804 C   0  0  0  0  0  0  0  0  0  0  0  0
  -43.9053   58.2048   66.4184 C   0  0  0  0  0  0  0  0  0  0  0  0
  -44.6408   58.0079   65.0978 C   0  0  0  0  0  0  0  0  0  0  0  0
  -46.1383   58.2366   65.1855 C   0  0  0  0  0  0  0  0  0  0  0  0
  -46.5696   59.2163   66.2806 C   0  0  0  0  0  0  0  0  0  0  0  0
  -47.9861   59.7759   66.1331 C   0  0  0  0  0  0  0  0  0  0  0  0
  -48.2186   60.3752   64.7785 C   0  0  0  0  0  0  0  0  0  0  0  0
  -48.9324   59.8548   63.7993 C   0  0  0  0  0  0  0  0  0  0  0  0
  -49.6646   58.5506   63.8373 C   0  0  0  0  0  0  0  0  0  0  0  0
  -50.8058   58.4938   62.8261 C   0  0  0  0  0  0  0  0  0  0  0  0
  -50.3432   58.5543   61.3808 C   0  0  0  0  0  0  0  0  0  0  0  0
  -50.5794   57.2666   60.6105 C   0  0  0  0  0  0  0  0  0  0  0  0
  -49.5942   57.0194   59.4800 C   0  0  0  0  0  0  0  0  0  0  0  0
  -48.2266   57.6398   59.7221 C   0  0  0  0  0  0  0  0  0  0  0  0
  -47.1343   57.1114   58.8135 C   0  0  0  0  0  0  0  0  0  0  0  0
  -47.6307   56.7959   57.4301 C   0  0  0  0  0  0  0  0  0  0  0  0
 21 22  1  0  0  0
  4  5  2  0  0  0
 25 24  1  0  0  0
 25 26  2  0  0  0
 25 27  1  0  0  0
 25 29  1  0  0  0
 22 20  1  0  0  0
  3  5  1  0  0  0
  3  2  1  0  0  0
 20 19  1  0  0  0
 24 23  1  0  0  0
 19 18  1  0  0  0
 18 17  1  0  0  0
 27 28  1  0  0  0
 17 16  1  0  0  0
 29 30  1  0  0  0
 16 15  1  0  0  0
 34 35  1  0  0  0
 34 36  1  0  0  0
 15 14  1  0  0  0
 31 32  1  0  0  0
 31 33  1  0  0  0
 14 13  1  0  0  0
 37  1  1  0  0  0
 37 39  1  0  0  0
 13 12  1  0  0  0
 38 39  2  0  0  0
 12 11  1  0  0  0
 11 10  1  0  0  0
 10  9  1  0  0  0
  9  8  1  0  0  0
  8  7  1  0  0  0
  7  6  1  0  0  0
  6  5  1  0  0  0
  2  1  1  0  0  0
  1 23  1  0  0  0
 30 32  1  0  0  0
 32 35  1  0  0  0
 39 40  1  0  0  0
 40 41  1  0  0  0
 41 42  1  0  0  0
 42 43  1  0  0  0
 43 44  1  0  0  0
 44 45  1  0  0  0
 45 46  1  0  0  0
 46 47  1  0  0  0
 47 48  2  0  0  0
 48 49  1  0  0  0
 49 50  1  0  0  0
 50 51  1  0  0  0
 51 52  1  0  0  0
 52 53  1  0  0  0
 53 54  1  0  0  0
 54 55  1  0  0  0
 55 56  1  0  0  0
M  CHG 1  26  -1
M  END
> <minimizedAffinity>
-8.72203

> <CNNscore>
0.7606530786

> <CNNaffinity>
7.5998930931

> <CNN_VS>
5.7808818817

> <CNNaffinity_variance>
0.7902665734

$$$$
/media/chris/experiments/cd1a-new-docking/inputs/ligands/7sh4_ligand.pdb


 56 55  0  0  0  0  0  0  0  0999 V2000
  -38.1821   58.3700   63.6309 C   0  0  0  0  0  0  0  0  0  0  0  0
  -39.6516   58.6822   63.6565 C   0  0  0  0  0  0  0  0  0  0  0  0
  -40.0881   58.2027   64.9460 O   0  0  0  0  0  0  0  0  0  0  0  0
  -41.1361   60.0350   65.6832 O   0  0  0  0  0  0  0  0  0  0  0  0
  -41.1076   58.8455   65.5161 C   0  0  0  0  0  0  0  0  0  0  0  0
  -42.2481   57.9107   65.7996 C   0  0  0  0  0  0  0  0  0  0  0  0
  -43.5817   58.6061   66.0145 C   0  0  0  0  0  0  0  0  0  0  0  0
  -44.7069   57.9737   65.2230 C   0  0  0  0  0  0  0  0  0  0  0  0
  -45.8906   57.5477   66.0614 C   0  0  0  0  0  0  0  0  0  0  0  0
  -46.7533   58.7118   66.5049 C   0  0  0  0  0  0  0  0  0  0  0  0
  -47.8203   59.0765   65.5018 C   0  0  0  0  0  0  0  0  0  0  0  0
  -49.1910   59.1882   66.1153 C   0  0  0  0  0  0  0  0  0  0  0  0
  -50.2883   58.6242   65.2401 C   0  0  0  0  0  0  0  0  0  0  0  0
  -49.8058   58.2791   63.8458 C   0  0  0  0  0  0  0  0  0  0  0  0
  -50.7312   58.7409   62.7396 C   0  0  0  0  0  0  0  0  0  0  0  0
  -50.9752   57.6908   61.6619 C   0  0  0  0  0  0  0  0  0  0  0  0
  -50.1133   57.8643   60.4261 C   0  0  0  0  0  0  0  0  0  0  0  0
  -49.5712   56.5583   59.8820 C   0  0  0  0  0  0  0  0  0  0  0  0
  -48.2191   56.6973   59.1965 C   0  0  0  0  0  0  0  0  0  0  0  0
  -47.6880   55.3925   58.6301 C   0  0  0  0  0  0  0  0  0  0  0  0
  -47.7714   56.7357   56.5030 C   0  0  0  0  0  0  0  0  0  0  0  0
  -47.3837   55.4227   57.1444 C   0  0  0  0  0  0  0  0  0  0  0  0
  -37.4826   58.8350   64.8824 C   0  0  0  0  0  0  0  0  0  0  0  0
  -37.7298   60.2483   65.0556 O   0  0  0  0  0  0  0  0  0  0  0  0
  -36.5550   61.3339   65.1119 P   0  0  0  0  0  0  0  0  0  0  0  0
  -37.0194   62.4687   65.9385 O   0  0  0  0  0  0  0  0  0  0  0  0
  -35.3024   60.6390   65.4952 O   0  0  0  0  0  0  0  0  0  0  0  0
  -35.3793   60.3126   66.4054 H   0  0  0  0  0  0  0  0  0  0  0  0
  -36.3880   61.8536   63.6136 O   0  0  0  0  0  0  0  0  0  0  0  0
  -36.1619   63.2547   63.3569 C   0  0  0  0  0  0  0  0  0  0  0  0
  -34.1078   63.8930   62.3005 O   0  0  0  0  0  0  0  0  0  0  0  0
  -34.6946   63.5443   63.5579 C   0  0  0  0  0  0  0  0  0  0  0  0
  -34.2655   63.1806   61.6614 H   0  0  0  0  0  0  0  0  0  0  0  0
  -35.6814   65.0387   65.1738 O   0  0  0  0  0  0  0  0  0  0  0  0
  -34.4585   64.6433   64.5658 C   0  0  0  0  0  0  0  0  0  0  0  0
  -35.5096   65.7441   65.8169 H   0  0  0  0  0  0  0  0  0  0  0  0
  -37.6022   58.9773   62.4288 O   0  0  0  0  0  0  0  0  0  0  0  0
  -38.8713   60.7584   61.9025 O   0  0  0  0  0  0  0  0  0  0  0  0
  -38.4369   59.6721   61.6323 C   0  0  0  0  0  0  0  0  0  0  0  0
  -38.7429   58.9372   60.3641 C   0  0  0  0  0  0  0  0  0  0  0  0
  -37.4804   58.3531   59.7381 C   0  0  0  0  0  0  0  0  0  0  0  0
  -37.5337   58.2526   58.2226 C   0  0  0  0  0  0  0  0  0  0  0  0
  -36.9116   56.9736   57.6740 C   0  0  0  0  0  0  0  0  0  0  0  0
  -36.4456   56.0053   58.7454 C   0  0  0  0  0  0  0  0  0  0  0  0
  -34.9247   55.8777   58.8701 C   0  0  0  0  0  0  0  0  0  0  0  0
  -34.3999   55.7099   60.2977 C   0  0  0  0  0  0  0  0  0  0  0  0
  -34.8508   56.8196   61.1995 C   0  0  0  0  0  0  0  0  0  0  0  0
  -34.1029   57.4978   62.0480 C   0  0  0  0  0  0  0  0  0  0  0  0
  -32.6394   57.3004   62.2877 C   0  0  0  0  0  0  0  0  0  0  0  0
  -31.9517   58.5736   62.7719 C   0  0  0  0  0  0  0  0  0  0  0  0
  -31.6589   59.5680   61.6620 C   0  0  0  0  0  0  0  0  0  0  0  0
  -30.4380   60.4328   61.9245 C   0  0  0  0  0  0  0  0  0  0  0  0
  -30.5613   61.8638   61.4279 C   0  0  0  0  0  0  0  0  0  0  0  0
  -29.7829   62.8654   62.2675 C   0  0  0  0  0  0  0  0  0  0  0  0
  -30.6486   63.8857   62.9797 C   0  0  0  0  0  0  0  0  0  0  0  0
  -30.8126   63.5883   64.4441 C   0  0  0  0  0  0  0  0  0  0  0  0
 21 22  1  0  0  0
  4  5  2  0  0  0
 25 24  1  0  0  0
 25 26  2  0  0  0
 25 27  1  0  0  0
 25 29  1  0  0  0
 22 20  1  0  0  0
  3  5  1  0  0  0
  3  2  1  0  0  0
 20 19  1  0  0  0
 24 23  1  0  0  0
 19 18  1  0  0  0
 18 17  1  0  0  0
 27 28  1  0  0  0
 17 16  1  0  0  0
 29 30  1  0  0  0
 16 15  1  0  0  0
 34 35  1  0  0  0
 34 36  1  0  0  0
 15 14  1  0  0  0
 31 32  1  0  0  0
 31 33  1  0  0  0
 14 13  1  0  0  0
 37  1  1  0  0  0
 37 39  1  0  0  0
 13 12  1  0  0  0
 38 39  2  0  0  0
 12 11  1  0  0  0
 11 10  1  0  0  0
 10  9  1  0  0  0
  9  8  1  0  0  0
  8  7  1  0  0  0
  7  6  1  0  0  0
  6  5  1  0  0  0
  2  1  1  0  0  0
  1 23  1  0  0  0
 30 32  1  0  0  0
 32 35  1  0  0  0
 39 40  1  0  0  0
 40 41  1  0  0  0
 41 42  1  0  0  0
 42 43  1  0  0  0
 43 44  1  0  0  0
 44 45  1  0  0  0
 45 46  1  0  0  0
 46 47  1  0  0  0
 47 48  2  0  0  0
 48 49  1  0  0  0
 49 50  1  0  0  0
 50 51  1  0  0  0
 51 52  1  0  0  0
 52 53  1  0  0  0
 53 54  1  0  0  0
 54 55  1  0  0  0
 55 56  1  0  0  0
M  CHG 1  26  -1
M  END
> <minimizedAffinity>
-8.38291

> <CNNscore>
0.7549736500

> <CNNaffinity>
7.3491706848

> <CNN_VS>
5.5484304428

> <CNNaffinity_variance>
0.4847479761

$$$$
/media/chris/experiments/cd1a-new-docking/inputs/ligands/7sh4_ligand.pdb


 56 55  0  0  0  0  0  0  0  0999 V2000
  -37.3050   60.1973   64.0354 C   0  0  0  0  0  0  0  0  0  0  0  0
  -38.1884   60.6904   65.1463 C   0  0  0  0  0  0  0  0  0  0  0  0
  -39.2491   59.7136   65.2088 O   0  0  0  0  0  0  0  0  0  0  0  0
  -40.8263   61.0522   64.3604 O   0  0  0  0  0  0  0  0  0  0  0  0
  -40.4977   60.1702   65.1072 C   0  0  0  0  0  0  0  0  0  0  0  0
  -41.4421   59.3589   65.9467 C   0  0  0  0  0  0  0  0  0  0  0  0
  -42.7851   59.0922   65.2881 C   0  0  0  0  0  0  0  0  0  0  0  0
  -43.7265   58.3043   66.1745 C   0  0  0  0  0  0  0  0  0  0  0  0
  -45.1261   58.1635   65.6205 C   0  0  0  0  0  0  0  0  0  0  0  0
  -45.8599   59.4853   65.5190 C   0  0  0  0  0  0  0  0  0  0  0  0
  -47.1563   59.3877   64.7524 C   0  0  0  0  0  0  0  0  0  0  0  0
  -48.3525   59.8109   65.5634 C   0  0  0  0  0  0  0  0  0  0  0  0
  -49.1858   58.6484   66.0557 C   0  0  0  0  0  0  0  0  0  0  0  0
  -50.5049   58.5209   65.3208 C   0  0  0  0  0  0  0  0  0  0  0  0
  -50.7598   59.6222   64.3131 C   0  0  0  0  0  0  0  0  0  0  0  0
  -51.3349   59.1266   62.9912 C   0  0  0  0  0  0  0  0  0  0  0  0
  -50.4037   58.2125   62.2182 C   0  0  0  0  0  0  0  0  0  0  0  0
  -51.0992   57.4333   61.1207 C   0  0  0  0  0  0  0  0  0  0  0  0
  -50.1528   56.5913   60.2765 C   0  0  0  0  0  0  0  0  0  0  0  0
  -49.6535   57.3022   59.0314 C   0  0  0  0  0  0  0  0  0  0  0  0
  -47.1528   57.5625   58.9100 C   0  0  0  0  0  0  0  0  0  0  0  0
  -48.3543   56.7584   58.4679 C   0  0  0  0  0  0  0  0  0  0  0  0
  -35.9100   60.7601   64.1291 C   0  0  0  0  0  0  0  0  0  0  0  0
  -35.6761   61.6160   62.9884 O   0  0  0  0  0  0  0  0  0  0  0  0
  -35.0873   63.0983   63.1225 P   0  0  0  0  0  0  0  0  0  0  0  0
  -33.9932   63.2471   62.1389 O   0  0  0  0  0  0  0  0  0  0  0  0
  -36.2220   64.0517   63.0754 O   0  0  0  0  0  0  0  0  0  0  0  0
  -36.6285   64.0273   62.1951 H   0  0  0  0  0  0  0  0  0  0  0  0
  -34.4486   63.1687   64.5819 O   0  0  0  0  0  0  0  0  0  0  0  0
  -34.6214   64.3515   65.3889 C   0  0  0  0  0  0  0  0  0  0  0  0
  -36.8852   64.0404   66.1107 O   0  0  0  0  0  0  0  0  0  0  0  0
  -35.5236   64.0082   66.5488 C   0  0  0  0  0  0  0  0  0  0  0  0
  -37.0812   64.9096   65.7274 H   0  0  0  0  0  0  0  0  0  0  0  0
  -33.8028   62.4083   67.0942 O   0  0  0  0  0  0  0  0  0  0  0  0
  -35.2009   62.6608   67.1488 C   0  0  0  0  0  0  0  0  0  0  0  0
  -33.6156   61.5399   67.4835 H   0  0  0  0  0  0  0  0  0  0  0  0
  -37.9399   60.5334   62.7571 O   0  0  0  0  0  0  0  0  0  0  0  0
  -39.5734   59.4546   61.6490 O   0  0  0  0  0  0  0  0  0  0  0  0
  -38.4379   59.5112   62.0353 C   0  0  0  0  0  0  0  0  0  0  0  0
  -37.4034   58.4650   61.7572 C   0  0  0  0  0  0  0  0  0  0  0  0
  -37.6751   57.7468   60.4392 C   0  0  0  0  0  0  0  0  0  0  0  0
  -37.2455   58.5308   59.2102 C   0  0  0  0  0  0  0  0  0  0  0  0
  -37.3163   57.7257   57.9177 C   0  0  0  0  0  0  0  0  0  0  0  0
  -36.3555   56.5522   57.8685 C   0  0  0  0  0  0  0  0  0  0  0  0
  -34.8747   56.9419   57.8573 C   0  0  0  0  0  0  0  0  0  0  0  0
  -33.9591   56.0468   58.6952 C   0  0  0  0  0  0  0  0  0  0  0  0
  -34.5386   55.7532   60.0465 C   0  0  0  0  0  0  0  0  0  0  0  0
  -34.2563   56.3728   61.1759 C   0  0  0  0  0  0  0  0  0  0  0  0
  -33.2938   57.5059   61.3443 C   0  0  0  0  0  0  0  0  0  0  0  0
  -33.6581   58.4097   62.5185 C   0  0  0  0  0  0  0  0  0  0  0  0
  -32.6782   59.5491   62.7376 C   0  0  0  0  0  0  0  0  0  0  0  0
  -31.6102   59.6501   61.6622 C   0  0  0  0  0  0  0  0  0  0  0  0
  -30.2573   60.1297   62.1615 C   0  0  0  0  0  0  0  0  0  0  0  0
  -30.2911   61.5323   62.7493 C   0  0  0  0  0  0  0  0  0  0  0  0
  -30.4400   62.6348   61.7196 C   0  0  0  0  0  0  0  0  0  0  0  0
  -30.0635   63.9872   62.2571 C   0  0  0  0  0  0  0  0  0  0  0  0
 21 22  1  0  0  0
  4  5  2  0  0  0
 25 24  1  0  0  0
 25 26  2  0  0  0
 25 27  1  0  0  0
 25 29  1  0  0  0
 22 20  1  0  0  0
  3  5  1  0  0  0
  3  2  1  0  0  0
 20 19  1  0  0  0
 24 23  1  0  0  0
 19 18  1  0  0  0
 18 17  1  0  0  0
 27 28  1  0  0  0
 17 16  1  0  0  0
 29 30  1  0  0  0
 16 15  1  0  0  0
 34 35  1  0  0  0
 34 36  1  0  0  0
 15 14  1  0  0  0
 31 32  1  0  0  0
 31 33  1  0  0  0
 14 13  1  0  0  0
 37  1  1  0  0  0
 37 39  1  0  0  0
 13 12  1  0  0  0
 38 39  2  0  0  0
 12 11  1  0  0  0
 11 10  1  0  0  0
 10  9  1  0  0  0
  9  8  1  0  0  0
  8  7  1  0  0  0
  7  6  1  0  0  0
  6  5  1  0  0  0
  2  1  1  0  0  0
  1 23  1  0  0  0
 30 32  1  0  0  0
 32 35  1  0  0  0
 39 40  1  0  0  0
 40 41  1  0  0  0
 41 42  1  0  0  0
 42 43  1  0  0  0
 43 44  1  0  0  0
 44 45  1  0  0  0
 45 46  1  0  0  0
 46 47  1  0  0  0
 47 48  2  0  0  0
 48 49  1  0  0  0
 49 50  1  0  0  0
 50 51  1  0  0  0
 51 52  1  0  0  0
 52 53  1  0  0  0
 53 54  1  0  0  0
 54 55  1  0  0  0
 55 56  1  0  0  0
M  CHG 1  26  -1
M  END
> <minimizedAffinity>
-8.62436

> <CNNscore>
0.6388028860

> <CNNaffinity>
7.3780350685

> <CNN_VS>
4.7131099701

> <CNNaffinity_variance>
0.6235305667

$$$$
/media/chris/experiments/cd1a-new-docking/inputs/ligands/7sh4_ligand.pdb


 56 55  0  0  0  0  0  0  0  0999 V2000
  -37.2813   60.4140   64.7750 C   0  0  0  0  0  0  0  0  0  0  0  0
  -38.1016   60.2842   66.0272 C   0  0  0  0  0  0  0  0  0  0  0  0
  -39.1647   59.3813   65.6563 O   0  0  0  0  0  0  0  0  0  0  0  0
  -40.6810   60.9703   66.0748 O   0  0  0  0  0  0  0  0  0  0  0  0
  -40.4100   59.8522   65.7282 C   0  0  0  0  0  0  0  0  0  0  0  0
  -41.3996   58.8517   65.2041 C   0  0  0  0  0  0  0  0  0  0  0  0
  -42.8509   59.2721   65.3639 C   0  0  0  0  0  0  0  0  0  0  0  0
  -43.4886   58.7125   66.6180 C   0  0  0  0  0  0  0  0  0  0  0  0
  -45.0003   58.7186   66.5997 C   0  0  0  0  0  0  0  0  0  0  0  0
  -45.5842   57.8310   65.5194 C   0  0  0  0  0  0  0  0  0  0  0  0
  -46.7846   58.4387   64.8357 C   0  0  0  0  0  0  0  0  0  0  0  0
  -48.0522   57.6607   65.0713 C   0  0  0  0  0  0  0  0  0  0  0  0
  -49.1030   58.4405   65.8302 C   0  0  0  0  0  0  0  0  0  0  0  0
  -50.4710   58.3626   65.1831 C   0  0  0  0  0  0  0  0  0  0  0  0
  -50.7083   59.4064   64.1119 C   0  0  0  0  0  0  0  0  0  0  0  0
  -51.3008   58.8445   62.8247 C   0  0  0  0  0  0  0  0  0  0  0  0
  -50.3867   57.8782   62.0960 C   0  0  0  0  0  0  0  0  0  0  0  0
  -50.9675   57.3659   60.7938 C   0  0  0  0  0  0  0  0  0  0  0  0
  -49.9194   57.0904   59.7248 C   0  0  0  0  0  0  0  0  0  0  0  0
  -48.5843   57.7607   59.9957 C   0  0  0  0  0  0  0  0  0  0  0  0
  -47.2234   56.2217   58.5414 C   0  0  0  0  0  0  0  0  0  0  0  0
  -47.5797   57.6550   58.8641 C   0  0  0  0  0  0  0  0  0  0  0  0
  -35.8840   60.9008   65.0615 C   0  0  0  0  0  0  0  0  0  0  0  0
  -35.8617   61.5045   66.3743 O   0  0  0  0  0  0  0  0  0  0  0  0
  -35.3593   63.0022   66.6319 P   0  0  0  0  0  0  0  0  0  0  0  0
  -36.5491   63.8538   66.8461 O   0  0  0  0  0  0  0  0  0  0  0  0
  -34.3124   62.9638   67.6813 O   0  0  0  0  0  0  0  0  0  0  0  0
  -34.7084   62.6892   68.5231 H   0  0  0  0  0  0  0  0  0  0  0  0
  -34.6693   63.4567   65.2680 O   0  0  0  0  0  0  0  0  0  0  0  0
  -33.2344   63.4025   65.1323 C   0  0  0  0  0  0  0  0  0  0  0  0
  -31.7051   64.9138   66.1904 O   0  0  0  0  0  0  0  0  0  0  0  0
  -32.6998   64.8132   65.1670 C   0  0  0  0  0  0  0  0  0  0  0  0
  -32.0844   64.6354   67.0386 H   0  0  0  0  0  0  0  0  0  0  0  0
  -32.5721   66.5495   63.4974 O   0  0  0  0  0  0  0  0  0  0  0  0
  -32.1259   65.2432   63.8383 C   0  0  0  0  0  0  0  0  0  0  0  0
  -32.1936   66.8076   62.6425 H   0  0  0  0  0  0  0  0  0  0  0  0
  -37.9874   61.3075   63.8514 O   0  0  0  0  0  0  0  0  0  0  0  0
  -37.1419   61.0573   61.7819 O   0  0  0  0  0  0  0  0  0  0  0  0
  -38.0468   60.9280   62.5605 C   0  0  0  0  0  0  0  0  0  0  0  0
  -39.3670   60.3100   62.2180 C   0  0  0  0  0  0  0  0  0  0  0  0
  -39.2125   59.1982   61.1852 C   0  0  0  0  0  0  0  0  0  0  0  0
  -38.3987   58.0114   61.6741 C   0  0  0  0  0  0  0  0  0  0  0  0
  -37.4979   57.4070   60.6032 C   0  0  0  0  0  0  0  0  0  0  0  0
  -37.1591   58.3600   59.4720 C   0  0  0  0  0  0  0  0  0  0  0  0
  -37.2152   57.7353   58.0751 C   0  0  0  0  0  0  0  0  0  0  0  0
  -36.3189   56.5118   57.8720 C   0  0  0  0  0  0  0  0  0  0  0  0
  -34.8630   56.8696   57.8852 C   0  0  0  0  0  0  0  0  0  0  0  0
  -33.9610   56.4667   58.7589 C   0  0  0  0  0  0  0  0  0  0  0  0
  -34.2044   55.5618   59.9252 C   0  0  0  0  0  0  0  0  0  0  0  0
  -33.9781   56.2614   61.2622 C   0  0  0  0  0  0  0  0  0  0  0  0
  -33.5256   57.7047   61.1261 C   0  0  0  0  0  0  0  0  0  0  0  0
  -32.4380   58.0983   62.1106 C   0  0  0  0  0  0  0  0  0  0  0  0
  -32.2628   59.5973   62.2894 C   0  0  0  0  0  0  0  0  0  0  0  0
  -30.9890   60.1377   61.6576 C   0  0  0  0  0  0  0  0  0  0  0  0
  -29.9431   60.5911   62.6568 C   0  0  0  0  0  0  0  0  0  0  0  0
  -28.5475   60.5418   62.1004 C   0  0  0  0  0  0  0  0  0  0  0  0
 21 22  1  0  0  0
  4  5  2  0  0  0
 25 24  1  0  0  0
 25 26  2  0  0  0
 25 27  1  0  0  0
 25 29  1  0  0  0
 22 20  1  0  0  0
  3  5  1  0  0  0
  3  2  1  0  0  0
 20 19  1  0  0  0
 24 23  1  0  0  0
 19 18  1  0  0  0
 18 17  1  0  0  0
 27 28  1  0  0  0
 17 16  1  0  0  0
 29 30  1  0  0  0
 16 15  1  0  0  0
 34 35  1  0  0  0
 34 36  1  0  0  0
 15 14  1  0  0  0
 31 32  1  0  0  0
 31 33  1  0  0  0
 14 13  1  0  0  0
 37  1  1  0  0  0
 37 39  1  0  0  0
 13 12  1  0  0  0
 38 39  2  0  0  0
 12 11  1  0  0  0
 11 10  1  0  0  0
 10  9  1  0  0  0
  9  8  1  0  0  0
  8  7  1  0  0  0
  7  6  1  0  0  0
  6  5  1  0  0  0
  2  1  1  0  0  0
  1 23  1  0  0  0
 30 32  1  0  0  0
 32 35  1  0  0  0
 39 40  1  0  0  0
 40 41  1  0  0  0
 41 42  1  0  0  0
 42 43  1  0  0  0
 43 44  1  0  0  0
 44 45  1  0  0  0
 45 46  1  0  0  0
 46 47  1  0  0  0
 47 48  2  0  0  0
 48 49  1  0  0  0
 49 50  1  0  0  0
 50 51  1  0  0  0
 51 52  1  0  0  0
 52 53  1  0  0  0
 53 54  1  0  0  0
 54 55  1  0  0  0
 55 56  1  0  0  0
M  CHG 1  26  -1
M  END
> <minimizedAffinity>
-9.40502

> <CNNscore>
0.4916326404

> <CNNaffinity>
7.1445198059

> <CNN_VS>
3.5124790668

> <CNNaffinity_variance>
0.5334510207

$$$$
/media/chris/experiments/cd1a-new-docking/inputs/ligands/7sh4_ligand.pdb


 56 55  0  0  0  0  0  0  0  0999 V2000
  -35.2176   57.7362   62.9178 C   0  0  0  0  0  0  0  0  0  0  0  0
  -36.2750   57.3325   63.9060 C   0  0  0  0  0  0  0  0  0  0  0  0
  -36.5640   58.5501   64.6251 O   0  0  0  0  0  0  0  0  0  0  0  0
  -38.5921   57.9599   65.3583 O   0  0  0  0  0  0  0  0  0  0  0  0
  -37.8424   58.7895   64.9186 C   0  0  0  0  0  0  0  0  0  0  0  0
  -38.1754   60.2436   64.7470 C   0  0  0  0  0  0  0  0  0  0  0  0
  -38.6125   60.6184   63.3410 C   0  0  0  0  0  0  0  0  0  0  0  0
  -40.0058   60.1269   63.0096 C   0  0  0  0  0  0  0  0  0  0  0  0
  -41.0715   60.5875   63.9779 C   0  0  0  0  0  0  0  0  0  0  0  0
  -41.7316   59.4442   64.7217 C   0  0  0  0  0  0  0  0  0  0  0  0
  -41.5619   59.5329   66.2187 C   0  0  0  0  0  0  0  0  0  0  0  0
  -42.7216   58.9445   66.9781 C   0  0  0  0  0  0  0  0  0  0  0  0
  -42.8672   57.4508   66.7892 C   0  0  0  0  0  0  0  0  0  0  0  0
  -43.9581   57.0892   65.8016 C   0  0  0  0  0  0  0  0  0  0  0  0
  -45.2951   57.7379   66.0928 C   0  0  0  0  0  0  0  0  0  0  0  0
  -46.2316   56.8714   66.9270 C   0  0  0  0  0  0  0  0  0  0  0  0
  -47.3391   56.2135   66.1264 C   0  0  0  0  0  0  0  0  0  0  0  0
  -48.1176   57.1858   65.2638 C   0  0  0  0  0  0  0  0  0  0  0  0
  -49.3633   57.7399   65.9410 C   0  0  0  0  0  0  0  0  0  0  0  0
  -49.4394   59.2562   65.9264 C   0  0  0  0  0  0  0  0  0  0  0  0
  -48.2604   60.7532   64.2818 C   0  0  0  0  0  0  0  0  0  0  0  0
  -48.1431   59.9533   65.5593 C   0  0  0  0  0  0  0  0  0  0  0  0
  -34.1558   58.6016   63.5466 C   0  0  0  0  0  0  0  0  0  0  0  0
  -34.1760   59.8989   62.9102 O   0  0  0  0  0  0  0  0  0  0  0  0
  -34.3968   61.2602   63.7226 P   0  0  0  0  0  0  0  0  0  0  0  0
  -35.3535   62.0955   62.9650 O   0  0  0  0  0  0  0  0  0  0  0  0
  -34.7130   60.9124   65.1289 O   0  0  0  0  0  0  0  0  0  0  0  0
  -35.5714   60.4623   65.1655 H   0  0  0  0  0  0  0  0  0  0  0  0
  -32.9822   61.9961   63.7061 O   0  0  0  0  0  0  0  0  0  0  0  0
  -32.9181   63.4345   63.6230 C   0  0  0  0  0  0  0  0  0  0  0  0
  -31.7561   63.9509   65.6541 O   0  0  0  0  0  0  0  0  0  0  0  0
  -33.0368   63.9974   65.0180 C   0  0  0  0  0  0  0  0  0  0  0  0
  -31.4229   63.0400   65.6442 H   0  0  0  0  0  0  0  0  0  0  0  0
  -34.9465   65.4281   64.6654 O   0  0  0  0  0  0  0  0  0  0  0  0
  -33.5709   65.4096   65.0245 C   0  0  0  0  0  0  0  0  0  0  0  0
  -35.2710   66.3421   64.6752 H   0  0  0  0  0  0  0  0  0  0  0  0
  -35.8712   58.4123   61.7928 O   0  0  0  0  0  0  0  0  0  0  0  0
  -35.1100   57.1586   60.0872 O   0  0  0  0  0  0  0  0  0  0  0  0
  -36.0155   57.7049   60.6558 C   0  0  0  0  0  0  0  0  0  0  0  0
  -37.4403   57.6661   60.1968 C   0  0  0  0  0  0  0  0  0  0  0  0
  -38.0063   59.0704   60.0116 C   0  0  0  0  0  0  0  0  0  0  0  0
  -39.1470   59.1480   59.0103 C   0  0  0  0  0  0  0  0  0  0  0  0
  -40.1813   60.2164   59.3458 C   0  0  0  0  0  0  0  0  0  0  0  0
  -41.6020   59.8398   58.9684 C   0  0  0  0  0  0  0  0  0  0  0  0
  -41.7489   59.2280   57.5723 C   0  0  0  0  0  0  0  0  0  0  0  0
  -43.1513   58.7227   57.2266 C   0  0  0  0  0  0  0  0  0  0  0  0
  -43.9457   58.3793   58.4509 C   0  0  0  0  0  0  0  0  0  0  0  0
  -45.1873   57.9358   58.4851 C   0  0  0  0  0  0  0  0  0  0  0  0
  -46.0662   57.6802   57.3017 C   0  0  0  0  0  0  0  0  0  0  0  0
  -47.4589   57.2030   57.7029 C   0  0  0  0  0  0  0  0  0  0  0  0
  -47.6058   56.9333   59.1902 C   0  0  0  0  0  0  0  0  0  0  0  0
  -49.0208   57.1257   59.7080 C   0  0  0  0  0  0  0  0  0  0  0  0
  -49.2239   58.3865   60.5320 C   0  0  0  0  0  0  0  0  0  0  0  0
  -49.6099   58.1098   61.9771 C   0  0  0  0  0  0  0  0  0  0  0  0
  -51.0971   58.2085   62.2535 C   0  0  0  0  0  0  0  0  0  0  0  0
  -51.4787   59.4958   62.9295 C   0  0  0  0  0  0  0  0  0  0  0  0
 21 22  1  0  0  0
  4  5  2  0  0  0
 25 24  1  0  0  0
 25 26  2  0  0  0
 25 27  1  0  0  0
 25 29  1  0  0  0
 22 20  1  0  0  0
  3  5  1  0  0  0
  3  2  1  0  0  0
 20 19  1  0  0  0
 24 23  1  0  0  0
 19 18  1  0  0  0
 18 17  1  0  0  0
 27 28  1  0  0  0
 17 16  1  0  0  0
 29 30  1  0  0  0
 16 15  1  0  0  0
 34 35  1  0  0  0
 34 36  1  0  0  0
 15 14  1  0  0  0
 31 32  1  0  0  0
 31 33  1  0  0  0
 14 13  1  0  0  0
 37  1  1  0  0  0
 37 39  1  0  0  0
 13 12  1  0  0  0
 38 39  2  0  0  0
 12 11  1  0  0  0
 11 10  1  0  0  0
 10  9  1  0  0  0
  9  8  1  0  0  0
  8  7  1  0  0  0
  7  6  1  0  0  0
  6  5  1  0  0  0
  2  1  1  0  0  0
  1 23  1  0  0  0
 30 32  1  0  0  0
 32 35  1  0  0  0
 39 40  1  0  0  0
 40 41  1  0  0  0
 41 42  1  0  0  0
 42 43  1  0  0  0
 43 44  1  0  0  0
 44 45  1  0  0  0
 45 46  1  0  0  0
 46 47  1  0  0  0
 47 48  2  0  0  0
 48 49  1  0  0  0
 49 50  1  0  0  0
 50 51  1  0  0  0
 51 52  1  0  0  0
 52 53  1  0  0  0
 53 54  1  0  0  0
 54 55  1  0  0  0
 55 56  1  0  0  0
M  CHG 1  26  -1
M  END
> <minimizedAffinity>
-7.74679

> <CNNscore>
0.4863626063

> <CNNaffinity>
7.3984489441

> <CNN_VS>
3.5983288288

> <CNNaffinity_variance>
0.7443461418

$$$$
/media/chris/experiments/cd1a-new-docking/inputs/ligands/7sh4_ligand.pdb


 56 55  0  0  0  0  0  0  0  0999 V2000
  -38.2435   60.8559   63.7656 C   0  0  0  0  0  0  0  0  0  0  0  0
  -37.6792   60.7433   62.3776 C   0  0  0  0  0  0  0  0  0  0  0  0
  -38.8328   60.4762   61.5523 O   0  0  0  0  0  0  0  0  0  0  0  0
  -39.1858   60.3228   59.3498 O   0  0  0  0  0  0  0  0  0  0  0  0
  -38.6042   59.9699   60.3402 C   0  0  0  0  0  0  0  0  0  0  0  0
  -37.4525   59.0066   60.3628 C   0  0  0  0  0  0  0  0  0  0  0  0
  -37.8459   57.5765   60.6918 C   0  0  0  0  0  0  0  0  0  0  0  0
  -37.5418   57.2001   62.1266 C   0  0  0  0  0  0  0  0  0  0  0  0
  -36.0713   57.2296   62.4761 C   0  0  0  0  0  0  0  0  0  0  0  0
  -35.8094   57.6623   63.9045 C   0  0  0  0  0  0  0  0  0  0  0  0
  -34.4637   58.3202   64.0887 C   0  0  0  0  0  0  0  0  0  0  0  0
  -33.8999   58.8752   62.8073 C   0  0  0  0  0  0  0  0  0  0  0  0
  -32.5894   58.2377   62.4021 C   0  0  0  0  0  0  0  0  0  0  0  0
  -31.5011   59.2571   62.1329 C   0  0  0  0  0  0  0  0  0  0  0  0
  -31.9884   60.6907   62.1128 C   0  0  0  0  0  0  0  0  0  0  0  0
  -31.1006   61.6543   62.8920 C   0  0  0  0  0  0  0  0  0  0  0  0
  -29.9710   62.2499   62.0737 C   0  0  0  0  0  0  0  0  0  0  0  0
  -30.0494   63.7576   61.9472 C   0  0  0  0  0  0  0  0  0  0  0  0
  -28.6888   64.4334   61.8503 C   0  0  0  0  0  0  0  0  0  0  0  0
  -28.7377   65.8088   61.2092 C   0  0  0  0  0  0  0  0  0  0  0  0
  -30.5017   67.5812   60.9217 C   0  0  0  0  0  0  0  0  0  0  0  0
  -30.0721   66.1713   60.5854 C   0  0  0  0  0  0  0  0  0  0  0  0
  -37.1675   60.8062   64.8199 C   0  0  0  0  0  0  0  0  0  0  0  0
  -37.2580   61.9973   65.6333 O   0  0  0  0  0  0  0  0  0  0  0  0
  -35.9749   62.7151   66.2661 P   0  0  0  0  0  0  0  0  0  0  0  0
  -36.4380   63.6095   67.3488 O   0  0  0  0  0  0  0  0  0  0  0  0
  -34.9721   61.6704   66.5850 O   0  0  0  0  0  0  0  0  0  0  0  0
  -35.3111   61.1027   67.2947 H   0  0  0  0  0  0  0  0  0  0  0  0
  -35.3808   63.6242   65.0984 O   0  0  0  0  0  0  0  0  0  0  0  0
  -34.9646   64.9765   65.3777 C   0  0  0  0  0  0  0  0  0  0  0  0
  -33.5853   66.5937   64.2711 O   0  0  0  0  0  0  0  0  0  0  0  0
  -33.6504   65.2238   64.6786 C   0  0  0  0  0  0  0  0  0  0  0  0
  -34.3515   66.8022   63.7142 H   0  0  0  0  0  0  0  0  0  0  0  0
  -32.4794   63.5040   65.8990 O   0  0  0  0  0  0  0  0  0  0  0  0
  -32.4639   64.8815   65.5474 C   0  0  0  0  0  0  0  0  0  0  0  0
  -31.7110   63.3038   66.4559 H   0  0  0  0  0  0  0  0  0  0  0  0
  -39.2321   59.7888   63.9499 O   0  0  0  0  0  0  0  0  0  0  0  0
  -40.9331   61.1818   64.4254 O   0  0  0  0  0  0  0  0  0  0  0  0
  -40.3840   60.1229   64.5626 C   0  0  0  0  0  0  0  0  0  0  0  0
  -40.9065   59.0110   65.4188 C   0  0  0  0  0  0  0  0  0  0  0  0
  -42.2406   59.3791   66.0601 C   0  0  0  0  0  0  0  0  0  0  0  0
  -43.3879   58.4643   65.6642 C   0  0  0  0  0  0  0  0  0  0  0  0
  -44.6007   58.5755   66.5810 C   0  0  0  0  0  0  0  0  0  0  0  0
  -45.8870   58.9364   65.8614 C   0  0  0  0  0  0  0  0  0  0  0  0
  -47.1520   58.8052   66.7144 C   0  0  0  0  0  0  0  0  0  0  0  0
  -48.3443   59.6413   66.2445 C   0  0  0  0  0  0  0  0  0  0  0  0
  -48.0917   60.2886   64.9159 C   0  0  0  0  0  0  0  0  0  0  0  0
  -48.9602   60.4372   63.9346 C   0  0  0  0  0  0  0  0  0  0  0  0
  -50.3877   59.9891   63.9439 C   0  0  0  0  0  0  0  0  0  0  0  0
  -50.5680   58.6064   63.3243 C   0  0  0  0  0  0  0  0  0  0  0  0
  -50.9929   58.6422   61.8667 C   0  0  0  0  0  0  0  0  0  0  0  0
  -50.8880   57.2978   61.1677 C   0  0  0  0  0  0  0  0  0  0  0  0
  -50.1682   57.3382   59.8298 C   0  0  0  0  0  0  0  0  0  0  0  0
  -48.7797   56.7182   59.8702 C   0  0  0  0  0  0  0  0  0  0  0  0
  -47.7376   57.4738   59.0696 C   0  0  0  0  0  0  0  0  0  0  0  0
  -47.6686   57.0262   57.6362 C   0  0  0  0  0  0  0  0  0  0  0  0
 21 22  1  0  0  0
  4  5  2  0  0  0
 25 24  1  0  0  0
 25 26  2  0  0  0
 25 27  1  0  0  0
 25 29  1  0  0  0
 22 20  1  0  0  0
  3  5  1  0  0  0
  3  2  1  0  0  0
 20 19  1  0  0  0
 24 23  1  0  0  0
 19 18  1  0  0  0
 18 17  1  0  0  0
 27 28  1  0  0  0
 17 16  1  0  0  0
 29 30  1  0  0  0
 16 15  1  0  0  0
 34 35  1  0  0  0
 34 36  1  0  0  0
 15 14  1  0  0  0
 31 32  1  0  0  0
 31 33  1  0  0  0
 14 13  1  0  0  0
 37  1  1  0  0  0
 37 39  1  0  0  0
 13 12  1  0  0  0
 38 39  2  0  0  0
 12 11  1  0  0  0
 11 10  1  0  0  0
 10  9  1  0  0  0
  9  8  1  0  0  0
  8  7  1  0  0  0
  7  6  1  0  0  0
  6  5  1  0  0  0
  2  1  1  0  0  0
  1 23  1  0  0  0
 30 32  1  0  0  0
 32 35  1  0  0  0
 39 40  1  0  0  0
 40 41  1  0  0  0
 41 42  1  0  0  0
 42 43  1  0  0  0
 43 44  1  0  0  0
 44 45  1  0  0  0
 45 46  1  0  0  0
 46 47  1  0  0  0
 47 48  2  0  0  0
 48 49  1  0  0  0
 49 50  1  0  0  0
 50 51  1  0  0  0
 51 52  1  0  0  0
 52 53  1  0  0  0
 53 54  1  0  0  0
 54 55  1  0  0  0
 55 56  1  0  0  0
M  CHG 1  26  -1
M  END
> <minimizedAffinity>
-8.42498

> <CNNscore>
0.4616806209

> <CNNaffinity>
6.9721322060

> <CNN_VS>
3.2188982964

> <CNNaffinity_variance>
0.4187895656

$$$$
/media/chris/experiments/cd1a-new-docking/inputs/ligands/7sh4_ligand.pdb


 56 55  0  0  0  0  0  0  0  0999 V2000
  -38.4647   59.8926   64.7732 C   0  0  0  0  0  0  0  0  0  0  0  0
  -38.2203   58.9519   63.6273 C   0  0  0  0  0  0  0  0  0  0  0  0
  -39.4557   58.9814   62.8817 O   0  0  0  0  0  0  0  0  0  0  0  0
  -40.0289   60.4644   61.3097 O   0  0  0  0  0  0  0  0  0  0  0  0
  -39.4072   59.4950   61.6522 C   0  0  0  0  0  0  0  0  0  0  0  0
  -38.3901   58.7839   60.8068 C   0  0  0  0  0  0  0  0  0  0  0  0
  -38.3491   59.2506   59.3614 C   0  0  0  0  0  0  0  0  0  0  0  0
  -37.1321   58.7442   58.6163 C   0  0  0  0  0  0  0  0  0  0  0  0
  -37.3780   57.4899   57.8089 C   0  0  0  0  0  0  0  0  0  0  0  0
  -36.2364   56.4970   57.8927 C   0  0  0  0  0  0  0  0  0  0  0  0
  -36.3324   55.5809   59.0882 C   0  0  0  0  0  0  0  0  0  0  0  0
  -34.9969   55.3059   59.7273 C   0  0  0  0  0  0  0  0  0  0  0  0
  -34.2756   56.5584   60.1735 C   0  0  0  0  0  0  0  0  0  0  0  0
  -34.9771   57.2618   61.3177 C   0  0  0  0  0  0  0  0  0  0  0  0
  -34.0826   57.5560   62.5037 C   0  0  0  0  0  0  0  0  0  0  0  0
  -34.2396   58.9670   63.0588 C   0  0  0  0  0  0  0  0  0  0  0  0
  -33.0393   59.8617   62.8161 C   0  0  0  0  0  0  0  0  0  0  0  0
  -31.9275   59.1812   62.0439 C   0  0  0  0  0  0  0  0  0  0  0  0
  -30.5631   59.8263   62.2426 C   0  0  0  0  0  0  0  0  0  0  0  0
  -30.2729   60.9484   61.2620 C   0  0  0  0  0  0  0  0  0  0  0  0
  -30.1960   62.4463   63.2834 C   0  0  0  0  0  0  0  0  0  0  0  0
  -30.5067   62.3444   61.8074 C   0  0  0  0  0  0  0  0  0  0  0  0
  -37.1805   60.3340   65.4271 C   0  0  0  0  0  0  0  0  0  0  0  0
  -37.2881   61.7351   65.7647 O   0  0  0  0  0  0  0  0  0  0  0  0
  -36.0524   62.5927   66.3120 P   0  0  0  0  0  0  0  0  0  0  0  0
  -36.5290   63.4075   67.4502 O   0  0  0  0  0  0  0  0  0  0  0  0
  -34.9095   61.6722   66.5240 O   0  0  0  0  0  0  0  0  0  0  0  0
  -35.1193   61.0566   67.2436 H   0  0  0  0  0  0  0  0  0  0  0  0
  -35.6683   63.5852   65.1244 O   0  0  0  0  0  0  0  0  0  0  0  0
  -34.7750   64.6909   65.3686 C   0  0  0  0  0  0  0  0  0  0  0  0
  -32.6291   63.6985   65.7593 O   0  0  0  0  0  0  0  0  0  0  0  0
  -33.4297   64.3561   64.7727 C   0  0  0  0  0  0  0  0  0  0  0  0
  -32.5612   64.2600   66.5473 H   0  0  0  0  0  0  0  0  0  0  0  0
  -34.5005   64.0385   62.6347 O   0  0  0  0  0  0  0  0  0  0  0  0
  -33.5463   63.4951   63.5378 C   0  0  0  0  0  0  0  0  0  0  0  0
  -34.5611   63.4727   61.8492 H   0  0  0  0  0  0  0  0  0  0  0  0
  -39.3602   59.2331   65.7287 O   0  0  0  0  0  0  0  0  0  0  0  0
  -40.7093   60.9789   66.1674 O   0  0  0  0  0  0  0  0  0  0  0  0
  -40.5590   59.8095   65.9400 C   0  0  0  0  0  0  0  0  0  0  0  0
  -41.6810   58.8230   65.8390 C   0  0  0  0  0  0  0  0  0  0  0  0
  -42.8137   59.3524   64.9653 C   0  0  0  0  0  0  0  0  0  0  0  0
  -44.1968   59.1582   65.5648 C   0  0  0  0  0  0  0  0  0  0  0  0
  -44.9821   58.0168   64.9292 C   0  0  0  0  0  0  0  0  0  0  0  0
  -46.4736   58.0656   65.2046 C   0  0  0  0  0  0  0  0  0  0  0  0
  -47.1030   59.4538   65.0570 C   0  0  0  0  0  0  0  0  0  0  0  0
  -48.3426   59.7020   65.9191 C   0  0  0  0  0  0  0  0  0  0  0  0
  -49.3161   58.5639   65.8498 C   0  0  0  0  0  0  0  0  0  0  0  0
  -50.4609   58.5457   65.1954 C   0  0  0  0  0  0  0  0  0  0  0  0
  -51.0292   59.6638   64.3797 C   0  0  0  0  0  0  0  0  0  0  0  0
  -51.3865   59.2272   62.9620 C   0  0  0  0  0  0  0  0  0  0  0  0
  -50.6027   58.0187   62.4806 C   0  0  0  0  0  0  0  0  0  0  0  0
  -51.1066   57.4493   61.1657 C   0  0  0  0  0  0  0  0  0  0  0  0
  -50.0807   56.6304   60.3998 C   0  0  0  0  0  0  0  0  0  0  0  0
  -49.2226   57.4619   59.4584 C   0  0  0  0  0  0  0  0  0  0  0  0
  -47.7990   56.9628   59.3101 C   0  0  0  0  0  0  0  0  0  0  0  0
  -47.7223   55.6077   58.6639 C   0  0  0  0  0  0  0  0  0  0  0  0
 21 22  1  0  0  0
  4  5  2  0  0  0
 25 24  1  0  0  0
 25 26  2  0  0  0
 25 27  1  0  0  0
 25 29  1  0  0  0
 22 20  1  0  0  0
  3  5  1  0  0  0
  3  2  1  0  0  0
 20 19  1  0  0  0
 24 23  1  0  0  0
 19 18  1  0  0  0
 18 17  1  0  0  0
 27 28  1  0  0  0
 17 16  1  0  0  0
 29 30  1  0  0  0
 16 15  1  0  0  0
 34 35  1  0  0  0
 34 36  1  0  0  0
 15 14  1  0  0  0
 31 32  1  0  0  0
 31 33  1  0  0  0
 14 13  1  0  0  0
 37  1  1  0  0  0
 37 39  1  0  0  0
 13 12  1  0  0  0
 38 39  2  0  0  0
 12 11  1  0  0  0
 11 10  1  0  0  0
 10  9  1  0  0  0
  9  8  1  0  0  0
  8  7  1  0  0  0
  7  6  1  0  0  0
  6  5  1  0  0  0
  2  1  1  0  0  0
  1 23  1  0  0  0
 30 32  1  0  0  0
 32 35  1  0  0  0
 39 40  1  0  0  0
 40 41  1  0  0  0
 41 42  1  0  0  0
 42 43  1  0  0  0
 43 44  1  0  0  0
 44 45  1  0  0  0
 45 46  1  0  0  0
 46 47  1  0  0  0
 47 48  2  0  0  0
 48 49  1  0  0  0
 49 50  1  0  0  0
 50 51  1  0  0  0
 51 52  1  0  0  0
 52 53  1  0  0  0
 53 54  1  0  0  0
 54 55  1  0  0  0
 55 56  1  0  0  0
M  CHG 1  26  -1
M  END
> <minimizedAffinity>
-8.75034

> <CNNscore>
0.4459728301

> <CNNaffinity>
7.0956678391

> <CNN_VS>
3.1644749641

> <CNNaffinity_variance>
0.8266986609

$$$$
/media/chris/experiments/cd1a-new-docking/inputs/ligands/7sh4_ligand.pdb


 56 55  0  0  0  0  0  0  0  0999 V2000
  -39.2132   60.0782   65.2863 C   0  0  0  0  0  0  0  0  0  0  0  0
  -40.5224   60.3719   65.9625 C   0  0  0  0  0  0  0  0  0  0  0  0
  -41.0821   59.0670   66.2217 O   0  0  0  0  0  0  0  0  0  0  0  0
  -42.6984   59.4890   67.7079 O   0  0  0  0  0  0  0  0  0  0  0  0
  -42.3412   59.0256   66.6585 C   0  0  0  0  0  0  0  0  0  0  0  0
  -43.2569   58.4437   65.6203 C   0  0  0  0  0  0  0  0  0  0  0  0
  -43.9184   57.1408   66.0364 C   0  0  0  0  0  0  0  0  0  0  0  0
  -45.3040   56.9732   65.4493 C   0  0  0  0  0  0  0  0  0  0  0  0
  -46.4126   56.9458   66.4768 C   0  0  0  0  0  0  0  0  0  0  0  0
  -46.9971   58.3157   66.7558 C   0  0  0  0  0  0  0  0  0  0  0  0
  -46.8880   59.2583   65.5822 C   0  0  0  0  0  0  0  0  0  0  0  0
  -48.2246   59.7650   65.1085 C   0  0  0  0  0  0  0  0  0  0  0  0
  -49.3957   59.0058   65.6919 C   0  0  0  0  0  0  0  0  0  0  0  0
  -50.4935   58.7538   64.6783 C   0  0  0  0  0  0  0  0  0  0  0  0
  -49.9906   58.3164   63.3185 C   0  0  0  0  0  0  0  0  0  0  0  0
  -51.0468   58.3809   62.2211 C   0  0  0  0  0  0  0  0  0  0  0  0
  -50.9441   57.2635   61.2007 C   0  0  0  0  0  0  0  0  0  0  0  0
  -50.3743   57.7131   59.8708 C   0  0  0  0  0  0  0  0  0  0  0  0
  -48.8653   57.5428   59.7646 C   0  0  0  0  0  0  0  0  0  0  0  0
  -48.4413   56.1642   59.2906 C   0  0  0  0  0  0  0  0  0  0  0  0
  -47.4932   55.1801   57.1768 C   0  0  0  0  0  0  0  0  0  0  0  0
  -47.2837   56.1582   58.3104 C   0  0  0  0  0  0  0  0  0  0  0  0
  -38.0346   60.4815   66.1349 C   0  0  0  0  0  0  0  0  0  0  0  0
  -37.3795   61.6105   65.5146 O   0  0  0  0  0  0  0  0  0  0  0  0
  -36.2738   62.4915   66.2651 P   0  0  0  0  0  0  0  0  0  0  0  0
  -36.5027   63.9096   65.9140 O   0  0  0  0  0  0  0  0  0  0  0  0
  -36.2683   62.1039   67.6963 O   0  0  0  0  0  0  0  0  0  0  0  0
  -37.1086   62.3639   68.1050 H   0  0  0  0  0  0  0  0  0  0  0  0
  -34.8792   62.0478   65.6320 O   0  0  0  0  0  0  0  0  0  0  0  0
  -34.0188   63.0309   65.0209 C   0  0  0  0  0  0  0  0  0  0  0  0
  -35.1035   64.1176   63.1811 O   0  0  0  0  0  0  0  0  0  0  0  0
  -34.2615   63.0154   63.5317 C   0  0  0  0  0  0  0  0  0  0  0  0
  -35.9247   64.0736   63.6955 H   0  0  0  0  0  0  0  0  0  0  0  0
  -33.2267   63.4920   61.4055 O   0  0  0  0  0  0  0  0  0  0  0  0
  -32.9772   63.0681   62.7395 C   0  0  0  0  0  0  0  0  0  0  0  0
  -32.3914   63.5196   60.9133 H   0  0  0  0  0  0  0  0  0  0  0  0
  -39.2024   60.7571   63.9867 O   0  0  0  0  0  0  0  0  0  0  0  0
  -40.3946   60.5977   62.0858 O   0  0  0  0  0  0  0  0  0  0  0  0
  -39.7273   60.0865   62.9433 C   0  0  0  0  0  0  0  0  0  0  0  0
  -39.3644   58.6341   62.9705 C   0  0  0  0  0  0  0  0  0  0  0  0
  -38.7679   58.1820   61.6414 C   0  0  0  0  0  0  0  0  0  0  0  0
  -37.6461   59.0732   61.1343 C   0  0  0  0  0  0  0  0  0  0  0  0
  -37.9110   59.6605   59.7528 C   0  0  0  0  0  0  0  0  0  0  0  0
  -38.0352   58.6214   58.6540 C   0  0  0  0  0  0  0  0  0  0  0  0
  -36.7149   58.2591   57.9682 C   0  0  0  0  0  0  0  0  0  0  0  0
  -36.4114   56.7614   57.8890 C   0  0  0  0  0  0  0  0  0  0  0  0
  -36.5817   56.0796   59.2134 C   0  0  0  0  0  0  0  0  0  0  0  0
  -35.6203   55.6435   60.0039 C   0  0  0  0  0  0  0  0  0  0  0  0
  -34.1504   55.7404   59.7423 C   0  0  0  0  0  0  0  0  0  0  0  0
  -33.3624   56.1383   60.9869 C   0  0  0  0  0  0  0  0  0  0  0  0
  -33.1392   57.6351   61.1143 C   0  0  0  0  0  0  0  0  0  0  0  0
  -34.0344   58.2996   62.1459 C   0  0  0  0  0  0  0  0  0  0  0  0
  -33.5907   58.1013   63.5859 C   0  0  0  0  0  0  0  0  0  0  0  0
  -34.5442   58.7103   64.6027 C   0  0  0  0  0  0  0  0  0  0  0  0
  -36.0051   58.3906   64.3547 C   0  0  0  0  0  0  0  0  0  0  0  0
  -36.3164   56.9291   64.5184 C   0  0  0  0  0  0  0  0  0  0  0  0
 21 22  1  0  0  0
  4  5  2  0  0  0
 25 24  1  0  0  0
 25 26  2  0  0  0
 25 27  1  0  0  0
 25 29  1  0  0  0
 22 20  1  0  0  0
  3  5  1  0  0  0
  3  2  1  0  0  0
 20 19  1  0  0  0
 24 23  1  0  0  0
 19 18  1  0  0  0
 18 17  1  0  0  0
 27 28  1  0  0  0
 17 16  1  0  0  0
 29 30  1  0  0  0
 16 15  1  0  0  0
 34 35  1  0  0  0
 34 36  1  0  0  0
 15 14  1  0  0  0
 31 32  1  0  0  0
 31 33  1  0  0  0
 14 13  1  0  0  0
 37  1  1  0  0  0
 37 39  1  0  0  0
 13 12  1  0  0  0
 38 39  2  0  0  0
 12 11  1  0  0  0
 11 10  1  0  0  0
 10  9  1  0  0  0
  9  8  1  0  0  0
  8  7  1  0  0  0
  7  6  1  0  0  0
  6  5  1  0  0  0
  2  1  1  0  0  0
  1 23  1  0  0  0
 30 32  1  0  0  0
 32 35  1  0  0  0
 39 40  1  0  0  0
 40 41  1  0  0  0
 41 42  1  0  0  0
 42 43  1  0  0  0
 43 44  1  0  0  0
 44 45  1  0  0  0
 45 46  1  0  0  0
 46 47  1  0  0  0
 47 48  2  0  0  0
 48 49  1  0  0  0
 49 50  1  0  0  0
 50 51  1  0  0  0
 51 52  1  0  0  0
 52 53  1  0  0  0
 53 54  1  0  0  0
 54 55  1  0  0  0
 55 56  1  0  0  0
M  CHG 1  26  -1
M  END
> <minimizedAffinity>
-8.79077

> <CNNscore>
0.4337658286

> <CNNaffinity>
7.3833785057

> <CNN_VS>
3.2026572227

> <CNNaffinity_variance>
1.0179163218

$$$$
