/media/chris/experiments/cd1a-new-docking/inputs/ligands/7sh4_ligand.pdb


 56 55  0  0  0  0  0  0  0  0999 V2000
  -38.3561   60.8044   62.6225 C   0  0  0  0  0  0  0  0  0  0  0  0
  -37.6444   59.6881   61.9118 C   0  0  0  0  0  0  0  0  0  0  0  0
  -37.5340   60.1551   60.5506 O   0  0  0  0  0  0  0  0  0  0  0  0
  -39.0846   59.8418   58.9704 O   0  0  0  0  0  0  0  0  0  0  0  0
  -38.1538   59.4371   59.6135 C   0  0  0  0  0  0  0  0  0  0  0  0
  -37.4601   58.1245   59.3886 C   0  0  0  0  0  0  0  0  0  0  0  0
  -36.9569   57.9238   57.9691 C   0  0  0  0  0  0  0  0  0  0  0  0
  -35.9649   56.7857   57.8542 C   0  0  0  0  0  0  0  0  0  0  0  0
  -34.6689   57.0162   58.5978 C   0  0  0  0  0  0  0  0  0  0  0  0
  -34.2195   55.8088   59.3955 C   0  0  0  0  0  0  0  0  0  0  0  0
  -33.8304   56.1456   60.8142 C   0  0  0  0  0  0  0  0  0  0  0  0
  -34.8390   57.0219   61.5087 C   0  0  0  0  0  0  0  0  0  0  0  0
  -34.2140   58.1713   62.2679 C   0  0  0  0  0  0  0  0  0  0  0  0
  -32.9274   57.7805   62.9666 C   0  0  0  0  0  0  0  0  0  0  0  0
  -31.8410   58.8331   62.8951 C   0  0  0  0  0  0  0  0  0  0  0  0
  -31.6865   59.4663   61.5171 C   0  0  0  0  0  0  0  0  0  0  0  0
  -30.8410   60.7254   61.5087 C   0  0  0  0  0  0  0  0  0  0  0  0
  -30.6334   61.3202   62.8865 C   0  0  0  0  0  0  0  0  0  0  0  0
  -30.5539   62.8404   62.8892 C   0  0  0  0  0  0  0  0  0  0  0  0
  -30.8478   63.4620   64.2429 C   0  0  0  0  0  0  0  0  0  0  0  0
  -31.7430   65.3448   62.8324 C   0  0  0  0  0  0  0  0  0  0  0  0
  -31.7314   64.6940   64.1971 C   0  0  0  0  0  0  0  0  0  0  0  0
  -37.6307   61.2333   63.8722 C   0  0  0  0  0  0  0  0  0  0  0  0
  -36.2710   61.5789   63.5253 O   0  0  0  0  0  0  0  0  0  0  0  0
  -35.7869   63.0898   63.3145 P   0  0  0  0  0  0  0  0  0  0  0  0
  -35.1230   63.1782   61.9961 O   0  0  0  0  0  0  0  0  0  0  0  0
  -36.9345   63.9857   63.5957 O   0  0  0  0  0  0  0  0  0  0  0  0
  -37.6214   63.8518   62.9241 H   0  0  0  0  0  0  0  0  0  0  0  0
  -34.6832   63.3402   64.4379 O   0  0  0  0  0  0  0  0  0  0  0  0
  -34.3789   62.3043   65.3940 C   0  0  0  0  0  0  0  0  0  0  0  0
  -33.9572   62.5446   67.7407 O   0  0  0  0  0  0  0  0  0  0  0  0
  -34.9564   62.7047   66.7294 C   0  0  0  0  0  0  0  0  0  0  0  0
  -33.6312   61.6310   67.7315 H   0  0  0  0  0  0  0  0  0  0  0  0
  -36.8969   64.1373   66.7129 O   0  0  0  0  0  0  0  0  0  0  0  0
  -35.4752   64.1226   66.7293 C   0  0  0  0  0  0  0  0  0  0  0  0
  -37.2108   65.0551   66.7133 H   0  0  0  0  0  0  0  0  0  0  0  0
  -39.7250   60.3674   62.9139 O   0  0  0  0  0  0  0  0  0  0  0  0
  -39.6946   60.8575   65.1091 O   0  0  0  0  0  0  0  0  0  0  0  0
  -40.0320   60.1421   64.2059 C   0  0  0  0  0  0  0  0  0  0  0  0
  -40.8584   58.9054   64.3782 C   0  0  0  0  0  0  0  0  0  0  0  0
  -41.0657   58.5726   65.8523 C   0  0  0  0  0  0  0  0  0  0  0  0
  -42.5254   58.5129   66.2714 C   0  0  0  0  0  0  0  0  0  0  0  0
  -43.1210   57.1111   66.2083 C   0  0  0  0  0  0  0  0  0  0  0  0
  -44.6380   57.0857   66.1882 C   0  0  0  0  0  0  0  0  0  0  0  0
  -45.2996   58.4604   66.3215 C   0  0  0  0  0  0  0  0  0  0  0  0
  -46.8187   58.4729   66.1385 C   0  0  0  0  0  0  0  0  0  0  0  0
  -47.2188   58.2055   64.7185 C   0  0  0  0  0  0  0  0  0  0  0  0
  -48.4478   58.0749   64.2581 C   0  0  0  0  0  0  0  0  0  0  0  0
  -49.7062   58.1684   65.0618 C   0  0  0  0  0  0  0  0  0  0  0  0
  -50.7178   59.1330   64.4498 C   0  0  0  0  0  0  0  0  0  0  0  0
  -50.5400   59.3354   62.9553 C   0  0  0  0  0  0  0  0  0  0  0  0
  -51.1503   58.2283   62.1130 C   0  0  0  0  0  0  0  0  0  0  0  0
  -50.1449   57.4250   61.3048 C   0  0  0  0  0  0  0  0  0  0  0  0
  -50.1360   57.7790   59.8255 C   0  0  0  0  0  0  0  0  0  0  0  0
  -49.2628   56.8774   58.9755 C   0  0  0  0  0  0  0  0  0  0  0  0
  -47.8886   57.4435   58.7498 C   0  0  0  0  0  0  0  0  0  0  0  0
 21 22  1  0  0  0
  4  5  2  0  0  0
 25 24  1  0  0  0
 25 26  2  0  0  0
 25 27  1  0  0  0
 25 29  1  0  0  0
 22 20  1  0  0  0
  3  5  1  0  0  0
  3  2  1  0  0  0
 20 19  1  0  0  0
 24 23  1  0  0  0
 19 18  1  0  0  0
 18 17  1  0  0  0
 27 28  1  0  0  0
 17 16  1  0  0  0
 29 30  1  0  0  0
 16 15  1  0  0  0
 34 35  1  0  0  0
 34 36  1  0  0  0
 15 14  1  0  0  0
 31 32  1  0  0  0
 31 33  1  0  0  0
 14 13  1  0  0  0
 37  1  1  0  0  0
 37 39  1  0  0  0
 13 12  1  0  0  0
 38 39  2  0  0  0
 12 11  1  0  0  0
 11 10  1  0  0  0
 10  9  1  0  0  0
  9  8  1  0  0  0
  8  7  1  0  0  0
  7  6  1  0  0  0
  6  5  1  0  0  0
  2  1  1  0  0  0
  1 23  1  0  0  0
 30 32  1  0  0  0
 32 35  1  0  0  0
 39 40  1  0  0  0
 40 41  1  0  0  0
 41 42  1  0  0  0
 42 43  1  0  0  0
 43 44  1  0  0  0
 44 45  1  0  0  0
 45 46  1  0  0  0
 46 47  1  0  0  0
 47 48  2  0  0  0
 48 49  1  0  0  0
 49 50  1  0  0  0
 50 51  1  0  0  0
 51 52  1  0  0  0
 52 53  1  0  0  0
 53 54  1  0  0  0
 54 55  1  0  0  0
 55 56  1  0  0  0
M  CHG 1  26  -1
M  END
> <minimizedAffinity>
-8.57181

> <CNNscore>
0.7240527272

> <CNNaffinity>
7.3867440224

> <CNN_VS>
5.3483920097

> <CNNaffinity_variance>
0.4453600943

$$$$
/media/chris/experiments/cd1a-new-docking/inputs/ligands/7sh4_ligand.pdb


 56 55  0  0  0  0  0  0  0  0999 V2000
  -35.5955   59.9752   63.6625 C   0  0  0  0  0  0  0  0  0  0  0  0
  -35.3244   58.5235   63.3854 C   0  0  0  0  0  0  0  0  0  0  0  0
  -34.8142   58.5151   62.0353 O   0  0  0  0  0  0  0  0  0  0  0  0
  -32.9017   57.3568   62.0182 O   0  0  0  0  0  0  0  0  0  0  0  0
  -34.0494   57.4805   61.6850 C   0  0  0  0  0  0  0  0  0  0  0  0
  -34.8429   56.4481   60.9370 C   0  0  0  0  0  0  0  0  0  0  0  0
  -36.0708   56.9998   60.2324 C   0  0  0  0  0  0  0  0  0  0  0  0
  -37.3667   56.5283   60.8576 C   0  0  0  0  0  0  0  0  0  0  0  0
  -38.2506   57.6442   61.3668 C   0  0  0  0  0  0  0  0  0  0  0  0
  -38.1297   58.9159   60.5517 C   0  0  0  0  0  0  0  0  0  0  0  0
  -38.7941   60.1042   61.2030 C   0  0  0  0  0  0  0  0  0  0  0  0
  -40.2528   60.2288   60.8508 C   0  0  0  0  0  0  0  0  0  0  0  0
  -40.5042   60.3364   59.3631 C   0  0  0  0  0  0  0  0  0  0  0  0
  -41.6001   59.4051   58.8858 C   0  0  0  0  0  0  0  0  0  0  0  0
  -41.9443   59.5565   57.4188 C   0  0  0  0  0  0  0  0  0  0  0  0
  -43.1894   58.7855   56.9955 C   0  0  0  0  0  0  0  0  0  0  0  0
  -44.0691   58.3524   58.1526 C   0  0  0  0  0  0  0  0  0  0  0  0
  -45.4970   58.0534   57.7440 C   0  0  0  0  0  0  0  0  0  0  0  0
  -46.3339   57.4378   58.8567 C   0  0  0  0  0  0  0  0  0  0  0  0
  -47.8287   57.4998   58.5983 C   0  0  0  0  0  0  0  0  0  0  0  0
  -47.4574   55.3896   57.2773 C   0  0  0  0  0  0  0  0  0  0  0  0
  -48.4382   56.2090   58.0852 C   0  0  0  0  0  0  0  0  0  0  0  0
  -34.3323   60.7974   63.6603 C   0  0  0  0  0  0  0  0  0  0  0  0
  -34.5988   62.0613   64.3083 O   0  0  0  0  0  0  0  0  0  0  0  0
  -34.8673   63.4135   63.4950 P   0  0  0  0  0  0  0  0  0  0  0  0
  -33.5650   63.9285   63.0202 O   0  0  0  0  0  0  0  0  0  0  0  0
  -35.9345   63.1495   62.5000 O   0  0  0  0  0  0  0  0  0  0  0  0
  -35.6087   62.5232   61.8349 H   0  0  0  0  0  0  0  0  0  0  0  0
  -35.4415   64.4444   64.5675 O   0  0  0  0  0  0  0  0  0  0  0  0
  -35.9325   63.9666   65.8366 C   0  0  0  0  0  0  0  0  0  0  0  0
  -34.4030   62.8917   67.3358 O   0  0  0  0  0  0  0  0  0  0  0  0
  -34.8524   64.1679   66.8710 C   0  0  0  0  0  0  0  0  0  0  0  0
  -35.1585   62.3868   67.6755 H   0  0  0  0  0  0  0  0  0  0  0  0
  -32.6297   64.1080   65.9358 O   0  0  0  0  0  0  0  0  0  0  0  0
  -33.6882   64.9680   66.3381 C   0  0  0  0  0  0  0  0  0  0  0  0
  -31.8925   64.6394   65.5969 H   0  0  0  0  0  0  0  0  0  0  0  0
  -36.3052   60.0762   64.9416 O   0  0  0  0  0  0  0  0  0  0  0  0
  -37.9363   61.4665   64.2586 O   0  0  0  0  0  0  0  0  0  0  0  0
  -37.5769   60.5180   64.9009 C   0  0  0  0  0  0  0  0  0  0  0  0
  -38.4900   59.6751   65.7363 C   0  0  0  0  0  0  0  0  0  0  0  0
  -38.8083   58.3493   65.0524 C   0  0  0  0  0  0  0  0  0  0  0  0
  -40.2678   58.1942   64.6578 C   0  0  0  0  0  0  0  0  0  0  0  0
  -41.1274   59.4017   65.0141 C   0  0  0  0  0  0  0  0  0  0  0  0
  -42.1946   59.1140   66.0537 C   0  0  0  0  0  0  0  0  0  0  0  0
  -42.6340   57.6488   66.1264 C   0  0  0  0  0  0  0  0  0  0  0  0
  -43.9777   57.3378   65.4636 C   0  0  0  0  0  0  0  0  0  0  0  0
  -45.0586   57.0824   66.4707 C   0  0  0  0  0  0  0  0  0  0  0  0
  -46.3456   57.3312   66.3247 C   0  0  0  0  0  0  0  0  0  0  0  0
  -46.9987   57.9223   65.1155 C   0  0  0  0  0  0  0  0  0  0  0  0
  -47.6609   59.2653   65.4092 C   0  0  0  0  0  0  0  0  0  0  0  0
  -49.0257   59.1417   66.0635 C   0  0  0  0  0  0  0  0  0  0  0  0
  -50.0958   58.5829   65.1415 C   0  0  0  0  0  0  0  0  0  0  0  0
  -50.5518   59.5405   64.0531 C   0  0  0  0  0  0  0  0  0  0  0  0
  -51.2060   58.8445   62.8693 C   0  0  0  0  0  0  0  0  0  0  0  0
  -50.2601   57.9882   62.0509 C   0  0  0  0  0  0  0  0  0  0  0  0
  -50.9477   57.2877   60.9123 C   0  0  0  0  0  0  0  0  0  0  0  0
 21 22  1  0  0  0
  4  5  2  0  0  0
 25 24  1  0  0  0
 25 26  2  0  0  0
 25 27  1  0  0  0
 25 29  1  0  0  0
 22 20  1  0  0  0
  3  5  1  0  0  0
  3  2  1  0  0  0
 20 19  1  0  0  0
 24 23  1  0  0  0
 19 18  1  0  0  0
 18 17  1  0  0  0
 27 28  1  0  0  0
 17 16  1  0  0  0
 29 30  1  0  0  0
 16 15  1  0  0  0
 34 35  1  0  0  0
 34 36  1  0  0  0
 15 14  1  0  0  0
 31 32  1  0  0  0
 31 33  1  0  0  0
 14 13  1  0  0  0
 37  1  1  0  0  0
 37 39  1  0  0  0
 13 12  1  0  0  0
 38 39  2  0  0  0
 12 11  1  0  0  0
 11 10  1  0  0  0
 10  9  1  0  0  0
  9  8  1  0  0  0
  8  7  1  0  0  0
  7  6  1  0  0  0
  6  5  1  0  0  0
  2  1  1  0  0  0
  1 23  1  0  0  0
 30 32  1  0  0  0
 32 35  1  0  0  0
 39 40  1  0  0  0
 40 41  1  0  0  0
 41 42  1  0  0  0
 42 43  1  0  0  0
 43 44  1  0  0  0
 44 45  1  0  0  0
 45 46  1  0  0  0
 46 47  1  0  0  0
 47 48  2  0  0  0
 48 49  1  0  0  0
 49 50  1  0  0  0
 50 51  1  0  0  0
 51 52  1  0  0  0
 52 53  1  0  0  0
 53 54  1  0  0  0
 54 55  1  0  0  0
 55 56  1  0  0  0
M  CHG 1  26  -1
M  END
> <minimizedAffinity>
-8.29879

> <CNNscore>
0.6237599850

> <CNNaffinity>
7.7912855148

> <CNN_VS>
4.8598923683

> <CNNaffinity_variance>
0.6685692072

$$$$
/media/chris/experiments/cd1a-new-docking/inputs/ligands/7sh4_ligand.pdb


 56 55  0  0  0  0  0  0  0  0999 V2000
  -39.6099   59.9698   65.0612 C   0  0  0  0  0  0  0  0  0  0  0  0
  -40.9236   60.1182   65.7753 C   0  0  0  0  0  0  0  0  0  0  0  0
  -41.4542   58.7765   65.8128 O   0  0  0  0  0  0  0  0  0  0  0  0
  -42.8252   59.2230   67.5216 O   0  0  0  0  0  0  0  0  0  0  0  0
  -42.5526   58.5815   66.5429 C   0  0  0  0  0  0  0  0  0  0  0  0
  -43.4481   57.5544   65.9121 C   0  0  0  0  0  0  0  0  0  0  0  0
  -44.9286   57.8850   65.9982 C   0  0  0  0  0  0  0  0  0  0  0  0
  -45.6976   56.9094   66.8639 C   0  0  0  0  0  0  0  0  0  0  0  0
  -47.1278   56.6877   66.4269 C   0  0  0  0  0  0  0  0  0  0  0  0
  -47.5568   57.6149   65.3077 C   0  0  0  0  0  0  0  0  0  0  0  0
  -48.5130   58.6907   65.7614 C   0  0  0  0  0  0  0  0  0  0  0  0
  -49.9579   58.2892   65.6252 C   0  0  0  0  0  0  0  0  0  0  0  0
  -50.8367   59.3881   65.0699 C   0  0  0  0  0  0  0  0  0  0  0  0
  -50.5572   59.6793   63.6093 C   0  0  0  0  0  0  0  0  0  0  0  0
  -51.5373   59.0341   62.6520 C   0  0  0  0  0  0  0  0  0  0  0  0
  -50.9146   57.9668   61.7593 C   0  0  0  0  0  0  0  0  0  0  0  0
  -49.4106   58.0909   61.6077 C   0  0  0  0  0  0  0  0  0  0  0  0
  -48.8193   57.0917   60.6345 C   0  0  0  0  0  0  0  0  0  0  0  0
  -48.2126   57.7332   59.3945 C   0  0  0  0  0  0  0  0  0  0  0  0
  -47.0376   56.9599   58.8231 C   0  0  0  0  0  0  0  0  0  0  0  0
  -47.7798   55.3091   57.0740 C   0  0  0  0  0  0  0  0  0  0  0  0
  -47.3295   55.5061   58.5038 C   0  0  0  0  0  0  0  0  0  0  0  0
  -38.4412   60.0061   66.0123 C   0  0  0  0  0  0  0  0  0  0  0  0
  -38.0067   61.3761   66.1633 O   0  0  0  0  0  0  0  0  0  0  0  0
  -36.4655   61.8064   66.1266 P   0  0  0  0  0  0  0  0  0  0  0  0
  -36.0831   62.2555   67.4826 O   0  0  0  0  0  0  0  0  0  0  0  0
  -35.6945   60.7078   65.4962 O   0  0  0  0  0  0  0  0  0  0  0  0
  -35.7178   59.9259   66.0697 H   0  0  0  0  0  0  0  0  0  0  0  0
  -36.4027   63.0693   65.1551 O   0  0  0  0  0  0  0  0  0  0  0  0
  -35.1705   63.4026   64.4838 C   0  0  0  0  0  0  0  0  0  0  0  0
  -33.8465   63.9541   66.4036 O   0  0  0  0  0  0  0  0  0  0  0  0
  -34.4931   64.5091   65.2544 C   0  0  0  0  0  0  0  0  0  0  0  0
  -34.4953   63.4683   66.9366 H   0  0  0  0  0  0  0  0  0  0  0  0
  -33.7590   66.6661   64.4625 O   0  0  0  0  0  0  0  0  0  0  0  0
  -33.4969   65.2695   64.4123 C   0  0  0  0  0  0  0  0  0  0  0  0
  -33.1099   67.1367   63.9167 H   0  0  0  0  0  0  0  0  0  0  0  0
  -39.5149   61.0234   64.0459 O   0  0  0  0  0  0  0  0  0  0  0  0
  -37.7904   61.1255   62.6051 O   0  0  0  0  0  0  0  0  0  0  0  0
  -38.8782   60.7120   62.9006 C   0  0  0  0  0  0  0  0  0  0  0  0
  -39.6798   59.7758   62.0504 C   0  0  0  0  0  0  0  0  0  0  0  0
  -40.3709   60.5120   60.9071 C   0  0  0  0  0  0  0  0  0  0  0  0
  -39.8436   60.1450   59.5297 C   0  0  0  0  0  0  0  0  0  0  0  0
  -38.3774   59.7276   59.5295 C   0  0  0  0  0  0  0  0  0  0  0  0
  -38.0642   58.5751   58.5935 C   0  0  0  0  0  0  0  0  0  0  0  0
  -36.9119   57.6770   59.0527 C   0  0  0  0  0  0  0  0  0  0  0  0
  -36.2127   56.8939   57.9394 C   0  0  0  0  0  0  0  0  0  0  0  0
  -34.7240   57.0686   57.9751 C   0  0  0  0  0  0  0  0  0  0  0  0
  -33.8958   56.5833   58.8796 C   0  0  0  0  0  0  0  0  0  0  0  0
  -34.2719   55.7512   60.0646 C   0  0  0  0  0  0  0  0  0  0  0  0
  -33.6084   56.2357   61.3505 C   0  0  0  0  0  0  0  0  0  0  0  0
  -33.2799   57.7183   61.3456 C   0  0  0  0  0  0  0  0  0  0  0  0
  -33.8830   58.4805   62.5130 C   0  0  0  0  0  0  0  0  0  0  0  0
  -34.7449   57.6370   63.4378 C   0  0  0  0  0  0  0  0  0  0  0  0
  -36.2180   58.0141   63.4038 C   0  0  0  0  0  0  0  0  0  0  0  0
  -37.0425   57.2133   62.4154 C   0  0  0  0  0  0  0  0  0  0  0  0
  -38.4630   57.0178   62.8669 C   0  0  0  0  0  0  0  0  0  0  0  0
 21 22  1  0  0  0
  4  5  2  0  0  0
 25 24  1  0  0  0
 25 26  2  0  0  0
 25 27  1  0  0  0
 25 29  1  0  0  0
 22 20  1  0  0  0
  3  5  1  0  0  0
  3  2  1  0  0  0
 20 19  1  0  0  0
 24 23  1  0  0  0
 19 18  1  0  0  0
 18 17  1  0  0  0
 27 28  1  0  0  0
 17 16  1  0  0  0
 29 30  1  0  0  0
 16 15  1  0  0  0
 34 35  1  0  0  0
 34 36  1  0  0  0
 15 14  1  0  0  0
 31 32  1  0  0  0
 31 33  1  0  0  0
 14 13  1  0  0  0
 37  1  1  0  0  0
 37 39  1  0  0  0
 13 12  1  0  0  0
 38 39  2  0  0  0
 12 11  1  0  0  0
 11 10  1  0  0  0
 10  9  1  0  0  0
  9  8  1  0  0  0
  8  7  1  0  0  0
  7  6  1  0  0  0
  6  5  1  0  0  0
  2  1  1  0  0  0
  1 23  1  0  0  0
 30 32  1  0  0  0
 32 35  1  0  0  0
 39 40  1  0  0  0
 40 41  1  0  0  0
 41 42  1  0  0  0
 42 43  1  0  0  0
 43 44  1  0  0  0
 44 45  1  0  0  0
 45 46  1  0  0  0
 46 47  1  0  0  0
 47 48  2  0  0  0
 48 49  1  0  0  0
 49 50  1  0  0  0
 50 51  1  0  0  0
 51 52  1  0  0  0
 52 53  1  0  0  0
 53 54  1  0  0  0
 54 55  1  0  0  0
 55 56  1  0  0  0
M  CHG 1  26  -1
M  END
> <minimizedAffinity>
-8.72836

> <CNNscore>
0.4893848300

> <CNNaffinity>
7.4825844765

> <CNN_VS>
3.6618633270

> <CNNaffinity_variance>
0.5324953198

$$$$
/media/chris/experiments/cd1a-new-docking/inputs/ligands/7sh4_ligand.pdb


 56 55  0  0  0  0  0  0  0  0999 V2000
  -39.0264   60.9544   63.4168 C   0  0  0  0  0  0  0  0  0  0  0  0
  -39.6309   59.9001   62.5332 C   0  0  0  0  0  0  0  0  0  0  0  0
  -40.2296   60.6496   61.4548 O   0  0  0  0  0  0  0  0  0  0  0  0
  -40.7595   60.2537   59.3189 O   0  0  0  0  0  0  0  0  0  0  0  0
  -39.9579   60.2443   60.2139 C   0  0  0  0  0  0  0  0  0  0  0  0
  -38.5040   59.9011   60.0615 C   0  0  0  0  0  0  0  0  0  0  0  0
  -38.2052   58.9674   58.9007 C   0  0  0  0  0  0  0  0  0  0  0  0
  -36.8209   58.3590   58.9791 C   0  0  0  0  0  0  0  0  0  0  0  0
  -36.4208   57.5698   57.7532 C   0  0  0  0  0  0  0  0  0  0  0  0
  -36.6045   56.0753   57.9235 C   0  0  0  0  0  0  0  0  0  0  0  0
  -36.5347   55.6286   59.3633 C   0  0  0  0  0  0  0  0  0  0  0  0
  -35.3008   54.8218   59.6698 C   0  0  0  0  0  0  0  0  0  0  0  0
  -34.0212   55.6232   59.5779 C   0  0  0  0  0  0  0  0  0  0  0  0
  -33.5731   56.1664   60.9197 C   0  0  0  0  0  0  0  0  0  0  0  0
  -33.5008   57.6778   60.9816 C   0  0  0  0  0  0  0  0  0  0  0  0
  -32.4368   58.2050   61.9375 C   0  0  0  0  0  0  0  0  0  0  0  0
  -32.9017   58.3155   63.3769 C   0  0  0  0  0  0  0  0  0  0  0  0
  -34.3597   58.7052   63.5102 C   0  0  0  0  0  0  0  0  0  0  0  0
  -35.1025   57.9294   64.5890 C   0  0  0  0  0  0  0  0  0  0  0  0
  -36.3038   57.1614   64.0672 C   0  0  0  0  0  0  0  0  0  0  0  0
  -38.0620   57.0027   62.2730 C   0  0  0  0  0  0  0  0  0  0  0  0
  -36.6582   57.4445   62.6198 C   0  0  0  0  0  0  0  0  0  0  0  0
  -37.5211   60.8818   63.4365 C   0  0  0  0  0  0  0  0  0  0  0  0
  -36.9968   61.8391   62.4893 O   0  0  0  0  0  0  0  0  0  0  0  0
  -35.8757   62.9149   62.8737 P   0  0  0  0  0  0  0  0  0  0  0  0
  -34.6025   62.1934   63.0862 O   0  0  0  0  0  0  0  0  0  0  0  0
  -35.9179   64.0045   61.8689 O   0  0  0  0  0  0  0  0  0  0  0  0
  -35.6414   63.6592   61.0057 H   0  0  0  0  0  0  0  0  0  0  0  0
  -36.3358   63.5222   64.2745 O   0  0  0  0  0  0  0  0  0  0  0  0
  -35.3484   63.9484   65.2354 C   0  0  0  0  0  0  0  0  0  0  0  0
  -37.0518   64.1600   66.9076 O   0  0  0  0  0  0  0  0  0  0  0  0
  -35.8062   63.5228   66.6088 C   0  0  0  0  0  0  0  0  0  0  0  0
  -36.9508   65.1214   66.8268 H   0  0  0  0  0  0  0  0  0  0  0  0
  -37.2901   61.6242   66.4981 O   0  0  0  0  0  0  0  0  0  0  0  0
  -35.9454   62.0242   66.7295 C   0  0  0  0  0  0  0  0  0  0  0  0
  -37.3592   60.6602   66.5797 H   0  0  0  0  0  0  0  0  0  0  0  0
  -39.5932   60.8103   64.7614 O   0  0  0  0  0  0  0  0  0  0  0  0
  -39.2166   58.6622   65.3129 O   0  0  0  0  0  0  0  0  0  0  0  0
  -39.9770   59.5738   65.1329 C   0  0  0  0  0  0  0  0  0  0  0  0
  -41.4605   59.4776   65.3120 C   0  0  0  0  0  0  0  0  0  0  0  0
  -41.8602   58.1574   65.9634 C   0  0  0  0  0  0  0  0  0  0  0  0
  -43.3496   57.8628   65.8954 C   0  0  0  0  0  0  0  0  0  0  0  0
  -44.1851   59.0488   65.4271 C   0  0  0  0  0  0  0  0  0  0  0  0
  -45.5636   58.6699   64.9186 C   0  0  0  0  0  0  0  0  0  0  0  0
  -46.5942   58.3950   66.0175 C   0  0  0  0  0  0  0  0  0  0  0  0
  -48.0541   58.6000   65.6076 C   0  0  0  0  0  0  0  0  0  0  0  0
  -48.1910   59.5683   64.4711 C   0  0  0  0  0  0  0  0  0  0  0  0
  -48.9499   59.4251   63.4019 C   0  0  0  0  0  0  0  0  0  0  0  0
  -49.8385   58.2602   63.0997 C   0  0  0  0  0  0  0  0  0  0  0  0
  -50.7804   58.5341   61.9308 C   0  0  0  0  0  0  0  0  0  0  0  0
  -51.0866   57.3045   61.0938 C   0  0  0  0  0  0  0  0  0  0  0  0
  -49.8572   56.6760   60.4606 C   0  0  0  0  0  0  0  0  0  0  0  0
  -49.1054   57.5878   59.5051 C   0  0  0  0  0  0  0  0  0  0  0  0
  -47.6988   57.1039   59.1873 C   0  0  0  0  0  0  0  0  0  0  0  0
  -47.3434   57.1491   57.7144 C   0  0  0  0  0  0  0  0  0  0  0  0
  -47.4433   55.8040   57.0505 C   0  0  0  0  0  0  0  0  0  0  0  0
 21 22  1  0  0  0
  4  5  2  0  0  0
 25 24  1  0  0  0
 25 26  2  0  0  0
 25 27  1  0  0  0
 25 29  1  0  0  0
 22 20  1  0  0  0
  3  5  1  0  0  0
  3  2  1  0  0  0
 20 19  1  0  0  0
 24 23  1  0  0  0
 19 18  1  0  0  0
 18 17  1  0  0  0
 27 28  1  0  0  0
 17 16  1  0  0  0
 29 30  1  0  0  0
 16 15  1  0  0  0
 34 35  1  0  0  0
 34 36  1  0  0  0
 15 14  1  0  0  0
 31 32  1  0  0  0
 31 33  1  0  0  0
 14 13  1  0  0  0
 37  1  1  0  0  0
 37 39  1  0  0  0
 13 12  1  0  0  0
 38 39  2  0  0  0
 12 11  1  0  0  0
 11 10  1  0  0  0
 10  9  1  0  0  0
  9  8  1  0  0  0
  8  7  1  0  0  0
  7  6  1  0  0  0
  6  5  1  0  0  0
  2  1  1  0  0  0
  1 23  1  0  0  0
 30 32  1  0  0  0
 32 35  1  0  0  0
 39 40  1  0  0  0
 40 41  1  0  0  0
 41 42  1  0  0  0
 42 43  1  0  0  0
 43 44  1  0  0  0
 44 45  1  0  0  0
 45 46  1  0  0  0
 46 47  1  0  0  0
 47 48  2  0  0  0
 48 49  1  0  0  0
 49 50  1  0  0  0
 50 51  1  0  0  0
 51 52  1  0  0  0
 52 53  1  0  0  0
 53 54  1  0  0  0
 54 55  1  0  0  0
 55 56  1  0  0  0
M  CHG 1  26  -1
M  END
> <minimizedAffinity>
-8.90185

> <CNNscore>
0.4521582127

> <CNNaffinity>
7.6488394737

> <CNN_VS>
3.4584856033

> <CNNaffinity_variance>
0.9717386365

$$$$
/media/chris/experiments/cd1a-new-docking/inputs/ligands/7sh4_ligand.pdb


 56 55  0  0  0  0  0  0  0  0999 V2000
  -37.9924   60.5491   64.8354 C   0  0  0  0  0  0  0  0  0  0  0  0
  -38.6933   59.9517   66.0226 C   0  0  0  0  0  0  0  0  0  0  0  0
  -40.0938   60.0516   65.6880 O   0  0  0  0  0  0  0  0  0  0  0  0
  -40.3109   57.8857   65.1769 O   0  0  0  0  0  0  0  0  0  0  0  0
  -40.7765   58.9098   65.5990 C   0  0  0  0  0  0  0  0  0  0  0  0
  -42.1430   59.0460   66.2064 C   0  0  0  0  0  0  0  0  0  0  0  0
  -43.2531   59.2680   65.1931 C   0  0  0  0  0  0  0  0  0  0  0  0
  -44.3905   58.2799   65.3436 C   0  0  0  0  0  0  0  0  0  0  0  0
  -45.6178   58.8465   66.0205 C   0  0  0  0  0  0  0  0  0  0  0  0
  -46.5427   57.7766   66.5645 C   0  0  0  0  0  0  0  0  0  0  0  0
  -47.9632   57.9136   66.0734 C   0  0  0  0  0  0  0  0  0  0  0  0
  -48.0500   58.2141   64.6004 C   0  0  0  0  0  0  0  0  0  0  0  0
  -49.4503   58.5502   64.1377 C   0  0  0  0  0  0  0  0  0  0  0  0
  -49.4699   59.6044   63.0493 C   0  0  0  0  0  0  0  0  0  0  0  0
  -50.3921   59.2812   61.8925 C   0  0  0  0  0  0  0  0  0  0  0  0
  -50.8145   57.8178   61.8317 C   0  0  0  0  0  0  0  0  0  0  0  0
  -50.5212   57.1463   60.5038 C   0  0  0  0  0  0  0  0  0  0  0  0
  -49.4521   57.8525   59.6954 C   0  0  0  0  0  0  0  0  0  0  0  0
  -48.0333   57.4921   60.1134 C   0  0  0  0  0  0  0  0  0  0  0  0
  -47.2223   56.8372   59.0096 C   0  0  0  0  0  0  0  0  0  0  0  0
  -47.7026   55.2247   57.1374 C   0  0  0  0  0  0  0  0  0  0  0  0
  -47.6747   55.4390   58.6338 C   0  0  0  0  0  0  0  0  0  0  0  0
  -36.8979   61.5013   65.2443 C   0  0  0  0  0  0  0  0  0  0  0  0
  -36.9073   62.6339   64.3467 O   0  0  0  0  0  0  0  0  0  0  0  0
  -35.6426   63.0457   63.4565 P   0  0  0  0  0  0  0  0  0  0  0  0
  -34.8536   61.8239   63.1888 O   0  0  0  0  0  0  0  0  0  0  0  0
  -36.1284   63.8460   62.3066 O   0  0  0  0  0  0  0  0  0  0  0  0
  -36.6655   63.2846   61.7259 H   0  0  0  0  0  0  0  0  0  0  0  0
  -34.7668   64.0025   64.3840 O   0  0  0  0  0  0  0  0  0  0  0  0
  -33.3270   63.9389   64.3305 C   0  0  0  0  0  0  0  0  0  0  0  0
  -31.5308   64.6987   65.7229 O   0  0  0  0  0  0  0  0  0  0  0  0
  -32.7940   64.0274   65.7395 C   0  0  0  0  0  0  0  0  0  0  0  0
  -30.9265   64.2360   65.1215 H   0  0  0  0  0  0  0  0  0  0  0  0
  -34.4900   63.7958   67.4391 O   0  0  0  0  0  0  0  0  0  0  0  0
  -33.7481   64.7350   66.6715 C   0  0  0  0  0  0  0  0  0  0  0  0
  -35.0960   64.2686   68.0306 H   0  0  0  0  0  0  0  0  0  0  0  0
  -38.9944   61.2064   63.9905 O   0  0  0  0  0  0  0  0  0  0  0  0
  -40.2943   60.8373   62.1922 O   0  0  0  0  0  0  0  0  0  0  0  0
  -39.3022   60.6029   62.8264 C   0  0  0  0  0  0  0  0  0  0  0  0
  -38.2520   59.6202   62.4098 C   0  0  0  0  0  0  0  0  0  0  0  0
  -38.8562   58.2541   62.1005 C   0  0  0  0  0  0  0  0  0  0  0  0
  -37.9222   57.3242   61.3436 C   0  0  0  0  0  0  0  0  0  0  0  0
  -37.0158   58.0451   60.3522 C   0  0  0  0  0  0  0  0  0  0  0  0
  -37.7194   58.4894   59.0834 C   0  0  0  0  0  0  0  0  0  0  0  0
  -37.0065   58.0921   57.7875 C   0  0  0  0  0  0  0  0  0  0  0  0
  -36.2694   56.7519   57.8340 C   0  0  0  0  0  0  0  0  0  0  0  0
  -34.7806   56.9244   57.7942 C   0  0  0  0  0  0  0  0  0  0  0  0
  -33.9012   56.3642   58.6020 C   0  0  0  0  0  0  0  0  0  0  0  0
  -34.2084   55.4333   59.7321 C   0  0  0  0  0  0  0  0  0  0  0  0
  -34.1421   56.1248   61.0907 C   0  0  0  0  0  0  0  0  0  0  0  0
  -33.4770   57.4893   61.0482 C   0  0  0  0  0  0  0  0  0  0  0  0
  -32.5024   57.7286   62.1886 C   0  0  0  0  0  0  0  0  0  0  0  0
  -33.0025   58.6915   63.2526 C   0  0  0  0  0  0  0  0  0  0  0  0
  -33.8434   58.0214   64.3286 C   0  0  0  0  0  0  0  0  0  0  0  0
  -35.3322   58.2773   64.2037 C   0  0  0  0  0  0  0  0  0  0  0  0
  -36.1554   57.0381   64.4194 C   0  0  0  0  0  0  0  0  0  0  0  0
 21 22  1  0  0  0
  4  5  2  0  0  0
 25 24  1  0  0  0
 25 26  2  0  0  0
 25 27  1  0  0  0
 25 29  1  0  0  0
 22 20  1  0  0  0
  3  5  1  0  0  0
  3  2  1  0  0  0
 20 19  1  0  0  0
 24 23  1  0  0  0
 19 18  1  0  0  0
 18 17  1  0  0  0
 27 28  1  0  0  0
 17 16  1  0  0  0
 29 30  1  0  0  0
 16 15  1  0  0  0
 34 35  1  0  0  0
 34 36  1  0  0  0
 15 14  1  0  0  0
 31 32  1  0  0  0
 31 33  1  0  0  0
 14 13  1  0  0  0
 37  1  1  0  0  0
 37 39  1  0  0  0
 13 12  1  0  0  0
 38 39  2  0  0  0
 12 11  1  0  0  0
 11 10  1  0  0  0
 10  9  1  0  0  0
  9  8  1  0  0  0
  8  7  1  0  0  0
  7  6  1  0  0  0
  6  5  1  0  0  0
  2  1  1  0  0  0
  1 23  1  0  0  0
 30 32  1  0  0  0
 32 35  1  0  0  0
 39 40  1  0  0  0
 40 41  1  0  0  0
 41 42  1  0  0  0
 42 43  1  0  0  0
 43 44  1  0  0  0
 44 45  1  0  0  0
 45 46  1  0  0  0
 46 47  1  0  0  0
 47 48  2  0  0  0
 48 49  1  0  0  0
 49 50  1  0  0  0
 50 51  1  0  0  0
 51 52  1  0  0  0
 52 53  1  0  0  0
 53 54  1  0  0  0
 54 55  1  0  0  0
 55 56  1  0  0  0
M  CHG 1  26  -1
M  END
> <minimizedAffinity>
-8.79916

> <CNNscore>
0.4235968292

> <CNNaffinity>
7.3328094482

> <CNN_VS>
3.1061549187

> <CNNaffinity_variance>
0.8314005733

$$$$
/media/chris/experiments/cd1a-new-docking/inputs/ligands/7sh4_ligand.pdb


 56 55  0  0  0  0  0  0  0  0999 V2000
  -39.6864   59.6738   65.2122 C   0  0  0  0  0  0  0  0  0  0  0  0
  -40.9863   59.5245   65.9509 C   0  0  0  0  0  0  0  0  0  0  0  0
  -41.4579   58.2156   65.5667 O   0  0  0  0  0  0  0  0  0  0  0  0
  -42.9578   56.7741   66.3864 O   0  0  0  0  0  0  0  0  0  0  0  0
  -42.6781   57.8687   65.9772 C   0  0  0  0  0  0  0  0  0  0  0  0
  -43.6064   59.0490   65.9775 C   0  0  0  0  0  0  0  0  0  0  0  0
  -44.8768   58.8392   66.7839 C   0  0  0  0  0  0  0  0  0  0  0  0
  -46.1327   59.0681   65.9696 C   0  0  0  0  0  0  0  0  0  0  0  0
  -47.4052   58.6268   66.6563 C   0  0  0  0  0  0  0  0  0  0  0  0
  -48.0385   57.4121   66.0085 C   0  0  0  0  0  0  0  0  0  0  0  0
  -48.8895   57.7541   64.8099 C   0  0  0  0  0  0  0  0  0  0  0  0
  -49.8670   58.8671   65.0807 C   0  0  0  0  0  0  0  0  0  0  0  0
  -50.1457   59.7293   63.8696 C   0  0  0  0  0  0  0  0  0  0  0  0
  -51.3747   59.2830   63.1037 C   0  0  0  0  0  0  0  0  0  0  0  0
  -51.0791   58.3394   61.9567 C   0  0  0  0  0  0  0  0  0  0  0  0
  -49.8750   58.7493   61.1165 C   0  0  0  0  0  0  0  0  0  0  0  0
  -48.8793   57.6301   60.8793 C   0  0  0  0  0  0  0  0  0  0  0  0
  -49.3998   56.5469   59.9568 C   0  0  0  0  0  0  0  0  0  0  0  0
  -48.3232   55.9226   59.0802 C   0  0  0  0  0  0  0  0  0  0  0  0
  -48.3441   56.4191   57.6455 C   0  0  0  0  0  0  0  0  0  0  0  0
  -46.4055   57.9868   57.9918 C   0  0  0  0  0  0  0  0  0  0  0  0
  -47.0057   56.9051   57.1225 C   0  0  0  0  0  0  0  0  0  0  0  0
  -38.5853   60.1899   66.1026 C   0  0  0  0  0  0  0  0  0  0  0  0
  -37.3399   60.1546   65.3704 O   0  0  0  0  0  0  0  0  0  0  0  0
  -36.5795   61.4778   64.8879 P   0  0  0  0  0  0  0  0  0  0  0  0
  -35.1777   61.1161   64.5864 O   0  0  0  0  0  0  0  0  0  0  0  0
  -37.3941   62.1174   63.8269 O   0  0  0  0  0  0  0  0  0  0  0  0
  -37.4123   61.5451   63.0440 H   0  0  0  0  0  0  0  0  0  0  0  0
  -36.5750   62.4476   66.1538 O   0  0  0  0  0  0  0  0  0  0  0  0
  -35.3388   62.7332   66.8395 C   0  0  0  0  0  0  0  0  0  0  0  0
  -34.2858   64.6425   67.8337 O   0  0  0  0  0  0  0  0  0  0  0  0
  -35.0498   64.2081   66.7047 C   0  0  0  0  0  0  0  0  0  0  0  0
  -34.7637   64.4267   68.6498 H   0  0  0  0  0  0  0  0  0  0  0  0
  -35.2416   64.8069   64.3759 O   0  0  0  0  0  0  0  0  0  0  0  0
  -34.3200   64.5362   65.4243 C   0  0  0  0  0  0  0  0  0  0  0  0
  -34.7548   65.0152   63.5633 H   0  0  0  0  0  0  0  0  0  0  0  0
  -39.9086   60.5534   64.0603 O   0  0  0  0  0  0  0  0  0  0  0  0
  -40.4090   60.4908   61.8681 O   0  0  0  0  0  0  0  0  0  0  0  0
  -39.9440   59.9719   62.8460 C   0  0  0  0  0  0  0  0  0  0  0  0
  -39.3186   58.6114   62.8575 C   0  0  0  0  0  0  0  0  0  0  0  0
  -38.0101   58.5912   62.0738 C   0  0  0  0  0  0  0  0  0  0  0  0
  -38.1315   57.9806   60.6874 C   0  0  0  0  0  0  0  0  0  0  0  0
  -38.1452   59.0128   59.5656 C   0  0  0  0  0  0  0  0  0  0  0  0
  -37.1267   58.7491   58.4722 C   0  0  0  0  0  0  0  0  0  0  0  0
  -37.2858   57.3995   57.7660 C   0  0  0  0  0  0  0  0  0  0  0  0
  -36.0638   56.4810   57.8332 C   0  0  0  0  0  0  0  0  0  0  0  0
  -36.1595   55.4951   58.9587 C   0  0  0  0  0  0  0  0  0  0  0  0
  -35.3459   55.3988   59.9923 C   0  0  0  0  0  0  0  0  0  0  0  0
  -34.1518   56.2597   60.2590 C   0  0  0  0  0  0  0  0  0  0  0  0
  -34.5079   57.5256   61.0330 C   0  0  0  0  0  0  0  0  0  0  0  0
  -33.9501   57.5539   62.4451 C   0  0  0  0  0  0  0  0  0  0  0  0
  -32.4748   57.9099   62.5111 C   0  0  0  0  0  0  0  0  0  0  0  0
  -32.0934   59.1595   61.7350 C   0  0  0  0  0  0  0  0  0  0  0  0
  -30.7607   59.7549   62.1630 C   0  0  0  0  0  0  0  0  0  0  0  0
  -30.7779   61.2612   62.3317 C   0  0  0  0  0  0  0  0  0  0  0  0
  -32.1626   61.8069   62.5434 C   0  0  0  0  0  0  0  0  0  0  0  0
 21 22  1  0  0  0
  4  5  2  0  0  0
 25 24  1  0  0  0
 25 26  2  0  0  0
 25 27  1  0  0  0
 25 29  1  0  0  0
 22 20  1  0  0  0
  3  5  1  0  0  0
  3  2  1  0  0  0
 20 19  1  0  0  0
 24 23  1  0  0  0
 19 18  1  0  0  0
 18 17  1  0  0  0
 27 28  1  0  0  0
 17 16  1  0  0  0
 29 30  1  0  0  0
 16 15  1  0  0  0
 34 35  1  0  0  0
 34 36  1  0  0  0
 15 14  1  0  0  0
 31 32  1  0  0  0
 31 33  1  0  0  0
 14 13  1  0  0  0
 37  1  1  0  0  0
 37 39  1  0  0  0
 13 12  1  0  0  0
 38 39  2  0  0  0
 12 11  1  0  0  0
 11 10  1  0  0  0
 10  9  1  0  0  0
  9  8  1  0  0  0
  8  7  1  0  0  0
  7  6  1  0  0  0
  6  5  1  0  0  0
  2  1  1  0  0  0
  1 23  1  0  0  0
 30 32  1  0  0  0
 32 35  1  0  0  0
 39 40  1  0  0  0
 40 41  1  0  0  0
 41 42  1  0  0  0
 42 43  1  0  0  0
 43 44  1  0  0  0
 44 45  1  0  0  0
 45 46  1  0  0  0
 46 47  1  0  0  0
 47 48  2  0  0  0
 48 49  1  0  0  0
 49 50  1  0  0  0
 50 51  1  0  0  0
 51 52  1  0  0  0
 52 53  1  0  0  0
 53 54  1  0  0  0
 54 55  1  0  0  0
 55 56  1  0  0  0
M  CHG 1  26  -1
M  END
> <minimizedAffinity>
-8.72892

> <CNNscore>
0.4216723740

> <CNNaffinity>
7.2716760635

> <CNN_VS>
3.0662648678

> <CNNaffinity_variance>
0.7184923291

$$$$
/media/chris/experiments/cd1a-new-docking/inputs/ligands/7sh4_ligand.pdb


 56 55  0  0  0  0  0  0  0  0999 V2000
  -37.1735   60.2069   65.5429 C   0  0  0  0  0  0  0  0  0  0  0  0
  -38.3734   60.9400   65.0133 C   0  0  0  0  0  0  0  0  0  0  0  0
  -39.4327   60.5809   65.9255 O   0  0  0  0  0  0  0  0  0  0  0  0
  -41.1919   61.1035   64.6482 O   0  0  0  0  0  0  0  0  0  0  0  0
  -40.6331   60.3459   65.3948 C   0  0  0  0  0  0  0  0  0  0  0  0
  -41.1243   58.9724   65.7512 C   0  0  0  0  0  0  0  0  0  0  0  0
  -42.4129   58.9638   66.5561 C   0  0  0  0  0  0  0  0  0  0  0  0
  -43.4580   58.0322   65.9794 C   0  0  0  0  0  0  0  0  0  0  0  0
  -44.6423   58.7381   65.3591 C   0  0  0  0  0  0  0  0  0  0  0  0
  -45.8069   58.8959   66.3158 C   0  0  0  0  0  0  0  0  0  0  0  0
  -47.0659   59.3857   65.6430 C   0  0  0  0  0  0  0  0  0  0  0  0
  -48.2179   58.4256   65.7802 C   0  0  0  0  0  0  0  0  0  0  0  0
  -49.5604   59.1120   65.9006 C   0  0  0  0  0  0  0  0  0  0  0  0
  -50.5753   58.5919   64.9028 C   0  0  0  0  0  0  0  0  0  0  0  0
  -51.2207   59.6708   64.0585 C   0  0  0  0  0  0  0  0  0  0  0  0
  -51.1492   59.4048   62.5591 C   0  0  0  0  0  0  0  0  0  0  0  0
  -49.8159   58.8512   62.0944 C   0  0  0  0  0  0  0  0  0  0  0  0
  -49.9371   57.8835   60.9350 C   0  0  0  0  0  0  0  0  0  0  0  0
  -48.6231   57.6350   60.2076 C   0  0  0  0  0  0  0  0  0  0  0  0
  -48.7989   57.0446   58.8199 C   0  0  0  0  0  0  0  0  0  0  0  0
  -46.6113   57.9066   57.9215 C   0  0  0  0  0  0  0  0  0  0  0  0
  -47.5044   56.7009   58.1078 C   0  0  0  0  0  0  0  0  0  0  0  0
  -36.1492   61.1453   66.1276 C   0  0  0  0  0  0  0  0  0  0  0  0
  -36.7545   62.4463   66.2990 O   0  0  0  0  0  0  0  0  0  0  0  0
  -35.9030   63.8010   66.3371 P   0  0  0  0  0  0  0  0  0  0  0  0
  -36.6117   64.8105   65.5213 O   0  0  0  0  0  0  0  0  0  0  0  0
  -35.5994   64.1157   67.7540 O   0  0  0  0  0  0  0  0  0  0  0  0
  -36.4221   64.3293   68.2212 H   0  0  0  0  0  0  0  0  0  0  0  0
  -34.5282   63.4563   65.6064 O   0  0  0  0  0  0  0  0  0  0  0  0
  -34.2511   63.9967   64.2983 C   0  0  0  0  0  0  0  0  0  0  0  0
  -35.0859   62.0447   63.1870 O   0  0  0  0  0  0  0  0  0  0  0  0
  -33.9200   62.8530   63.3713 C   0  0  0  0  0  0  0  0  0  0  0  0
  -35.4119   61.7457   64.0504 H   0  0  0  0  0  0  0  0  0  0  0  0
  -34.4701   63.5474   61.1277 O   0  0  0  0  0  0  0  0  0  0  0  0
  -33.3986   63.3276   62.0362 C   0  0  0  0  0  0  0  0  0  0  0  0
  -34.1158   63.8514   60.2775 H   0  0  0  0  0  0  0  0  0  0  0  0
  -36.6101   59.3986   64.4570 O   0  0  0  0  0  0  0  0  0  0  0  0
  -37.7539   57.5289   64.9628 O   0  0  0  0  0  0  0  0  0  0  0  0
  -36.7623   58.0634   64.5475 C   0  0  0  0  0  0  0  0  0  0  0  0
  -35.5564   57.3270   64.0520 C   0  0  0  0  0  0  0  0  0  0  0  0
  -34.3716   58.2665   63.8504 C   0  0  0  0  0  0  0  0  0  0  0  0
  -34.0468   58.5447   62.3920 C   0  0  0  0  0  0  0  0  0  0  0  0
  -32.7498   57.8960   61.9218 C   0  0  0  0  0  0  0  0  0  0  0  0
  -32.8602   56.4024   61.6780 C   0  0  0  0  0  0  0  0  0  0  0  0
  -34.0452   55.9862   60.8017 C   0  0  0  0  0  0  0  0  0  0  0  0
  -33.6885   55.5977   59.3653 C   0  0  0  0  0  0  0  0  0  0  0  0
  -33.7992   56.7581   58.4223 C   0  0  0  0  0  0  0  0  0  0  0  0
  -34.9015   57.2112   57.8574 C   0  0  0  0  0  0  0  0  0  0  0  0
  -36.2795   56.6589   58.0425 C   0  0  0  0  0  0  0  0  0  0  0  0
  -37.0693   57.4101   59.1104 C   0  0  0  0  0  0  0  0  0  0  0  0
  -37.1132   56.6970   60.4504 C   0  0  0  0  0  0  0  0  0  0  0  0
  -38.1299   57.2785   61.4178 C   0  0  0  0  0  0  0  0  0  0  0  0
  -38.2487   58.7928   61.3714 C   0  0  0  0  0  0  0  0  0  0  0  0
  -39.5133   59.3214   62.0308 C   0  0  0  0  0  0  0  0  0  0  0  0
  -40.2090   60.4195   61.2511 C   0  0  0  0  0  0  0  0  0  0  0  0
  -40.2095   60.1694   59.7688 C   0  0  0  0  0  0  0  0  0  0  0  0
 21 22  1  0  0  0
  4  5  2  0  0  0
 25 24  1  0  0  0
 25 26  2  0  0  0
 25 27  1  0  0  0
 25 29  1  0  0  0
 22 20  1  0  0  0
  3  5  1  0  0  0
  3  2  1  0  0  0
 20 19  1  0  0  0
 24 23  1  0  0  0
 19 18  1  0  0  0
 18 17  1  0  0  0
 27 28  1  0  0  0
 17 16  1  0  0  0
 29 30  1  0  0  0
 16 15  1  0  0  0
 34 35  1  0  0  0
 34 36  1  0  0  0
 15 14  1  0  0  0
 31 32  1  0  0  0
 31 33  1  0  0  0
 14 13  1  0  0  0
 37  1  1  0  0  0
 37 39  1  0  0  0
 13 12  1  0  0  0
 38 39  2  0  0  0
 12 11  1  0  0  0
 11 10  1  0  0  0
 10  9  1  0  0  0
  9  8  1  0  0  0
  8  7  1  0  0  0
  7  6  1  0  0  0
  6  5  1  0  0  0
  2  1  1  0  0  0
  1 23  1  0  0  0
 30 32  1  0  0  0
 32 35  1  0  0  0
 39 40  1  0  0  0
 40 41  1  0  0  0
 41 42  1  0  0  0
 42 43  1  0  0  0
 43 44  1  0  0  0
 44 45  1  0  0  0
 45 46  1  0  0  0
 46 47  1  0  0  0
 47 48  2  0  0  0
 48 49  1  0  0  0
 49 50  1  0  0  0
 50 51  1  0  0  0
 51 52  1  0  0  0
 52 53  1  0  0  0
 53 54  1  0  0  0
 54 55  1  0  0  0
 55 56  1  0  0  0
M  CHG 1  26  -1
M  END
> <minimizedAffinity>
-8.91999

> <CNNscore>
0.4168555140

> <CNNaffinity>
7.3939056396

> <CNN_VS>
3.0821902752

> <CNNaffinity_variance>
0.7350215912

$$$$
/media/chris/experiments/cd1a-new-docking/inputs/ligands/7sh4_ligand.pdb


 56 55  0  0  0  0  0  0  0  0999 V2000
  -39.3963   59.5706   65.0750 C   0  0  0  0  0  0  0  0  0  0  0  0
  -40.1778   58.3320   65.4108 C   0  0  0  0  0  0  0  0  0  0  0  0
  -41.3257   58.8280   66.1316 O   0  0  0  0  0  0  0  0  0  0  0  0
  -42.3851   56.8590   66.1296 O   0  0  0  0  0  0  0  0  0  0  0  0
  -42.4157   58.0601   66.1337 C   0  0  0  0  0  0  0  0  0  0  0  0
  -43.6618   58.8872   66.2682 C   0  0  0  0  0  0  0  0  0  0  0  0
  -44.4892   58.9742   64.9969 C   0  0  0  0  0  0  0  0  0  0  0  0
  -45.4252   57.7965   64.8250 C   0  0  0  0  0  0  0  0  0  0  0  0
  -46.0838   57.3366   66.1058 C   0  0  0  0  0  0  0  0  0  0  0  0
  -47.4279   56.6751   65.8775 C   0  0  0  0  0  0  0  0  0  0  0  0
  -48.5807   57.6488   65.9013 C   0  0  0  0  0  0  0  0  0  0  0  0
  -48.9645   58.1397   64.5305 C   0  0  0  0  0  0  0  0  0  0  0  0
  -50.4509   58.3692   64.3693 C   0  0  0  0  0  0  0  0  0  0  0  0
  -50.7710   59.4214   63.3269 C   0  0  0  0  0  0  0  0  0  0  0  0
  -50.4510   59.0023   61.9073 C   0  0  0  0  0  0  0  0  0  0  0  0
  -51.0738   57.6710   61.5029 C   0  0  0  0  0  0  0  0  0  0  0  0
  -50.2363   56.8710   60.5237 C   0  0  0  0  0  0  0  0  0  0  0  0
  -49.1063   57.6690   59.9059 C   0  0  0  0  0  0  0  0  0  0  0  0
  -48.0202   56.8052   59.2802 C   0  0  0  0  0  0  0  0  0  0  0  0
  -47.2855   57.4849   58.1385 C   0  0  0  0  0  0  0  0  0  0  0  0
  -47.6109   55.2162   57.0978 C   0  0  0  0  0  0  0  0  0  0  0  0
  -47.1021   56.6264   56.9015 C   0  0  0  0  0  0  0  0  0  0  0  0
  -38.3393   59.8703   66.1068 C   0  0  0  0  0  0  0  0  0  0  0  0
  -38.0489   61.2856   66.0778 O   0  0  0  0  0  0  0  0  0  0  0  0
  -36.5595   61.8672   66.1504 P   0  0  0  0  0  0  0  0  0  0  0  0
  -36.3468   62.4133   67.5081 O   0  0  0  0  0  0  0  0  0  0  0  0
  -35.6320   60.8248   65.6485 O   0  0  0  0  0  0  0  0  0  0  0  0
  -35.6317   60.0712   66.2591 H   0  0  0  0  0  0  0  0  0  0  0  0
  -36.5310   63.0849   65.1212 O   0  0  0  0  0  0  0  0  0  0  0  0
  -35.8353   64.3014   65.4620 C   0  0  0  0  0  0  0  0  0  0  0  0
  -34.2330   65.4481   64.0980 O   0  0  0  0  0  0  0  0  0  0  0  0
  -34.4582   64.2502   64.8471 C   0  0  0  0  0  0  0  0  0  0  0  0
  -34.9354   65.5531   63.4372 H   0  0  0  0  0  0  0  0  0  0  0  0
  -33.5470   62.8473   66.5850 O   0  0  0  0  0  0  0  0  0  0  0  0
  -33.3732   64.0707   65.8816 C   0  0  0  0  0  0  0  0  0  0  0  0
  -32.8417   62.7501   67.2437 H   0  0  0  0  0  0  0  0  0  0  0  0
  -40.3383   60.6843   64.9255 O   0  0  0  0  0  0  0  0  0  0  0  0
  -41.6638   61.6527   63.3875 O   0  0  0  0  0  0  0  0  0  0  0  0
  -40.6723   61.0370   63.6692 C   0  0  0  0  0  0  0  0  0  0  0  0
  -39.6517   60.5864   62.6705 C   0  0  0  0  0  0  0  0  0  0  0  0
  -40.2916   60.2660   61.3233 C   0  0  0  0  0  0  0  0  0  0  0  0
  -39.3112   59.7514   60.2822 C   0  0  0  0  0  0  0  0  0  0  0  0
  -38.0385   59.1636   60.8812 C   0  0  0  0  0  0  0  0  0  0  0  0
  -38.0380   57.6485   60.9633 C   0  0  0  0  0  0  0  0  0  0  0  0
  -37.5692   57.0839   62.3075 C   0  0  0  0  0  0  0  0  0  0  0  0
  -36.9376   58.1036   63.2578 C   0  0  0  0  0  0  0  0  0  0  0  0
  -36.0018   57.4597   64.2363 C   0  0  0  0  0  0  0  0  0  0  0  0
  -34.7090   57.6909   64.3584 C   0  0  0  0  0  0  0  0  0  0  0  0
  -33.9030   58.6510   63.5419 C   0  0  0  0  0  0  0  0  0  0  0  0
  -33.0598   57.9486   62.4816 C   0  0  0  0  0  0  0  0  0  0  0  0
  -33.8594   57.4808   61.2784 C   0  0  0  0  0  0  0  0  0  0  0  0
  -33.5593   56.0501   60.8654 C   0  0  0  0  0  0  0  0  0  0  0  0
  -33.9582   55.7098   59.4390 C   0  0  0  0  0  0  0  0  0  0  0  0
  -35.3957   56.0804   59.1074 C   0  0  0  0  0  0  0  0  0  0  0  0
  -35.5388   57.0249   57.9305 C   0  0  0  0  0  0  0  0  0  0  0  0
  -36.9678   57.4067   57.6618 C   0  0  0  0  0  0  0  0  0  0  0  0
 21 22  1  0  0  0
  4  5  2  0  0  0
 25 24  1  0  0  0
 25 26  2  0  0  0
 25 27  1  0  0  0
 25 29  1  0  0  0
 22 20  1  0  0  0
  3  5  1  0  0  0
  3  2  1  0  0  0
 20 19  1  0  0  0
 24 23  1  0  0  0
 19 18  1  0  0  0
 18 17  1  0  0  0
 27 28  1  0  0  0
 17 16  1  0  0  0
 29 30  1  0  0  0
 16 15  1  0  0  0
 34 35  1  0  0  0
 34 36  1  0  0  0
 15 14  1  0  0  0
 31 32  1  0  0  0
 31 33  1  0  0  0
 14 13  1  0  0  0
 37  1  1  0  0  0
 37 39  1  0  0  0
 13 12  1  0  0  0
 38 39  2  0  0  0
 12 11  1  0  0  0
 11 10  1  0  0  0
 10  9  1  0  0  0
  9  8  1  0  0  0
  8  7  1  0  0  0
  7  6  1  0  0  0
  6  5  1  0  0  0
  2  1  1  0  0  0
  1 23  1  0  0  0
 30 32  1  0  0  0
 32 35  1  0  0  0
 39 40  1  0  0  0
 40 41  1  0  0  0
 41 42  1  0  0  0
 42 43  1  0  0  0
 43 44  1  0  0  0
 44 45  1  0  0  0
 45 46  1  0  0  0
 46 47  1  0  0  0
 47 48  2  0  0  0
 48 49  1  0  0  0
 49 50  1  0  0  0
 50 51  1  0  0  0
 51 52  1  0  0  0
 52 53  1  0  0  0
 53 54  1  0  0  0
 54 55  1  0  0  0
 55 56  1  0  0  0
M  CHG 1  26  -1
M  END
> <minimizedAffinity>
-8.82081

> <CNNscore>
0.3974664509

> <CNNaffinity>
7.4677495956

> <CNN_VS>
2.9681799412

> <CNNaffinity_variance>
0.9761211276

$$$$
/media/chris/experiments/cd1a-new-docking/inputs/ligands/7sh4_ligand.pdb


 56 55  0  0  0  0  0  0  0  0999 V2000
  -37.6518   60.3491   64.9765 C   0  0  0  0  0  0  0  0  0  0  0  0
  -38.5303   59.8702   66.0974 C   0  0  0  0  0  0  0  0  0  0  0  0
  -39.6548   59.2644   65.4253 O   0  0  0  0  0  0  0  0  0  0  0  0
  -41.0922   60.8506   66.0714 O   0  0  0  0  0  0  0  0  0  0  0  0
  -40.8670   59.7150   65.7501 C   0  0  0  0  0  0  0  0  0  0  0  0
  -41.9129   58.6583   65.5396 C   0  0  0  0  0  0  0  0  0  0  0  0
  -42.7015   58.3078   66.7901 C   0  0  0  0  0  0  0  0  0  0  0  0
  -44.1166   58.8455   66.7606 C   0  0  0  0  0  0  0  0  0  0  0  0
  -44.6914   59.0008   65.3710 C   0  0  0  0  0  0  0  0  0  0  0  0
  -46.1851   59.2557   65.3717 C   0  0  0  0  0  0  0  0  0  0  0  0
  -46.9508   58.3023   64.4871 C   0  0  0  0  0  0  0  0  0  0  0  0
  -48.0893   57.6230   65.2010 C   0  0  0  0  0  0  0  0  0  0  0  0
  -49.1177   58.5889   65.7465 C   0  0  0  0  0  0  0  0  0  0  0  0
  -50.4409   58.5114   65.0121 C   0  0  0  0  0  0  0  0  0  0  0  0
  -50.7545   59.7326   64.1733 C   0  0  0  0  0  0  0  0  0  0  0  0
  -50.9092   59.4353   62.6862 C   0  0  0  0  0  0  0  0  0  0  0  0
  -50.8026   57.9631   62.3377 C   0  0  0  0  0  0  0  0  0  0  0  0
  -49.7031   57.6585   61.3409 C   0  0  0  0  0  0  0  0  0  0  0  0
  -50.1692   57.6825   59.8919 C   0  0  0  0  0  0  0  0  0  0  0  0
  -49.2317   56.9617   58.9398 C   0  0  0  0  0  0  0  0  0  0  0  0
  -46.9447   57.8360   58.3559 C   0  0  0  0  0  0  0  0  0  0  0  0
  -47.7663   57.0190   59.3273 C   0  0  0  0  0  0  0  0  0  0  0  0
  -36.4501   61.1051   65.4824 C   0  0  0  0  0  0  0  0  0  0  0  0
  -36.8976   62.3388   66.0876 O   0  0  0  0  0  0  0  0  0  0  0  0
  -35.9691   63.6379   66.1973 P   0  0  0  0  0  0  0  0  0  0  0  0
  -36.5695   64.7015   65.3637 O   0  0  0  0  0  0  0  0  0  0  0  0
  -35.7257   63.9112   67.6342 O   0  0  0  0  0  0  0  0  0  0  0  0
  -36.5585   64.1676   68.0602 H   0  0  0  0  0  0  0  0  0  0  0  0
  -34.5795   63.2209   65.5357 O   0  0  0  0  0  0  0  0  0  0  0  0
  -33.3422   63.7278   66.0760 C   0  0  0  0  0  0  0  0  0  0  0  0
  -32.6697   63.1529   63.8490 O   0  0  0  0  0  0  0  0  0  0  0  0
  -32.4219   64.0600   64.9272 C   0  0  0  0  0  0  0  0  0  0  0  0
  -32.5641   62.2410   64.1628 H   0  0  0  0  0  0  0  0  0  0  0  0
  -33.9546   65.7958   64.2513 O   0  0  0  0  0  0  0  0  0  0  0  0
  -32.5821   65.4855   64.4561 C   0  0  0  0  0  0  0  0  0  0  0  0
  -34.0369   66.7139   63.9496 H   0  0  0  0  0  0  0  0  0  0  0  0
  -38.4643   61.1671   64.0705 O   0  0  0  0  0  0  0  0  0  0  0  0
  -37.2919   60.9559   62.1624 O   0  0  0  0  0  0  0  0  0  0  0  0
  -38.3377   60.9262   62.7514 C   0  0  0  0  0  0  0  0  0  0  0  0
  -39.6520   60.5995   62.1127 C   0  0  0  0  0  0  0  0  0  0  0  0
  -39.6249   59.2263   61.4492 C   0  0  0  0  0  0  0  0  0  0  0  0
  -38.6069   58.2713   62.0505 C   0  0  0  0  0  0  0  0  0  0  0  0
  -37.8220   57.4818   61.0089 C   0  0  0  0  0  0  0  0  0  0  0  0
  -37.0286   58.3474   60.0479 C   0  0  0  0  0  0  0  0  0  0  0  0
  -37.2885   58.0572   58.5668 C   0  0  0  0  0  0  0  0  0  0  0  0
  -36.6786   56.7560   58.0410 C   0  0  0  0  0  0  0  0  0  0  0  0
  -35.1886   56.8467   57.9009 C   0  0  0  0  0  0  0  0  0  0  0  0
  -34.2884   56.2985   58.6938 C   0  0  0  0  0  0  0  0  0  0  0  0
  -34.5688   55.4656   59.9045 C   0  0  0  0  0  0  0  0  0  0  0  0
  -34.0097   56.0871   61.1811 C   0  0  0  0  0  0  0  0  0  0  0  0
  -33.5432   57.5217   61.0068 C   0  0  0  0  0  0  0  0  0  0  0  0
  -32.5995   57.9933   62.0997 C   0  0  0  0  0  0  0  0  0  0  0  0
  -33.1179   59.1650   62.9169 C   0  0  0  0  0  0  0  0  0  0  0  0
  -34.5551   58.9894   63.3829 C   0  0  0  0  0  0  0  0  0  0  0  0
  -34.7295   57.9697   64.4909 C   0  0  0  0  0  0  0  0  0  0  0  0
  -35.9431   57.1037   64.2984 C   0  0  0  0  0  0  0  0  0  0  0  0
 21 22  1  0  0  0
  4  5  2  0  0  0
 25 24  1  0  0  0
 25 26  2  0  0  0
 25 27  1  0  0  0
 25 29  1  0  0  0
 22 20  1  0  0  0
  3  5  1  0  0  0
  3  2  1  0  0  0
 20 19  1  0  0  0
 24 23  1  0  0  0
 19 18  1  0  0  0
 18 17  1  0  0  0
 27 28  1  0  0  0
 17 16  1  0  0  0
 29 30  1  0  0  0
 16 15  1  0  0  0
 34 35  1  0  0  0
 34 36  1  0  0  0
 15 14  1  0  0  0
 31 32  1  0  0  0
 31 33  1  0  0  0
 14 13  1  0  0  0
 37  1  1  0  0  0
 37 39  1  0  0  0
 13 12  1  0  0  0
 38 39  2  0  0  0
 12 11  1  0  0  0
 11 10  1  0  0  0
 10  9  1  0  0  0
  9  8  1  0  0  0
  8  7  1  0  0  0
  7  6  1  0  0  0
  6  5  1  0  0  0
  2  1  1  0  0  0
  1 23  1  0  0  0
 30 32  1  0  0  0
 32 35  1  0  0  0
 39 40  1  0  0  0
 40 41  1  0  0  0
 41 42  1  0  0  0
 42 43  1  0  0  0
 43 44  1  0  0  0
 44 45  1  0  0  0
 45 46  1  0  0  0
 46 47  1  0  0  0
 47 48  2  0  0  0
 48 49  1  0  0  0
 49 50  1  0  0  0
 50 51  1  0  0  0
 51 52  1  0  0  0
 52 53  1  0  0  0
 53 54  1  0  0  0
 54 55  1  0  0  0
 55 56  1  0  0  0
M  CHG 1  26  -1
M  END
> <minimizedAffinity>
-9.01766

> <CNNscore>
0.3799486160

> <CNNaffinity>
7.3187422752

> <CNN_VS>
2.7807459831

> <CNNaffinity_variance>
0.7770026922

$$$$
