/media/chris/experiments/cd1a-new-docking/inputs/ligands/7sh4_ligand.pdb


 56 55  0  0  0  0  0  0  0  0999 V2000
  -38.6460   60.7635   63.3499 C   0  0  0  0  0  0  0  0  0  0  0  0
  -38.1377   60.1446   62.0786 C   0  0  0  0  0  0  0  0  0  0  0  0
  -39.3356   59.7268   61.3904 O   0  0  0  0  0  0  0  0  0  0  0  0
  -40.3054   60.2299   59.4396 O   0  0  0  0  0  0  0  0  0  0  0  0
  -39.3478   59.8599   60.0638 C   0  0  0  0  0  0  0  0  0  0  0  0
  -37.9865   59.6106   59.4811 C   0  0  0  0  0  0  0  0  0  0  0  0
  -37.7355   58.1648   59.0869 C   0  0  0  0  0  0  0  0  0  0  0  0
  -36.9140   58.0364   57.8215 C   0  0  0  0  0  0  0  0  0  0  0  0
  -36.1541   56.7345   57.7060 C   0  0  0  0  0  0  0  0  0  0  0  0
  -36.6357   55.6780   58.6797 C   0  0  0  0  0  0  0  0  0  0  0  0
  -35.5304   55.1134   59.5383 C   0  0  0  0  0  0  0  0  0  0  0  0
  -34.1731   55.6625   59.1863 C   0  0  0  0  0  0  0  0  0  0  0  0
  -33.7423   56.8110   60.0715 C   0  0  0  0  0  0  0  0  0  0  0  0
  -33.6680   56.4259   61.5352 C   0  0  0  0  0  0  0  0  0  0  0  0
  -32.3668   56.8076   62.2094 C   0  0  0  0  0  0  0  0  0  0  0  0
  -32.5091   57.9279   63.2333 C   0  0  0  0  0  0  0  0  0  0  0  0
  -32.7767   59.2903   62.6230 C   0  0  0  0  0  0  0  0  0  0  0  0
  -31.7501   59.6976   61.5860 C   0  0  0  0  0  0  0  0  0  0  0  0
  -30.9285   60.9152   61.9861 C   0  0  0  0  0  0  0  0  0  0  0  0
  -31.5638   61.7406   63.0906 C   0  0  0  0  0  0  0  0  0  0  0  0
  -32.4038   63.6694   61.7085 C   0  0  0  0  0  0  0  0  0  0  0  0
  -31.5277   63.2400   62.8635 C   0  0  0  0  0  0  0  0  0  0  0  0
  -37.5286   61.0869   64.3084 C   0  0  0  0  0  0  0  0  0  0  0  0
  -37.1672   62.4771   64.1493 O   0  0  0  0  0  0  0  0  0  0  0  0
  -35.8325   62.9459   63.4003 P   0  0  0  0  0  0  0  0  0  0  0  0
  -35.1067   61.7360   62.9575 O   0  0  0  0  0  0  0  0  0  0  0  0
  -36.2046   63.9637   62.3881 O   0  0  0  0  0  0  0  0  0  0  0  0
  -36.7426   63.5493   61.6955 H   0  0  0  0  0  0  0  0  0  0  0  0
  -34.9516   63.6656   64.5178 O   0  0  0  0  0  0  0  0  0  0  0  0
  -34.1748   62.8774   65.4425 C   0  0  0  0  0  0  0  0  0  0  0  0
  -33.9440   62.5749   67.8085 O   0  0  0  0  0  0  0  0  0  0  0  0
  -34.8872   62.8651   66.7727 C   0  0  0  0  0  0  0  0  0  0  0  0
  -33.4981   61.7357   67.6139 H   0  0  0  0  0  0  0  0  0  0  0  0
  -36.9643   64.0892   66.6986 O   0  0  0  0  0  0  0  0  0  0  0  0
  -35.5914   64.1695   67.0596 C   0  0  0  0  0  0  0  0  0  0  0  0
  -37.3990   64.9351   66.8899 H   0  0  0  0  0  0  0  0  0  0  0  0
  -39.6255   59.8510   63.9481 O   0  0  0  0  0  0  0  0  0  0  0  0
  -41.3173   61.3333   63.9638 O   0  0  0  0  0  0  0  0  0  0  0  0
  -40.7418   60.4038   64.4602 C   0  0  0  0  0  0  0  0  0  0  0  0
  -41.1884   59.7100   65.7097 C   0  0  0  0  0  0  0  0  0  0  0  0
  -42.5697   59.0857   65.5391 C   0  0  0  0  0  0  0  0  0  0  0  0
  -42.8100   57.8708   66.4201 C   0  0  0  0  0  0  0  0  0  0  0  0
  -44.2184   57.3001   66.3008 C   0  0  0  0  0  0  0  0  0  0  0  0
  -45.1616   58.1529   65.4730 C   0  0  0  0  0  0  0  0  0  0  0  0
  -46.3043   58.7926   66.2667 C   0  0  0  0  0  0  0  0  0  0  0  0
  -47.6868   58.1832   66.0246 C   0  0  0  0  0  0  0  0  0  0  0  0
  -48.7807   59.2027   66.1337 C   0  0  0  0  0  0  0  0  0  0  0  0
  -49.9300   59.1968   65.4867 C   0  0  0  0  0  0  0  0  0  0  0  0
  -50.3846   58.1639   64.5045 C   0  0  0  0  0  0  0  0  0  0  0  0
  -50.0676   58.5516   63.0630 C   0  0  0  0  0  0  0  0  0  0  0  0
  -51.0972   58.0621   62.0598 C   0  0  0  0  0  0  0  0  0  0  0  0
  -50.4918   57.5591   60.7607 C   0  0  0  0  0  0  0  0  0  0  0  0
  -48.9793   57.6830   60.6813 C   0  0  0  0  0  0  0  0  0  0  0  0
  -48.3760   56.9767   59.4768 C   0  0  0  0  0  0  0  0  0  0  0  0
  -46.8999   57.2519   59.2692 C   0  0  0  0  0  0  0  0  0  0  0  0
  -46.6210   57.9973   57.9940 C   0  0  0  0  0  0  0  0  0  0  0  0
 21 22  1  0  0  0
  4  5  2  0  0  0
 25 24  1  0  0  0
 25 26  2  0  0  0
 25 27  1  0  0  0
 25 29  1  0  0  0
 22 20  1  0  0  0
  3  5  1  0  0  0
  3  2  1  0  0  0
 20 19  1  0  0  0
 24 23  1  0  0  0
 19 18  1  0  0  0
 18 17  1  0  0  0
 27 28  1  0  0  0
 17 16  1  0  0  0
 29 30  1  0  0  0
 16 15  1  0  0  0
 34 35  1  0  0  0
 34 36  1  0  0  0
 15 14  1  0  0  0
 31 32  1  0  0  0
 31 33  1  0  0  0
 14 13  1  0  0  0
 37  1  1  0  0  0
 37 39  1  0  0  0
 13 12  1  0  0  0
 38 39  2  0  0  0
 12 11  1  0  0  0
 11 10  1  0  0  0
 10  9  1  0  0  0
  9  8  1  0  0  0
  8  7  1  0  0  0
  7  6  1  0  0  0
  6  5  1  0  0  0
  2  1  1  0  0  0
  1 23  1  0  0  0
 30 32  1  0  0  0
 32 35  1  0  0  0
 39 40  1  0  0  0
 40 41  1  0  0  0
 41 42  1  0  0  0
 42 43  1  0  0  0
 43 44  1  0  0  0
 44 45  1  0  0  0
 45 46  1  0  0  0
 46 47  1  0  0  0
 47 48  2  0  0  0
 48 49  1  0  0  0
 49 50  1  0  0  0
 50 51  1  0  0  0
 51 52  1  0  0  0
 52 53  1  0  0  0
 53 54  1  0  0  0
 54 55  1  0  0  0
 55 56  1  0  0  0
M  CHG 1  26  -1
M  END
> <minimizedAffinity>
-8.70953

> <CNNscore>
0.7667009830

> <CNNaffinity>
7.4596624374

> <CNN_VS>
5.7193303108

> <CNNaffinity_variance>
0.9208761454

$$$$
/media/chris/experiments/cd1a-new-docking/inputs/ligands/7sh4_ligand.pdb


 56 55  0  0  0  0  0  0  0  0999 V2000
  -39.0029   60.0005   65.2785 C   0  0  0  0  0  0  0  0  0  0  0  0
  -40.2434   60.3370   66.0566 C   0  0  0  0  0  0  0  0  0  0  0  0
  -41.0030   59.1097   66.0508 O   0  0  0  0  0  0  0  0  0  0  0  0
  -42.6042   59.4111   67.5819 O   0  0  0  0  0  0  0  0  0  0  0  0
  -42.2731   59.1834   66.4496 C   0  0  0  0  0  0  0  0  0  0  0  0
  -43.2147   59.0711   65.2854 C   0  0  0  0  0  0  0  0  0  0  0  0
  -44.3056   58.0293   65.4678 C   0  0  0  0  0  0  0  0  0  0  0  0
  -45.6933   58.6339   65.5051 C   0  0  0  0  0  0  0  0  0  0  0  0
  -46.8098   57.6349   65.3021 C   0  0  0  0  0  0  0  0  0  0  0  0
  -48.0435   58.2447   64.6678 C   0  0  0  0  0  0  0  0  0  0  0  0
  -49.1606   58.4858   65.6535 C   0  0  0  0  0  0  0  0  0  0  0  0
  -50.5238   58.4677   65.0139 C   0  0  0  0  0  0  0  0  0  0  0  0
  -50.7369   59.5908   64.0233 C   0  0  0  0  0  0  0  0  0  0  0  0
  -51.1736   59.0936   62.6600 C   0  0  0  0  0  0  0  0  0  0  0  0
  -50.2058   58.1221   62.0173 C   0  0  0  0  0  0  0  0  0  0  0  0
  -50.8044   57.3312   60.8598 C   0  0  0  0  0  0  0  0  0  0  0  0
  -49.9176   57.2707   59.6309 C   0  0  0  0  0  0  0  0  0  0  0  0
  -49.1693   55.9607   59.4924 C   0  0  0  0  0  0  0  0  0  0  0  0
  -47.6893   56.1333   59.1809 C   0  0  0  0  0  0  0  0  0  0  0  0
  -47.2384   57.5828   59.1572 C   0  0  0  0  0  0  0  0  0  0  0  0
  -45.0348   58.0800   58.0468 C   0  0  0  0  0  0  0  0  0  0  0  0
  -46.5359   58.0084   57.8818 C   0  0  0  0  0  0  0  0  0  0  0  0
  -37.7516   60.4617   65.9808 C   0  0  0  0  0  0  0  0  0  0  0  0
  -37.4233   61.7917   65.5205 O   0  0  0  0  0  0  0  0  0  0  0  0
  -36.1934   62.6329   66.1051 P   0  0  0  0  0  0  0  0  0  0  0  0
  -36.7309   63.8720   66.7070 O   0  0  0  0  0  0  0  0  0  0  0  0
  -35.3749   61.7284   66.9482 O   0  0  0  0  0  0  0  0  0  0  0  0
  -35.8856   61.4644   67.7294 H   0  0  0  0  0  0  0  0  0  0  0  0
  -35.3202   63.0425   64.8352 O   0  0  0  0  0  0  0  0  0  0  0  0
  -33.8802   63.0112   64.9092 C   0  0  0  0  0  0  0  0  0  0  0  0
  -34.4067   65.1922   64.0674 O   0  0  0  0  0  0  0  0  0  0  0  0
  -33.3595   64.4011   64.6369 C   0  0  0  0  0  0  0  0  0  0  0  0
  -34.7449   64.7553   63.2701 H   0  0  0  0  0  0  0  0  0  0  0  0
  -31.4194   64.8567   65.9958 O   0  0  0  0  0  0  0  0  0  0  0  0
  -32.8208   65.0670   65.8803 C   0  0  0  0  0  0  0  0  0  0  0  0
  -31.0923   65.2911   66.7991 H   0  0  0  0  0  0  0  0  0  0  0  0
  -39.1224   60.5904   63.9415 O   0  0  0  0  0  0  0  0  0  0  0  0
  -39.7026   58.6164   63.0324 O   0  0  0  0  0  0  0  0  0  0  0  0
  -39.6539   59.8148   62.9772 C   0  0  0  0  0  0  0  0  0  0  0  0
  -40.1923   60.6254   61.8392 C   0  0  0  0  0  0  0  0  0  0  0  0
  -39.8775   59.9785   60.4942 C   0  0  0  0  0  0  0  0  0  0  0  0
  -38.3913   59.8679   60.1962 C   0  0  0  0  0  0  0  0  0  0  0  0
  -38.0713   58.9478   59.0237 C   0  0  0  0  0  0  0  0  0  0  0  0
  -36.9069   58.0084   59.2766 C   0  0  0  0  0  0  0  0  0  0  0  0
  -36.2762   57.4209   58.0109 C   0  0  0  0  0  0  0  0  0  0  0  0
  -34.7629   57.2046   58.0771 C   0  0  0  0  0  0  0  0  0  0  0  0
  -34.4000   55.9923   58.8813 C   0  0  0  0  0  0  0  0  0  0  0  0
  -33.9544   55.9753   60.1225 C   0  0  0  0  0  0  0  0  0  0  0  0
  -33.7185   57.1696   60.9921 C   0  0  0  0  0  0  0  0  0  0  0  0
  -32.6420   56.9201   62.0446 C   0  0  0  0  0  0  0  0  0  0  0  0
  -32.4932   58.0533   63.0446 C   0  0  0  0  0  0  0  0  0  0  0  0
  -33.4053   59.2357   62.7668 C   0  0  0  0  0  0  0  0  0  0  0  0
  -34.5146   59.4286   63.7873 C   0  0  0  0  0  0  0  0  0  0  0  0
  -35.9102   59.3422   63.1885 C   0  0  0  0  0  0  0  0  0  0  0  0
  -36.4962   57.9442   63.1759 C   0  0  0  0  0  0  0  0  0  0  0  0
  -36.0148   57.1016   64.3238 C   0  0  0  0  0  0  0  0  0  0  0  0
 21 22  1  0  0  0
  4  5  2  0  0  0
 25 24  1  0  0  0
 25 26  2  0  0  0
 25 27  1  0  0  0
 25 29  1  0  0  0
 22 20  1  0  0  0
  3  5  1  0  0  0
  3  2  1  0  0  0
 20 19  1  0  0  0
 24 23  1  0  0  0
 19 18  1  0  0  0
 18 17  1  0  0  0
 27 28  1  0  0  0
 17 16  1  0  0  0
 29 30  1  0  0  0
 16 15  1  0  0  0
 34 35  1  0  0  0
 34 36  1  0  0  0
 15 14  1  0  0  0
 31 32  1  0  0  0
 31 33  1  0  0  0
 14 13  1  0  0  0
 37  1  1  0  0  0
 37 39  1  0  0  0
 13 12  1  0  0  0
 38 39  2  0  0  0
 12 11  1  0  0  0
 11 10  1  0  0  0
 10  9  1  0  0  0
  9  8  1  0  0  0
  8  7  1  0  0  0
  7  6  1  0  0  0
  6  5  1  0  0  0
  2  1  1  0  0  0
  1 23  1  0  0  0
 30 32  1  0  0  0
 32 35  1  0  0  0
 39 40  1  0  0  0
 40 41  1  0  0  0
 41 42  1  0  0  0
 42 43  1  0  0  0
 43 44  1  0  0  0
 44 45  1  0  0  0
 45 46  1  0  0  0
 46 47  1  0  0  0
 47 48  2  0  0  0
 48 49  1  0  0  0
 49 50  1  0  0  0
 50 51  1  0  0  0
 51 52  1  0  0  0
 52 53  1  0  0  0
 53 54  1  0  0  0
 54 55  1  0  0  0
 55 56  1  0  0  0
M  CHG 1  26  -1
M  END
> <minimizedAffinity>
-8.92024

> <CNNscore>
0.5777202249

> <CNNaffinity>
7.5345230103

> <CNN_VS>
4.3528461456

> <CNNaffinity_variance>
0.7765003443

$$$$
/media/chris/experiments/cd1a-new-docking/inputs/ligands/7sh4_ligand.pdb


 56 55  0  0  0  0  0  0  0  0999 V2000
  -36.8159   60.3282   64.9155 C   0  0  0  0  0  0  0  0  0  0  0  0
  -37.8262   60.1719   66.0167 C   0  0  0  0  0  0  0  0  0  0  0  0
  -38.9143   59.4573   65.3934 O   0  0  0  0  0  0  0  0  0  0  0  0
  -40.4248   60.9641   66.0621 O   0  0  0  0  0  0  0  0  0  0  0  0
  -40.1504   59.8517   65.7003 C   0  0  0  0  0  0  0  0  0  0  0  0
  -41.1518   58.7699   65.4142 C   0  0  0  0  0  0  0  0  0  0  0  0
  -42.4945   59.2820   64.9206 C   0  0  0  0  0  0  0  0  0  0  0  0
  -43.6122   59.0498   65.9154 C   0  0  0  0  0  0  0  0  0  0  0  0
  -44.9991   59.2369   65.3433 C   0  0  0  0  0  0  0  0  0  0  0  0
  -45.5753   57.9643   64.7561 C   0  0  0  0  0  0  0  0  0  0  0  0
  -47.0502   57.7987   65.0293 C   0  0  0  0  0  0  0  0  0  0  0  0
  -47.8252   59.0803   64.8732 C   0  0  0  0  0  0  0  0  0  0  0  0
  -49.1416   58.9015   64.1500 C   0  0  0  0  0  0  0  0  0  0  0  0
  -48.9850   58.2053   62.8131 C   0  0  0  0  0  0  0  0  0  0  0  0
  -49.9175   58.7187   61.7360 C   0  0  0  0  0  0  0  0  0  0  0  0
  -49.4061   58.4902   60.3182 C   0  0  0  0  0  0  0  0  0  0  0  0
  -50.0104   57.2798   59.6327 C   0  0  0  0  0  0  0  0  0  0  0  0
  -49.2913   55.9852   59.9526 C   0  0  0  0  0  0  0  0  0  0  0  0
  -48.0419   55.7576   59.1132 C   0  0  0  0  0  0  0  0  0  0  0  0
  -48.2035   56.1661   57.6599 C   0  0  0  0  0  0  0  0  0  0  0  0
  -46.3763   57.7979   58.2382 C   0  0  0  0  0  0  0  0  0  0  0  0
  -47.1118   57.0770   57.1313 C   0  0  0  0  0  0  0  0  0  0  0  0
  -37.0721   61.5578   64.0824 C   0  0  0  0  0  0  0  0  0  0  0  0
  -35.9445   61.7671   63.2032 O   0  0  0  0  0  0  0  0  0  0  0  0
  -35.1403   63.1495   63.1380 P   0  0  0  0  0  0  0  0  0  0  0  0
  -34.2239   63.0921   61.9789 O   0  0  0  0  0  0  0  0  0  0  0  0
  -36.1218   64.2584   63.2158 O   0  0  0  0  0  0  0  0  0  0  0  0
  -36.6744   64.2576   62.4186 H   0  0  0  0  0  0  0  0  0  0  0  0
  -34.2543   63.1857   64.4633 O   0  0  0  0  0  0  0  0  0  0  0  0
  -34.3173   64.3273   65.3424 C   0  0  0  0  0  0  0  0  0  0  0  0
  -34.0272   64.7574   67.6819 O   0  0  0  0  0  0  0  0  0  0  0  0
  -34.5879   63.8350   66.7429 C   0  0  0  0  0  0  0  0  0  0  0  0
  -33.0811   64.8691   67.4998 H   0  0  0  0  0  0  0  0  0  0  0  0
  -36.2728   62.6022   67.9510 O   0  0  0  0  0  0  0  0  0  0  0  0
  -36.0619   63.6488   67.0120 C   0  0  0  0  0  0  0  0  0  0  0  0
  -37.2239   62.4978   68.1107 H   0  0  0  0  0  0  0  0  0  0  0  0
  -36.8293   59.1093   64.1006 O   0  0  0  0  0  0  0  0  0  0  0  0
  -35.8586   57.0817   64.1818 O   0  0  0  0  0  0  0  0  0  0  0  0
  -35.7766   58.2787   64.2270 C   0  0  0  0  0  0  0  0  0  0  0  0
  -34.4922   59.0259   64.4118 C   0  0  0  0  0  0  0  0  0  0  0  0
  -33.7867   59.2623   63.0802 C   0  0  0  0  0  0  0  0  0  0  0  0
  -32.4446   58.5593   62.9604 C   0  0  0  0  0  0  0  0  0  0  0  0
  -32.5155   57.2332   62.2120 C   0  0  0  0  0  0  0  0  0  0  0  0
  -33.5488   57.2061   61.1012 C   0  0  0  0  0  0  0  0  0  0  0  0
  -34.3555   55.9075   61.0135 C   0  0  0  0  0  0  0  0  0  0  0  0
  -34.6014   55.3877   59.5955 C   0  0  0  0  0  0  0  0  0  0  0  0
  -34.3592   56.4420   58.5573 C   0  0  0  0  0  0  0  0  0  0  0  0
  -35.2761   57.1053   57.8800 C   0  0  0  0  0  0  0  0  0  0  0  0
  -36.7579   56.9437   58.0088 C   0  0  0  0  0  0  0  0  0  0  0  0
  -37.4149   58.1319   58.7053 C   0  0  0  0  0  0  0  0  0  0  0  0
  -37.0192   58.2782   60.1642 C   0  0  0  0  0  0  0  0  0  0  0  0
  -37.7697   57.3429   61.0965 C   0  0  0  0  0  0  0  0  0  0  0  0
  -38.8149   58.0240   61.9643 C   0  0  0  0  0  0  0  0  0  0  0  0
  -38.9608   59.5115   61.6816 C   0  0  0  0  0  0  0  0  0  0  0  0
  -40.3526   59.9290   61.2498 C   0  0  0  0  0  0  0  0  0  0  0  0
  -40.3497   60.7427   59.9859 C   0  0  0  0  0  0  0  0  0  0  0  0
 21 22  1  0  0  0
  4  5  2  0  0  0
 25 24  1  0  0  0
 25 26  2  0  0  0
 25 27  1  0  0  0
 25 29  1  0  0  0
 22 20  1  0  0  0
  3  5  1  0  0  0
  3  2  1  0  0  0
 20 19  1  0  0  0
 24 23  1  0  0  0
 19 18  1  0  0  0
 18 17  1  0  0  0
 27 28  1  0  0  0
 17 16  1  0  0  0
 29 30  1  0  0  0
 16 15  1  0  0  0
 34 35  1  0  0  0
 34 36  1  0  0  0
 15 14  1  0  0  0
 31 32  1  0  0  0
 31 33  1  0  0  0
 14 13  1  0  0  0
 37  1  1  0  0  0
 37 39  1  0  0  0
 13 12  1  0  0  0
 38 39  2  0  0  0
 12 11  1  0  0  0
 11 10  1  0  0  0
 10  9  1  0  0  0
  9  8  1  0  0  0
  8  7  1  0  0  0
  7  6  1  0  0  0
  6  5  1  0  0  0
  2  1  1  0  0  0
  1 23  1  0  0  0
 30 32  1  0  0  0
 32 35  1  0  0  0
 39 40  1  0  0  0
 40 41  1  0  0  0
 41 42  1  0  0  0
 42 43  1  0  0  0
 43 44  1  0  0  0
 44 45  1  0  0  0
 45 46  1  0  0  0
 46 47  1  0  0  0
 47 48  2  0  0  0
 48 49  1  0  0  0
 49 50  1  0  0  0
 50 51  1  0  0  0
 51 52  1  0  0  0
 52 53  1  0  0  0
 53 54  1  0  0  0
 54 55  1  0  0  0
 55 56  1  0  0  0
M  CHG 1  26  -1
M  END
> <minimizedAffinity>
-8.86860

> <CNNscore>
0.5600537658

> <CNNaffinity>
7.6678757668

> <CNN_VS>
4.2944226265

> <CNNaffinity_variance>
0.8594622612

$$$$
/media/chris/experiments/cd1a-new-docking/inputs/ligands/7sh4_ligand.pdb


 56 55  0  0  0  0  0  0  0  0999 V2000
  -39.7747   59.6447   65.1606 C   0  0  0  0  0  0  0  0  0  0  0  0
  -40.9749   59.7634   66.0568 C   0  0  0  0  0  0  0  0  0  0  0  0
  -42.0798   59.3729   65.2142 O   0  0  0  0  0  0  0  0  0  0  0  0
  -43.0471   58.3110   66.9276 O   0  0  0  0  0  0  0  0  0  0  0  0
  -43.0866   58.7244   65.8002 C   0  0  0  0  0  0  0  0  0  0  0  0
  -44.3003   58.6949   64.9165 C   0  0  0  0  0  0  0  0  0  0  0  0
  -45.5817   58.3071   65.6350 C   0  0  0  0  0  0  0  0  0  0  0  0
  -46.4227   59.5053   66.0217 C   0  0  0  0  0  0  0  0  0  0  0  0
  -47.8335   59.4728   65.4791 C   0  0  0  0  0  0  0  0  0  0  0  0
  -48.4651   58.0973   65.5506 C   0  0  0  0  0  0  0  0  0  0  0  0
  -49.8639   58.0558   64.9856 C   0  0  0  0  0  0  0  0  0  0  0  0
  -50.6820   59.2662   65.3503 C   0  0  0  0  0  0  0  0  0  0  0  0
  -51.1778   60.0399   64.1488 C   0  0  0  0  0  0  0  0  0  0  0  0
  -51.0297   59.2674   62.8535 C   0  0  0  0  0  0  0  0  0  0  0  0
  -49.9526   59.8036   61.9339 C   0  0  0  0  0  0  0  0  0  0  0  0
  -49.6918   58.9273   60.7140 C   0  0  0  0  0  0  0  0  0  0  0  0
  -50.3416   57.5590   60.7879 C   0  0  0  0  0  0  0  0  0  0  0  0
  -49.3944   56.4239   60.4564 C   0  0  0  0  0  0  0  0  0  0  0  0
  -49.0138   56.3572   58.9839 C   0  0  0  0  0  0  0  0  0  0  0  0
  -47.8282   55.4514   58.7033 C   0  0  0  0  0  0  0  0  0  0  0  0
  -47.3203   56.6114   56.5279 C   0  0  0  0  0  0  0  0  0  0  0  0
  -47.4900   55.2853   57.2339 C   0  0  0  0  0  0  0  0  0  0  0  0
  -38.5347   60.2195   65.7960 C   0  0  0  0  0  0  0  0  0  0  0  0
  -37.3901   59.8607   64.9900 O   0  0  0  0  0  0  0  0  0  0  0  0
  -36.3467   60.9407   64.4359 P   0  0  0  0  0  0  0  0  0  0  0  0
  -35.0624   60.7405   65.1411 O   0  0  0  0  0  0  0  0  0  0  0  0
  -36.3627   60.8799   62.9543 O   0  0  0  0  0  0  0  0  0  0  0  0
  -36.0102   60.0249   62.6620 H   0  0  0  0  0  0  0  0  0  0  0  0
  -36.9322   62.3576   64.8745 O   0  0  0  0  0  0  0  0  0  0  0  0
  -36.1756   63.5596   64.6242 C   0  0  0  0  0  0  0  0  0  0  0  0
  -36.9143   63.8848   66.8806 O   0  0  0  0  0  0  0  0  0  0  0  0
  -35.8828   64.2217   65.9483 C   0  0  0  0  0  0  0  0  0  0  0  0
  -37.7760   64.1403   66.5158 H   0  0  0  0  0  0  0  0  0  0  0  0
  -34.6757   62.8850   67.5527 O   0  0  0  0  0  0  0  0  0  0  0  0
  -34.5331   63.8305   66.5005 C   0  0  0  0  0  0  0  0  0  0  0  0
  -33.7996   62.6463   67.8940 H   0  0  0  0  0  0  0  0  0  0  0  0
  -40.0838   60.3002   63.8860 O   0  0  0  0  0  0  0  0  0  0  0  0
  -39.4717   58.4706   62.7294 O   0  0  0  0  0  0  0  0  0  0  0  0
  -39.7477   59.6387   62.7619 C   0  0  0  0  0  0  0  0  0  0  0  0
  -39.7776   60.5283   61.5579 C   0  0  0  0  0  0  0  0  0  0  0  0
  -39.5345   59.7403   60.2747 C   0  0  0  0  0  0  0  0  0  0  0  0
  -38.0785   59.7037   59.8403 C   0  0  0  0  0  0  0  0  0  0  0  0
  -37.5119   58.2932   59.7249 C   0  0  0  0  0  0  0  0  0  0  0  0
  -36.8412   58.0048   58.3948 C   0  0  0  0  0  0  0  0  0  0  0  0
  -36.4811   56.5336   58.1690 C   0  0  0  0  0  0  0  0  0  0  0  0
  -36.1864   55.7326   59.4390 C   0  0  0  0  0  0  0  0  0  0  0  0
  -34.7217   55.6970   59.7573 C   0  0  0  0  0  0  0  0  0  0  0  0
  -34.1385   56.1807   60.8369 C   0  0  0  0  0  0  0  0  0  0  0  0
  -34.8220   56.8684   61.9763 C   0  0  0  0  0  0  0  0  0  0  0  0
  -34.1118   58.1538   62.3911 C   0  0  0  0  0  0  0  0  0  0  0  0
  -32.5975   58.0637   62.3198 C   0  0  0  0  0  0  0  0  0  0  0  0
  -31.9540   59.2058   61.5525 C   0  0  0  0  0  0  0  0  0  0  0  0
  -31.2232   60.2154   62.4220 C   0  0  0  0  0  0  0  0  0  0  0  0
  -32.0007   61.5051   62.6364 C   0  0  0  0  0  0  0  0  0  0  0  0
  -31.6603   62.6074   61.6530 C   0  0  0  0  0  0  0  0  0  0  0  0
  -32.3615   63.9003   61.9633 C   0  0  0  0  0  0  0  0  0  0  0  0
 21 22  1  0  0  0
  4  5  2  0  0  0
 25 24  1  0  0  0
 25 26  2  0  0  0
 25 27  1  0  0  0
 25 29  1  0  0  0
 22 20  1  0  0  0
  3  5  1  0  0  0
  3  2  1  0  0  0
 20 19  1  0  0  0
 24 23  1  0  0  0
 19 18  1  0  0  0
 18 17  1  0  0  0
 27 28  1  0  0  0
 17 16  1  0  0  0
 29 30  1  0  0  0
 16 15  1  0  0  0
 34 35  1  0  0  0
 34 36  1  0  0  0
 15 14  1  0  0  0
 31 32  1  0  0  0
 31 33  1  0  0  0
 14 13  1  0  0  0
 37  1  1  0  0  0
 37 39  1  0  0  0
 13 12  1  0  0  0
 38 39  2  0  0  0
 12 11  1  0  0  0
 11 10  1  0  0  0
 10  9  1  0  0  0
  9  8  1  0  0  0
  8  7  1  0  0  0
  7  6  1  0  0  0
  6  5  1  0  0  0
  2  1  1  0  0  0
  1 23  1  0  0  0
 30 32  1  0  0  0
 32 35  1  0  0  0
 39 40  1  0  0  0
 40 41  1  0  0  0
 41 42  1  0  0  0
 42 43  1  0  0  0
 43 44  1  0  0  0
 44 45  1  0  0  0
 45 46  1  0  0  0
 46 47  1  0  0  0
 47 48  2  0  0  0
 48 49  1  0  0  0
 49 50  1  0  0  0
 50 51  1  0  0  0
 51 52  1  0  0  0
 52 53  1  0  0  0
 53 54  1  0  0  0
 54 55  1  0  0  0
 55 56  1  0  0  0
M  CHG 1  26  -1
M  END
> <minimizedAffinity>
-8.76225

> <CNNscore>
0.5279304981

> <CNNaffinity>
7.0953979492

> <CNN_VS>
3.7458770275

> <CNNaffinity_variance>
0.6234024763

$$$$
/media/chris/experiments/cd1a-new-docking/inputs/ligands/7sh4_ligand.pdb


 56 55  0  0  0  0  0  0  0  0999 V2000
  -38.6519   60.6796   61.7850 C   0  0  0  0  0  0  0  0  0  0  0  0
  -38.9640   59.6955   60.6932 C   0  0  0  0  0  0  0  0  0  0  0  0
  -37.7438   59.6274   59.9254 O   0  0  0  0  0  0  0  0  0  0  0  0
  -38.8394   58.6666   58.2295 O   0  0  0  0  0  0  0  0  0  0  0  0
  -37.8122   59.0325   58.7341 C   0  0  0  0  0  0  0  0  0  0  0  0
  -36.4676   58.9990   58.0664 C   0  0  0  0  0  0  0  0  0  0  0  0
  -35.7083   57.6980   58.2652 C   0  0  0  0  0  0  0  0  0  0  0  0
  -36.6091   56.4815   58.2251 C   0  0  0  0  0  0  0  0  0  0  0  0
  -36.5315   55.6125   59.4598 C   0  0  0  0  0  0  0  0  0  0  0  0
  -35.5014   56.0949   60.4611 C   0  0  0  0  0  0  0  0  0  0  0  0
  -36.0936   56.9403   61.5620 C   0  0  0  0  0  0  0  0  0  0  0  0
  -37.5636   56.6892   61.7707 C   0  0  0  0  0  0  0  0  0  0  0  0
  -38.1006   57.2957   63.0481 C   0  0  0  0  0  0  0  0  0  0  0  0
  -37.0890   57.2752   64.1763 C   0  0  0  0  0  0  0  0  0  0  0  0
  -36.7375   58.6457   64.7161 C   0  0  0  0  0  0  0  0  0  0  0  0
  -35.2942   59.0598   64.4530 C   0  0  0  0  0  0  0  0  0  0  0  0
  -34.2766   57.9790   64.7635 C   0  0  0  0  0  0  0  0  0  0  0  0
  -33.0912   57.9791   63.8199 C   0  0  0  0  0  0  0  0  0  0  0  0
  -33.2965   58.8416   62.5824 C   0  0  0  0  0  0  0  0  0  0  0  0
  -32.0808   58.9013   61.6749 C   0  0  0  0  0  0  0  0  0  0  0  0
  -31.1591   61.2224   61.9896 C   0  0  0  0  0  0  0  0  0  0  0  0
  -30.9347   59.7426   62.2036 C   0  0  0  0  0  0  0  0  0  0  0  0
  -37.1687   60.8903   61.9504 C   0  0  0  0  0  0  0  0  0  0  0  0
  -36.9537   61.9638   62.8935 O   0  0  0  0  0  0  0  0  0  0  0  0
  -35.6474   62.8886   62.8722 P   0  0  0  0  0  0  0  0  0  0  0  0
  -34.4623   62.0093   62.9685 O   0  0  0  0  0  0  0  0  0  0  0  0
  -35.7559   63.8140   61.7186 O   0  0  0  0  0  0  0  0  0  0  0  0
  -35.7121   63.3074   60.8925 H   0  0  0  0  0  0  0  0  0  0  0  0
  -35.7236   63.7582   64.2066 O   0  0  0  0  0  0  0  0  0  0  0  0
  -36.2634   63.1819   65.4134 C   0  0  0  0  0  0  0  0  0  0  0  0
  -36.4865   63.7916   67.7202 O   0  0  0  0  0  0  0  0  0  0  0  0
  -35.6041   63.8491   66.5955 C   0  0  0  0  0  0  0  0  0  0  0  0
  -37.3358   64.1974   67.4859 H   0  0  0  0  0  0  0  0  0  0  0  0
  -33.5394   62.9194   65.7645 O   0  0  0  0  0  0  0  0  0  0  0  0
  -34.2756   63.2213   66.9428 C   0  0  0  0  0  0  0  0  0  0  0  0
  -32.6906   62.5175   66.0076 H   0  0  0  0  0  0  0  0  0  0  0  0
  -39.2732   60.2050   63.0255 O   0  0  0  0  0  0  0  0  0  0  0  0
  -41.0098   61.6338   62.9733 O   0  0  0  0  0  0  0  0  0  0  0  0
  -40.5566   60.5539   63.2379 C   0  0  0  0  0  0  0  0  0  0  0  0
  -41.3531   59.4301   63.8249 C   0  0  0  0  0  0  0  0  0  0  0  0
  -40.8364   59.0409   65.2064 C   0  0  0  0  0  0  0  0  0  0  0  0
  -41.7418   58.0755   65.9535 C   0  0  0  0  0  0  0  0  0  0  0  0
  -42.6726   58.7587   66.9488 C   0  0  0  0  0  0  0  0  0  0  0  0
  -44.1317   58.7534   66.5327 C   0  0  0  0  0  0  0  0  0  0  0  0
  -44.5143   57.6285   65.5666 C   0  0  0  0  0  0  0  0  0  0  0  0
  -45.6618   57.9547   64.6084 C   0  0  0  0  0  0  0  0  0  0  0  0
  -46.5791   59.0036   65.1618 C   0  0  0  0  0  0  0  0  0  0  0  0
  -47.7861   59.3047   64.7237 C   0  0  0  0  0  0  0  0  0  0  0  0
  -48.4961   58.6567   63.5772 C   0  0  0  0  0  0  0  0  0  0  0  0
  -50.0024   58.5635   63.8026 C   0  0  0  0  0  0  0  0  0  0  0  0
  -50.7676   58.0417   62.5991 C   0  0  0  0  0  0  0  0  0  0  0  0
  -50.0773   58.3119   61.2733 C   0  0  0  0  0  0  0  0  0  0  0  0
  -50.3836   57.2960   60.1855 C   0  0  0  0  0  0  0  0  0  0  0  0
  -49.3652   57.2927   59.0556 C   0  0  0  0  0  0  0  0  0  0  0  0
  -47.9443   57.5806   59.4982 C   0  0  0  0  0  0  0  0  0  0  0  0
  -46.9562   57.5027   58.3680 C   0  0  0  0  0  0  0  0  0  0  0  0
 21 22  1  0  0  0
  4  5  2  0  0  0
 25 24  1  0  0  0
 25 26  2  0  0  0
 25 27  1  0  0  0
 25 29  1  0  0  0
 22 20  1  0  0  0
  3  5  1  0  0  0
  3  2  1  0  0  0
 20 19  1  0  0  0
 24 23  1  0  0  0
 19 18  1  0  0  0
 18 17  1  0  0  0
 27 28  1  0  0  0
 17 16  1  0  0  0
 29 30  1  0  0  0
 16 15  1  0  0  0
 34 35  1  0  0  0
 34 36  1  0  0  0
 15 14  1  0  0  0
 31 32  1  0  0  0
 31 33  1  0  0  0
 14 13  1  0  0  0
 37  1  1  0  0  0
 37 39  1  0  0  0
 13 12  1  0  0  0
 38 39  2  0  0  0
 12 11  1  0  0  0
 11 10  1  0  0  0
 10  9  1  0  0  0
  9  8  1  0  0  0
  8  7  1  0  0  0
  7  6  1  0  0  0
  6  5  1  0  0  0
  2  1  1  0  0  0
  1 23  1  0  0  0
 30 32  1  0  0  0
 32 35  1  0  0  0
 39 40  1  0  0  0
 40 41  1  0  0  0
 41 42  1  0  0  0
 42 43  1  0  0  0
 43 44  1  0  0  0
 44 45  1  0  0  0
 45 46  1  0  0  0
 46 47  1  0  0  0
 47 48  2  0  0  0
 48 49  1  0  0  0
 49 50  1  0  0  0
 50 51  1  0  0  0
 51 52  1  0  0  0
 52 53  1  0  0  0
 53 54  1  0  0  0
 54 55  1  0  0  0
 55 56  1  0  0  0
M  CHG 1  26  -1
M  END
> <minimizedAffinity>
-7.96359

> <CNNscore>
0.4648096561

> <CNNaffinity>
7.4156694412

> <CNN_VS>
3.4468748569

> <CNNaffinity_variance>
0.6633261442

$$$$
/media/chris/experiments/cd1a-new-docking/inputs/ligands/7sh4_ligand.pdb


 56 55  0  0  0  0  0  0  0  0999 V2000
  -38.7770   60.7005   63.5761 C   0  0  0  0  0  0  0  0  0  0  0  0
  -38.5628   59.8812   62.3349 C   0  0  0  0  0  0  0  0  0  0  0  0
  -39.4389   60.4871   61.3611 O   0  0  0  0  0  0  0  0  0  0  0  0
  -39.9394   60.5275   59.1823 O   0  0  0  0  0  0  0  0  0  0  0  0
  -39.3572   60.0334   60.1100 C   0  0  0  0  0  0  0  0  0  0  0  0
  -38.3562   58.9195   60.0011 C   0  0  0  0  0  0  0  0  0  0  0  0
  -37.5184   58.9597   58.7342 C   0  0  0  0  0  0  0  0  0  0  0  0
  -37.6953   57.7256   57.8749 C   0  0  0  0  0  0  0  0  0  0  0  0
  -36.4693   56.8443   57.7968 C   0  0  0  0  0  0  0  0  0  0  0  0
  -35.1724   57.6268   57.8423 C   0  0  0  0  0  0  0  0  0  0  0  0
  -33.9605   56.7554   58.0650 C   0  0  0  0  0  0  0  0  0  0  0  0
  -34.1542   55.7487   59.1679 C   0  0  0  0  0  0  0  0  0  0  0  0
  -33.5066   56.1559   60.4729 C   0  0  0  0  0  0  0  0  0  0  0  0
  -34.4855   56.1803   61.6295 C   0  0  0  0  0  0  0  0  0  0  0  0
  -35.8245   56.8026   61.2927 C   0  0  0  0  0  0  0  0  0  0  0  0
  -36.7677   56.9172   62.4848 C   0  0  0  0  0  0  0  0  0  0  0  0
  -36.0631   56.9474   63.8275 C   0  0  0  0  0  0  0  0  0  0  0  0
  -35.6573   58.3405   64.2634 C   0  0  0  0  0  0  0  0  0  0  0  0
  -34.1717   58.4766   64.5665 C   0  0  0  0  0  0  0  0  0  0  0  0
  -33.4247   59.3424   63.5678 C   0  0  0  0  0  0  0  0  0  0  0  0
  -31.8691   59.3635   61.5889 C   0  0  0  0  0  0  0  0  0  0  0  0
  -32.2812   58.6461   62.8544 C   0  0  0  0  0  0  0  0  0  0  0  0
  -37.5050   61.3577   64.0473 C   0  0  0  0  0  0  0  0  0  0  0  0
  -36.9848   62.1823   62.9806 O   0  0  0  0  0  0  0  0  0  0  0  0
  -35.7095   63.1324   63.1619 P   0  0  0  0  0  0  0  0  0  0  0  0
  -34.9909   63.1859   61.8706 O   0  0  0  0  0  0  0  0  0  0  0  0
  -36.1641   64.4026   63.7773 O   0  0  0  0  0  0  0  0  0  0  0  0
  -36.7372   64.8765   63.1546 H   0  0  0  0  0  0  0  0  0  0  0  0
  -34.7728   62.3857   64.2146 O   0  0  0  0  0  0  0  0  0  0  0  0
  -34.1261   63.1350   65.2635 C   0  0  0  0  0  0  0  0  0  0  0  0
  -33.9528   62.4744   67.5605 O   0  0  0  0  0  0  0  0  0  0  0  0
  -34.8754   62.8950   66.5511 C   0  0  0  0  0  0  0  0  0  0  0  0
  -33.4734   61.6891   67.2533 H   0  0  0  0  0  0  0  0  0  0  0  0
  -37.0272   63.9574   66.7947 O   0  0  0  0  0  0  0  0  0  0  0  0
  -35.6314   64.1177   67.0129 C   0  0  0  0  0  0  0  0  0  0  0  0
  -37.4950   64.7516   67.0970 H   0  0  0  0  0  0  0  0  0  0  0  0
  -39.3528   59.8328   64.6083 O   0  0  0  0  0  0  0  0  0  0  0  0
  -41.4007   60.7193   64.3257 O   0  0  0  0  0  0  0  0  0  0  0  0
  -40.6940   59.8375   64.7314 C   0  0  0  0  0  0  0  0  0  0  0  0
  -41.1983   58.6055   65.4167 C   0  0  0  0  0  0  0  0  0  0  0  0
  -42.3503   58.9248   66.3641 C   0  0  0  0  0  0  0  0  0  0  0  0
  -43.6551   58.2344   66.0025 C   0  0  0  0  0  0  0  0  0  0  0  0
  -44.5193   59.0331   65.0335 C   0  0  0  0  0  0  0  0  0  0  0  0
  -45.9709   59.1553   65.4583 C   0  0  0  0  0  0  0  0  0  0  0  0
  -46.8739   58.0171   64.9745 C   0  0  0  0  0  0  0  0  0  0  0  0
  -47.8552   58.3920   63.8619 C   0  0  0  0  0  0  0  0  0  0  0  0
  -49.2827   58.2861   64.3083 C   0  0  0  0  0  0  0  0  0  0  0  0
  -50.3550   58.3833   63.5467 C   0  0  0  0  0  0  0  0  0  0  0  0
  -50.3701   58.6194   62.0694 C   0  0  0  0  0  0  0  0  0  0  0  0
  -51.0280   57.4752   61.3035 C   0  0  0  0  0  0  0  0  0  0  0  0
  -50.0883   56.7622   60.3471 C   0  0  0  0  0  0  0  0  0  0  0  0
  -49.0717   57.6814   59.6922 C   0  0  0  0  0  0  0  0  0  0  0  0
  -47.7445   57.0188   59.3622 C   0  0  0  0  0  0  0  0  0  0  0  0
  -47.0905   57.5668   58.1029 C   0  0  0  0  0  0  0  0  0  0  0  0
  -47.3863   56.7669   56.8498 C   0  0  0  0  0  0  0  0  0  0  0  0
  -47.5170   55.2936   57.1178 C   0  0  0  0  0  0  0  0  0  0  0  0
 21 22  1  0  0  0
  4  5  2  0  0  0
 25 24  1  0  0  0
 25 26  2  0  0  0
 25 27  1  0  0  0
 25 29  1  0  0  0
 22 20  1  0  0  0
  3  5  1  0  0  0
  3  2  1  0  0  0
 20 19  1  0  0  0
 24 23  1  0  0  0
 19 18  1  0  0  0
 18 17  1  0  0  0
 27 28  1  0  0  0
 17 16  1  0  0  0
 29 30  1  0  0  0
 16 15  1  0  0  0
 34 35  1  0  0  0
 34 36  1  0  0  0
 15 14  1  0  0  0
 31 32  1  0  0  0
 31 33  1  0  0  0
 14 13  1  0  0  0
 37  1  1  0  0  0
 37 39  1  0  0  0
 13 12  1  0  0  0
 38 39  2  0  0  0
 12 11  1  0  0  0
 11 10  1  0  0  0
 10  9  1  0  0  0
  9  8  1  0  0  0
  8  7  1  0  0  0
  7  6  1  0  0  0
  6  5  1  0  0  0
  2  1  1  0  0  0
  1 23  1  0  0  0
 30 32  1  0  0  0
 32 35  1  0  0  0
 39 40  1  0  0  0
 40 41  1  0  0  0
 41 42  1  0  0  0
 42 43  1  0  0  0
 43 44  1  0  0  0
 44 45  1  0  0  0
 45 46  1  0  0  0
 46 47  1  0  0  0
 47 48  2  0  0  0
 48 49  1  0  0  0
 49 50  1  0  0  0
 50 51  1  0  0  0
 51 52  1  0  0  0
 52 53  1  0  0  0
 53 54  1  0  0  0
 54 55  1  0  0  0
 55 56  1  0  0  0
M  CHG 1  26  -1
M  END
> <minimizedAffinity>
-8.81997

> <CNNscore>
0.4214837253

> <CNNaffinity>
7.4805421829

> <CNN_VS>
3.1529266834

> <CNNaffinity_variance>
0.6275326610

$$$$
/media/chris/experiments/cd1a-new-docking/inputs/ligands/7sh4_ligand.pdb


 56 55  0  0  0  0  0  0  0  0999 V2000
  -38.1944   60.6764   62.8083 C   0  0  0  0  0  0  0  0  0  0  0  0
  -39.6388   60.7330   63.2183 C   0  0  0  0  0  0  0  0  0  0  0  0
  -39.6005   60.5841   64.6534 O   0  0  0  0  0  0  0  0  0  0  0  0
  -40.9501   61.1238   66.3524 O   0  0  0  0  0  0  0  0  0  0  0  0
  -40.7706   60.5870   65.2925 C   0  0  0  0  0  0  0  0  0  0  0  0
  -41.8449   59.9481   64.4604 C   0  0  0  0  0  0  0  0  0  0  0  0
  -42.5988   58.8350   65.1684 C   0  0  0  0  0  0  0  0  0  0  0  0
  -44.0673   59.1505   65.3590 C   0  0  0  0  0  0  0  0  0  0  0  0
  -44.9946   58.0002   65.0387 C   0  0  0  0  0  0  0  0  0  0  0  0
  -46.4003   58.4494   64.6946 C   0  0  0  0  0  0  0  0  0  0  0  0
  -46.8079   59.7191   65.4013 C   0  0  0  0  0  0  0  0  0  0  0  0
  -48.0875   60.3055   64.8664 C   0  0  0  0  0  0  0  0  0  0  0  0
  -48.9300   59.3097   64.1004 C   0  0  0  0  0  0  0  0  0  0  0  0
  -50.3127   59.8391   63.7773 C   0  0  0  0  0  0  0  0  0  0  0  0
  -51.1309   58.9274   62.8869 C   0  0  0  0  0  0  0  0  0  0  0  0
  -50.3073   57.8602   62.1752 C   0  0  0  0  0  0  0  0  0  0  0  0
  -51.0105   57.2282   60.9893 C   0  0  0  0  0  0  0  0  0  0  0  0
  -50.3767   57.5763   59.6580 C   0  0  0  0  0  0  0  0  0  0  0  0
  -48.9207   58.0065   59.7692 C   0  0  0  0  0  0  0  0  0  0  0  0
  -47.9352   56.9275   59.3577 C   0  0  0  0  0  0  0  0  0  0  0  0
  -46.0046   57.9257   58.0878 C   0  0  0  0  0  0  0  0  0  0  0  0
  -46.4783   57.3479   59.4022 C   0  0  0  0  0  0  0  0  0  0  0  0
  -37.3647   61.7191   63.5126 C   0  0  0  0  0  0  0  0  0  0  0  0
  -36.0327   61.7101   62.9522 O   0  0  0  0  0  0  0  0  0  0  0  0
  -35.1449   63.0337   62.8043 P   0  0  0  0  0  0  0  0  0  0  0  0
  -33.7625   62.6237   62.4762 O   0  0  0  0  0  0  0  0  0  0  0  0
  -35.8494   63.9618   61.8870 O   0  0  0  0  0  0  0  0  0  0  0  0
  -35.8720   63.5800   60.9956 H   0  0  0  0  0  0  0  0  0  0  0  0
  -35.1295   63.6962   64.2547 O   0  0  0  0  0  0  0  0  0  0  0  0
  -34.1645   63.2636   65.2352 C   0  0  0  0  0  0  0  0  0  0  0  0
  -34.0879   62.6362   67.5468 O   0  0  0  0  0  0  0  0  0  0  0  0
  -34.9050   62.6042   66.3728 C   0  0  0  0  0  0  0  0  0  0  0  0
  -33.2354   62.2134   67.3590 H   0  0  0  0  0  0  0  0  0  0  0  0
  -36.2305   63.8997   67.9165 O   0  0  0  0  0  0  0  0  0  0  0  0
  -36.2376   63.2588   66.6473 C   0  0  0  0  0  0  0  0  0  0  0  0
  -37.0934   64.3136   68.0746 H   0  0  0  0  0  0  0  0  0  0  0  0
  -38.1223   60.8207   61.3509 O   0  0  0  0  0  0  0  0  0  0  0  0
  -39.7558   60.3408   59.8807 O   0  0  0  0  0  0  0  0  0  0  0  0
  -38.8774   59.9815   60.6162 C   0  0  0  0  0  0  0  0  0  0  0  0
  -38.4787   58.5516   60.8122 C   0  0  0  0  0  0  0  0  0  0  0  0
  -37.2414   58.1990   59.9926 C   0  0  0  0  0  0  0  0  0  0  0  0
  -37.3437   58.5833   58.5258 C   0  0  0  0  0  0  0  0  0  0  0  0
  -37.1726   57.4054   57.5735 C   0  0  0  0  0  0  0  0  0  0  0  0
  -36.1728   56.3678   58.0489 C   0  0  0  0  0  0  0  0  0  0  0  0
  -34.7105   56.8187   57.9898 C   0  0  0  0  0  0  0  0  0  0  0  0
  -33.7813   56.1514   59.0059 C   0  0  0  0  0  0  0  0  0  0  0  0
  -34.4603   55.9132   60.3213 C   0  0  0  0  0  0  0  0  0  0  0  0
  -34.0097   56.2538   61.5131 C   0  0  0  0  0  0  0  0  0  0  0  0
  -32.7198   56.9546   61.8019 C   0  0  0  0  0  0  0  0  0  0  0  0
  -32.7873   57.7991   63.0711 C   0  0  0  0  0  0  0  0  0  0  0  0
  -33.7294   58.9853   62.9644 C   0  0  0  0  0  0  0  0  0  0  0  0
  -34.7093   59.0919   64.1201 C   0  0  0  0  0  0  0  0  0  0  0  0
  -35.3104   57.7673   64.5600 C   0  0  0  0  0  0  0  0  0  0  0  0
  -36.6833   57.4972   63.9632 C   0  0  0  0  0  0  0  0  0  0  0  0
  -37.8221   57.5796   64.9603 C   0  0  0  0  0  0  0  0  0  0  0  0
  -39.1623   57.3084   64.3360 C   0  0  0  0  0  0  0  0  0  0  0  0
 21 22  1  0  0  0
  4  5  2  0  0  0
 25 24  1  0  0  0
 25 26  2  0  0  0
 25 27  1  0  0  0
 25 29  1  0  0  0
 22 20  1  0  0  0
  3  5  1  0  0  0
  3  2  1  0  0  0
 20 19  1  0  0  0
 24 23  1  0  0  0
 19 18  1  0  0  0
 18 17  1  0  0  0
 27 28  1  0  0  0
 17 16  1  0  0  0
 29 30  1  0  0  0
 16 15  1  0  0  0
 34 35  1  0  0  0
 34 36  1  0  0  0
 15 14  1  0  0  0
 31 32  1  0  0  0
 31 33  1  0  0  0
 14 13  1  0  0  0
 37  1  1  0  0  0
 37 39  1  0  0  0
 13 12  1  0  0  0
 38 39  2  0  0  0
 12 11  1  0  0  0
 11 10  1  0  0  0
 10  9  1  0  0  0
  9  8  1  0  0  0
  8  7  1  0  0  0
  7  6  1  0  0  0
  6  5  1  0  0  0
  2  1  1  0  0  0
  1 23  1  0  0  0
 30 32  1  0  0  0
 32 35  1  0  0  0
 39 40  1  0  0  0
 40 41  1  0  0  0
 41 42  1  0  0  0
 42 43  1  0  0  0
 43 44  1  0  0  0
 44 45  1  0  0  0
 45 46  1  0  0  0
 46 47  1  0  0  0
 47 48  2  0  0  0
 48 49  1  0  0  0
 49 50  1  0  0  0
 50 51  1  0  0  0
 51 52  1  0  0  0
 52 53  1  0  0  0
 53 54  1  0  0  0
 54 55  1  0  0  0
 55 56  1  0  0  0
M  CHG 1  26  -1
M  END
> <minimizedAffinity>
-9.10664

> <CNNscore>
0.3948182464

> <CNNaffinity>
7.3645219803

> <CNN_VS>
2.9076476097

> <CNNaffinity_variance>
1.0457032919

$$$$
/media/chris/experiments/cd1a-new-docking/inputs/ligands/7sh4_ligand.pdb


 56 55  0  0  0  0  0  0  0  0999 V2000
  -38.1574   61.0937   63.3215 C   0  0  0  0  0  0  0  0  0  0  0  0
  -37.8967   60.5499   61.9452 C   0  0  0  0  0  0  0  0  0  0  0  0
  -39.2030   60.5087   61.3328 O   0  0  0  0  0  0  0  0  0  0  0  0
  -40.2562   60.1590   59.3918 O   0  0  0  0  0  0  0  0  0  0  0  0
  -39.2637   60.0970   60.0662 C   0  0  0  0  0  0  0  0  0  0  0  0
  -37.9124   59.6712   59.5687 C   0  0  0  0  0  0  0  0  0  0  0  0
  -37.8593   58.2383   59.0664 C   0  0  0  0  0  0  0  0  0  0  0  0
  -36.8707   58.0499   57.9350 C   0  0  0  0  0  0  0  0  0  0  0  0
  -36.3076   56.6507   57.8312 C   0  0  0  0  0  0  0  0  0  0  0  0
  -36.5611   55.8157   59.0701 C   0  0  0  0  0  0  0  0  0  0  0  0
  -35.2975   55.2632   59.6830 C   0  0  0  0  0  0  0  0  0  0  0  0
  -34.1002   56.1493   59.4619 C   0  0  0  0  0  0  0  0  0  0  0  0
  -33.8816   57.1513   60.5738 C   0  0  0  0  0  0  0  0  0  0  0  0
  -33.0084   56.6088   61.6873 C   0  0  0  0  0  0  0  0  0  0  0  0
  -32.4410   57.6739   62.6022 C   0  0  0  0  0  0  0  0  0  0  0  0
  -33.2151   58.9868   62.5736 C   0  0  0  0  0  0  0  0  0  0  0  0
  -34.1931   59.1508   63.7211 C   0  0  0  0  0  0  0  0  0  0  0  0
  -34.1618   58.0014   64.7077 C   0  0  0  0  0  0  0  0  0  0  0  0
  -35.3645   57.0740   64.6025 C   0  0  0  0  0  0  0  0  0  0  0  0
  -36.5643   57.7097   63.9231 C   0  0  0  0  0  0  0  0  0  0  0  0
  -38.4222   57.0861   62.3436 C   0  0  0  0  0  0  0  0  0  0  0  0
  -36.9293   57.1031   62.5815 C   0  0  0  0  0  0  0  0  0  0  0  0
  -36.8999   61.6065   63.9752 C   0  0  0  0  0  0  0  0  0  0  0  0
  -37.2321   62.1181   65.2853 O   0  0  0  0  0  0  0  0  0  0  0  0
  -36.1792   62.8984   66.2043 P   0  0  0  0  0  0  0  0  0  0  0  0
  -36.7667   64.2069   66.5640 O   0  0  0  0  0  0  0  0  0  0  0  0
  -35.7515   61.9863   67.2925 O   0  0  0  0  0  0  0  0  0  0  0  0
  -36.5036   61.8068   67.8782 H   0  0  0  0  0  0  0  0  0  0  0  0
  -34.9178   63.1675   65.2665 O   0  0  0  0  0  0  0  0  0  0  0  0
  -33.6498   63.5308   65.8496 C   0  0  0  0  0  0  0  0  0  0  0  0
  -34.5117   65.5307   64.8495 O   0  0  0  0  0  0  0  0  0  0  0  0
  -33.4020   64.9939   65.5756 C   0  0  0  0  0  0  0  0  0  0  0  0
  -34.6478   65.0151   64.0392 H   0  0  0  0  0  0  0  0  0  0  0  0
  -33.9525   65.2585   67.9091 O   0  0  0  0  0  0  0  0  0  0  0  0
  -33.1756   65.7855   66.8413 C   0  0  0  0  0  0  0  0  0  0  0  0
  -33.7939   65.7792   68.7121 H   0  0  0  0  0  0  0  0  0  0  0  0
  -38.7929   60.0414   64.1208 O   0  0  0  0  0  0  0  0  0  0  0  0
  -40.6809   61.2557   64.2662 O   0  0  0  0  0  0  0  0  0  0  0  0
  -40.0634   60.2560   64.5131 C   0  0  0  0  0  0  0  0  0  0  0  0
  -40.6181   59.0934   65.2764 C   0  0  0  0  0  0  0  0  0  0  0  0
  -41.9243   59.4561   65.9758 C   0  0  0  0  0  0  0  0  0  0  0  0
  -43.1696   59.0618   65.1989 C   0  0  0  0  0  0  0  0  0  0  0  0
  -44.4283   58.9972   66.0563 C   0  0  0  0  0  0  0  0  0  0  0  0
  -45.6602   58.5218   65.3089 C   0  0  0  0  0  0  0  0  0  0  0  0
  -46.8345   59.5046   65.3266 C   0  0  0  0  0  0  0  0  0  0  0  0
  -47.9422   59.1783   66.3304 C   0  0  0  0  0  0  0  0  0  0  0  0
  -48.8259   58.0645   65.8544 C   0  0  0  0  0  0  0  0  0  0  0  0
  -49.9673   58.1876   65.2053 C   0  0  0  0  0  0  0  0  0  0  0  0
  -50.6209   59.4725   64.8049 C   0  0  0  0  0  0  0  0  0  0  0  0
  -51.1771   59.4252   63.3847 C   0  0  0  0  0  0  0  0  0  0  0  0
  -50.2818   58.6887   62.4038 C   0  0  0  0  0  0  0  0  0  0  0  0
  -51.0046   57.6201   61.6020 C   0  0  0  0  0  0  0  0  0  0  0  0
  -50.4034   57.3453   60.2336 C   0  0  0  0  0  0  0  0  0  0  0  0
  -49.0849   58.0654   59.9956 C   0  0  0  0  0  0  0  0  0  0  0  0
  -47.9619   57.1657   59.5189 C   0  0  0  0  0  0  0  0  0  0  0  0
  -47.9870   56.9423   58.0326 C   0  0  0  0  0  0  0  0  0  0  0  0
 21 22  1  0  0  0
  4  5  2  0  0  0
 25 24  1  0  0  0
 25 26  2  0  0  0
 25 27  1  0  0  0
 25 29  1  0  0  0
 22 20  1  0  0  0
  3  5  1  0  0  0
  3  2  1  0  0  0
 20 19  1  0  0  0
 24 23  1  0  0  0
 19 18  1  0  0  0
 18 17  1  0  0  0
 27 28  1  0  0  0
 17 16  1  0  0  0
 29 30  1  0  0  0
 16 15  1  0  0  0
 34 35  1  0  0  0
 34 36  1  0  0  0
 15 14  1  0  0  0
 31 32  1  0  0  0
 31 33  1  0  0  0
 14 13  1  0  0  0
 37  1  1  0  0  0
 37 39  1  0  0  0
 13 12  1  0  0  0
 38 39  2  0  0  0
 12 11  1  0  0  0
 11 10  1  0  0  0
 10  9  1  0  0  0
  9  8  1  0  0  0
  8  7  1  0  0  0
  7  6  1  0  0  0
  6  5  1  0  0  0
  2  1  1  0  0  0
  1 23  1  0  0  0
 30 32  1  0  0  0
 32 35  1  0  0  0
 39 40  1  0  0  0
 40 41  1  0  0  0
 41 42  1  0  0  0
 42 43  1  0  0  0
 43 44  1  0  0  0
 44 45  1  0  0  0
 45 46  1  0  0  0
 46 47  1  0  0  0
 47 48  2  0  0  0
 48 49  1  0  0  0
 49 50  1  0  0  0
 50 51  1  0  0  0
 51 52  1  0  0  0
 52 53  1  0  0  0
 53 54  1  0  0  0
 54 55  1  0  0  0
 55 56  1  0  0  0
M  CHG 1  26  -1
M  END
> <minimizedAffinity>
-8.87574

> <CNNscore>
0.3944269121

> <CNNaffinity>
7.2678823471

> <CNN_VS>
2.8666484356

> <CNNaffinity_variance>
0.8261642456

$$$$
/media/chris/experiments/cd1a-new-docking/inputs/ligands/7sh4_ligand.pdb


 56 55  0  0  0  0  0  0  0  0999 V2000
  -36.3811   61.0053   65.5094 C   0  0  0  0  0  0  0  0  0  0  0  0
  -37.7143   61.1032   64.8234 C   0  0  0  0  0  0  0  0  0  0  0  0
  -38.6158   60.4093   65.7116 O   0  0  0  0  0  0  0  0  0  0  0  0
  -40.4116   60.9978   64.5165 O   0  0  0  0  0  0  0  0  0  0  0  0
  -39.8750   60.2608   65.2992 C   0  0  0  0  0  0  0  0  0  0  0  0
  -40.4774   58.9960   65.8399 C   0  0  0  0  0  0  0  0  0  0  0  0
  -41.9144   58.7586   65.4069 C   0  0  0  0  0  0  0  0  0  0  0  0
  -42.8214   58.3901   66.5620 C   0  0  0  0  0  0  0  0  0  0  0  0
  -44.2503   58.8570   66.4007 C   0  0  0  0  0  0  0  0  0  0  0  0
  -44.7451   58.7698   64.9711 C   0  0  0  0  0  0  0  0  0  0  0  0
  -45.7715   57.6832   64.7629 C   0  0  0  0  0  0  0  0  0  0  0  0
  -47.0129   58.1722   64.0649 C   0  0  0  0  0  0  0  0  0  0  0  0
  -48.2368   58.1825   64.9538 C   0  0  0  0  0  0  0  0  0  0  0  0
  -49.5276   58.3139   64.1709 C   0  0  0  0  0  0  0  0  0  0  0  0
  -49.3499   58.2381   62.6689 C   0  0  0  0  0  0  0  0  0  0  0  0
  -50.6548   58.3439   61.8881 C   0  0  0  0  0  0  0  0  0  0  0  0
  -50.9112   57.1760   60.9551 C   0  0  0  0  0  0  0  0  0  0  0  0
  -49.6456   56.5865   60.3666 C   0  0  0  0  0  0  0  0  0  0  0  0
  -49.2366   57.2177   59.0430 C   0  0  0  0  0  0  0  0  0  0  0  0
  -47.7471   57.4912   58.9348 C   0  0  0  0  0  0  0  0  0  0  0  0
  -47.5512   55.8115   57.0704 C   0  0  0  0  0  0  0  0  0  0  0  0
  -47.1400   57.1737   57.5815 C   0  0  0  0  0  0  0  0  0  0  0  0
  -36.1510   62.1476   66.4654 C   0  0  0  0  0  0  0  0  0  0  0  0
  -34.7769   62.5801   66.3512 O   0  0  0  0  0  0  0  0  0  0  0  0
  -34.3595   64.1208   66.2333 P   0  0  0  0  0  0  0  0  0  0  0  0
  -35.2851   64.7746   65.2832 O   0  0  0  0  0  0  0  0  0  0  0  0
  -34.2391   64.6726   67.6044 O   0  0  0  0  0  0  0  0  0  0  0  0
  -35.1129   64.6861   68.0253 H   0  0  0  0  0  0  0  0  0  0  0  0
  -32.9058   64.1157   65.5778 O   0  0  0  0  0  0  0  0  0  0  0  0
  -32.6179   64.9730   64.4544 C   0  0  0  0  0  0  0  0  0  0  0  0
  -33.9312   63.9655   62.7215 O   0  0  0  0  0  0  0  0  0  0  0  0
  -32.5944   64.1276   63.2046 C   0  0  0  0  0  0  0  0  0  0  0  0
  -34.4841   63.5847   63.4217 H   0  0  0  0  0  0  0  0  0  0  0  0
  -31.2015   63.6992   61.2826 O   0  0  0  0  0  0  0  0  0  0  0  0
  -31.7189   64.7198   62.1264 C   0  0  0  0  0  0  0  0  0  0  0  0
  -30.6426   64.0984   60.5975 H   0  0  0  0  0  0  0  0  0  0  0  0
  -35.3370   60.9403   64.4820 O   0  0  0  0  0  0  0  0  0  0  0  0
  -35.3777   59.7054   62.6022 O   0  0  0  0  0  0  0  0  0  0  0  0
  -35.2312   59.7890   63.7910 C   0  0  0  0  0  0  0  0  0  0  0  0
  -34.8916   58.6318   64.6785 C   0  0  0  0  0  0  0  0  0  0  0  0
  -35.6199   57.3632   64.2460 C   0  0  0  0  0  0  0  0  0  0  0  0
  -37.1348   57.4820   64.2744 C   0  0  0  0  0  0  0  0  0  0  0  0
  -37.7929   57.2129   62.9261 C   0  0  0  0  0  0  0  0  0  0  0  0
  -38.9577   58.1336   62.6133 C   0  0  0  0  0  0  0  0  0  0  0  0
  -38.8732   58.8268   61.2504 C   0  0  0  0  0  0  0  0  0  0  0  0
  -37.6439   58.4690   60.4125 C   0  0  0  0  0  0  0  0  0  0  0  0
  -37.8368   58.7899   58.9607 C   0  0  0  0  0  0  0  0  0  0  0  0
  -37.1667   58.2797   57.9458 C   0  0  0  0  0  0  0  0  0  0  0  0
  -36.0688   57.2671   58.0327 C   0  0  0  0  0  0  0  0  0  0  0  0
  -36.5945   55.8596   58.2992 C   0  0  0  0  0  0  0  0  0  0  0  0
  -36.0680   55.2457   59.5846 C   0  0  0  0  0  0  0  0  0  0  0  0
  -34.5801   55.4630   59.7996 C   0  0  0  0  0  0  0  0  0  0  0  0
  -34.2204   56.0677   61.1466 C   0  0  0  0  0  0  0  0  0  0  0  0
  -33.5630   57.4353   61.0403 C   0  0  0  0  0  0  0  0  0  0  0  0
  -32.4874   57.6907   62.0776 C   0  0  0  0  0  0  0  0  0  0  0  0
  -31.8892   59.0654   61.9685 C   0  0  0  0  0  0  0  0  0  0  0  0
 21 22  1  0  0  0
  4  5  2  0  0  0
 25 24  1  0  0  0
 25 26  2  0  0  0
 25 27  1  0  0  0
 25 29  1  0  0  0
 22 20  1  0  0  0
  3  5  1  0  0  0
  3  2  1  0  0  0
 20 19  1  0  0  0
 24 23  1  0  0  0
 19 18  1  0  0  0
 18 17  1  0  0  0
 27 28  1  0  0  0
 17 16  1  0  0  0
 29 30  1  0  0  0
 16 15  1  0  0  0
 34 35  1  0  0  0
 34 36  1  0  0  0
 15 14  1  0  0  0
 31 32  1  0  0  0
 31 33  1  0  0  0
 14 13  1  0  0  0
 37  1  1  0  0  0
 37 39  1  0  0  0
 13 12  1  0  0  0
 38 39  2  0  0  0
 12 11  1  0  0  0
 11 10  1  0  0  0
 10  9  1  0  0  0
  9  8  1  0  0  0
  8  7  1  0  0  0
  7  6  1  0  0  0
  6  5  1  0  0  0
  2  1  1  0  0  0
  1 23  1  0  0  0
 30 32  1  0  0  0
 32 35  1  0  0  0
 39 40  1  0  0  0
 40 41  1  0  0  0
 41 42  1  0  0  0
 42 43  1  0  0  0
 43 44  1  0  0  0
 44 45  1  0  0  0
 45 46  1  0  0  0
 46 47  1  0  0  0
 47 48  2  0  0  0
 48 49  1  0  0  0
 49 50  1  0  0  0
 50 51  1  0  0  0
 51 52  1  0  0  0
 52 53  1  0  0  0
 53 54  1  0  0  0
 54 55  1  0  0  0
 55 56  1  0  0  0
M  CHG 1  26  -1
M  END
> <minimizedAffinity>
-8.81649

> <CNNscore>
0.3696173131

> <CNNaffinity>
7.2083930969

> <CNN_VS>
2.6643469334

> <CNNaffinity_variance>
0.6823352575

$$$$
