/media/chris/experiments/cd1a-new-docking/inputs/ligands/7sh4_ligand.pdb


 56 55  0  0  0  0  0  0  0  0999 V2000
  -37.3849   60.2714   64.7145 C   0  0  0  0  0  0  0  0  0  0  0  0
  -38.6149   60.3094   65.5767 C   0  0  0  0  0  0  0  0  0  0  0  0
  -39.6475   60.7913   64.6910 O   0  0  0  0  0  0  0  0  0  0  0  0
  -41.4400   59.9141   63.6827 O   0  0  0  0  0  0  0  0  0  0  0  0
  -40.7959   60.1140   64.6771 C   0  0  0  0  0  0  0  0  0  0  0  0
  -41.1023   59.5374   66.0294 C   0  0  0  0  0  0  0  0  0  0  0  0
  -42.1563   58.4433   66.0132 C   0  0  0  0  0  0  0  0  0  0  0  0
  -43.5272   58.9439   66.4161 C   0  0  0  0  0  0  0  0  0  0  0  0
  -44.5034   59.0678   65.2682 C   0  0  0  0  0  0  0  0  0  0  0  0
  -45.5643   57.9859   65.2721 C   0  0  0  0  0  0  0  0  0  0  0  0
  -46.9675   58.5296   65.1584 C   0  0  0  0  0  0  0  0  0  0  0  0
  -48.0195   57.5334   65.5689 C   0  0  0  0  0  0  0  0  0  0  0  0
  -49.4317   58.0513   65.4087 C   0  0  0  0  0  0  0  0  0  0  0  0
  -49.5484   59.1094   64.3304 C   0  0  0  0  0  0  0  0  0  0  0  0
  -50.8064   59.0031   63.4939 C   0  0  0  0  0  0  0  0  0  0  0  0
  -50.6819   58.0470   62.3131 C   0  0  0  0  0  0  0  0  0  0  0  0
  -49.2789   57.9481   61.7456 C   0  0  0  0  0  0  0  0  0  0  0  0
  -49.2385   57.9760   60.2314 C   0  0  0  0  0  0  0  0  0  0  0  0
  -48.1398   57.1078   59.6342 C   0  0  0  0  0  0  0  0  0  0  0  0
  -48.3226   56.8298   58.1529 C   0  0  0  0  0  0  0  0  0  0  0  0
  -46.0674   57.9412   58.0330 C   0  0  0  0  0  0  0  0  0  0  0  0
  -47.1063   57.1265   57.2963 C   0  0  0  0  0  0  0  0  0  0  0  0
  -37.1713   61.5675   63.9755 C   0  0  0  0  0  0  0  0  0  0  0  0
  -35.7510   61.7915   63.8304 O   0  0  0  0  0  0  0  0  0  0  0  0
  -35.1417   63.1618   63.2711 P   0  0  0  0  0  0  0  0  0  0  0  0
  -33.9647   62.8334   62.4383 O   0  0  0  0  0  0  0  0  0  0  0  0
  -36.2460   63.9451   62.6663 O   0  0  0  0  0  0  0  0  0  0  0  0
  -36.5765   63.4838   61.8796 H   0  0  0  0  0  0  0  0  0  0  0  0
  -34.6280   63.9519   64.5575 O   0  0  0  0  0  0  0  0  0  0  0  0
  -35.5744   64.4369   65.5319 C   0  0  0  0  0  0  0  0  0  0  0  0
  -36.2586   63.5550   67.6524 O   0  0  0  0  0  0  0  0  0  0  0  0
  -35.1216   63.9878   66.8993 C   0  0  0  0  0  0  0  0  0  0  0  0
  -36.9128   64.2702   67.6899 H   0  0  0  0  0  0  0  0  0  0  0  0
  -34.7132   61.6329   66.5729 O   0  0  0  0  0  0  0  0  0  0  0  0
  -34.0919   62.8856   66.8308 C   0  0  0  0  0  0  0  0  0  0  0  0
  -34.0368   60.9388   66.5326 H   0  0  0  0  0  0  0  0  0  0  0  0
  -37.5015   59.1360   63.7941 O   0  0  0  0  0  0  0  0  0  0  0  0
  -37.6963   57.3175   65.1037 O   0  0  0  0  0  0  0  0  0  0  0  0
  -37.1098   57.9329   64.2558 C   0  0  0  0  0  0  0  0  0  0  0  0
  -35.8684   57.4477   63.5734 C   0  0  0  0  0  0  0  0  0  0  0  0
  -34.6301   58.1820   64.0775 C   0  0  0  0  0  0  0  0  0  0  0  0
  -34.0725   59.1974   63.0935 C   0  0  0  0  0  0  0  0  0  0  0  0
  -33.0598   58.6085   62.1181 C   0  0  0  0  0  0  0  0  0  0  0  0
  -32.4286   57.3125   62.5916 C   0  0  0  0  0  0  0  0  0  0  0  0
  -32.6528   56.1177   61.6604 C   0  0  0  0  0  0  0  0  0  0  0  0
  -33.8233   56.2620   60.6855 C   0  0  0  0  0  0  0  0  0  0  0  0
  -33.4749   55.7804   59.3090 C   0  0  0  0  0  0  0  0  0  0  0  0
  -33.9244   56.2652   58.1679 C   0  0  0  0  0  0  0  0  0  0  0  0
  -34.8806   57.4048   58.0086 C   0  0  0  0  0  0  0  0  0  0  0  0
  -36.3297   56.9387   57.9021 C   0  0  0  0  0  0  0  0  0  0  0  0
  -37.0063   56.7389   59.2469 C   0  0  0  0  0  0  0  0  0  0  0  0
  -37.0203   57.9860   60.1138 C   0  0  0  0  0  0  0  0  0  0  0  0
  -37.8350   59.1373   59.5477 C   0  0  0  0  0  0  0  0  0  0  0  0
  -38.2159   60.1790   60.5886 C   0  0  0  0  0  0  0  0  0  0  0  0
  -39.6980   60.2318   60.9025 C   0  0  0  0  0  0  0  0  0  0  0  0
  -40.5536   60.2554   59.6667 C   0  0  0  0  0  0  0  0  0  0  0  0
 21 22  1  0  0  0
  4  5  2  0  0  0
 25 24  1  0  0  0
 25 26  2  0  0  0
 25 27  1  0  0  0
 25 29  1  0  0  0
 22 20  1  0  0  0
  3  5  1  0  0  0
  3  2  1  0  0  0
 20 19  1  0  0  0
 24 23  1  0  0  0
 19 18  1  0  0  0
 18 17  1  0  0  0
 27 28  1  0  0  0
 17 16  1  0  0  0
 29 30  1  0  0  0
 16 15  1  0  0  0
 34 35  1  0  0  0
 34 36  1  0  0  0
 15 14  1  0  0  0
 31 32  1  0  0  0
 31 33  1  0  0  0
 14 13  1  0  0  0
 37  1  1  0  0  0
 37 39  1  0  0  0
 13 12  1  0  0  0
 38 39  2  0  0  0
 12 11  1  0  0  0
 11 10  1  0  0  0
 10  9  1  0  0  0
  9  8  1  0  0  0
  8  7  1  0  0  0
  7  6  1  0  0  0
  6  5  1  0  0  0
  2  1  1  0  0  0
  1 23  1  0  0  0
 30 32  1  0  0  0
 32 35  1  0  0  0
 39 40  1  0  0  0
 40 41  1  0  0  0
 41 42  1  0  0  0
 42 43  1  0  0  0
 43 44  1  0  0  0
 44 45  1  0  0  0
 45 46  1  0  0  0
 46 47  1  0  0  0
 47 48  2  0  0  0
 48 49  1  0  0  0
 49 50  1  0  0  0
 50 51  1  0  0  0
 51 52  1  0  0  0
 52 53  1  0  0  0
 53 54  1  0  0  0
 54 55  1  0  0  0
 55 56  1  0  0  0
M  CHG 1  26  -1
M  END
> <minimizedAffinity>
-8.69433

> <CNNscore>
0.7126888037

> <CNNaffinity>
7.8097305298

> <CNN_VS>
5.5659074783

> <CNNaffinity_variance>
0.6275407672

$$$$
/media/chris/experiments/cd1a-new-docking/inputs/ligands/7sh4_ligand.pdb


 56 55  0  0  0  0  0  0  0  0999 V2000
  -36.2387   61.1972   66.0142 C   0  0  0  0  0  0  0  0  0  0  0  0
  -37.5547   61.2177   65.2894 C   0  0  0  0  0  0  0  0  0  0  0  0
  -38.4804   60.6330   66.2297 O   0  0  0  0  0  0  0  0  0  0  0  0
  -38.6848   58.4939   65.6116 O   0  0  0  0  0  0  0  0  0  0  0  0
  -39.1738   59.5724   65.8148 C   0  0  0  0  0  0  0  0  0  0  0  0
  -40.6441   59.8731   65.7598 C   0  0  0  0  0  0  0  0  0  0  0  0
  -41.5123   58.6681   65.4394 C   0  0  0  0  0  0  0  0  0  0  0  0
  -42.7853   58.6286   66.2582 C   0  0  0  0  0  0  0  0  0  0  0  0
  -43.5848   57.3552   66.0989 C   0  0  0  0  0  0  0  0  0  0  0  0
  -44.7998   57.5248   65.2095 C   0  0  0  0  0  0  0  0  0  0  0  0
  -46.0800   57.0563   65.8570 C   0  0  0  0  0  0  0  0  0  0  0  0
  -47.2075   58.0440   65.7137 C   0  0  0  0  0  0  0  0  0  0  0  0
  -47.9731   57.8973   64.4174 C   0  0  0  0  0  0  0  0  0  0  0  0
  -49.4443   58.2282   64.5657 C   0  0  0  0  0  0  0  0  0  0  0  0
  -50.0160   59.0315   63.4161 C   0  0  0  0  0  0  0  0  0  0  0  0
  -50.8604   58.2088   62.4497 C   0  0  0  0  0  0  0  0  0  0  0  0
  -50.0484   57.4072   61.4506 C   0  0  0  0  0  0  0  0  0  0  0  0
  -49.5084   58.2409   60.3067 C   0  0  0  0  0  0  0  0  0  0  0  0
  -48.9313   57.4125   59.1672 C   0  0  0  0  0  0  0  0  0  0  0  0
  -47.4135   57.3918   59.1392 C   0  0  0  0  0  0  0  0  0  0  0  0
  -47.4165   56.6976   56.7197 C   0  0  0  0  0  0  0  0  0  0  0  0
  -46.8009   57.5979   57.7668 C   0  0  0  0  0  0  0  0  0  0  0  0
  -35.8615   62.5578   66.5416 C   0  0  0  0  0  0  0  0  0  0  0  0
  -34.8799   63.1437   65.6575 O   0  0  0  0  0  0  0  0  0  0  0  0
  -35.2440   64.2742   64.5846 P   0  0  0  0  0  0  0  0  0  0  0  0
  -34.8360   63.7868   63.2494 O   0  0  0  0  0  0  0  0  0  0  0  0
  -36.6561   64.6737   64.7962 O   0  0  0  0  0  0  0  0  0  0  0  0
  -37.2389   63.9300   64.5769 H   0  0  0  0  0  0  0  0  0  0  0  0
  -34.3214   65.5210   64.9552 O   0  0  0  0  0  0  0  0  0  0  0  0
  -33.0192   65.6599   64.3508 C   0  0  0  0  0  0  0  0  0  0  0  0
  -32.5954   64.9165   66.5892 O   0  0  0  0  0  0  0  0  0  0  0  0
  -31.9897   65.1108   65.3076 C   0  0  0  0  0  0  0  0  0  0  0  0
  -32.9827   65.7520   66.8937 H   0  0  0  0  0  0  0  0  0  0  0  0
  -31.9028   63.4694   63.5421 O   0  0  0  0  0  0  0  0  0  0  0  0
  -31.3809   63.8188   64.8178 C   0  0  0  0  0  0  0  0  0  0  0  0
  -31.5005   62.6382   63.2448 H   0  0  0  0  0  0  0  0  0  0  0  0
  -35.2186   60.6673   65.1040 O   0  0  0  0  0  0  0  0  0  0  0  0
  -35.9507   60.8711   62.9867 O   0  0  0  0  0  0  0  0  0  0  0  0
  -35.6469   60.1828   63.9225 C   0  0  0  0  0  0  0  0  0  0  0  0
  -35.6811   58.6859   63.9098 C   0  0  0  0  0  0  0  0  0  0  0  0
  -34.4562   58.0931   64.5990 C   0  0  0  0  0  0  0  0  0  0  0  0
  -33.2202   58.0352   63.7164 C   0  0  0  0  0  0  0  0  0  0  0  0
  -33.5243   58.1881   62.2305 C   0  0  0  0  0  0  0  0  0  0  0  0
  -33.8587   56.8835   61.5317 C   0  0  0  0  0  0  0  0  0  0  0  0
  -33.5769   56.8769   60.0265 C   0  0  0  0  0  0  0  0  0  0  0  0
  -33.9943   55.6017   59.2910 C   0  0  0  0  0  0  0  0  0  0  0  0
  -35.4012   55.1972   59.6153 C   0  0  0  0  0  0  0  0  0  0  0  0
  -36.4861   55.5039   58.9311 C   0  0  0  0  0  0  0  0  0  0  0  0
  -36.5387   56.3230   57.6802 C   0  0  0  0  0  0  0  0  0  0  0  0
  -37.5159   57.4899   57.7890 C   0  0  0  0  0  0  0  0  0  0  0  0
  -37.0073   58.6328   58.6501 C   0  0  0  0  0  0  0  0  0  0  0  0
  -37.9678   59.0383   59.7547 C   0  0  0  0  0  0  0  0  0  0  0  0
  -38.0977   58.0250   60.8798 C   0  0  0  0  0  0  0  0  0  0  0  0
  -38.9842   58.4982   62.0217 C   0  0  0  0  0  0  0  0  0  0  0  0
  -39.0875   60.0055   62.1454 C   0  0  0  0  0  0  0  0  0  0  0  0
  -40.5088   60.4945   62.1250 C   0  0  0  0  0  0  0  0  0  0  0  0
 21 22  1  0  0  0
  4  5  2  0  0  0
 25 24  1  0  0  0
 25 26  2  0  0  0
 25 27  1  0  0  0
 25 29  1  0  0  0
 22 20  1  0  0  0
  3  5  1  0  0  0
  3  2  1  0  0  0
 20 19  1  0  0  0
 24 23  1  0  0  0
 19 18  1  0  0  0
 18 17  1  0  0  0
 27 28  1  0  0  0
 17 16  1  0  0  0
 29 30  1  0  0  0
 16 15  1  0  0  0
 34 35  1  0  0  0
 34 36  1  0  0  0
 15 14  1  0  0  0
 31 32  1  0  0  0
 31 33  1  0  0  0
 14 13  1  0  0  0
 37  1  1  0  0  0
 37 39  1  0  0  0
 13 12  1  0  0  0
 38 39  2  0  0  0
 12 11  1  0  0  0
 11 10  1  0  0  0
 10  9  1  0  0  0
  9  8  1  0  0  0
  8  7  1  0  0  0
  7  6  1  0  0  0
  6  5  1  0  0  0
  2  1  1  0  0  0
  1 23  1  0  0  0
 30 32  1  0  0  0
 32 35  1  0  0  0
 39 40  1  0  0  0
 40 41  1  0  0  0
 41 42  1  0  0  0
 42 43  1  0  0  0
 43 44  1  0  0  0
 44 45  1  0  0  0
 45 46  1  0  0  0
 46 47  1  0  0  0
 47 48  2  0  0  0
 48 49  1  0  0  0
 49 50  1  0  0  0
 50 51  1  0  0  0
 51 52  1  0  0  0
 52 53  1  0  0  0
 53 54  1  0  0  0
 54 55  1  0  0  0
 55 56  1  0  0  0
M  CHG 1  26  -1
M  END
> <minimizedAffinity>
-8.44430

> <CNNscore>
0.6829839349

> <CNNaffinity>
7.4718275070

> <CNN_VS>
5.1031379700

> <CNNaffinity_variance>
0.9375467300

$$$$
/media/chris/experiments/cd1a-new-docking/inputs/ligands/7sh4_ligand.pdb


 56 55  0  0  0  0  0  0  0  0999 V2000
  -37.4721   60.6090   65.3997 C   0  0  0  0  0  0  0  0  0  0  0  0
  -36.5045   59.6723   64.7334 C   0  0  0  0  0  0  0  0  0  0  0  0
  -35.7249   60.5296   63.8730 O   0  0  0  0  0  0  0  0  0  0  0  0
  -33.6271   60.7266   63.1248 O   0  0  0  0  0  0  0  0  0  0  0  0
  -34.5689   60.0421   63.4214 C   0  0  0  0  0  0  0  0  0  0  0  0
  -34.5631   58.5408   63.4550 C   0  0  0  0  0  0  0  0  0  0  0  0
  -33.1855   57.9297   63.6478 C   0  0  0  0  0  0  0  0  0  0  0  0
  -32.4932   57.6194   62.3376 C   0  0  0  0  0  0  0  0  0  0  0  0
  -33.1064   56.4701   61.5701 C   0  0  0  0  0  0  0  0  0  0  0  0
  -33.8490   56.9160   60.3268 C   0  0  0  0  0  0  0  0  0  0  0  0
  -34.0401   55.8084   59.3197 C   0  0  0  0  0  0  0  0  0  0  0  0
  -35.2766   54.9878   59.5752 C   0  0  0  0  0  0  0  0  0  0  0  0
  -36.5556   55.6882   59.1729 C   0  0  0  0  0  0  0  0  0  0  0  0
  -36.4174   56.4603   57.8765 C   0  0  0  0  0  0  0  0  0  0  0  0
  -36.5429   57.9612   58.0347 C   0  0  0  0  0  0  0  0  0  0  0  0
  -37.9590   58.4314   58.3469 C   0  0  0  0  0  0  0  0  0  0  0  0
  -38.0257   59.5480   59.3711 C   0  0  0  0  0  0  0  0  0  0  0  0
  -39.4400   59.9823   59.6969 C   0  0  0  0  0  0  0  0  0  0  0  0
  -39.7783   59.8974   61.1788 C   0  0  0  0  0  0  0  0  0  0  0  0
  -38.6577   59.3218   62.0260 C   0  0  0  0  0  0  0  0  0  0  0  0
  -37.8781   56.9285   62.0190 C   0  0  0  0  0  0  0  0  0  0  0  0
  -38.9040   57.9133   62.5325 C   0  0  0  0  0  0  0  0  0  0  0  0
  -36.8111   61.4379   66.4710 C   0  0  0  0  0  0  0  0  0  0  0  0
  -36.9421   62.8350   66.1252 O   0  0  0  0  0  0  0  0  0  0  0  0
  -35.6995   63.8437   66.1050 P   0  0  0  0  0  0  0  0  0  0  0  0
  -36.0589   64.9958   65.2506 O   0  0  0  0  0  0  0  0  0  0  0  0
  -35.2882   64.0973   67.5069 O   0  0  0  0  0  0  0  0  0  0  0  0
  -35.9909   64.5821   67.9674 H   0  0  0  0  0  0  0  0  0  0  0  0
  -34.5205   63.0472   65.3850 O   0  0  0  0  0  0  0  0  0  0  0  0
  -33.1653   63.1784   65.8609 C   0  0  0  0  0  0  0  0  0  0  0  0
  -31.4629   64.8604   65.9833 O   0  0  0  0  0  0  0  0  0  0  0  0
  -32.5324   64.3631   65.1734 C   0  0  0  0  0  0  0  0  0  0  0  0
  -31.7997   65.0754   66.8671 H   0  0  0  0  0  0  0  0  0  0  0  0
  -33.1023   63.6629   62.9365 O   0  0  0  0  0  0  0  0  0  0  0  0
  -32.0254   64.0230   63.7924 C   0  0  0  0  0  0  0  0  0  0  0  0
  -32.7573   63.4482   62.0557 H   0  0  0  0  0  0  0  0  0  0  0  0
  -38.5847   59.8186   65.9358 O   0  0  0  0  0  0  0  0  0  0  0  0
  -40.0604   60.9471   64.6674 O   0  0  0  0  0  0  0  0  0  0  0  0
  -39.7987   60.0247   65.3901 C   0  0  0  0  0  0  0  0  0  0  0  0
  -40.7755   58.9577   65.7768 C   0  0  0  0  0  0  0  0  0  0  0  0
  -42.2033   59.4933   65.8116 C   0  0  0  0  0  0  0  0  0  0  0  0
  -43.2681   58.4088   65.8303 C   0  0  0  0  0  0  0  0  0  0  0  0
  -44.5180   58.7677   65.0350 C   0  0  0  0  0  0  0  0  0  0  0  0
  -45.7867   58.1157   65.5521 C   0  0  0  0  0  0  0  0  0  0  0  0
  -46.6302   59.0040   66.4711 C   0  0  0  0  0  0  0  0  0  0  0  0
  -47.9851   59.4299   65.9016 C   0  0  0  0  0  0  0  0  0  0  0  0
  -48.9387   58.2782   65.7912 C   0  0  0  0  0  0  0  0  0  0  0  0
  -50.1481   58.3049   65.2658 C   0  0  0  0  0  0  0  0  0  0  0  0
  -50.8235   59.4973   64.6655 C   0  0  0  0  0  0  0  0  0  0  0  0
  -50.7712   59.4900   63.1405 C   0  0  0  0  0  0  0  0  0  0  0  0
  -50.8987   58.1040   62.5329 C   0  0  0  0  0  0  0  0  0  0  0  0
  -49.7677   57.7479   61.5836 C   0  0  0  0  0  0  0  0  0  0  0  0
  -50.1868   56.8978   60.3956 C   0  0  0  0  0  0  0  0  0  0  0  0
  -49.4644   57.2599   59.1069 C   0  0  0  0  0  0  0  0  0  0  0  0
  -48.0458   56.7329   59.0197 C   0  0  0  0  0  0  0  0  0  0  0  0
  -47.1143   57.6834   58.3207 C   0  0  0  0  0  0  0  0  0  0  0  0
 21 22  1  0  0  0
  4  5  2  0  0  0
 25 24  1  0  0  0
 25 26  2  0  0  0
 25 27  1  0  0  0
 25 29  1  0  0  0
 22 20  1  0  0  0
  3  5  1  0  0  0
  3  2  1  0  0  0
 20 19  1  0  0  0
 24 23  1  0  0  0
 19 18  1  0  0  0
 18 17  1  0  0  0
 27 28  1  0  0  0
 17 16  1  0  0  0
 29 30  1  0  0  0
 16 15  1  0  0  0
 34 35  1  0  0  0
 34 36  1  0  0  0
 15 14  1  0  0  0
 31 32  1  0  0  0
 31 33  1  0  0  0
 14 13  1  0  0  0
 37  1  1  0  0  0
 37 39  1  0  0  0
 13 12  1  0  0  0
 38 39  2  0  0  0
 12 11  1  0  0  0
 11 10  1  0  0  0
 10  9  1  0  0  0
  9  8  1  0  0  0
  8  7  1  0  0  0
  7  6  1  0  0  0
  6  5  1  0  0  0
  2  1  1  0  0  0
  1 23  1  0  0  0
 30 32  1  0  0  0
 32 35  1  0  0  0
 39 40  1  0  0  0
 40 41  1  0  0  0
 41 42  1  0  0  0
 42 43  1  0  0  0
 43 44  1  0  0  0
 44 45  1  0  0  0
 45 46  1  0  0  0
 46 47  1  0  0  0
 47 48  2  0  0  0
 48 49  1  0  0  0
 49 50  1  0  0  0
 50 51  1  0  0  0
 51 52  1  0  0  0
 52 53  1  0  0  0
 53 54  1  0  0  0
 54 55  1  0  0  0
 55 56  1  0  0  0
M  CHG 1  26  -1
M  END
> <minimizedAffinity>
-8.94789

> <CNNscore>
0.6689887047

> <CNNaffinity>
7.6858034134

> <CNN_VS>
5.1417155266

> <CNNaffinity_variance>
0.4580639899

$$$$
/media/chris/experiments/cd1a-new-docking/inputs/ligands/7sh4_ligand.pdb


 56 55  0  0  0  0  0  0  0  0999 V2000
  -37.9432   59.8508   61.0837 C   0  0  0  0  0  0  0  0  0  0  0  0
  -37.0273   58.6789   60.8701 C   0  0  0  0  0  0  0  0  0  0  0  0
  -37.6443   57.9456   59.7909 O   0  0  0  0  0  0  0  0  0  0  0  0
  -36.7097   56.9248   58.0349 O   0  0  0  0  0  0  0  0  0  0  0  0
  -36.9154   56.9880   59.2169 C   0  0  0  0  0  0  0  0  0  0  0  0
  -36.2935   56.0890   60.2464 C   0  0  0  0  0  0  0  0  0  0  0  0
  -34.8170   55.8126   60.0183 C   0  0  0  0  0  0  0  0  0  0  0  0
  -33.9276   56.9341   60.5119 C   0  0  0  0  0  0  0  0  0  0  0  0
  -33.0610   56.5627   61.6939 C   0  0  0  0  0  0  0  0  0  0  0  0
  -32.4945   57.7683   62.4163 C   0  0  0  0  0  0  0  0  0  0  0  0
  -33.5584   58.6611   63.0067 C   0  0  0  0  0  0  0  0  0  0  0  0
  -34.1934   58.0815   64.2429 C   0  0  0  0  0  0  0  0  0  0  0  0
  -35.6347   58.5007   64.4303 C   0  0  0  0  0  0  0  0  0  0  0  0
  -36.6001   57.3367   64.3341 C   0  0  0  0  0  0  0  0  0  0  0  0
  -38.0256   57.6835   64.7099 C   0  0  0  0  0  0  0  0  0  0  0  0
  -38.1553   58.9761   65.5074 C   0  0  0  0  0  0  0  0  0  0  0  0
  -39.5055   59.6529   65.3686 C   0  0  0  0  0  0  0  0  0  0  0  0
  -40.6708   58.7477   65.7117 C   0  0  0  0  0  0  0  0  0  0  0  0
  -41.7821   59.4485   66.4808 C   0  0  0  0  0  0  0  0  0  0  0  0
  -42.9801   58.5596   66.7628 C   0  0  0  0  0  0  0  0  0  0  0  0
  -44.3881   56.7757   65.6807 C   0  0  0  0  0  0  0  0  0  0  0  0
  -42.9881   57.2456   66.0049 C   0  0  0  0  0  0  0  0  0  0  0  0
  -37.6497   60.5707   62.3750 C   0  0  0  0  0  0  0  0  0  0  0  0
  -36.9356   61.7908   62.0753 O   0  0  0  0  0  0  0  0  0  0  0  0
  -36.1063   62.6034   63.1771 P   0  0  0  0  0  0  0  0  0  0  0  0
  -34.8023   61.9297   63.3576 O   0  0  0  0  0  0  0  0  0  0  0  0
  -36.1211   64.0376   62.8010 O   0  0  0  0  0  0  0  0  0  0  0  0
  -35.6230   64.1612   61.9779 H   0  0  0  0  0  0  0  0  0  0  0  0
  -36.9332   62.4434   64.5311 O   0  0  0  0  0  0  0  0  0  0  0  0
  -36.2396   62.2868   65.7860 C   0  0  0  0  0  0  0  0  0  0  0  0
  -36.4553   63.7248   67.6907 O   0  0  0  0  0  0  0  0  0  0  0  0
  -35.9607   63.6583   66.3498 C   0  0  0  0  0  0  0  0  0  0  0  0
  -37.3990   63.5006   67.6987 H   0  0  0  0  0  0  0  0  0  0  0  0
  -33.7035   62.8360   66.1320 O   0  0  0  0  0  0  0  0  0  0  0  0
  -34.4915   64.0048   66.3186 C   0  0  0  0  0  0  0  0  0  0  0  0
  -32.7644   63.0786   66.1148 H   0  0  0  0  0  0  0  0  0  0  0  0
  -39.3274   59.3697   61.0344 O   0  0  0  0  0  0  0  0  0  0  0  0
  -40.8640   61.0058   61.1836 O   0  0  0  0  0  0  0  0  0  0  0  0
  -40.2484   60.2112   60.5268 C   0  0  0  0  0  0  0  0  0  0  0  0
  -40.3990   60.0501   59.0457 C   0  0  0  0  0  0  0  0  0  0  0  0
  -41.7905   59.5457   58.6771 C   0  0  0  0  0  0  0  0  0  0  0  0
  -41.9090   59.0572   57.2426 C   0  0  0  0  0  0  0  0  0  0  0  0
  -43.3309   58.6809   56.8422 C   0  0  0  0  0  0  0  0  0  0  0  0
  -44.2277   58.3244   58.0130 C   0  0  0  0  0  0  0  0  0  0  0  0
  -45.6774   58.0107   57.6322 C   0  0  0  0  0  0  0  0  0  0  0  0
  -46.5842   57.6068   58.7967 C   0  0  0  0  0  0  0  0  0  0  0  0
  -47.8872   57.0339   58.3257 C   0  0  0  0  0  0  0  0  0  0  0  0
  -48.9755   56.8541   59.0487 C   0  0  0  0  0  0  0  0  0  0  0  0
  -49.1375   57.1882   60.4980 C   0  0  0  0  0  0  0  0  0  0  0  0
  -50.6011   57.3489   60.8985 C   0  0  0  0  0  0  0  0  0  0  0  0
  -50.7997   58.1461   62.1758 C   0  0  0  0  0  0  0  0  0  0  0  0
  -50.1541   59.5206   62.1433 C   0  0  0  0  0  0  0  0  0  0  0  0
  -49.2609   59.8251   63.3345 C   0  0  0  0  0  0  0  0  0  0  0  0
  -48.9540   58.6047   64.1890 C   0  0  0  0  0  0  0  0  0  0  0  0
  -47.4828   58.4204   64.5047 C   0  0  0  0  0  0  0  0  0  0  0  0
  -46.8921   59.5969   65.2304 C   0  0  0  0  0  0  0  0  0  0  0  0
 21 22  1  0  0  0
  4  5  2  0  0  0
 25 24  1  0  0  0
 25 26  2  0  0  0
 25 27  1  0  0  0
 25 29  1  0  0  0
 22 20  1  0  0  0
  3  5  1  0  0  0
  3  2  1  0  0  0
 20 19  1  0  0  0
 24 23  1  0  0  0
 19 18  1  0  0  0
 18 17  1  0  0  0
 27 28  1  0  0  0
 17 16  1  0  0  0
 29 30  1  0  0  0
 16 15  1  0  0  0
 34 35  1  0  0  0
 34 36  1  0  0  0
 15 14  1  0  0  0
 31 32  1  0  0  0
 31 33  1  0  0  0
 14 13  1  0  0  0
 37  1  1  0  0  0
 37 39  1  0  0  0
 13 12  1  0  0  0
 38 39  2  0  0  0
 12 11  1  0  0  0
 11 10  1  0  0  0
 10  9  1  0  0  0
  9  8  1  0  0  0
  8  7  1  0  0  0
  7  6  1  0  0  0
  6  5  1  0  0  0
  2  1  1  0  0  0
  1 23  1  0  0  0
 30 32  1  0  0  0
 32 35  1  0  0  0
 39 40  1  0  0  0
 40 41  1  0  0  0
 41 42  1  0  0  0
 42 43  1  0  0  0
 43 44  1  0  0  0
 44 45  1  0  0  0
 45 46  1  0  0  0
 46 47  1  0  0  0
 47 48  2  0  0  0
 48 49  1  0  0  0
 49 50  1  0  0  0
 50 51  1  0  0  0
 51 52  1  0  0  0
 52 53  1  0  0  0
 53 54  1  0  0  0
 54 55  1  0  0  0
 55 56  1  0  0  0
M  CHG 1  26  -1
M  END
> <minimizedAffinity>
-8.34099

> <CNNscore>
0.6071087718

> <CNNaffinity>
7.7391777039

> <CNN_VS>
4.6985225677

> <CNNaffinity_variance>
0.7252735496

$$$$
/media/chris/experiments/cd1a-new-docking/inputs/ligands/7sh4_ligand.pdb


 56 55  0  0  0  0  0  0  0  0999 V2000
  -36.3698   59.6779   64.0793 C   0  0  0  0  0  0  0  0  0  0  0  0
  -36.0891   58.5477   63.1299 C   0  0  0  0  0  0  0  0  0  0  0  0
  -34.8614   58.9361   62.4778 O   0  0  0  0  0  0  0  0  0  0  0  0
  -32.9865   57.9635   61.7444 O   0  0  0  0  0  0  0  0  0  0  0  0
  -34.1836   57.9774   61.8459 C   0  0  0  0  0  0  0  0  0  0  0  0
  -35.0967   56.8729   61.3973 C   0  0  0  0  0  0  0  0  0  0  0  0
  -34.5196   55.9992   60.2964 C   0  0  0  0  0  0  0  0  0  0  0  0
  -35.0282   56.3767   58.9212 C   0  0  0  0  0  0  0  0  0  0  0  0
  -36.5345   56.3612   58.7922 C   0  0  0  0  0  0  0  0  0  0  0  0
  -37.0730   57.5259   57.9862 C   0  0  0  0  0  0  0  0  0  0  0  0
  -37.2597   58.7794   58.8055 C   0  0  0  0  0  0  0  0  0  0  0  0
  -38.1707   58.5793   59.9877 C   0  0  0  0  0  0  0  0  0  0  0  0
  -38.5884   59.8738   60.6496 C   0  0  0  0  0  0  0  0  0  0  0  0
  -40.0519   60.1984   60.4290 C   0  0  0  0  0  0  0  0  0  0  0  0
  -40.4674   60.2201   58.9728 C   0  0  0  0  0  0  0  0  0  0  0  0
  -41.7648   59.4711   58.6913 C   0  0  0  0  0  0  0  0  0  0  0  0
  -41.9765   59.1340   57.2278 C   0  0  0  0  0  0  0  0  0  0  0  0
  -43.3949   58.7094   56.9068 C   0  0  0  0  0  0  0  0  0  0  0  0
  -44.2036   58.3069   58.1323 C   0  0  0  0  0  0  0  0  0  0  0  0
  -45.6378   57.9234   57.8149 C   0  0  0  0  0  0  0  0  0  0  0  0
  -47.3812   56.2993   58.6266 C   0  0  0  0  0  0  0  0  0  0  0  0
  -46.4377   57.4197   59.0013 C   0  0  0  0  0  0  0  0  0  0  0  0
  -35.1250   60.1415   64.7915 C   0  0  0  0  0  0  0  0  0  0  0  0
  -35.0126   61.5750   64.6463 O   0  0  0  0  0  0  0  0  0  0  0  0
  -35.4663   62.6007   65.7883 P   0  0  0  0  0  0  0  0  0  0  0  0
  -36.4629   63.5241   65.2047 O   0  0  0  0  0  0  0  0  0  0  0  0
  -35.8393   61.8172   66.9907 O   0  0  0  0  0  0  0  0  0  0  0  0
  -36.6332   61.2931   66.8016 H   0  0  0  0  0  0  0  0  0  0  0  0
  -34.1605   63.4458   66.1399 O   0  0  0  0  0  0  0  0  0  0  0  0
  -33.0589   63.4922   65.2101 C   0  0  0  0  0  0  0  0  0  0  0  0
  -34.1576   65.4475   64.3662 O   0  0  0  0  0  0  0  0  0  0  0  0
  -32.8847   64.9185   64.7498 C   0  0  0  0  0  0  0  0  0  0  0  0
  -34.5522   64.8794   63.6863 H   0  0  0  0  0  0  0  0  0  0  0  0
  -32.9757   65.6973   67.0310 O   0  0  0  0  0  0  0  0  0  0  0  0
  -32.2553   65.7916   65.8087 C   0  0  0  0  0  0  0  0  0  0  0  0
  -32.5570   66.2641   67.6976 H   0  0  0  0  0  0  0  0  0  0  0  0
  -37.4033   59.2417   65.0235 O   0  0  0  0  0  0  0  0  0  0  0  0
  -38.4777   60.7835   66.2598 O   0  0  0  0  0  0  0  0  0  0  0  0
  -38.4070   60.1048   65.2718 C   0  0  0  0  0  0  0  0  0  0  0  0
  -39.4120   60.1300   64.1621 C   0  0  0  0  0  0  0  0  0  0  0  0
  -40.1495   58.7999   64.0458 C   0  0  0  0  0  0  0  0  0  0  0  0
  -40.6549   58.2573   65.3726 C   0  0  0  0  0  0  0  0  0  0  0  0
  -42.1663   58.3648   65.5393 C   0  0  0  0  0  0  0  0  0  0  0  0
  -42.7994   57.1633   66.2160 C   0  0  0  0  0  0  0  0  0  0  0  0
  -44.2164   56.8359   65.7366 C   0  0  0  0  0  0  0  0  0  0  0  0
  -45.3375   57.5924   66.4524 C   0  0  0  0  0  0  0  0  0  0  0  0
  -46.5250   56.7183   66.7242 C   0  0  0  0  0  0  0  0  0  0  0  0
  -47.6860   56.7507   66.0995 C   0  0  0  0  0  0  0  0  0  0  0  0
  -48.0614   57.6714   64.9816 C   0  0  0  0  0  0  0  0  0  0  0  0
  -48.9764   58.8028   65.4413 C   0  0  0  0  0  0  0  0  0  0  0  0
  -50.4387   58.5830   65.0953 C   0  0  0  0  0  0  0  0  0  0  0  0
  -51.0609   59.7308   64.3191 C   0  0  0  0  0  0  0  0  0  0  0  0
  -51.1755   59.4902   62.8230 C   0  0  0  0  0  0  0  0  0  0  0  0
  -51.1641   58.0172   62.4438 C   0  0  0  0  0  0  0  0  0  0  0  0
  -50.1820   57.6656   61.3439 C   0  0  0  0  0  0  0  0  0  0  0  0
  -48.8658   58.3768   61.4904 C   0  0  0  0  0  0  0  0  0  0  0  0
 21 22  1  0  0  0
  4  5  2  0  0  0
 25 24  1  0  0  0
 25 26  2  0  0  0
 25 27  1  0  0  0
 25 29  1  0  0  0
 22 20  1  0  0  0
  3  5  1  0  0  0
  3  2  1  0  0  0
 20 19  1  0  0  0
 24 23  1  0  0  0
 19 18  1  0  0  0
 18 17  1  0  0  0
 27 28  1  0  0  0
 17 16  1  0  0  0
 29 30  1  0  0  0
 16 15  1  0  0  0
 34 35  1  0  0  0
 34 36  1  0  0  0
 15 14  1  0  0  0
 31 32  1  0  0  0
 31 33  1  0  0  0
 14 13  1  0  0  0
 37  1  1  0  0  0
 37 39  1  0  0  0
 13 12  1  0  0  0
 38 39  2  0  0  0
 12 11  1  0  0  0
 11 10  1  0  0  0
 10  9  1  0  0  0
  9  8  1  0  0  0
  8  7  1  0  0  0
  7  6  1  0  0  0
  6  5  1  0  0  0
  2  1  1  0  0  0
  1 23  1  0  0  0
 30 32  1  0  0  0
 32 35  1  0  0  0
 39 40  1  0  0  0
 40 41  1  0  0  0
 41 42  1  0  0  0
 42 43  1  0  0  0
 43 44  1  0  0  0
 44 45  1  0  0  0
 45 46  1  0  0  0
 46 47  1  0  0  0
 47 48  2  0  0  0
 48 49  1  0  0  0
 49 50  1  0  0  0
 50 51  1  0  0  0
 51 52  1  0  0  0
 52 53  1  0  0  0
 53 54  1  0  0  0
 54 55  1  0  0  0
 55 56  1  0  0  0
M  CHG 1  26  -1
M  END
> <minimizedAffinity>
-8.17488

> <CNNscore>
0.5996983647

> <CNNaffinity>
7.5905127525

> <CNN_VS>
4.5520181656

> <CNNaffinity_variance>
0.5953879952

$$$$
/media/chris/experiments/cd1a-new-docking/inputs/ligands/7sh4_ligand.pdb


 56 55  0  0  0  0  0  0  0  0999 V2000
  -38.2030   58.3999   63.5725 C   0  0  0  0  0  0  0  0  0  0  0  0
  -39.0224   58.0793   64.7905 C   0  0  0  0  0  0  0  0  0  0  0  0
  -39.1050   59.3355   65.4963 O   0  0  0  0  0  0  0  0  0  0  0  0
  -40.5724   60.9468   65.9959 O   0  0  0  0  0  0  0  0  0  0  0  0
  -40.3260   59.7913   65.7774 C   0  0  0  0  0  0  0  0  0  0  0  0
  -41.3523   58.7014   65.6601 C   0  0  0  0  0  0  0  0  0  0  0  0
  -42.7374   59.1921   65.2739 C   0  0  0  0  0  0  0  0  0  0  0  0
  -43.8140   58.7190   66.2276 C   0  0  0  0  0  0  0  0  0  0  0  0
  -45.2159   59.1190   65.8267 C   0  0  0  0  0  0  0  0  0  0  0  0
  -46.2711   58.6439   66.8050 C   0  0  0  0  0  0  0  0  0  0  0  0
  -47.4885   58.0619   66.1292 C   0  0  0  0  0  0  0  0  0  0  0  0
  -48.6536   59.0152   66.0931 C   0  0  0  0  0  0  0  0  0  0  0  0
  -49.8422   58.4817   65.3245 C   0  0  0  0  0  0  0  0  0  0  0  0
  -50.6911   59.5824   64.7213 C   0  0  0  0  0  0  0  0  0  0  0  0
  -51.1772   59.2888   63.3174 C   0  0  0  0  0  0  0  0  0  0  0  0
  -50.4434   58.1373   62.6396 C   0  0  0  0  0  0  0  0  0  0  0  0
  -50.3222   58.2845   61.1350 C   0  0  0  0  0  0  0  0  0  0  0  0
  -50.2311   56.9597   60.4058 C   0  0  0  0  0  0  0  0  0  0  0  0
  -49.3972   57.0194   59.1336 C   0  0  0  0  0  0  0  0  0  0  0  0
  -48.0197   56.3982   59.2801 C   0  0  0  0  0  0  0  0  0  0  0  0
  -46.4313   57.8292   57.9516 C   0  0  0  0  0  0  0  0  0  0  0  0
  -46.8762   57.3938   59.3293 C   0  0  0  0  0  0  0  0  0  0  0  0
  -38.8839   57.9627   62.3009 C   0  0  0  0  0  0  0  0  0  0  0  0
  -39.2304   59.1360   61.5317 O   0  0  0  0  0  0  0  0  0  0  0  0
  -38.3013   59.7124   60.3628 P   0  0  0  0  0  0  0  0  0  0  0  0
  -39.1637   60.0186   59.2012 O   0  0  0  0  0  0  0  0  0  0  0  0
  -37.4618   60.7942   60.9315 O   0  0  0  0  0  0  0  0  0  0  0  0
  -38.0259   61.5406   61.1876 H   0  0  0  0  0  0  0  0  0  0  0  0
  -37.3387   58.5080   59.9557 O   0  0  0  0  0  0  0  0  0  0  0  0
  -37.2162   58.1180   58.5725 C   0  0  0  0  0  0  0  0  0  0  0  0
  -36.8666   56.1043   57.3214 O   0  0  0  0  0  0  0  0  0  0  0  0
  -36.4862   56.7988   58.5131 C   0  0  0  0  0  0  0  0  0  0  0  0
  -37.8309   56.0008   57.3014 H   0  0  0  0  0  0  0  0  0  0  0  0
  -34.5404   57.1177   59.9026 O   0  0  0  0  0  0  0  0  0  0  0  0
  -34.9867   56.9689   58.5608 C   0  0  0  0  0  0  0  0  0  0  0  0
  -33.5764   57.2256   59.9126 H   0  0  0  0  0  0  0  0  0  0  0  0
  -36.8859   57.7737   63.7244 O   0  0  0  0  0  0  0  0  0  0  0  0
  -35.5343   58.9550   62.3688 O   0  0  0  0  0  0  0  0  0  0  0  0
  -35.8109   58.5414   63.4615 C   0  0  0  0  0  0  0  0  0  0  0  0
  -35.0143   58.8319   64.6957 C   0  0  0  0  0  0  0  0  0  0  0  0
  -34.7359   60.3244   64.8427 C   0  0  0  0  0  0  0  0  0  0  0  0
  -35.9396   61.1341   65.2960 C   0  0  0  0  0  0  0  0  0  0  0  0
  -36.5766   61.9556   64.1810 C   0  0  0  0  0  0  0  0  0  0  0  0
  -36.0327   63.3675   64.0670 C   0  0  0  0  0  0  0  0  0  0  0  0
  -36.0701   64.1714   65.3698 C   0  0  0  0  0  0  0  0  0  0  0  0
  -34.7161   64.6995   65.8486 C   0  0  0  0  0  0  0  0  0  0  0  0
  -33.9345   65.3379   64.7398 C   0  0  0  0  0  0  0  0  0  0  0  0
  -32.6663   65.1256   64.4468 C   0  0  0  0  0  0  0  0  0  0  0  0
  -31.7383   64.1965   65.1638 C   0  0  0  0  0  0  0  0  0  0  0  0
  -30.9364   63.3204   64.2058 C   0  0  0  0  0  0  0  0  0  0  0  0
  -31.0145   63.7708   62.7576 C   0  0  0  0  0  0  0  0  0  0  0  0
  -31.1010   62.6235   61.7659 C   0  0  0  0  0  0  0  0  0  0  0  0
  -30.9298   61.2447   62.3816 C   0  0  0  0  0  0  0  0  0  0  0  0
  -32.1982   60.4057   62.3503 C   0  0  0  0  0  0  0  0  0  0  0  0
  -32.0643   59.1041   61.5849 C   0  0  0  0  0  0  0  0  0  0  0  0
  -32.2579   57.8946   62.4562 C   0  0  0  0  0  0  0  0  0  0  0  0
 21 22  1  0  0  0
  4  5  2  0  0  0
 25 24  1  0  0  0
 25 26  2  0  0  0
 25 27  1  0  0  0
 25 29  1  0  0  0
 22 20  1  0  0  0
  3  5  1  0  0  0
  3  2  1  0  0  0
 20 19  1  0  0  0
 24 23  1  0  0  0
 19 18  1  0  0  0
 18 17  1  0  0  0
 27 28  1  0  0  0
 17 16  1  0  0  0
 29 30  1  0  0  0
 16 15  1  0  0  0
 34 35  1  0  0  0
 34 36  1  0  0  0
 15 14  1  0  0  0
 31 32  1  0  0  0
 31 33  1  0  0  0
 14 13  1  0  0  0
 37  1  1  0  0  0
 37 39  1  0  0  0
 13 12  1  0  0  0
 38 39  2  0  0  0
 12 11  1  0  0  0
 11 10  1  0  0  0
 10  9  1  0  0  0
  9  8  1  0  0  0
  8  7  1  0  0  0
  7  6  1  0  0  0
  6  5  1  0  0  0
  2  1  1  0  0  0
  1 23  1  0  0  0
 30 32  1  0  0  0
 32 35  1  0  0  0
 39 40  1  0  0  0
 40 41  1  0  0  0
 41 42  1  0  0  0
 42 43  1  0  0  0
 43 44  1  0  0  0
 44 45  1  0  0  0
 45 46  1  0  0  0
 46 47  1  0  0  0
 47 48  2  0  0  0
 48 49  1  0  0  0
 49 50  1  0  0  0
 50 51  1  0  0  0
 51 52  1  0  0  0
 52 53  1  0  0  0
 53 54  1  0  0  0
 54 55  1  0  0  0
 55 56  1  0  0  0
M  CHG 1  26  -1
M  END
> <minimizedAffinity>
-8.45397

> <CNNscore>
0.5686461926

> <CNNaffinity>
7.3141074181

> <CNN_VS>
4.1591391563

> <CNNaffinity_variance>
0.4549756944

$$$$
/media/chris/experiments/cd1a-new-docking/inputs/ligands/7sh4_ligand.pdb


 56 55  0  0  0  0  0  0  0  0999 V2000
  -37.5032   60.8864   65.5755 C   0  0  0  0  0  0  0  0  0  0  0  0
  -38.4850   60.1165   66.4128 C   0  0  0  0  0  0  0  0  0  0  0  0
  -39.7546   60.3536   65.7687 O   0  0  0  0  0  0  0  0  0  0  0  0
  -39.8686   58.2292   65.0810 O   0  0  0  0  0  0  0  0  0  0  0  0
  -40.3966   59.2883   65.2884 C   0  0  0  0  0  0  0  0  0  0  0  0
  -41.8697   59.5526   65.1650 C   0  0  0  0  0  0  0  0  0  0  0  0
  -42.6781   59.1422   66.3842 C   0  0  0  0  0  0  0  0  0  0  0  0
  -44.1710   59.1654   66.1326 C   0  0  0  0  0  0  0  0  0  0  0  0
  -44.6083   58.3649   64.9268 C   0  0  0  0  0  0  0  0  0  0  0  0
  -46.0860   58.0295   64.9415 C   0  0  0  0  0  0  0  0  0  0  0  0
  -46.9118   59.0185   65.7272 C   0  0  0  0  0  0  0  0  0  0  0  0
  -48.3604   59.0332   65.3162 C   0  0  0  0  0  0  0  0  0  0  0  0
  -48.5638   58.8602   63.8273 C   0  0  0  0  0  0  0  0  0  0  0  0
  -49.4994   59.8973   63.2399 C   0  0  0  0  0  0  0  0  0  0  0  0
  -50.7653   59.3196   62.6421 C   0  0  0  0  0  0  0  0  0  0  0  0
  -50.5260   58.1149   61.7392 C   0  0  0  0  0  0  0  0  0  0  0  0
  -49.7849   58.4431   60.4574 C   0  0  0  0  0  0  0  0  0  0  0  0
  -49.8151   57.3208   59.4402 C   0  0  0  0  0  0  0  0  0  0  0  0
  -48.4610   56.6613   59.2187 C   0  0  0  0  0  0  0  0  0  0  0  0
  -47.5762   57.4055   58.2347 C   0  0  0  0  0  0  0  0  0  0  0  0
  -47.6686   55.1779   57.0664 C   0  0  0  0  0  0  0  0  0  0  0  0
  -47.0779   56.5696   57.0710 C   0  0  0  0  0  0  0  0  0  0  0  0
  -36.4639   59.9894   64.9533 C   0  0  0  0  0  0  0  0  0  0  0  0
  -37.0103   59.4120   63.7465 O   0  0  0  0  0  0  0  0  0  0  0  0
  -37.4658   60.2949   62.4916 P   0  0  0  0  0  0  0  0  0  0  0  0
  -38.9092   60.5831   62.6342 O   0  0  0  0  0  0  0  0  0  0  0  0
  -36.5221   61.4310   62.3597 O   0  0  0  0  0  0  0  0  0  0  0  0
  -36.6181   62.0213   63.1234 H   0  0  0  0  0  0  0  0  0  0  0  0
  -37.2768   59.3511   61.2202 O   0  0  0  0  0  0  0  0  0  0  0  0
  -38.3904   58.5829   60.7199 C   0  0  0  0  0  0  0  0  0  0  0  0
  -39.0737   60.1827   59.0719 O   0  0  0  0  0  0  0  0  0  0  0  0
  -38.5399   58.8667   59.2455 C   0  0  0  0  0  0  0  0  0  0  0  0
  -39.9112   60.2583   59.5553 H   0  0  0  0  0  0  0  0  0  0  0  0
  -37.3027   57.6679   57.5570 O   0  0  0  0  0  0  0  0  0  0  0  0
  -37.2346   58.7311   58.4987 C   0  0  0  0  0  0  0  0  0  0  0  0
  -36.4565   57.5967   57.0881 H   0  0  0  0  0  0  0  0  0  0  0  0
  -36.8924   61.9215   66.4154 O   0  0  0  0  0  0  0  0  0  0  0  0
  -36.6509   63.2665   64.6286 O   0  0  0  0  0  0  0  0  0  0  0  0
  -36.5330   63.0681   65.8069 C   0  0  0  0  0  0  0  0  0  0  0  0
  -35.9875   64.0702   66.7766 C   0  0  0  0  0  0  0  0  0  0  0  0
  -34.4731   64.2024   66.6509 C   0  0  0  0  0  0  0  0  0  0  0  0
  -33.7765   62.9227   66.2183 C   0  0  0  0  0  0  0  0  0  0  0  0
  -33.2252   62.9787   64.7982 C   0  0  0  0  0  0  0  0  0  0  0  0
  -31.9324   63.7623   64.6687 C   0  0  0  0  0  0  0  0  0  0  0  0
  -31.7092   64.3997   63.2944 C   0  0  0  0  0  0  0  0  0  0  0  0
  -32.1041   63.5284   62.1001 C   0  0  0  0  0  0  0  0  0  0  0  0
  -30.9873   62.6282   61.6637 C   0  0  0  0  0  0  0  0  0  0  0  0
  -30.9305   61.3183   61.8060 C   0  0  0  0  0  0  0  0  0  0  0  0
  -31.9761   60.4526   62.4352 C   0  0  0  0  0  0  0  0  0  0  0  0
  -31.9984   59.0451   61.8463 C   0  0  0  0  0  0  0  0  0  0  0  0
  -32.8763   58.0754   62.6178 C   0  0  0  0  0  0  0  0  0  0  0  0
  -34.1184   57.6412   61.8590 C   0  0  0  0  0  0  0  0  0  0  0  0
  -34.1344   56.1737   61.4642 C   0  0  0  0  0  0  0  0  0  0  0  0
  -34.0855   55.9507   59.9603 C   0  0  0  0  0  0  0  0  0  0  0  0
  -33.9177   57.2197   59.1484 C   0  0  0  0  0  0  0  0  0  0  0  0
  -33.8349   56.9578   57.6705 C   0  0  0  0  0  0  0  0  0  0  0  0
 21 22  1  0  0  0
  4  5  2  0  0  0
 25 24  1  0  0  0
 25 26  2  0  0  0
 25 27  1  0  0  0
 25 29  1  0  0  0
 22 20  1  0  0  0
  3  5  1  0  0  0
  3  2  1  0  0  0
 20 19  1  0  0  0
 24 23  1  0  0  0
 19 18  1  0  0  0
 18 17  1  0  0  0
 27 28  1  0  0  0
 17 16  1  0  0  0
 29 30  1  0  0  0
 16 15  1  0  0  0
 34 35  1  0  0  0
 34 36  1  0  0  0
 15 14  1  0  0  0
 31 32  1  0  0  0
 31 33  1  0  0  0
 14 13  1  0  0  0
 37  1  1  0  0  0
 37 39  1  0  0  0
 13 12  1  0  0  0
 38 39  2  0  0  0
 12 11  1  0  0  0
 11 10  1  0  0  0
 10  9  1  0  0  0
  9  8  1  0  0  0
  8  7  1  0  0  0
  7  6  1  0  0  0
  6  5  1  0  0  0
  2  1  1  0  0  0
  1 23  1  0  0  0
 30 32  1  0  0  0
 32 35  1  0  0  0
 39 40  1  0  0  0
 40 41  1  0  0  0
 41 42  1  0  0  0
 42 43  1  0  0  0
 43 44  1  0  0  0
 44 45  1  0  0  0
 45 46  1  0  0  0
 46 47  1  0  0  0
 47 48  2  0  0  0
 48 49  1  0  0  0
 49 50  1  0  0  0
 50 51  1  0  0  0
 51 52  1  0  0  0
 52 53  1  0  0  0
 53 54  1  0  0  0
 54 55  1  0  0  0
 55 56  1  0  0  0
M  CHG 1  26  -1
M  END
> <minimizedAffinity>
-8.38328

> <CNNscore>
0.4808779657

> <CNNaffinity>
7.0731406212

> <CNN_VS>
3.4013173580

> <CNNaffinity_variance>
0.3076298237

$$$$
/media/chris/experiments/cd1a-new-docking/inputs/ligands/7sh4_ligand.pdb


 56 55  0  0  0  0  0  0  0  0999 V2000
  -38.6753   60.0174   64.8083 C   0  0  0  0  0  0  0  0  0  0  0  0
  -39.1395   58.9893   65.8008 C   0  0  0  0  0  0  0  0  0  0  0  0
  -40.4391   59.4630   66.2125 O   0  0  0  0  0  0  0  0  0  0  0  0
  -41.3867   57.5688   65.4961 O   0  0  0  0  0  0  0  0  0  0  0  0
  -41.4607   58.6166   66.0794 C   0  0  0  0  0  0  0  0  0  0  0  0
  -42.6588   59.0860   66.8534 C   0  0  0  0  0  0  0  0  0  0  0  0
  -43.9483   59.1047   66.0502 C   0  0  0  0  0  0  0  0  0  0  0  0
  -45.0290   58.2344   66.6560 C   0  0  0  0  0  0  0  0  0  0  0  0
  -46.3557   58.3018   65.9341 C   0  0  0  0  0  0  0  0  0  0  0  0
  -46.6373   59.6655   65.3365 C   0  0  0  0  0  0  0  0  0  0  0  0
  -48.0856   59.8614   64.9599 C   0  0  0  0  0  0  0  0  0  0  0  0
  -49.0398   59.3638   66.0131 C   0  0  0  0  0  0  0  0  0  0  0  0
  -50.3704   58.9124   65.4526 C   0  0  0  0  0  0  0  0  0  0  0  0
  -50.7693   59.6751   64.2056 C   0  0  0  0  0  0  0  0  0  0  0  0
  -51.1251   58.7916   63.0281 C   0  0  0  0  0  0  0  0  0  0  0  0
  -50.2119   58.9760   61.8216 C   0  0  0  0  0  0  0  0  0  0  0  0
  -50.0809   57.7395   60.9532 C   0  0  0  0  0  0  0  0  0  0  0  0
  -48.7337   57.6235   60.2700 C   0  0  0  0  0  0  0  0  0  0  0  0
  -48.8232   57.1862   58.8146 C   0  0  0  0  0  0  0  0  0  0  0  0
  -47.5120   56.6638   58.2552 C   0  0  0  0  0  0  0  0  0  0  0  0
  -45.3448   57.8323   58.7782 C   0  0  0  0  0  0  0  0  0  0  0  0
  -46.5260   57.7389   57.8392 C   0  0  0  0  0  0  0  0  0  0  0  0
  -37.4395   60.7408   65.2785 C   0  0  0  0  0  0  0  0  0  0  0  0
  -37.3567   62.0121   64.5962 O   0  0  0  0  0  0  0  0  0  0  0  0
  -36.0476   62.4905   63.8092 P   0  0  0  0  0  0  0  0  0  0  0  0
  -35.7486   61.4869   62.7652 O   0  0  0  0  0  0  0  0  0  0  0  0
  -36.2433   63.9034   63.4040 O   0  0  0  0  0  0  0  0  0  0  0  0
  -36.9568   63.9560   62.7490 H   0  0  0  0  0  0  0  0  0  0  0  0
  -34.8698   62.4476   64.8834 O   0  0  0  0  0  0  0  0  0  0  0  0
  -33.7483   63.3461   64.7607 C   0  0  0  0  0  0  0  0  0  0  0  0
  -34.5408   65.5856   65.0756 O   0  0  0  0  0  0  0  0  0  0  0  0
  -33.9338   64.4756   65.7439 C   0  0  0  0  0  0  0  0  0  0  0  0
  -33.9993   65.8384   64.3116 H   0  0  0  0  0  0  0  0  0  0  0  0
  -34.1927   62.9391   67.5854 O   0  0  0  0  0  0  0  0  0  0  0  0
  -34.7643   64.0683   66.9373 C   0  0  0  0  0  0  0  0  0  0  0  0
  -34.7393   62.6930   68.3480 H   0  0  0  0  0  0  0  0  0  0  0  0
  -39.7818   60.9451   64.5531 O   0  0  0  0  0  0  0  0  0  0  0  0
  -41.7056   61.0891   63.3963 O   0  0  0  0  0  0  0  0  0  0  0  0
  -40.5904   60.6600   63.5145 C   0  0  0  0  0  0  0  0  0  0  0  0
  -39.9268   59.7609   62.5178 C   0  0  0  0  0  0  0  0  0  0  0  0
  -39.8769   60.4010   61.1341 C   0  0  0  0  0  0  0  0  0  0  0  0
  -38.5593   60.1924   60.4057 C   0  0  0  0  0  0  0  0  0  0  0  0
  -38.6904   59.3615   59.1343 C   0  0  0  0  0  0  0  0  0  0  0  0
  -37.3975   58.7017   58.6925 C   0  0  0  0  0  0  0  0  0  0  0  0
  -37.5829   57.4023   57.9038 C   0  0  0  0  0  0  0  0  0  0  0  0
  -36.3596   56.4839   57.8641 C   0  0  0  0  0  0  0  0  0  0  0  0
  -35.0736   57.2542   57.8960 C   0  0  0  0  0  0  0  0  0  0  0  0
  -33.9718   56.9207   58.5395 C   0  0  0  0  0  0  0  0  0  0  0  0
  -33.7744   55.6957   59.3756 C   0  0  0  0  0  0  0  0  0  0  0  0
  -34.2182   55.8996   60.8212 C   0  0  0  0  0  0  0  0  0  0  0  0
  -33.3265   56.8466   61.6049 C   0  0  0  0  0  0  0  0  0  0  0  0
  -34.0719   58.0201   62.2168 C   0  0  0  0  0  0  0  0  0  0  0  0
  -34.6265   57.7579   63.6072 C   0  0  0  0  0  0  0  0  0  0  0  0
  -36.1330   57.5483   63.6287 C   0  0  0  0  0  0  0  0  0  0  0  0
  -36.8298   57.9091   62.3317 C   0  0  0  0  0  0  0  0  0  0  0  0
  -37.7392   56.8191   61.8373 C   0  0  0  0  0  0  0  0  0  0  0  0
 21 22  1  0  0  0
  4  5  2  0  0  0
 25 24  1  0  0  0
 25 26  2  0  0  0
 25 27  1  0  0  0
 25 29  1  0  0  0
 22 20  1  0  0  0
  3  5  1  0  0  0
  3  2  1  0  0  0
 20 19  1  0  0  0
 24 23  1  0  0  0
 19 18  1  0  0  0
 18 17  1  0  0  0
 27 28  1  0  0  0
 17 16  1  0  0  0
 29 30  1  0  0  0
 16 15  1  0  0  0
 34 35  1  0  0  0
 34 36  1  0  0  0
 15 14  1  0  0  0
 31 32  1  0  0  0
 31 33  1  0  0  0
 14 13  1  0  0  0
 37  1  1  0  0  0
 37 39  1  0  0  0
 13 12  1  0  0  0
 38 39  2  0  0  0
 12 11  1  0  0  0
 11 10  1  0  0  0
 10  9  1  0  0  0
  9  8  1  0  0  0
  8  7  1  0  0  0
  7  6  1  0  0  0
  6  5  1  0  0  0
  2  1  1  0  0  0
  1 23  1  0  0  0
 30 32  1  0  0  0
 32 35  1  0  0  0
 39 40  1  0  0  0
 40 41  1  0  0  0
 41 42  1  0  0  0
 42 43  1  0  0  0
 43 44  1  0  0  0
 44 45  1  0  0  0
 45 46  1  0  0  0
 46 47  1  0  0  0
 47 48  2  0  0  0
 48 49  1  0  0  0
 49 50  1  0  0  0
 50 51  1  0  0  0
 51 52  1  0  0  0
 52 53  1  0  0  0
 53 54  1  0  0  0
 54 55  1  0  0  0
 55 56  1  0  0  0
M  CHG 1  26  -1
M  END
> <minimizedAffinity>
-8.67513

> <CNNscore>
0.4433706403

> <CNNaffinity>
7.5235619545

> <CNN_VS>
3.3357264996

> <CNNaffinity_variance>
0.7836927772

$$$$
/media/chris/experiments/cd1a-new-docking/inputs/ligands/7sh4_ligand.pdb


 56 55  0  0  0  0  0  0  0  0999 V2000
  -38.4194   60.9345   64.8483 C   0  0  0  0  0  0  0  0  0  0  0  0
  -37.8207   60.9063   63.4704 C   0  0  0  0  0  0  0  0  0  0  0  0
  -38.9535   60.6936   62.6017 O   0  0  0  0  0  0  0  0  0  0  0  0
  -39.6741   59.5094   60.8474 O   0  0  0  0  0  0  0  0  0  0  0  0
  -38.8286   59.7522   61.6658 C   0  0  0  0  0  0  0  0  0  0  0  0
  -37.4597   59.1357   61.6956 C   0  0  0  0  0  0  0  0  0  0  0  0
  -37.4620   57.6279   61.8831 C   0  0  0  0  0  0  0  0  0  0  0  0
  -38.1197   57.1992   63.1777 C   0  0  0  0  0  0  0  0  0  0  0  0
  -37.2467   57.3663   64.4008 C   0  0  0  0  0  0  0  0  0  0  0  0
  -35.7673   57.2498   64.0943 C   0  0  0  0  0  0  0  0  0  0  0  0
  -34.9853   58.4870   64.4622 C   0  0  0  0  0  0  0  0  0  0  0  0
  -34.3724   59.1720   63.2695 C   0  0  0  0  0  0  0  0  0  0  0  0
  -32.8861   58.9259   63.1340 C   0  0  0  0  0  0  0  0  0  0  0  0
  -32.5703   57.6188   62.4357 C   0  0  0  0  0  0  0  0  0  0  0  0
  -33.4043   57.3623   61.1979 C   0  0  0  0  0  0  0  0  0  0  0  0
  -34.1057   56.0088   61.1973 C   0  0  0  0  0  0  0  0  0  0  0  0
  -34.4824   55.5107   59.8152 C   0  0  0  0  0  0  0  0  0  0  0  0
  -33.8703   56.3252   58.6941 C   0  0  0  0  0  0  0  0  0  0  0  0
  -34.8975   57.0457   57.8320 C   0  0  0  0  0  0  0  0  0  0  0  0
  -36.2872   56.4391   57.9078 C   0  0  0  0  0  0  0  0  0  0  0  0
  -37.3934   58.6592   58.3358 C   0  0  0  0  0  0  0  0  0  0  0  0
  -37.4131   57.3818   57.5273 C   0  0  0  0  0  0  0  0  0  0  0  0
  -37.3638   60.9523   65.9240 C   0  0  0  0  0  0  0  0  0  0  0  0
  -36.3435   61.9083   65.5586 O   0  0  0  0  0  0  0  0  0  0  0  0
  -35.8806   63.0956   66.5270 P   0  0  0  0  0  0  0  0  0  0  0  0
  -36.6587   64.3030   66.1754 O   0  0  0  0  0  0  0  0  0  0  0  0
  -35.9294   62.5983   67.9230 O   0  0  0  0  0  0  0  0  0  0  0  0
  -36.8504   62.4230   68.1718 H   0  0  0  0  0  0  0  0  0  0  0  0
  -34.3538   63.3707   66.1581 O   0  0  0  0  0  0  0  0  0  0  0  0
  -34.0219   64.2968   65.1033 C   0  0  0  0  0  0  0  0  0  0  0  0
  -35.5595   64.1259   63.2732 O   0  0  0  0  0  0  0  0  0  0  0  0
  -34.3147   63.6347   63.7794 C   0  0  0  0  0  0  0  0  0  0  0  0
  -36.2573   63.9761   63.9301 H   0  0  0  0  0  0  0  0  0  0  0  0
  -32.9590   62.6707   62.0326 O   0  0  0  0  0  0  0  0  0  0  0  0
  -33.2160   63.8599   62.7685 C   0  0  0  0  0  0  0  0  0  0  0  0
  -32.2515   62.8350   61.3896 H   0  0  0  0  0  0  0  0  0  0  0  0
  -39.3140   59.7810   64.9864 O   0  0  0  0  0  0  0  0  0  0  0  0
  -40.9679   61.0994   65.7523 O   0  0  0  0  0  0  0  0  0  0  0  0
  -40.5170   60.0053   65.5490 C   0  0  0  0  0  0  0  0  0  0  0  0
  -41.2310   58.7295   65.8728 C   0  0  0  0  0  0  0  0  0  0  0  0
  -42.6764   58.7592   65.3865 C   0  0  0  0  0  0  0  0  0  0  0  0
  -43.7029   58.5853   66.4940 C   0  0  0  0  0  0  0  0  0  0  0  0
  -45.1161   58.9826   66.0832 C   0  0  0  0  0  0  0  0  0  0  0  0
  -46.1989   58.4476   67.0016 C   0  0  0  0  0  0  0  0  0  0  0  0
  -47.5491   58.2057   66.3208 C   0  0  0  0  0  0  0  0  0  0  0  0
  -48.3864   59.4616   66.0695 C   0  0  0  0  0  0  0  0  0  0  0  0
  -48.2783   59.9384   64.6521 C   0  0  0  0  0  0  0  0  0  0  0  0
  -49.1059   59.6622   63.6631 C   0  0  0  0  0  0  0  0  0  0  0  0
  -50.3336   58.8115   63.7511 C   0  0  0  0  0  0  0  0  0  0  0  0
  -51.1775   58.8740   62.4813 C   0  0  0  0  0  0  0  0  0  0  0  0
  -51.1778   57.5806   61.6854 C   0  0  0  0  0  0  0  0  0  0  0  0
  -50.2817   57.6186   60.4595 C   0  0  0  0  0  0  0  0  0  0  0  0
  -49.5469   56.3189   60.1761 C   0  0  0  0  0  0  0  0  0  0  0  0
  -48.4678   56.4528   59.1123 C   0  0  0  0  0  0  0  0  0  0  0  0
  -47.6399   57.7178   59.2221 C   0  0  0  0  0  0  0  0  0  0  0  0
  -46.3049   57.5999   58.5412 C   0  0  0  0  0  0  0  0  0  0  0  0
 21 22  1  0  0  0
  4  5  2  0  0  0
 25 24  1  0  0  0
 25 26  2  0  0  0
 25 27  1  0  0  0
 25 29  1  0  0  0
 22 20  1  0  0  0
  3  5  1  0  0  0
  3  2  1  0  0  0
 20 19  1  0  0  0
 24 23  1  0  0  0
 19 18  1  0  0  0
 18 17  1  0  0  0
 27 28  1  0  0  0
 17 16  1  0  0  0
 29 30  1  0  0  0
 16 15  1  0  0  0
 34 35  1  0  0  0
 34 36  1  0  0  0
 15 14  1  0  0  0
 31 32  1  0  0  0
 31 33  1  0  0  0
 14 13  1  0  0  0
 37  1  1  0  0  0
 37 39  1  0  0  0
 13 12  1  0  0  0
 38 39  2  0  0  0
 12 11  1  0  0  0
 11 10  1  0  0  0
 10  9  1  0  0  0
  9  8  1  0  0  0
  8  7  1  0  0  0
  7  6  1  0  0  0
  6  5  1  0  0  0
  2  1  1  0  0  0
  1 23  1  0  0  0
 30 32  1  0  0  0
 32 35  1  0  0  0
 39 40  1  0  0  0
 40 41  1  0  0  0
 41 42  1  0  0  0
 42 43  1  0  0  0
 43 44  1  0  0  0
 44 45  1  0  0  0
 45 46  1  0  0  0
 46 47  1  0  0  0
 47 48  2  0  0  0
 48 49  1  0  0  0
 49 50  1  0  0  0
 50 51  1  0  0  0
 51 52  1  0  0  0
 52 53  1  0  0  0
 53 54  1  0  0  0
 54 55  1  0  0  0
 55 56  1  0  0  0
M  CHG 1  26  -1
M  END
> <minimizedAffinity>
-8.59000

> <CNNscore>
0.4139427841

> <CNNaffinity>
7.4017319679

> <CNN_VS>
3.0638935566

> <CNNaffinity_variance>
0.8442218900

$$$$
