/media/chris/experiments/cd1a-new-docking/inputs/ligands/7sh4_ligand.pdb


 56 55  0  0  0  0  0  0  0  0999 V2000
  -38.3191   59.9958   64.5776 C   0  0  0  0  0  0  0  0  0  0  0  0
  -37.7762   58.7204   63.9975 C   0  0  0  0  0  0  0  0  0  0  0  0
  -36.3505   58.9391   63.9465 O   0  0  0  0  0  0  0  0  0  0  0  0
  -35.9520   56.7689   64.3078 O   0  0  0  0  0  0  0  0  0  0  0  0
  -35.5692   57.9070   64.2663 C   0  0  0  0  0  0  0  0  0  0  0  0
  -34.1420   58.3403   64.4398 C   0  0  0  0  0  0  0  0  0  0  0  0
  -33.6250   59.2344   63.3256 C   0  0  0  0  0  0  0  0  0  0  0  0
  -32.4333   58.6417   62.6035 C   0  0  0  0  0  0  0  0  0  0  0  0
  -32.6427   57.2233   62.1238 C   0  0  0  0  0  0  0  0  0  0  0  0
  -33.6345   57.1232   60.9826 C   0  0  0  0  0  0  0  0  0  0  0  0
  -33.9575   55.6997   60.5993 C   0  0  0  0  0  0  0  0  0  0  0  0
  -33.9767   55.4814   59.1096 C   0  0  0  0  0  0  0  0  0  0  0  0
  -33.6766   56.7333   58.3153 C   0  0  0  0  0  0  0  0  0  0  0  0
  -34.9302   57.4364   57.8352 C   0  0  0  0  0  0  0  0  0  0  0  0
  -36.1661   56.5612   57.8304 C   0  0  0  0  0  0  0  0  0  0  0  0
  -37.3843   57.2121   58.4758 C   0  0  0  0  0  0  0  0  0  0  0  0
  -37.2838   57.3490   59.9828 C   0  0  0  0  0  0  0  0  0  0  0  0
  -38.0087   58.5629   60.5268 C   0  0  0  0  0  0  0  0  0  0  0  0
  -38.5236   59.5018   59.4447 C   0  0  0  0  0  0  0  0  0  0  0  0
  -39.7474   60.2974   59.8625 C   0  0  0  0  0  0  0  0  0  0  0  0
  -40.4790   60.9225   62.1884 C   0  0  0  0  0  0  0  0  0  0  0  0
  -40.4012   59.8280   61.1483 C   0  0  0  0  0  0  0  0  0  0  0  0
  -37.2277   60.9909   64.8778 C   0  0  0  0  0  0  0  0  0  0  0  0
  -37.1682   61.9545   63.8025 O   0  0  0  0  0  0  0  0  0  0  0  0
  -35.9814   63.0184   63.6557 P   0  0  0  0  0  0  0  0  0  0  0  0
  -34.7007   62.2789   63.6585 O   0  0  0  0  0  0  0  0  0  0  0  0
  -36.2920   63.9005   62.5051 O   0  0  0  0  0  0  0  0  0  0  0  0
  -36.2622   63.3842   61.6844 H   0  0  0  0  0  0  0  0  0  0  0  0
  -36.0406   63.9029   64.9811 O   0  0  0  0  0  0  0  0  0  0  0  0
  -34.8428   64.5281   65.4853 C   0  0  0  0  0  0  0  0  0  0  0  0
  -34.0096   64.8115   67.7143 O   0  0  0  0  0  0  0  0  0  0  0  0
  -34.4465   63.8341   66.7653 C   0  0  0  0  0  0  0  0  0  0  0  0
  -33.2872   65.3336   67.3314 H   0  0  0  0  0  0  0  0  0  0  0  0
  -36.5391   63.8493   67.9650 O   0  0  0  0  0  0  0  0  0  0  0  0
  -35.5719   63.0114   67.3453 C   0  0  0  0  0  0  0  0  0  0  0  0
  -37.2527   63.3037   68.3310 H   0  0  0  0  0  0  0  0  0  0  0  0
  -39.0944   59.6639   65.7770 O   0  0  0  0  0  0  0  0  0  0  0  0
  -40.7667   61.1223   66.1473 O   0  0  0  0  0  0  0  0  0  0  0  0
  -40.3877   60.0398   65.7915 C   0  0  0  0  0  0  0  0  0  0  0  0
  -41.2923   58.9552   65.2945 C   0  0  0  0  0  0  0  0  0  0  0  0
  -42.5085   58.7836   66.1990 C   0  0  0  0  0  0  0  0  0  0  0  0
  -43.7850   58.4283   65.4545 C   0  0  0  0  0  0  0  0  0  0  0  0
  -44.3539   57.0662   65.8352 C   0  0  0  0  0  0  0  0  0  0  0  0
  -45.6066   57.1374   66.6884 C   0  0  0  0  0  0  0  0  0  0  0  0
  -46.8006   56.3557   66.1331 C   0  0  0  0  0  0  0  0  0  0  0  0
  -48.0507   57.1908   65.8485 C   0  0  0  0  0  0  0  0  0  0  0  0
  -47.8275   58.1854   64.7489 C   0  0  0  0  0  0  0  0  0  0  0  0
  -48.7549   58.7703   64.0160 C   0  0  0  0  0  0  0  0  0  0  0  0
  -50.2320   58.5627   64.1312 C   0  0  0  0  0  0  0  0  0  0  0  0
  -50.8877   58.2831   62.7820 C   0  0  0  0  0  0  0  0  0  0  0  0
  -49.9170   57.7904   61.7231 C   0  0  0  0  0  0  0  0  0  0  0  0
  -50.5912   57.0871   60.5577 C   0  0  0  0  0  0  0  0  0  0  0  0
  -49.9662   57.3737   59.2024 C   0  0  0  0  0  0  0  0  0  0  0  0
  -48.4453   57.3671   59.2233 C   0  0  0  0  0  0  0  0  0  0  0  0
  -47.8076   56.8931   57.9324 C   0  0  0  0  0  0  0  0  0  0  0  0
  -47.5667   55.4094   57.9134 C   0  0  0  0  0  0  0  0  0  0  0  0
 21 22  1  0  0  0
  4  5  2  0  0  0
 25 24  1  0  0  0
 25 26  2  0  0  0
 25 27  1  0  0  0
 25 29  1  0  0  0
 22 20  1  0  0  0
  3  5  1  0  0  0
  3  2  1  0  0  0
 20 19  1  0  0  0
 24 23  1  0  0  0
 19 18  1  0  0  0
 18 17  1  0  0  0
 27 28  1  0  0  0
 17 16  1  0  0  0
 29 30  1  0  0  0
 16 15  1  0  0  0
 34 35  1  0  0  0
 34 36  1  0  0  0
 15 14  1  0  0  0
 31 32  1  0  0  0
 31 33  1  0  0  0
 14 13  1  0  0  0
 37  1  1  0  0  0
 37 39  1  0  0  0
 13 12  1  0  0  0
 38 39  2  0  0  0
 12 11  1  0  0  0
 11 10  1  0  0  0
 10  9  1  0  0  0
  9  8  1  0  0  0
  8  7  1  0  0  0
  7  6  1  0  0  0
  6  5  1  0  0  0
  2  1  1  0  0  0
  1 23  1  0  0  0
 30 32  1  0  0  0
 32 35  1  0  0  0
 39 40  1  0  0  0
 40 41  1  0  0  0
 41 42  1  0  0  0
 42 43  1  0  0  0
 43 44  1  0  0  0
 44 45  1  0  0  0
 45 46  1  0  0  0
 46 47  1  0  0  0
 47 48  2  0  0  0
 48 49  1  0  0  0
 49 50  1  0  0  0
 50 51  1  0  0  0
 51 52  1  0  0  0
 52 53  1  0  0  0
 53 54  1  0  0  0
 54 55  1  0  0  0
 55 56  1  0  0  0
M  CHG 1  26  -1
M  END
> <minimizedAffinity>
-8.67907

> <CNNscore>
0.6217125654

> <CNNaffinity>
7.7674698830

> <CNN_VS>
4.8291335106

> <CNNaffinity_variance>
0.5193356276

$$$$
/media/chris/experiments/cd1a-new-docking/inputs/ligands/7sh4_ligand.pdb


 56 55  0  0  0  0  0  0  0  0999 V2000
  -38.0880   58.8873   62.3305 C   0  0  0  0  0  0  0  0  0  0  0  0
  -39.5412   58.7980   62.7017 C   0  0  0  0  0  0  0  0  0  0  0  0
  -39.9160   60.1644   62.9767 O   0  0  0  0  0  0  0  0  0  0  0  0
  -41.3516   61.3969   64.1682 O   0  0  0  0  0  0  0  0  0  0  0  0
  -40.7579   60.3675   63.9906 C   0  0  0  0  0  0  0  0  0  0  0  0
  -40.9549   59.1129   64.7919 C   0  0  0  0  0  0  0  0  0  0  0  0
  -42.3120   59.0150   65.4678 C   0  0  0  0  0  0  0  0  0  0  0  0
  -42.4521   57.7742   66.3244 C   0  0  0  0  0  0  0  0  0  0  0  0
  -43.7380   57.0107   66.1027 C   0  0  0  0  0  0  0  0  0  0  0  0
  -44.9759   57.8456   66.3606 C   0  0  0  0  0  0  0  0  0  0  0  0
  -46.2049   57.3174   65.6620 C   0  0  0  0  0  0  0  0  0  0  0  0
  -47.4874   57.7354   66.3312 C   0  0  0  0  0  0  0  0  0  0  0  0
  -48.2666   58.7664   65.5449 C   0  0  0  0  0  0  0  0  0  0  0  0
  -49.5289   58.1997   64.9271 C   0  0  0  0  0  0  0  0  0  0  0  0
  -50.3904   59.2297   64.2270 C   0  0  0  0  0  0  0  0  0  0  0  0
  -51.0141   58.7312   62.9283 C   0  0  0  0  0  0  0  0  0  0  0  0
  -50.1938   59.0430   61.6914 C   0  0  0  0  0  0  0  0  0  0  0  0
  -49.5821   57.8148   61.0492 C   0  0  0  0  0  0  0  0  0  0  0  0
  -50.0848   57.5501   59.6369 C   0  0  0  0  0  0  0  0  0  0  0  0
  -49.0320   56.9553   58.7187 C   0  0  0  0  0  0  0  0  0  0  0  0
  -46.7834   57.9011   58.0983 C   0  0  0  0  0  0  0  0  0  0  0  0
  -47.5995   57.1943   59.1566 C   0  0  0  0  0  0  0  0  0  0  0  0
  -37.2163   59.1858   63.5232 C   0  0  0  0  0  0  0  0  0  0  0  0
  -37.0279   60.6157   63.6153 O   0  0  0  0  0  0  0  0  0  0  0  0
  -36.7506   61.3666   65.0014 P   0  0  0  0  0  0  0  0  0  0  0  0
  -37.8961   61.1070   65.8999 O   0  0  0  0  0  0  0  0  0  0  0  0
  -35.3887   61.0012   65.4598 O   0  0  0  0  0  0  0  0  0  0  0  0
  -35.3647   60.0574   65.6825 H   0  0  0  0  0  0  0  0  0  0  0  0
  -36.7475   62.9211   64.6464 O   0  0  0  0  0  0  0  0  0  0  0  0
  -35.5627   63.7110   64.8750 C   0  0  0  0  0  0  0  0  0  0  0  0
  -36.9764   64.1010   66.7703 O   0  0  0  0  0  0  0  0  0  0  0  0
  -35.6709   64.3470   66.2391 C   0  0  0  0  0  0  0  0  0  0  0  0
  -37.6453   64.4293   66.1491 H   0  0  0  0  0  0  0  0  0  0  0  0
  -34.0718   64.9135   67.9538 O   0  0  0  0  0  0  0  0  0  0  0  0
  -34.6162   63.8420   67.1942 C   0  0  0  0  0  0  0  0  0  0  0  0
  -33.3973   64.5700   68.5603 H   0  0  0  0  0  0  0  0  0  0  0  0
  -37.9406   59.9036   61.2839 O   0  0  0  0  0  0  0  0  0  0  0  0
  -38.9961   60.2125   59.3216 O   0  0  0  0  0  0  0  0  0  0  0  0
  -38.2935   59.5483   60.0337 C   0  0  0  0  0  0  0  0  0  0  0  0
  -37.6910   58.2376   59.6323 C   0  0  0  0  0  0  0  0  0  0  0  0
  -37.1356   58.2893   58.2126 C   0  0  0  0  0  0  0  0  0  0  0  0
  -36.1690   57.1624   57.8875 C   0  0  0  0  0  0  0  0  0  0  0  0
  -36.5950   55.8119   58.4518 C   0  0  0  0  0  0  0  0  0  0  0  0
  -35.7298   55.3212   59.5976 C   0  0  0  0  0  0  0  0  0  0  0  0
  -34.4038   56.0699   59.7601 C   0  0  0  0  0  0  0  0  0  0  0  0
  -34.3130   56.9747   60.9908 C   0  0  0  0  0  0  0  0  0  0  0  0
  -33.0515   56.7460   61.7682 C   0  0  0  0  0  0  0  0  0  0  0  0
  -32.2911   57.6689   62.3245 C   0  0  0  0  0  0  0  0  0  0  0  0
  -32.5317   59.1453   62.2964 C   0  0  0  0  0  0  0  0  0  0  0  0
  -31.3119   59.9249   61.8138 C   0  0  0  0  0  0  0  0  0  0  0  0
  -31.2664   61.3574   62.3159 C   0  0  0  0  0  0  0  0  0  0  0  0
  -32.6381   61.9596   62.5668 C   0  0  0  0  0  0  0  0  0  0  0  0
  -32.7227   63.4571   62.3221 C   0  0  0  0  0  0  0  0  0  0  0  0
  -31.6149   64.2457   63.0039 C   0  0  0  0  0  0  0  0  0  0  0  0
  -31.8487   64.4976   64.4802 C   0  0  0  0  0  0  0  0  0  0  0  0
  -32.5111   65.8205   64.7466 C   0  0  0  0  0  0  0  0  0  0  0  0
 21 22  1  0  0  0
  4  5  2  0  0  0
 25 24  1  0  0  0
 25 26  2  0  0  0
 25 27  1  0  0  0
 25 29  1  0  0  0
 22 20  1  0  0  0
  3  5  1  0  0  0
  3  2  1  0  0  0
 20 19  1  0  0  0
 24 23  1  0  0  0
 19 18  1  0  0  0
 18 17  1  0  0  0
 27 28  1  0  0  0
 17 16  1  0  0  0
 29 30  1  0  0  0
 16 15  1  0  0  0
 34 35  1  0  0  0
 34 36  1  0  0  0
 15 14  1  0  0  0
 31 32  1  0  0  0
 31 33  1  0  0  0
 14 13  1  0  0  0
 37  1  1  0  0  0
 37 39  1  0  0  0
 13 12  1  0  0  0
 38 39  2  0  0  0
 12 11  1  0  0  0
 11 10  1  0  0  0
 10  9  1  0  0  0
  9  8  1  0  0  0
  8  7  1  0  0  0
  7  6  1  0  0  0
  6  5  1  0  0  0
  2  1  1  0  0  0
  1 23  1  0  0  0
 30 32  1  0  0  0
 32 35  1  0  0  0
 39 40  1  0  0  0
 40 41  1  0  0  0
 41 42  1  0  0  0
 42 43  1  0  0  0
 43 44  1  0  0  0
 44 45  1  0  0  0
 45 46  1  0  0  0
 46 47  1  0  0  0
 47 48  2  0  0  0
 48 49  1  0  0  0
 49 50  1  0  0  0
 50 51  1  0  0  0
 51 52  1  0  0  0
 52 53  1  0  0  0
 53 54  1  0  0  0
 54 55  1  0  0  0
 55 56  1  0  0  0
M  CHG 1  26  -1
M  END
> <minimizedAffinity>
-8.67308

> <CNNscore>
0.6178980470

> <CNNaffinity>
7.4071516991

> <CNN_VS>
4.5768647194

> <CNNaffinity_variance>
0.6499899030

$$$$
/media/chris/experiments/cd1a-new-docking/inputs/ligands/7sh4_ligand.pdb


 56 55  0  0  0  0  0  0  0  0999 V2000
  -38.9187   59.6361   65.5354 C   0  0  0  0  0  0  0  0  0  0  0  0
  -40.2842   60.2186   65.7673 C   0  0  0  0  0  0  0  0  0  0  0  0
  -41.0726   59.0943   66.2116 O   0  0  0  0  0  0  0  0  0  0  0  0
  -42.6651   59.6879   67.6646 O   0  0  0  0  0  0  0  0  0  0  0  0
  -42.3350   59.3425   66.5621 C   0  0  0  0  0  0  0  0  0  0  0  0
  -43.2540   59.2556   65.3778 C   0  0  0  0  0  0  0  0  0  0  0  0
  -44.6763   58.8493   65.7245 C   0  0  0  0  0  0  0  0  0  0  0  0
  -44.7933   57.3869   66.0994 C   0  0  0  0  0  0  0  0  0  0  0  0
  -46.1558   56.7871   65.8353 C   0  0  0  0  0  0  0  0  0  0  0  0
  -47.0711   57.7123   65.0593 C   0  0  0  0  0  0  0  0  0  0  0  0
  -48.5084   57.6451   65.5145 C   0  0  0  0  0  0  0  0  0  0  0  0
  -49.0687   58.9900   65.8949 C   0  0  0  0  0  0  0  0  0  0  0  0
  -50.4155   59.2782   65.2693 C   0  0  0  0  0  0  0  0  0  0  0  0
  -50.7552   58.3210   64.1448 C   0  0  0  0  0  0  0  0  0  0  0  0
  -50.9842   58.9946   62.8080 C   0  0  0  0  0  0  0  0  0  0  0  0
  -49.7061   59.4905   62.1411 C   0  0  0  0  0  0  0  0  0  0  0  0
  -49.5679   59.0757   60.6889 C   0  0  0  0  0  0  0  0  0  0  0  0
  -49.0790   57.6526   60.5130 C   0  0  0  0  0  0  0  0  0  0  0  0
  -49.1710   57.1485   59.0796 C   0  0  0  0  0  0  0  0  0  0  0  0
  -48.0163   56.2487   58.6767 C   0  0  0  0  0  0  0  0  0  0  0  0
  -46.2503   57.9201   58.0258 C   0  0  0  0  0  0  0  0  0  0  0  0
  -47.1458   56.7942   57.5606 C   0  0  0  0  0  0  0  0  0  0  0  0
  -37.8216   60.5802   65.9556 C   0  0  0  0  0  0  0  0  0  0  0  0
  -37.5966   61.5340   64.8935 O   0  0  0  0  0  0  0  0  0  0  0  0
  -36.1493   61.8115   64.2690 P   0  0  0  0  0  0  0  0  0  0  0  0
  -35.2043   60.8343   64.8513 O   0  0  0  0  0  0  0  0  0  0  0  0
  -36.2877   61.8766   62.7941 O   0  0  0  0  0  0  0  0  0  0  0  0
  -36.5390   61.0036   62.4540 H   0  0  0  0  0  0  0  0  0  0  0  0
  -35.7367   63.2621   64.7868 O   0  0  0  0  0  0  0  0  0  0  0  0
  -36.4936   63.8949   65.8387 C   0  0  0  0  0  0  0  0  0  0  0  0
  -36.1351   62.9046   67.9912 O   0  0  0  0  0  0  0  0  0  0  0  0
  -35.6512   63.9054   67.0907 C   0  0  0  0  0  0  0  0  0  0  0  0
  -37.0759   63.0588   68.1707 H   0  0  0  0  0  0  0  0  0  0  0  0
  -33.8281   62.3267   67.0446 O   0  0  0  0  0  0  0  0  0  0  0  0
  -34.1867   63.6807   66.8001 C   0  0  0  0  0  0  0  0  0  0  0  0
  -32.8855   62.2022   66.8527 H   0  0  0  0  0  0  0  0  0  0  0  0
  -38.8068   59.2716   64.1196 O   0  0  0  0  0  0  0  0  0  0  0  0
  -39.5390   57.1602   64.3770 O   0  0  0  0  0  0  0  0  0  0  0  0
  -38.8327   57.9580   63.8233 C   0  0  0  0  0  0  0  0  0  0  0  0
  -37.8907   57.6156   62.7109 C   0  0  0  0  0  0  0  0  0  0  0  0
  -36.4539   57.9901   63.0600 C   0  0  0  0  0  0  0  0  0  0  0  0
  -35.9325   57.3234   64.3224 C   0  0  0  0  0  0  0  0  0  0  0  0
  -34.4691   57.6335   64.6159 C   0  0  0  0  0  0  0  0  0  0  0  0
  -33.7805   58.4424   63.5324 C   0  0  0  0  0  0  0  0  0  0  0  0
  -32.7672   57.6549   62.6968 C   0  0  0  0  0  0  0  0  0  0  0  0
  -33.1529   57.4470   61.2308 C   0  0  0  0  0  0  0  0  0  0  0  0
  -34.0762   56.2796   61.0496 C   0  0  0  0  0  0  0  0  0  0  0  0
  -34.3570   55.6663   59.9163 C   0  0  0  0  0  0  0  0  0  0  0  0
  -33.8080   56.0093   58.5675 C   0  0  0  0  0  0  0  0  0  0  0  0
  -34.6023   57.1159   57.8797 C   0  0  0  0  0  0  0  0  0  0  0  0
  -36.1063   56.9159   57.9426 C   0  0  0  0  0  0  0  0  0  0  0  0
  -36.8893   58.2116   58.0669 C   0  0  0  0  0  0  0  0  0  0  0  0
  -37.7073   58.3332   59.3418 C   0  0  0  0  0  0  0  0  0  0  0  0
  -38.0692   59.7678   59.6948 C   0  0  0  0  0  0  0  0  0  0  0  0
  -39.5574   60.0556   59.6798 C   0  0  0  0  0  0  0  0  0  0  0  0
  -40.1368   60.1935   61.0600 C   0  0  0  0  0  0  0  0  0  0  0  0
 21 22  1  0  0  0
  4  5  2  0  0  0
 25 24  1  0  0  0
 25 26  2  0  0  0
 25 27  1  0  0  0
 25 29  1  0  0  0
 22 20  1  0  0  0
  3  5  1  0  0  0
  3  2  1  0  0  0
 20 19  1  0  0  0
 24 23  1  0  0  0
 19 18  1  0  0  0
 18 17  1  0  0  0
 27 28  1  0  0  0
 17 16  1  0  0  0
 29 30  1  0  0  0
 16 15  1  0  0  0
 34 35  1  0  0  0
 34 36  1  0  0  0
 15 14  1  0  0  0
 31 32  1  0  0  0
 31 33  1  0  0  0
 14 13  1  0  0  0
 37  1  1  0  0  0
 37 39  1  0  0  0
 13 12  1  0  0  0
 38 39  2  0  0  0
 12 11  1  0  0  0
 11 10  1  0  0  0
 10  9  1  0  0  0
  9  8  1  0  0  0
  8  7  1  0  0  0
  7  6  1  0  0  0
  6  5  1  0  0  0
  2  1  1  0  0  0
  1 23  1  0  0  0
 30 32  1  0  0  0
 32 35  1  0  0  0
 39 40  1  0  0  0
 40 41  1  0  0  0
 41 42  1  0  0  0
 42 43  1  0  0  0
 43 44  1  0  0  0
 44 45  1  0  0  0
 45 46  1  0  0  0
 46 47  1  0  0  0
 47 48  2  0  0  0
 48 49  1  0  0  0
 49 50  1  0  0  0
 50 51  1  0  0  0
 51 52  1  0  0  0
 52 53  1  0  0  0
 53 54  1  0  0  0
 54 55  1  0  0  0
 55 56  1  0  0  0
M  CHG 1  26  -1
M  END
> <minimizedAffinity>
-8.70987

> <CNNscore>
0.5768741369

> <CNNaffinity>
7.4868559837

> <CNN_VS>
4.3189735413

> <CNNaffinity_variance>
0.8717959523

$$$$
/media/chris/experiments/cd1a-new-docking/inputs/ligands/7sh4_ligand.pdb


 56 55  0  0  0  0  0  0  0  0999 V2000
  -36.6229   60.9363   65.2487 C   0  0  0  0  0  0  0  0  0  0  0  0
  -37.9874   61.1135   64.6451 C   0  0  0  0  0  0  0  0  0  0  0  0
  -38.8767   60.5117   65.6096 O   0  0  0  0  0  0  0  0  0  0  0  0
  -40.7459   61.0864   64.5256 O   0  0  0  0  0  0  0  0  0  0  0  0
  -40.1413   60.3242   65.2307 C   0  0  0  0  0  0  0  0  0  0  0  0
  -40.6546   58.9913   65.6939 C   0  0  0  0  0  0  0  0  0  0  0  0
  -41.9257   59.0696   66.5223 C   0  0  0  0  0  0  0  0  0  0  0  0
  -43.1085   58.4101   65.8449 C   0  0  0  0  0  0  0  0  0  0  0  0
  -44.4354   58.6757   66.5190 C   0  0  0  0  0  0  0  0  0  0  0  0
  -45.4823   59.2266   65.5721 C   0  0  0  0  0  0  0  0  0  0  0  0
  -46.8913   59.0750   66.0910 C   0  0  0  0  0  0  0  0  0  0  0  0
  -47.9287   59.1287   65.0010 C   0  0  0  0  0  0  0  0  0  0  0  0
  -49.1604   58.3041   65.3032 C   0  0  0  0  0  0  0  0  0  0  0  0
  -50.4377   58.9620   64.8217 C   0  0  0  0  0  0  0  0  0  0  0  0
  -50.3931   59.4149   63.3774 C   0  0  0  0  0  0  0  0  0  0  0  0
  -50.9253   58.3815   62.3909 C   0  0  0  0  0  0  0  0  0  0  0  0
  -50.0552   58.1970   61.1625 C   0  0  0  0  0  0  0  0  0  0  0  0
  -50.2260   56.8448   60.5013 C   0  0  0  0  0  0  0  0  0  0  0  0
  -49.0011   56.3878   59.7214 C   0  0  0  0  0  0  0  0  0  0  0  0
  -48.9454   56.9309   58.3046 C   0  0  0  0  0  0  0  0  0  0  0  0
  -46.6754   57.9818   58.0243 C   0  0  0  0  0  0  0  0  0  0  0  0
  -47.5845   56.8360   57.6414 C   0  0  0  0  0  0  0  0  0  0  0  0
  -36.4130   61.8281   66.4455 C   0  0  0  0  0  0  0  0  0  0  0  0
  -35.0704   62.3607   66.3989 O   0  0  0  0  0  0  0  0  0  0  0  0
  -34.7621   63.9275   66.2899 P   0  0  0  0  0  0  0  0  0  0  0  0
  -35.9226   64.5787   65.6449 O   0  0  0  0  0  0  0  0  0  0  0  0
  -34.3274   64.4063   67.6242 O   0  0  0  0  0  0  0  0  0  0  0  0
  -35.0683   64.3443   68.2472 H   0  0  0  0  0  0  0  0  0  0  0  0
  -33.5190   64.0455   65.2982 O   0  0  0  0  0  0  0  0  0  0  0  0
  -33.6909   64.6334   63.9926 C   0  0  0  0  0  0  0  0  0  0  0  0
  -35.0183   63.6143   62.2774 O   0  0  0  0  0  0  0  0  0  0  0  0
  -33.7739   63.5204   62.9769 C   0  0  0  0  0  0  0  0  0  0  0  0
  -35.7496   63.5960   62.9146 H   0  0  0  0  0  0  0  0  0  0  0  0
  -32.1781   62.2280   61.7115 O   0  0  0  0  0  0  0  0  0  0  0  0
  -32.6234   63.5472   61.9995 C   0  0  0  0  0  0  0  0  0  0  0  0
  -31.4401   62.2657   61.0832 H   0  0  0  0  0  0  0  0  0  0  0  0
  -35.6216   61.1838   64.2066 O   0  0  0  0  0  0  0  0  0  0  0  0
  -34.0784   60.1490   62.9385 O   0  0  0  0  0  0  0  0  0  0  0  0
  -34.7892   60.1685   63.9061 C   0  0  0  0  0  0  0  0  0  0  0  0
  -34.8426   59.0780   64.9307 C   0  0  0  0  0  0  0  0  0  0  0  0
  -35.1408   57.7252   64.2921 C   0  0  0  0  0  0  0  0  0  0  0  0
  -36.6066   57.5151   63.9496 C   0  0  0  0  0  0  0  0  0  0  0  0
  -36.8507   57.2087   62.4764 C   0  0  0  0  0  0  0  0  0  0  0  0
  -38.3177   57.1078   62.1021 C   0  0  0  0  0  0  0  0  0  0  0  0
  -39.1349   58.3721   62.3829 C   0  0  0  0  0  0  0  0  0  0  0  0
  -38.6644   59.6288   61.6475 C   0  0  0  0  0  0  0  0  0  0  0  0
  -39.2318   59.7187   60.2626 C   0  0  0  0  0  0  0  0  0  0  0  0
  -38.6445   59.3379   59.1448 C   0  0  0  0  0  0  0  0  0  0  0  0
  -37.2819   58.7317   59.0259 C   0  0  0  0  0  0  0  0  0  0  0  0
  -37.1643   57.7941   57.8276 C   0  0  0  0  0  0  0  0  0  0  0  0
  -35.9928   56.8321   57.9193 C   0  0  0  0  0  0  0  0  0  0  0  0
  -36.3066   55.5606   58.6888 C   0  0  0  0  0  0  0  0  0  0  0  0
  -35.3408   55.2559   59.8219 C   0  0  0  0  0  0  0  0  0  0  0  0
  -34.2965   56.3409   60.0359 C   0  0  0  0  0  0  0  0  0  0  0  0
  -33.4258   56.1336   61.2593 C   0  0  0  0  0  0  0  0  0  0  0  0
  -32.7219   57.3896   61.6915 C   0  0  0  0  0  0  0  0  0  0  0  0
 21 22  1  0  0  0
  4  5  2  0  0  0
 25 24  1  0  0  0
 25 26  2  0  0  0
 25 27  1  0  0  0
 25 29  1  0  0  0
 22 20  1  0  0  0
  3  5  1  0  0  0
  3  2  1  0  0  0
 20 19  1  0  0  0
 24 23  1  0  0  0
 19 18  1  0  0  0
 18 17  1  0  0  0
 27 28  1  0  0  0
 17 16  1  0  0  0
 29 30  1  0  0  0
 16 15  1  0  0  0
 34 35  1  0  0  0
 34 36  1  0  0  0
 15 14  1  0  0  0
 31 32  1  0  0  0
 31 33  1  0  0  0
 14 13  1  0  0  0
 37  1  1  0  0  0
 37 39  1  0  0  0
 13 12  1  0  0  0
 38 39  2  0  0  0
 12 11  1  0  0  0
 11 10  1  0  0  0
 10  9  1  0  0  0
  9  8  1  0  0  0
  8  7  1  0  0  0
  7  6  1  0  0  0
  6  5  1  0  0  0
  2  1  1  0  0  0
  1 23  1  0  0  0
 30 32  1  0  0  0
 32 35  1  0  0  0
 39 40  1  0  0  0
 40 41  1  0  0  0
 41 42  1  0  0  0
 42 43  1  0  0  0
 43 44  1  0  0  0
 44 45  1  0  0  0
 45 46  1  0  0  0
 46 47  1  0  0  0
 47 48  2  0  0  0
 48 49  1  0  0  0
 49 50  1  0  0  0
 50 51  1  0  0  0
 51 52  1  0  0  0
 52 53  1  0  0  0
 53 54  1  0  0  0
 54 55  1  0  0  0
 55 56  1  0  0  0
M  CHG 1  26  -1
M  END
> <minimizedAffinity>
-8.70177

> <CNNscore>
0.5647612810

> <CNNaffinity>
7.5163841248

> <CNN_VS>
4.2449626923

> <CNNaffinity_variance>
0.6840568781

$$$$
/media/chris/experiments/cd1a-new-docking/inputs/ligands/7sh4_ligand.pdb


 56 55  0  0  0  0  0  0  0  0999 V2000
  -39.5539   59.8244   65.0676 C   0  0  0  0  0  0  0  0  0  0  0  0
  -40.7959   60.2728   65.7847 C   0  0  0  0  0  0  0  0  0  0  0  0
  -41.7486   59.2203   65.5244 O   0  0  0  0  0  0  0  0  0  0  0  0
  -42.6797   59.3899   67.5502 O   0  0  0  0  0  0  0  0  0  0  0  0
  -42.4219   58.7424   66.5714 C   0  0  0  0  0  0  0  0  0  0  0  0
  -42.9141   57.3482   66.3094 C   0  0  0  0  0  0  0  0  0  0  0  0
  -44.4148   57.2502   66.0934 C   0  0  0  0  0  0  0  0  0  0  0  0
  -44.8949   58.0870   64.9263 C   0  0  0  0  0  0  0  0  0  0  0  0
  -46.3878   58.3248   64.9076 C   0  0  0  0  0  0  0  0  0  0  0  0
  -46.8756   59.1291   66.0955 C   0  0  0  0  0  0  0  0  0  0  0  0
  -48.3068   59.5869   65.9557 C   0  0  0  0  0  0  0  0  0  0  0  0
  -49.1381   58.6667   65.1016 C   0  0  0  0  0  0  0  0  0  0  0  0
  -50.5996   59.0534   65.0490 C   0  0  0  0  0  0  0  0  0  0  0  0
  -50.9751   59.7473   63.7552 C   0  0  0  0  0  0  0  0  0  0  0  0
  -50.3955   59.0989   62.5155 C   0  0  0  0  0  0  0  0  0  0  0  0
  -51.0964   57.8069   62.1110 C   0  0  0  0  0  0  0  0  0  0  0  0
  -50.8152   57.3737   60.6850 C   0  0  0  0  0  0  0  0  0  0  0  0
  -49.6016   58.0483   60.0791 C   0  0  0  0  0  0  0  0  0  0  0  0
  -48.8511   57.1744   59.0838 C   0  0  0  0  0  0  0  0  0  0  0  0
  -47.3683   57.4889   58.9964 C   0  0  0  0  0  0  0  0  0  0  0  0
  -47.6286   56.6242   56.6469 C   0  0  0  0  0  0  0  0  0  0  0  0
  -46.7944   57.4583   57.5926 C   0  0  0  0  0  0  0  0  0  0  0  0
  -38.3273   59.9354   65.9364 C   0  0  0  0  0  0  0  0  0  0  0  0
  -37.8897   61.3126   65.9495 O   0  0  0  0  0  0  0  0  0  0  0  0
  -36.5453   61.8025   65.2323 P   0  0  0  0  0  0  0  0  0  0  0  0
  -35.3983   61.3240   66.0339 O   0  0  0  0  0  0  0  0  0  0  0  0
  -36.6213   61.4235   63.8008 O   0  0  0  0  0  0  0  0  0  0  0  0
  -36.6045   60.4570   63.7208 H   0  0  0  0  0  0  0  0  0  0  0  0
  -36.5755   63.3943   65.3200 O   0  0  0  0  0  0  0  0  0  0  0  0
  -35.4237   64.1121   65.8078 C   0  0  0  0  0  0  0  0  0  0  0  0
  -34.3098   65.8232   64.5532 O   0  0  0  0  0  0  0  0  0  0  0  0
  -34.5185   64.4103   64.6379 C   0  0  0  0  0  0  0  0  0  0  0  0
  -35.1668   66.2733   64.4888 H   0  0  0  0  0  0  0  0  0  0  0  0
  -32.9929   63.1911   66.0537 O   0  0  0  0  0  0  0  0  0  0  0  0
  -33.1936   63.6932   64.7387 C   0  0  0  0  0  0  0  0  0  0  0  0
  -32.1383   62.7346   66.0986 H   0  0  0  0  0  0  0  0  0  0  0  0
  -39.4204   60.6129   63.8387 O   0  0  0  0  0  0  0  0  0  0  0  0
  -40.7593   60.5588   62.0318 O   0  0  0  0  0  0  0  0  0  0  0  0
  -39.8978   60.0631   62.7056 C   0  0  0  0  0  0  0  0  0  0  0  0
  -39.2140   58.7720   62.3777 C   0  0  0  0  0  0  0  0  0  0  0  0
  -37.9358   59.0039   61.5782 C   0  0  0  0  0  0  0  0  0  0  0  0
  -38.1252   59.8865   60.3555 C   0  0  0  0  0  0  0  0  0  0  0  0
  -38.3969   59.1047   59.0754 C   0  0  0  0  0  0  0  0  0  0  0  0
  -37.1435   58.6969   58.3236 C   0  0  0  0  0  0  0  0  0  0  0  0
  -37.2170   57.3165   57.6647 C   0  0  0  0  0  0  0  0  0  0  0  0
  -36.2409   56.2769   58.2195 C   0  0  0  0  0  0  0  0  0  0  0  0
  -36.4723   56.0053   59.6758 C   0  0  0  0  0  0  0  0  0  0  0  0
  -35.6709   56.3247   60.6733 C   0  0  0  0  0  0  0  0  0  0  0  0
  -34.3566   57.0302   60.5585 C   0  0  0  0  0  0  0  0  0  0  0  0
  -33.2514   56.3347   61.3480 C   0  0  0  0  0  0  0  0  0  0  0  0
  -32.5989   57.2215   62.3939 C   0  0  0  0  0  0  0  0  0  0  0  0
  -32.8220   58.7058   62.1601 C   0  0  0  0  0  0  0  0  0  0  0  0
  -33.6867   59.3854   63.2088 C   0  0  0  0  0  0  0  0  0  0  0  0
  -34.2862   58.4186   64.2186 C   0  0  0  0  0  0  0  0  0  0  0  0
  -35.7500   58.1024   63.9838 C   0  0  0  0  0  0  0  0  0  0  0  0
  -36.1856   56.8313   64.6577 C   0  0  0  0  0  0  0  0  0  0  0  0
 21 22  1  0  0  0
  4  5  2  0  0  0
 25 24  1  0  0  0
 25 26  2  0  0  0
 25 27  1  0  0  0
 25 29  1  0  0  0
 22 20  1  0  0  0
  3  5  1  0  0  0
  3  2  1  0  0  0
 20 19  1  0  0  0
 24 23  1  0  0  0
 19 18  1  0  0  0
 18 17  1  0  0  0
 27 28  1  0  0  0
 17 16  1  0  0  0
 29 30  1  0  0  0
 16 15  1  0  0  0
 34 35  1  0  0  0
 34 36  1  0  0  0
 15 14  1  0  0  0
 31 32  1  0  0  0
 31 33  1  0  0  0
 14 13  1  0  0  0
 37  1  1  0  0  0
 37 39  1  0  0  0
 13 12  1  0  0  0
 38 39  2  0  0  0
 12 11  1  0  0  0
 11 10  1  0  0  0
 10  9  1  0  0  0
  9  8  1  0  0  0
  8  7  1  0  0  0
  7  6  1  0  0  0
  6  5  1  0  0  0
  2  1  1  0  0  0
  1 23  1  0  0  0
 30 32  1  0  0  0
 32 35  1  0  0  0
 39 40  1  0  0  0
 40 41  1  0  0  0
 41 42  1  0  0  0
 42 43  1  0  0  0
 43 44  1  0  0  0
 44 45  1  0  0  0
 45 46  1  0  0  0
 46 47  1  0  0  0
 47 48  2  0  0  0
 48 49  1  0  0  0
 49 50  1  0  0  0
 50 51  1  0  0  0
 51 52  1  0  0  0
 52 53  1  0  0  0
 53 54  1  0  0  0
 54 55  1  0  0  0
 55 56  1  0  0  0
M  CHG 1  26  -1
M  END
> <minimizedAffinity>
-8.80640

> <CNNscore>
0.5552126765

> <CNNaffinity>
7.4487829208

> <CNN_VS>
4.1356587410

> <CNNaffinity_variance>
0.7106161118

$$$$
/media/chris/experiments/cd1a-new-docking/inputs/ligands/7sh4_ligand.pdb


 56 55  0  0  0  0  0  0  0  0999 V2000
  -36.4296   61.6938   63.5454 C   0  0  0  0  0  0  0  0  0  0  0  0
  -37.7349   61.2059   62.9835 C   0  0  0  0  0  0  0  0  0  0  0  0
  -38.5594   60.9939   64.1490 O   0  0  0  0  0  0  0  0  0  0  0  0
  -40.2800   60.4089   62.8463 O   0  0  0  0  0  0  0  0  0  0  0  0
  -39.8035   60.5628   63.9386 C   0  0  0  0  0  0  0  0  0  0  0  0
  -40.4713   60.1823   65.2286 C   0  0  0  0  0  0  0  0  0  0  0  0
  -41.3892   58.9765   65.1201 C   0  0  0  0  0  0  0  0  0  0  0  0
  -42.6747   59.1461   65.9022 C   0  0  0  0  0  0  0  0  0  0  0  0
  -43.8494   58.3809   65.3361 C   0  0  0  0  0  0  0  0  0  0  0  0
  -45.1796   58.8279   65.9077 C   0  0  0  0  0  0  0  0  0  0  0  0
  -46.2966   58.8156   64.8929 C   0  0  0  0  0  0  0  0  0  0  0  0
  -47.3805   57.8239   65.2229 C   0  0  0  0  0  0  0  0  0  0  0  0
  -48.6708   58.0732   64.4737 C   0  0  0  0  0  0  0  0  0  0  0  0
  -48.6336   59.3455   63.6515 C   0  0  0  0  0  0  0  0  0  0  0  0
  -49.9064   59.6186   62.8778 C   0  0  0  0  0  0  0  0  0  0  0  0
  -49.8352   59.2102   61.4107 C   0  0  0  0  0  0  0  0  0  0  0  0
  -50.3809   57.8232   61.1301 C   0  0  0  0  0  0  0  0  0  0  0  0
  -49.5854   57.0625   60.0892 C   0  0  0  0  0  0  0  0  0  0  0  0
  -48.1275   57.4918   60.0016 C   0  0  0  0  0  0  0  0  0  0  0  0
  -47.5395   57.3650   58.6075 C   0  0  0  0  0  0  0  0  0  0  0  0
  -47.4771   55.3783   57.0631 C   0  0  0  0  0  0  0  0  0  0  0  0
  -48.3267   56.4745   57.6650 C   0  0  0  0  0  0  0  0  0  0  0  0
  -36.0535   63.0506   63.0076 C   0  0  0  0  0  0  0  0  0  0  0  0
  -34.6862   63.0037   62.5420 O   0  0  0  0  0  0  0  0  0  0  0  0
  -33.4775   63.6974   63.3291 P   0  0  0  0  0  0  0  0  0  0  0  0
  -32.6250   62.6287   63.8930 O   0  0  0  0  0  0  0  0  0  0  0  0
  -32.8591   64.7028   62.4317 O   0  0  0  0  0  0  0  0  0  0  0  0
  -32.4383   64.2524   61.6826 H   0  0  0  0  0  0  0  0  0  0  0  0
  -34.1561   64.4765   64.5436 O   0  0  0  0  0  0  0  0  0  0  0  0
  -33.7084   64.2383   65.8937 C   0  0  0  0  0  0  0  0  0  0  0  0
  -33.9086   62.4297   67.4530 O   0  0  0  0  0  0  0  0  0  0  0  0
  -34.6452   63.2458   66.5374 C   0  0  0  0  0  0  0  0  0  0  0  0
  -33.1730   62.0030   66.9862 H   0  0  0  0  0  0  0  0  0  0  0  0
  -36.9078   64.0658   66.3748 O   0  0  0  0  0  0  0  0  0  0  0  0
  -35.7954   63.9181   67.2479 C   0  0  0  0  0  0  0  0  0  0  0  0
  -37.6352   64.4989   66.8483 H   0  0  0  0  0  0  0  0  0  0  0  0
  -35.3991   60.6917   63.2558 O   0  0  0  0  0  0  0  0  0  0  0  0
  -35.1411   60.2802   65.4523 O   0  0  0  0  0  0  0  0  0  0  0  0
  -34.8729   60.0355   64.3077 C   0  0  0  0  0  0  0  0  0  0  0  0
  -33.9296   58.9545   63.8791 C   0  0  0  0  0  0  0  0  0  0  0  0
  -33.1689   59.3449   62.6159 C   0  0  0  0  0  0  0  0  0  0  0  0
  -32.2805   58.2414   62.0657 C   0  0  0  0  0  0  0  0  0  0  0  0
  -32.9444   56.8692   62.0614 C   0  0  0  0  0  0  0  0  0  0  0  0
  -34.2796   56.8320   61.3414 C   0  0  0  0  0  0  0  0  0  0  0  0
  -34.5054   55.5843   60.4827 C   0  0  0  0  0  0  0  0  0  0  0  0
  -33.8268   55.6055   59.1113 C   0  0  0  0  0  0  0  0  0  0  0  0
  -33.9636   56.9361   58.4339 C   0  0  0  0  0  0  0  0  0  0  0  0
  -35.0342   57.4003   57.8193 C   0  0  0  0  0  0  0  0  0  0  0  0
  -36.3435   56.6918   57.6706 C   0  0  0  0  0  0  0  0  0  0  0  0
  -37.5341   57.6020   57.9580 C   0  0  0  0  0  0  0  0  0  0  0  0
  -37.2570   58.6506   59.0209 C   0  0  0  0  0  0  0  0  0  0  0  0
  -38.1384   58.5198   60.2511 C   0  0  0  0  0  0  0  0  0  0  0  0
  -37.8868   57.2685   61.0758 C   0  0  0  0  0  0  0  0  0  0  0  0
  -38.3939   57.3736   62.5060 C   0  0  0  0  0  0  0  0  0  0  0  0
  -37.3015   57.5500   63.5420 C   0  0  0  0  0  0  0  0  0  0  0  0
  -37.8333   57.5840   64.9476 C   0  0  0  0  0  0  0  0  0  0  0  0
 21 22  1  0  0  0
  4  5  2  0  0  0
 25 24  1  0  0  0
 25 26  2  0  0  0
 25 27  1  0  0  0
 25 29  1  0  0  0
 22 20  1  0  0  0
  3  5  1  0  0  0
  3  2  1  0  0  0
 20 19  1  0  0  0
 24 23  1  0  0  0
 19 18  1  0  0  0
 18 17  1  0  0  0
 27 28  1  0  0  0
 17 16  1  0  0  0
 29 30  1  0  0  0
 16 15  1  0  0  0
 34 35  1  0  0  0
 34 36  1  0  0  0
 15 14  1  0  0  0
 31 32  1  0  0  0
 31 33  1  0  0  0
 14 13  1  0  0  0
 37  1  1  0  0  0
 37 39  1  0  0  0
 13 12  1  0  0  0
 38 39  2  0  0  0
 12 11  1  0  0  0
 11 10  1  0  0  0
 10  9  1  0  0  0
  9  8  1  0  0  0
  8  7  1  0  0  0
  7  6  1  0  0  0
  6  5  1  0  0  0
  2  1  1  0  0  0
  1 23  1  0  0  0
 30 32  1  0  0  0
 32 35  1  0  0  0
 39 40  1  0  0  0
 40 41  1  0  0  0
 41 42  1  0  0  0
 42 43  1  0  0  0
 43 44  1  0  0  0
 44 45  1  0  0  0
 45 46  1  0  0  0
 46 47  1  0  0  0
 47 48  2  0  0  0
 48 49  1  0  0  0
 49 50  1  0  0  0
 50 51  1  0  0  0
 51 52  1  0  0  0
 52 53  1  0  0  0
 53 54  1  0  0  0
 54 55  1  0  0  0
 55 56  1  0  0  0
M  CHG 1  26  -1
M  END
> <minimizedAffinity>
-8.64508

> <CNNscore>
0.5547814369

> <CNNaffinity>
7.3551421165

> <CNN_VS>
4.0804963112

> <CNNaffinity_variance>
1.0074903965

$$$$
/media/chris/experiments/cd1a-new-docking/inputs/ligands/7sh4_ligand.pdb


 56 55  0  0  0  0  0  0  0  0999 V2000
  -38.2969   60.3538   61.9953 C   0  0  0  0  0  0  0  0  0  0  0  0
  -39.7779   60.6017   61.9430 C   0  0  0  0  0  0  0  0  0  0  0  0
  -40.3046   59.7996   63.0210 O   0  0  0  0  0  0  0  0  0  0  0  0
  -41.2354   61.5876   63.9884 O   0  0  0  0  0  0  0  0  0  0  0  0
  -41.1531   60.3960   63.8590 C   0  0  0  0  0  0  0  0  0  0  0  0
  -42.0626   59.3960   64.5130 C   0  0  0  0  0  0  0  0  0  0  0  0
  -41.8470   59.2467   66.0095 C   0  0  0  0  0  0  0  0  0  0  0  0
  -42.8033   58.2589   66.6440 C   0  0  0  0  0  0  0  0  0  0  0  0
  -44.2606   58.6427   66.5227 C   0  0  0  0  0  0  0  0  0  0  0  0
  -45.0814   57.6224   65.7603 C   0  0  0  0  0  0  0  0  0  0  0  0
  -46.2482   58.2308   65.0214 C   0  0  0  0  0  0  0  0  0  0  0  0
  -46.4763   59.6775   65.3713 C   0  0  0  0  0  0  0  0  0  0  0  0
  -47.7591   59.9149   66.1371 C   0  0  0  0  0  0  0  0  0  0  0  0
  -48.6484   58.6889   66.1835 C   0  0  0  0  0  0  0  0  0  0  0  0
  -50.0285   58.9041   65.5983 C   0  0  0  0  0  0  0  0  0  0  0  0
  -50.2518   58.1920   64.2689 C   0  0  0  0  0  0  0  0  0  0  0  0
  -50.8047   59.0864   63.1760 C   0  0  0  0  0  0  0  0  0  0  0  0
  -49.7378   59.6401   62.2540 C   0  0  0  0  0  0  0  0  0  0  0  0
  -49.7218   58.9883   60.8784 C   0  0  0  0  0  0  0  0  0  0  0  0
  -50.5383   57.7105   60.8020 C   0  0  0  0  0  0  0  0  0  0  0  0
  -48.9510   56.8311   59.0576 C   0  0  0  0  0  0  0  0  0  0  0  0
  -49.7825   56.5045   60.2773 C   0  0  0  0  0  0  0  0  0  0  0  0
  -37.6071   61.2524   62.9895 C   0  0  0  0  0  0  0  0  0  0  0  0
  -36.6607   62.0863   62.2844 O   0  0  0  0  0  0  0  0  0  0  0  0
  -35.6824   63.1100   63.0304 P   0  0  0  0  0  0  0  0  0  0  0  0
  -34.5302   63.3727   62.1413 O   0  0  0  0  0  0  0  0  0  0  0  0
  -36.4913   64.2581   63.5060 O   0  0  0  0  0  0  0  0  0  0  0  0
  -36.8300   64.7530   62.7436 H   0  0  0  0  0  0  0  0  0  0  0  0
  -35.1459   62.3250   64.3104 O   0  0  0  0  0  0  0  0  0  0  0  0
  -34.3079   62.9991   65.2713 C   0  0  0  0  0  0  0  0  0  0  0  0
  -33.8893   62.4976   67.5770 O   0  0  0  0  0  0  0  0  0  0  0  0
  -34.9194   62.8261   66.6400 C   0  0  0  0  0  0  0  0  0  0  0  0
  -33.4173   61.7061   67.2742 H   0  0  0  0  0  0  0  0  0  0  0  0
  -36.9766   64.0821   66.5468 O   0  0  0  0  0  0  0  0  0  0  0  0
  -35.6654   64.0571   67.0960 C   0  0  0  0  0  0  0  0  0  0  0  0
  -37.4392   64.8787   66.8505 H   0  0  0  0  0  0  0  0  0  0  0  0
  -37.7526   60.5225   60.6443 O   0  0  0  0  0  0  0  0  0  0  0  0
  -39.1713   59.8853   59.0189 O   0  0  0  0  0  0  0  0  0  0  0  0
  -38.2012   59.6782   59.6955 C   0  0  0  0  0  0  0  0  0  0  0  0
  -37.3364   58.4620   59.5732 C   0  0  0  0  0  0  0  0  0  0  0  0
  -37.3273   57.9239   58.1459 C   0  0  0  0  0  0  0  0  0  0  0  0
  -36.3125   56.8172   57.9109 C   0  0  0  0  0  0  0  0  0  0  0  0
  -36.5860   55.5566   58.7233 C   0  0  0  0  0  0  0  0  0  0  0  0
  -35.4787   55.1976   59.6967 C   0  0  0  0  0  0  0  0  0  0  0  0
  -34.1592   55.9382   59.4615 C   0  0  0  0  0  0  0  0  0  0  0  0
  -33.9005   57.1215   60.3965 C   0  0  0  0  0  0  0  0  0  0  0  0
  -32.9514   56.7703   61.5028 C   0  0  0  0  0  0  0  0  0  0  0  0
  -32.5548   57.5614   62.4807 C   0  0  0  0  0  0  0  0  0  0  0  0
  -32.9733   58.9822   62.6916 C   0  0  0  0  0  0  0  0  0  0  0  0
  -34.3336   59.0934   63.3740 C   0  0  0  0  0  0  0  0  0  0  0  0
  -34.4870   58.1824   64.5794 C   0  0  0  0  0  0  0  0  0  0  0  0
  -35.6438   57.2051   64.4619 C   0  0  0  0  0  0  0  0  0  0  0  0
  -36.4300   57.3128   63.1659 C   0  0  0  0  0  0  0  0  0  0  0  0
  -37.9269   57.4802   63.3777 C   0  0  0  0  0  0  0  0  0  0  0  0
  -38.3553   57.4621   64.8317 C   0  0  0  0  0  0  0  0  0  0  0  0
  -38.2111   58.8024   65.4970 C   0  0  0  0  0  0  0  0  0  0  0  0
 21 22  1  0  0  0
  4  5  2  0  0  0
 25 24  1  0  0  0
 25 26  2  0  0  0
 25 27  1  0  0  0
 25 29  1  0  0  0
 22 20  1  0  0  0
  3  5  1  0  0  0
  3  2  1  0  0  0
 20 19  1  0  0  0
 24 23  1  0  0  0
 19 18  1  0  0  0
 18 17  1  0  0  0
 27 28  1  0  0  0
 17 16  1  0  0  0
 29 30  1  0  0  0
 16 15  1  0  0  0
 34 35  1  0  0  0
 34 36  1  0  0  0
 15 14  1  0  0  0
 31 32  1  0  0  0
 31 33  1  0  0  0
 14 13  1  0  0  0
 37  1  1  0  0  0
 37 39  1  0  0  0
 13 12  1  0  0  0
 38 39  2  0  0  0
 12 11  1  0  0  0
 11 10  1  0  0  0
 10  9  1  0  0  0
  9  8  1  0  0  0
  8  7  1  0  0  0
  7  6  1  0  0  0
  6  5  1  0  0  0
  2  1  1  0  0  0
  1 23  1  0  0  0
 30 32  1  0  0  0
 32 35  1  0  0  0
 39 40  1  0  0  0
 40 41  1  0  0  0
 41 42  1  0  0  0
 42 43  1  0  0  0
 43 44  1  0  0  0
 44 45  1  0  0  0
 45 46  1  0  0  0
 46 47  1  0  0  0
 47 48  2  0  0  0
 48 49  1  0  0  0
 49 50  1  0  0  0
 50 51  1  0  0  0
 51 52  1  0  0  0
 52 53  1  0  0  0
 53 54  1  0  0  0
 54 55  1  0  0  0
 55 56  1  0  0  0
M  CHG 1  26  -1
M  END
> <minimizedAffinity>
-9.04738

> <CNNscore>
0.4552068114

> <CNNaffinity>
7.4931001663

> <CNN_VS>
3.4109101295

> <CNNaffinity_variance>
1.4284557104

$$$$
/media/chris/experiments/cd1a-new-docking/inputs/ligands/7sh4_ligand.pdb


 56 55  0  0  0  0  0  0  0  0999 V2000
  -37.9409   59.9466   65.5425 C   0  0  0  0  0  0  0  0  0  0  0  0
  -38.9445   60.6241   64.6529 C   0  0  0  0  0  0  0  0  0  0  0  0
  -40.1809   60.5383   65.3927 O   0  0  0  0  0  0  0  0  0  0  0  0
  -41.7059   60.0804   63.8230 O   0  0  0  0  0  0  0  0  0  0  0  0
  -41.1566   59.8053   64.8556 C   0  0  0  0  0  0  0  0  0  0  0  0
  -41.3824   58.5446   65.6395 C   0  0  0  0  0  0  0  0  0  0  0  0
  -42.7996   58.3848   66.1632 C   0  0  0  0  0  0  0  0  0  0  0  0
  -43.2890   56.9532   66.1029 C   0  0  0  0  0  0  0  0  0  0  0  0
  -44.6028   56.7780   65.3756 C   0  0  0  0  0  0  0  0  0  0  0  0
  -45.7972   57.2304   66.1909 C   0  0  0  0  0  0  0  0  0  0  0  0
  -46.9363   57.7411   65.3429 C   0  0  0  0  0  0  0  0  0  0  0  0
  -48.2850   57.5235   65.9762 C   0  0  0  0  0  0  0  0  0  0  0  0
  -49.2110   58.7119   65.8403 C   0  0  0  0  0  0  0  0  0  0  0  0
  -50.4804   58.3808   65.0819 C   0  0  0  0  0  0  0  0  0  0  0  0
  -51.0211   59.5264   64.2520 C   0  0  0  0  0  0  0  0  0  0  0  0
  -50.9376   59.2907   62.7481 C   0  0  0  0  0  0  0  0  0  0  0  0
  -50.4606   57.9023   62.3676 C   0  0  0  0  0  0  0  0  0  0  0  0
  -51.0242   57.4123   61.0495 C   0  0  0  0  0  0  0  0  0  0  0  0
  -49.9580   56.9734   60.0554 C   0  0  0  0  0  0  0  0  0  0  0  0
  -48.7776   57.9246   59.9710 C   0  0  0  0  0  0  0  0  0  0  0  0
  -47.9351   56.8650   57.8489 C   0  0  0  0  0  0  0  0  0  0  0  0
  -47.5751   57.3793   59.2243 C   0  0  0  0  0  0  0  0  0  0  0  0
  -37.3437   60.8966   66.5487 C   0  0  0  0  0  0  0  0  0  0  0  0
  -36.2611   61.6191   65.9207 O   0  0  0  0  0  0  0  0  0  0  0  0
  -35.6987   63.0056   66.4892 P   0  0  0  0  0  0  0  0  0  0  0  0
  -36.8411   63.9303   66.6530 O   0  0  0  0  0  0  0  0  0  0  0  0
  -34.8469   62.7103   67.6664 O   0  0  0  0  0  0  0  0  0  0  0  0
  -35.3967   62.3558   68.3826 H   0  0  0  0  0  0  0  0  0  0  0  0
  -34.7596   63.5844   65.3378 O   0  0  0  0  0  0  0  0  0  0  0  0
  -33.7822   62.7318   64.7071 C   0  0  0  0  0  0  0  0  0  0  0  0
  -35.3246   61.5886   63.2731 O   0  0  0  0  0  0  0  0  0  0  0  0
  -34.2125   62.4885   63.2814 C   0  0  0  0  0  0  0  0  0  0  0  0
  -35.0828   60.7715   63.7366 H   0  0  0  0  0  0  0  0  0  0  0  0
  -35.9484   64.0738   62.7412 O   0  0  0  0  0  0  0  0  0  0  0  0
  -34.5715   63.7672   62.5631 C   0  0  0  0  0  0  0  0  0  0  0  0
  -36.1596   64.8968   62.2734 H   0  0  0  0  0  0  0  0  0  0  0  0
  -36.9108   59.3369   64.6956 O   0  0  0  0  0  0  0  0  0  0  0  0
  -37.7933   57.2917   65.0100 O   0  0  0  0  0  0  0  0  0  0  0  0
  -36.8988   57.9922   64.6212 C   0  0  0  0  0  0  0  0  0  0  0  0
  -35.6473   57.4775   63.9801 C   0  0  0  0  0  0  0  0  0  0  0  0
  -35.0233   58.5189   63.0567 C   0  0  0  0  0  0  0  0  0  0  0  0
  -33.5190   58.6635   63.2183 C   0  0  0  0  0  0  0  0  0  0  0  0
  -32.7318   58.2741   61.9723 C   0  0  0  0  0  0  0  0  0  0  0  0
  -32.1158   56.8890   62.0395 C   0  0  0  0  0  0  0  0  0  0  0  0
  -33.0011   55.7708   61.4819 C   0  0  0  0  0  0  0  0  0  0  0  0
  -34.0388   56.2150   60.4489 C   0  0  0  0  0  0  0  0  0  0  0  0
  -33.5355   56.0699   59.0441 C   0  0  0  0  0  0  0  0  0  0  0  0
  -34.0045   56.6795   57.9727 C   0  0  0  0  0  0  0  0  0  0  0  0
  -35.1426   57.6499   57.9366 C   0  0  0  0  0  0  0  0  0  0  0  0
  -36.4953   56.9562   57.8040 C   0  0  0  0  0  0  0  0  0  0  0  0
  -37.1532   56.6437   59.1365 C   0  0  0  0  0  0  0  0  0  0  0  0
  -37.2706   57.8471   60.0559 C   0  0  0  0  0  0  0  0  0  0  0  0
  -38.1828   57.6382   61.2532 C   0  0  0  0  0  0  0  0  0  0  0  0
  -38.9963   58.8708   61.6172 C   0  0  0  0  0  0  0  0  0  0  0  0
  -38.9198   59.9900   60.5977 C   0  0  0  0  0  0  0  0  0  0  0  0
  -40.2326   60.2400   59.9093 C   0  0  0  0  0  0  0  0  0  0  0  0
 21 22  1  0  0  0
  4  5  2  0  0  0
 25 24  1  0  0  0
 25 26  2  0  0  0
 25 27  1  0  0  0
 25 29  1  0  0  0
 22 20  1  0  0  0
  3  5  1  0  0  0
  3  2  1  0  0  0
 20 19  1  0  0  0
 24 23  1  0  0  0
 19 18  1  0  0  0
 18 17  1  0  0  0
 27 28  1  0  0  0
 17 16  1  0  0  0
 29 30  1  0  0  0
 16 15  1  0  0  0
 34 35  1  0  0  0
 34 36  1  0  0  0
 15 14  1  0  0  0
 31 32  1  0  0  0
 31 33  1  0  0  0
 14 13  1  0  0  0
 37  1  1  0  0  0
 37 39  1  0  0  0
 13 12  1  0  0  0
 38 39  2  0  0  0
 12 11  1  0  0  0
 11 10  1  0  0  0
 10  9  1  0  0  0
  9  8  1  0  0  0
  8  7  1  0  0  0
  7  6  1  0  0  0
  6  5  1  0  0  0
  2  1  1  0  0  0
  1 23  1  0  0  0
 30 32  1  0  0  0
 32 35  1  0  0  0
 39 40  1  0  0  0
 40 41  1  0  0  0
 41 42  1  0  0  0
 42 43  1  0  0  0
 43 44  1  0  0  0
 44 45  1  0  0  0
 45 46  1  0  0  0
 46 47  1  0  0  0
 47 48  2  0  0  0
 48 49  1  0  0  0
 49 50  1  0  0  0
 50 51  1  0  0  0
 51 52  1  0  0  0
 52 53  1  0  0  0
 53 54  1  0  0  0
 54 55  1  0  0  0
 55 56  1  0  0  0
M  CHG 1  26  -1
M  END
> <minimizedAffinity>
-8.58055

> <CNNscore>
0.3993075490

> <CNNaffinity>
7.3154172897

> <CNN_VS>
2.9211013317

> <CNNaffinity_variance>
1.0047161579

$$$$
/media/chris/experiments/cd1a-new-docking/inputs/ligands/7sh4_ligand.pdb


 56 55  0  0  0  0  0  0  0  0999 V2000
  -38.6976   60.9043   63.5107 C   0  0  0  0  0  0  0  0  0  0  0  0
  -38.1186   60.7317   62.1350 C   0  0  0  0  0  0  0  0  0  0  0  0
  -39.1759   60.0927   61.3887 O   0  0  0  0  0  0  0  0  0  0  0  0
  -39.9390   60.6010   59.3495 O   0  0  0  0  0  0  0  0  0  0  0  0
  -39.0881   60.1360   60.0589 C   0  0  0  0  0  0  0  0  0  0  0  0
  -37.7486   59.6480   59.5874 C   0  0  0  0  0  0  0  0  0  0  0  0
  -37.7983   58.3294   58.8345 C   0  0  0  0  0  0  0  0  0  0  0  0
  -36.6707   58.1823   57.8347 C   0  0  0  0  0  0  0  0  0  0  0  0
  -35.6526   57.1262   58.2005 C   0  0  0  0  0  0  0  0  0  0  0  0
  -36.2695   55.9125   58.8656 C   0  0  0  0  0  0  0  0  0  0  0  0
  -35.2747   55.0986   59.6566 C   0  0  0  0  0  0  0  0  0  0  0  0
  -34.0038   55.8496   59.9535 C   0  0  0  0  0  0  0  0  0  0  0  0
  -33.7416   56.0248   61.4330 C   0  0  0  0  0  0  0  0  0  0  0  0
  -32.5359   56.8985   61.7141 C   0  0  0  0  0  0  0  0  0  0  0  0
  -32.8130   58.3841   61.6164 C   0  0  0  0  0  0  0  0  0  0  0  0
  -33.0525   59.0561   62.9637 C   0  0  0  0  0  0  0  0  0  0  0  0
  -34.5150   59.1506   63.3538 C   0  0  0  0  0  0  0  0  0  0  0  0
  -34.9192   58.1540   64.4207 C   0  0  0  0  0  0  0  0  0  0  0  0
  -36.2068   57.4072   64.1018 C   0  0  0  0  0  0  0  0  0  0  0  0
  -36.4543   57.2306   62.6142 C   0  0  0  0  0  0  0  0  0  0  0  0
  -38.8320   57.0876   63.4279 C   0  0  0  0  0  0  0  0  0  0  0  0
  -37.9123   57.0690   62.2280 C   0  0  0  0  0  0  0  0  0  0  0  0
  -37.6358   60.8731   64.5799 C   0  0  0  0  0  0  0  0  0  0  0  0
  -37.0199   62.1779   64.6620 O   0  0  0  0  0  0  0  0  0  0  0  0
  -36.1751   62.6599   65.9331 P   0  0  0  0  0  0  0  0  0  0  0  0
  -36.4081   64.1089   66.1149 O   0  0  0  0  0  0  0  0  0  0  0  0
  -36.4734   61.7436   67.0600 O   0  0  0  0  0  0  0  0  0  0  0  0
  -37.4001   61.8494   67.3262 H   0  0  0  0  0  0  0  0  0  0  0  0
  -34.6468   62.4555   65.5268 O   0  0  0  0  0  0  0  0  0  0  0  0
  -34.2044   62.7838   64.1940 C   0  0  0  0  0  0  0  0  0  0  0  0
  -34.2155   65.1801   64.1923 O   0  0  0  0  0  0  0  0  0  0  0  0
  -33.3625   64.0340   64.2666 C   0  0  0  0  0  0  0  0  0  0  0  0
  -34.7495   65.1339   63.3837 H   0  0  0  0  0  0  0  0  0  0  0  0
  -31.2699   64.7085   65.2588 O   0  0  0  0  0  0  0  0  0  0  0  0
  -32.5230   64.0896   65.5204 C   0  0  0  0  0  0  0  0  0  0  0  0
  -30.7458   64.7349   66.0745 H   0  0  0  0  0  0  0  0  0  0  0  0
  -39.7080   59.8626   63.7202 O   0  0  0  0  0  0  0  0  0  0  0  0
  -41.3029   61.3484   64.2763 O   0  0  0  0  0  0  0  0  0  0  0  0
  -40.8539   60.2356   64.3217 C   0  0  0  0  0  0  0  0  0  0  0  0
  -41.5089   59.0946   65.0365 C   0  0  0  0  0  0  0  0  0  0  0  0
  -43.0252   59.2559   65.0752 C   0  0  0  0  0  0  0  0  0  0  0  0
  -43.6347   59.0256   66.4483 C   0  0  0  0  0  0  0  0  0  0  0  0
  -45.1167   58.6711   66.4059 C   0  0  0  0  0  0  0  0  0  0  0  0
  -45.7950   59.0106   65.0918 C   0  0  0  0  0  0  0  0  0  0  0  0
  -47.2661   59.4161   65.2207 C   0  0  0  0  0  0  0  0  0  0  0  0
  -48.1313   59.1287   63.9918 C   0  0  0  0  0  0  0  0  0  0  0  0
  -49.4220   58.4574   64.3542 C   0  0  0  0  0  0  0  0  0  0  0  0
  -50.4434   58.2293   63.5516 C   0  0  0  0  0  0  0  0  0  0  0  0
  -50.5263   58.5942   62.1030 C   0  0  0  0  0  0  0  0  0  0  0  0
  -51.0115   57.4350   61.2374 C   0  0  0  0  0  0  0  0  0  0  0  0
  -50.2323   57.2722   59.9442 C   0  0  0  0  0  0  0  0  0  0  0  0
  -48.8480   57.8963   59.9836 C   0  0  0  0  0  0  0  0  0  0  0  0
  -47.7521   57.0364   59.3762 C   0  0  0  0  0  0  0  0  0  0  0  0
  -47.1059   57.6577   58.1473 C   0  0  0  0  0  0  0  0  0  0  0  0
  -47.0959   56.7578   56.9276 C   0  0  0  0  0  0  0  0  0  0  0  0
  -47.8439   55.4725   57.1473 C   0  0  0  0  0  0  0  0  0  0  0  0
 21 22  1  0  0  0
  4  5  2  0  0  0
 25 24  1  0  0  0
 25 26  2  0  0  0
 25 27  1  0  0  0
 25 29  1  0  0  0
 22 20  1  0  0  0
  3  5  1  0  0  0
  3  2  1  0  0  0
 20 19  1  0  0  0
 24 23  1  0  0  0
 19 18  1  0  0  0
 18 17  1  0  0  0
 27 28  1  0  0  0
 17 16  1  0  0  0
 29 30  1  0  0  0
 16 15  1  0  0  0
 34 35  1  0  0  0
 34 36  1  0  0  0
 15 14  1  0  0  0
 31 32  1  0  0  0
 31 33  1  0  0  0
 14 13  1  0  0  0
 37  1  1  0  0  0
 37 39  1  0  0  0
 13 12  1  0  0  0
 38 39  2  0  0  0
 12 11  1  0  0  0
 11 10  1  0  0  0
 10  9  1  0  0  0
  9  8  1  0  0  0
  8  7  1  0  0  0
  7  6  1  0  0  0
  6  5  1  0  0  0
  2  1  1  0  0  0
  1 23  1  0  0  0
 30 32  1  0  0  0
 32 35  1  0  0  0
 39 40  1  0  0  0
 40 41  1  0  0  0
 41 42  1  0  0  0
 42 43  1  0  0  0
 43 44  1  0  0  0
 44 45  1  0  0  0
 45 46  1  0  0  0
 46 47  1  0  0  0
 47 48  2  0  0  0
 48 49  1  0  0  0
 49 50  1  0  0  0
 50 51  1  0  0  0
 51 52  1  0  0  0
 52 53  1  0  0  0
 53 54  1  0  0  0
 54 55  1  0  0  0
 55 56  1  0  0  0
M  CHG 1  26  -1
M  END
> <minimizedAffinity>
-8.94518

> <CNNscore>
0.3650497794

> <CNNaffinity>
7.2893762589

> <CNN_VS>
2.6609852314

> <CNNaffinity_variance>
0.7773211002

$$$$
