/media/chris/experiments/cd1a-new-docking/inputs/ligands/7sh4_ligand.pdb


 56 55  0  0  0  0  0  0  0  0999 V2000
  -38.6791   60.4624   62.3113 C   0  0  0  0  0  0  0  0  0  0  0  0
  -40.0800   60.8704   62.6702 C   0  0  0  0  0  0  0  0  0  0  0  0
  -40.5635   59.7808   63.4838 O   0  0  0  0  0  0  0  0  0  0  0  0
  -40.5827   60.9291   65.4021 O   0  0  0  0  0  0  0  0  0  0  0  0
  -41.0593   60.0946   64.6811 C   0  0  0  0  0  0  0  0  0  0  0  0
  -42.3451   59.3650   64.9441 C   0  0  0  0  0  0  0  0  0  0  0  0
  -42.2691   58.3654   66.0857 C   0  0  0  0  0  0  0  0  0  0  0  0
  -43.3183   57.2785   65.9841 C   0  0  0  0  0  0  0  0  0  0  0  0
  -44.5602   57.6855   65.2239 C   0  0  0  0  0  0  0  0  0  0  0  0
  -45.7480   57.9510   66.1265 C   0  0  0  0  0  0  0  0  0  0  0  0
  -46.4442   56.6904   66.5780 C   0  0  0  0  0  0  0  0  0  0  0  0
  -47.8385   56.5578   66.0250 C   0  0  0  0  0  0  0  0  0  0  0  0
  -48.3485   57.8239   65.3728 C   0  0  0  0  0  0  0  0  0  0  0  0
  -49.6618   58.2976   65.9619 C   0  0  0  0  0  0  0  0  0  0  0  0
  -50.6191   58.8843   64.9458 C   0  0  0  0  0  0  0  0  0  0  0  0
  -50.0305   59.0083   63.5449 C   0  0  0  0  0  0  0  0  0  0  0  0
  -50.7131   58.1343   62.5102 C   0  0  0  0  0  0  0  0  0  0  0  0
  -49.7571   57.5516   61.4895 C   0  0  0  0  0  0  0  0  0  0  0  0
  -50.4176   57.2075   60.1618 C   0  0  0  0  0  0  0  0  0  0  0  0
  -49.4445   57.1410   58.9982 C   0  0  0  0  0  0  0  0  0  0  0  0
  -46.9441   56.8698   58.8992 C   0  0  0  0  0  0  0  0  0  0  0  0
  -48.0947   57.7809   59.2622 C   0  0  0  0  0  0  0  0  0  0  0  0
  -37.6586   61.0591   63.2463 C   0  0  0  0  0  0  0  0  0  0  0  0
  -36.7631   61.8982   62.4830 O   0  0  0  0  0  0  0  0  0  0  0  0
  -35.7652   62.9475   63.1650 P   0  0  0  0  0  0  0  0  0  0  0  0
  -34.6916   63.2549   62.1957 O   0  0  0  0  0  0  0  0  0  0  0  0
  -36.5730   64.0645   63.7113 O   0  0  0  0  0  0  0  0  0  0  0  0
  -36.9832   64.5542   62.9814 H   0  0  0  0  0  0  0  0  0  0  0  0
  -35.1099   62.1702   64.3935 O   0  0  0  0  0  0  0  0  0  0  0  0
  -34.2648   62.8754   65.3253 C   0  0  0  0  0  0  0  0  0  0  0  0
  -33.8967   62.4668   67.6577 O   0  0  0  0  0  0  0  0  0  0  0  0
  -34.8986   62.8012   66.6927 C   0  0  0  0  0  0  0  0  0  0  0  0
  -33.4630   61.6384   67.3997 H   0  0  0  0  0  0  0  0  0  0  0  0
  -36.9527   64.0658   66.6920 O   0  0  0  0  0  0  0  0  0  0  0  0
  -35.5848   64.0895   67.0789 C   0  0  0  0  0  0  0  0  0  0  0  0
  -37.3757   64.9002   66.9481 H   0  0  0  0  0  0  0  0  0  0  0  0
  -38.4286   60.8475   60.9189 O   0  0  0  0  0  0  0  0  0  0  0  0
  -39.7668   60.3321   59.1857 O   0  0  0  0  0  0  0  0  0  0  0  0
  -38.9043   60.0262   59.9632 C   0  0  0  0  0  0  0  0  0  0  0  0
  -38.2176   58.6958   59.9746 C   0  0  0  0  0  0  0  0  0  0  0  0
  -37.1090   58.6302   58.9288 C   0  0  0  0  0  0  0  0  0  0  0  0
  -37.3080   57.5416   57.8871 C   0  0  0  0  0  0  0  0  0  0  0  0
  -36.2244   56.4697   57.9105 C   0  0  0  0  0  0  0  0  0  0  0  0
  -36.3019   55.5401   59.1073 C   0  0  0  0  0  0  0  0  0  0  0  0
  -34.9653   55.3008   59.8152 C   0  0  0  0  0  0  0  0  0  0  0  0
  -34.2776   56.5582   60.3515 C   0  0  0  0  0  0  0  0  0  0  0  0
  -33.3118   56.2467   61.4552 C   0  0  0  0  0  0  0  0  0  0  0  0
  -32.5065   57.0980   62.0603 C   0  0  0  0  0  0  0  0  0  0  0  0
  -32.3898   58.5611   61.7703 C   0  0  0  0  0  0  0  0  0  0  0  0
  -32.9815   59.4240   62.8810 C   0  0  0  0  0  0  0  0  0  0  0  0
  -34.4588   59.1721   63.1270 C   0  0  0  0  0  0  0  0  0  0  0  0
  -34.7440   58.4336   64.4233 C   0  0  0  0  0  0  0  0  0  0  0  0
  -35.6633   57.2327   64.2747 C   0  0  0  0  0  0  0  0  0  0  0  0
  -36.6890   57.3891   63.1626 C   0  0  0  0  0  0  0  0  0  0  0  0
  -38.1286   57.2741   63.6233 C   0  0  0  0  0  0  0  0  0  0  0  0
  -38.3238   57.7340   65.0410 C   0  0  0  0  0  0  0  0  0  0  0  0
 21 22  1  0  0  0
  4  5  2  0  0  0
 25 24  1  0  0  0
 25 26  2  0  0  0
 25 27  1  0  0  0
 25 29  1  0  0  0
 22 20  1  0  0  0
  3  5  1  0  0  0
  3  2  1  0  0  0
 20 19  1  0  0  0
 24 23  1  0  0  0
 19 18  1  0  0  0
 18 17  1  0  0  0
 27 28  1  0  0  0
 17 16  1  0  0  0
 29 30  1  0  0  0
 16 15  1  0  0  0
 34 35  1  0  0  0
 34 36  1  0  0  0
 15 14  1  0  0  0
 31 32  1  0  0  0
 31 33  1  0  0  0
 14 13  1  0  0  0
 37  1  1  0  0  0
 37 39  1  0  0  0
 13 12  1  0  0  0
 38 39  2  0  0  0
 12 11  1  0  0  0
 11 10  1  0  0  0
 10  9  1  0  0  0
  9  8  1  0  0  0
  8  7  1  0  0  0
  7  6  1  0  0  0
  6  5  1  0  0  0
  2  1  1  0  0  0
  1 23  1  0  0  0
 30 32  1  0  0  0
 32 35  1  0  0  0
 39 40  1  0  0  0
 40 41  1  0  0  0
 41 42  1  0  0  0
 42 43  1  0  0  0
 43 44  1  0  0  0
 44 45  1  0  0  0
 45 46  1  0  0  0
 46 47  1  0  0  0
 47 48  2  0  0  0
 48 49  1  0  0  0
 49 50  1  0  0  0
 50 51  1  0  0  0
 51 52  1  0  0  0
 52 53  1  0  0  0
 53 54  1  0  0  0
 54 55  1  0  0  0
 55 56  1  0  0  0
M  CHG 1  26  -1
M  END
> <minimizedAffinity>
-8.94291

> <CNNscore>
0.7224062085

> <CNNaffinity>
7.8469724655

> <CNN_VS>
5.6687016487

> <CNNaffinity_variance>
1.0095015764

$$$$
/media/chris/experiments/cd1a-new-docking/inputs/ligands/7sh4_ligand.pdb


 56 55  0  0  0  0  0  0  0  0999 V2000
  -38.7468   60.5425   63.8593 C   0  0  0  0  0  0  0  0  0  0  0  0
  -40.1339   60.7520   63.3211 C   0  0  0  0  0  0  0  0  0  0  0  0
  -40.9034   59.6845   63.9138 O   0  0  0  0  0  0  0  0  0  0  0  0
  -41.1220   60.6717   65.9080 O   0  0  0  0  0  0  0  0  0  0  0  0
  -41.5598   59.9660   65.0397 C   0  0  0  0  0  0  0  0  0  0  0  0
  -42.9477   59.3933   65.0163 C   0  0  0  0  0  0  0  0  0  0  0  0
  -43.3238   58.6261   66.2726 C   0  0  0  0  0  0  0  0  0  0  0  0
  -43.3620   57.1281   66.0555 C   0  0  0  0  0  0  0  0  0  0  0  0
  -44.6113   56.6346   65.3616 C   0  0  0  0  0  0  0  0  0  0  0  0
  -45.8803   57.2497   65.9160 C   0  0  0  0  0  0  0  0  0  0  0  0
  -46.6685   58.0177   64.8832 C   0  0  0  0  0  0  0  0  0  0  0  0
  -47.8918   58.6854   65.4534 C   0  0  0  0  0  0  0  0  0  0  0  0
  -48.9761   57.7099   65.8550 C   0  0  0  0  0  0  0  0  0  0  0  0
  -50.3662   58.2071   65.5139 C   0  0  0  0  0  0  0  0  0  0  0  0
  -50.4316   59.0428   64.2527 C   0  0  0  0  0  0  0  0  0  0  0  0
  -50.5703   58.2212   62.9760 C   0  0  0  0  0  0  0  0  0  0  0  0
  -49.3432   58.2552   62.0851 C   0  0  0  0  0  0  0  0  0  0  0  0
  -49.6628   58.0873   60.6137 C   0  0  0  0  0  0  0  0  0  0  0  0
  -48.5322   57.4578   59.8118 C   0  0  0  0  0  0  0  0  0  0  0  0
  -48.9435   57.0299   58.4143 C   0  0  0  0  0  0  0  0  0  0  0  0
  -46.6350   57.5491   57.5561 C   0  0  0  0  0  0  0  0  0  0  0  0
  -47.7988   56.5847   57.5240 C   0  0  0  0  0  0  0  0  0  0  0  0
  -37.7135   61.3110   63.0760 C   0  0  0  0  0  0  0  0  0  0  0  0
  -37.1054   62.2919   63.9457 O   0  0  0  0  0  0  0  0  0  0  0  0
  -35.8070   63.1317   63.5320 P   0  0  0  0  0  0  0  0  0  0  0  0
  -34.6450   62.2173   63.5511 O   0  0  0  0  0  0  0  0  0  0  0  0
  -36.1130   63.8688   62.2824 O   0  0  0  0  0  0  0  0  0  0  0  0
  -36.2387   63.2372   61.5569 H   0  0  0  0  0  0  0  0  0  0  0  0
  -35.6081   64.2029   64.6964 O   0  0  0  0  0  0  0  0  0  0  0  0
  -36.0040   63.8834   66.0459 C   0  0  0  0  0  0  0  0  0  0  0  0
  -34.3904   62.8897   67.5126 O   0  0  0  0  0  0  0  0  0  0  0  0
  -34.8287   64.1339   66.9585 C   0  0  0  0  0  0  0  0  0  0  0  0
  -35.1318   62.4585   67.9655 H   0  0  0  0  0  0  0  0  0  0  0  0
  -32.6832   63.8792   65.8857 O   0  0  0  0  0  0  0  0  0  0  0  0
  -33.6858   64.8197   66.2489 C   0  0  0  0  0  0  0  0  0  0  0  0
  -31.9590   64.3378   65.4319 H   0  0  0  0  0  0  0  0  0  0  0  0
  -38.4650   59.1036   63.8615 O   0  0  0  0  0  0  0  0  0  0  0  0
  -38.2720   59.0874   66.1027 O   0  0  0  0  0  0  0  0  0  0  0  0
  -38.1161   58.5515   65.0395 C   0  0  0  0  0  0  0  0  0  0  0  0
  -37.5289   57.1851   64.8661 C   0  0  0  0  0  0  0  0  0  0  0  0
  -36.1754   57.2434   64.1651 C   0  0  0  0  0  0  0  0  0  0  0  0
  -35.3631   58.4847   64.4955 C   0  0  0  0  0  0  0  0  0  0  0  0
  -33.8760   58.3386   64.1937 C   0  0  0  0  0  0  0  0  0  0  0  0
  -33.5011   58.6743   62.7623 C   0  0  0  0  0  0  0  0  0  0  0  0
  -32.2429   57.9669   62.2509 C   0  0  0  0  0  0  0  0  0  0  0  0
  -32.4602   56.5427   61.7352 C   0  0  0  0  0  0  0  0  0  0  0  0
  -33.9134   56.2264   61.5450 C   0  0  0  0  0  0  0  0  0  0  0  0
  -34.5208   55.9719   60.4023 C   0  0  0  0  0  0  0  0  0  0  0  0
  -33.8815   55.9443   59.0499 C   0  0  0  0  0  0  0  0  0  0  0  0
  -34.6519   56.7712   58.0247 C   0  0  0  0  0  0  0  0  0  0  0  0
  -36.1209   56.4000   57.9219 C   0  0  0  0  0  0  0  0  0  0  0  0
  -37.0174   57.5617   57.5298 C   0  0  0  0  0  0  0  0  0  0  0  0
  -37.1255   58.6559   58.5788 C   0  0  0  0  0  0  0  0  0  0  0  0
  -38.4791   58.6995   59.2712 C   0  0  0  0  0  0  0  0  0  0  0  0
  -38.8402   60.0546   59.8466 C   0  0  0  0  0  0  0  0  0  0  0  0
  -40.3164   60.3333   59.7954 C   0  0  0  0  0  0  0  0  0  0  0  0
 21 22  1  0  0  0
  4  5  2  0  0  0
 25 24  1  0  0  0
 25 26  2  0  0  0
 25 27  1  0  0  0
 25 29  1  0  0  0
 22 20  1  0  0  0
  3  5  1  0  0  0
  3  2  1  0  0  0
 20 19  1  0  0  0
 24 23  1  0  0  0
 19 18  1  0  0  0
 18 17  1  0  0  0
 27 28  1  0  0  0
 17 16  1  0  0  0
 29 30  1  0  0  0
 16 15  1  0  0  0
 34 35  1  0  0  0
 34 36  1  0  0  0
 15 14  1  0  0  0
 31 32  1  0  0  0
 31 33  1  0  0  0
 14 13  1  0  0  0
 37  1  1  0  0  0
 37 39  1  0  0  0
 13 12  1  0  0  0
 38 39  2  0  0  0
 12 11  1  0  0  0
 11 10  1  0  0  0
 10  9  1  0  0  0
  9  8  1  0  0  0
  8  7  1  0  0  0
  7  6  1  0  0  0
  6  5  1  0  0  0
  2  1  1  0  0  0
  1 23  1  0  0  0
 30 32  1  0  0  0
 32 35  1  0  0  0
 39 40  1  0  0  0
 40 41  1  0  0  0
 41 42  1  0  0  0
 42 43  1  0  0  0
 43 44  1  0  0  0
 44 45  1  0  0  0
 45 46  1  0  0  0
 46 47  1  0  0  0
 47 48  2  0  0  0
 48 49  1  0  0  0
 49 50  1  0  0  0
 50 51  1  0  0  0
 51 52  1  0  0  0
 52 53  1  0  0  0
 53 54  1  0  0  0
 54 55  1  0  0  0
 55 56  1  0  0  0
M  CHG 1  26  -1
M  END
> <minimizedAffinity>
-8.79387

> <CNNscore>
0.5698217154

> <CNNaffinity>
7.4715757370

> <CNN_VS>
4.2574663162

> <CNNaffinity_variance>
0.8636977077

$$$$
/media/chris/experiments/cd1a-new-docking/inputs/ligands/7sh4_ligand.pdb


 56 55  0  0  0  0  0  0  0  0999 V2000
  -39.1614   59.9252   65.1281 C   0  0  0  0  0  0  0  0  0  0  0  0
  -40.4418   59.9256   65.9144 C   0  0  0  0  0  0  0  0  0  0  0  0
  -41.0761   58.6816   65.5494 O   0  0  0  0  0  0  0  0  0  0  0  0
  -43.0920   59.4216   64.9268 O   0  0  0  0  0  0  0  0  0  0  0  0
  -42.4093   58.6587   65.5556 C   0  0  0  0  0  0  0  0  0  0  0  0
  -42.9282   57.4893   66.3415 C   0  0  0  0  0  0  0  0  0  0  0  0
  -44.2155   56.8959   65.7944 C   0  0  0  0  0  0  0  0  0  0  0  0
  -45.4334   57.2924   66.6019 C   0  0  0  0  0  0  0  0  0  0  0  0
  -46.7510   56.9795   65.9296 C   0  0  0  0  0  0  0  0  0  0  0  0
  -47.7719   58.0891   66.0796 C   0  0  0  0  0  0  0  0  0  0  0  0
  -49.1637   57.6753   65.6683 C   0  0  0  0  0  0  0  0  0  0  0  0
  -49.9356   58.7848   65.0046 C   0  0  0  0  0  0  0  0  0  0  0  0
  -49.1323   59.5377   63.9671 C   0  0  0  0  0  0  0  0  0  0  0  0
  -49.8107   59.5710   62.6126 C   0  0  0  0  0  0  0  0  0  0  0  0
  -51.0642   58.7255   62.5283 C   0  0  0  0  0  0  0  0  0  0  0  0
  -50.9791   57.5982   61.5055 C   0  0  0  0  0  0  0  0  0  0  0  0
  -50.0969   57.9137   60.3128 C   0  0  0  0  0  0  0  0  0  0  0  0
  -48.7758   57.1721   60.3283 C   0  0  0  0  0  0  0  0  0  0  0  0
  -48.7436   55.9638   59.4028 C   0  0  0  0  0  0  0  0  0  0  0  0
  -47.4128   55.7747   58.6966 C   0  0  0  0  0  0  0  0  0  0  0  0
  -47.8380   56.7874   56.4319 C   0  0  0  0  0  0  0  0  0  0  0  0
  -47.0505   56.8768   57.7193 C   0  0  0  0  0  0  0  0  0  0  0  0
  -37.9495   60.0169   66.0194 C   0  0  0  0  0  0  0  0  0  0  0  0
  -37.6735   61.4100   66.2872 O   0  0  0  0  0  0  0  0  0  0  0  0
  -36.3651   62.1550   65.7441 P   0  0  0  0  0  0  0  0  0  0  0  0
  -35.2176   61.2347   65.8966 O   0  0  0  0  0  0  0  0  0  0  0  0
  -36.6685   62.6982   64.3982 O   0  0  0  0  0  0  0  0  0  0  0  0
  -36.8095   61.9658   63.7781 H   0  0  0  0  0  0  0  0  0  0  0  0
  -36.1405   63.3874   66.7307 O   0  0  0  0  0  0  0  0  0  0  0  0
  -34.8472   63.6051   67.3305 C   0  0  0  0  0  0  0  0  0  0  0  0
  -33.5003   65.5856   67.4077 O   0  0  0  0  0  0  0  0  0  0  0  0
  -34.1164   64.6475   66.5203 C   0  0  0  0  0  0  0  0  0  0  0  0
  -34.1735   65.9684   67.9918 H   0  0  0  0  0  0  0  0  0  0  0  0
  -31.7739   64.4525   65.9791 O   0  0  0  0  0  0  0  0  0  0  0  0
  -33.0819   64.0413   65.6028 C   0  0  0  0  0  0  0  0  0  0  0  0
  -31.1244   64.0536   65.3793 H   0  0  0  0  0  0  0  0  0  0  0  0
  -39.2107   61.0302   64.1655 O   0  0  0  0  0  0  0  0  0  0  0  0
  -37.7750   61.0368   62.4337 O   0  0  0  0  0  0  0  0  0  0  0  0
  -38.8450   60.7535   62.8990 C   0  0  0  0  0  0  0  0  0  0  0  0
  -39.9234   60.0354   62.1485 C   0  0  0  0  0  0  0  0  0  0  0  0
  -39.3588   59.2672   60.9576 C   0  0  0  0  0  0  0  0  0  0  0  0
  -38.3862   58.1640   61.3408 C   0  0  0  0  0  0  0  0  0  0  0  0
  -37.5583   57.6471   60.1698 C   0  0  0  0  0  0  0  0  0  0  0  0
  -37.7013   58.4695   58.9026 C   0  0  0  0  0  0  0  0  0  0  0  0
  -36.5853   58.2562   57.8759 C   0  0  0  0  0  0  0  0  0  0  0  0
  -36.0697   56.8200   57.7628 C   0  0  0  0  0  0  0  0  0  0  0  0
  -34.5935   56.7287   58.0087 C   0  0  0  0  0  0  0  0  0  0  0  0
  -34.0027   56.2420   59.0827 C   0  0  0  0  0  0  0  0  0  0  0  0
  -34.6873   55.6747   60.2860 C   0  0  0  0  0  0  0  0  0  0  0  0
  -33.8468   55.8105   61.5523 C   0  0  0  0  0  0  0  0  0  0  0  0
  -32.7089   56.8080   61.4245 C   0  0  0  0  0  0  0  0  0  0  0  0
  -33.0460   58.1894   61.9586 C   0  0  0  0  0  0  0  0  0  0  0  0
  -34.5312   58.4426   62.1576 C   0  0  0  0  0  0  0  0  0  0  0  0
  -34.8626   59.0794   63.4985 C   0  0  0  0  0  0  0  0  0  0  0  0
  -35.1066   58.0849   64.6162 C   0  0  0  0  0  0  0  0  0  0  0  0
  -36.1591   57.0687   64.2709 C   0  0  0  0  0  0  0  0  0  0  0  0
 21 22  1  0  0  0
  4  5  2  0  0  0
 25 24  1  0  0  0
 25 26  2  0  0  0
 25 27  1  0  0  0
 25 29  1  0  0  0
 22 20  1  0  0  0
  3  5  1  0  0  0
  3  2  1  0  0  0
 20 19  1  0  0  0
 24 23  1  0  0  0
 19 18  1  0  0  0
 18 17  1  0  0  0
 27 28  1  0  0  0
 17 16  1  0  0  0
 29 30  1  0  0  0
 16 15  1  0  0  0
 34 35  1  0  0  0
 34 36  1  0  0  0
 15 14  1  0  0  0
 31 32  1  0  0  0
 31 33  1  0  0  0
 14 13  1  0  0  0
 37  1  1  0  0  0
 37 39  1  0  0  0
 13 12  1  0  0  0
 38 39  2  0  0  0
 12 11  1  0  0  0
 11 10  1  0  0  0
 10  9  1  0  0  0
  9  8  1  0  0  0
  8  7  1  0  0  0
  7  6  1  0  0  0
  6  5  1  0  0  0
  2  1  1  0  0  0
  1 23  1  0  0  0
 30 32  1  0  0  0
 32 35  1  0  0  0
 39 40  1  0  0  0
 40 41  1  0  0  0
 41 42  1  0  0  0
 42 43  1  0  0  0
 43 44  1  0  0  0
 44 45  1  0  0  0
 45 46  1  0  0  0
 46 47  1  0  0  0
 47 48  2  0  0  0
 48 49  1  0  0  0
 49 50  1  0  0  0
 50 51  1  0  0  0
 51 52  1  0  0  0
 52 53  1  0  0  0
 53 54  1  0  0  0
 54 55  1  0  0  0
 55 56  1  0  0  0
M  CHG 1  26  -1
M  END
> <minimizedAffinity>
-8.57943

> <CNNscore>
0.5615966916

> <CNNaffinity>
7.4720144272

> <CNN_VS>
4.1962585449

> <CNNaffinity_variance>
0.3827875257

$$$$
/media/chris/experiments/cd1a-new-docking/inputs/ligands/7sh4_ligand.pdb


 56 55  0  0  0  0  0  0  0  0999 V2000
  -38.3092   60.5253   62.6040 C   0  0  0  0  0  0  0  0  0  0  0  0
  -38.5553   60.4811   64.0856 C   0  0  0  0  0  0  0  0  0  0  0  0
  -39.9724   60.7245   64.2116 O   0  0  0  0  0  0  0  0  0  0  0  0
  -40.3781   60.7126   66.4103 O   0  0  0  0  0  0  0  0  0  0  0  0
  -40.5688   60.2647   65.3119 C   0  0  0  0  0  0  0  0  0  0  0  0
  -41.5882   59.2141   64.9778 C   0  0  0  0  0  0  0  0  0  0  0  0
  -42.3078   58.6408   66.1869 C   0  0  0  0  0  0  0  0  0  0  0  0
  -43.7579   59.0695   66.2640 C   0  0  0  0  0  0  0  0  0  0  0  0
  -44.6004   58.6180   65.0926 C   0  0  0  0  0  0  0  0  0  0  0  0
  -46.0804   58.5622   65.4128 C   0  0  0  0  0  0  0  0  0  0  0  0
  -46.5133   57.2373   65.9917 C   0  0  0  0  0  0  0  0  0  0  0  0
  -48.0053   57.0380   65.9538 C   0  0  0  0  0  0  0  0  0  0  0  0
  -48.7830   58.3342   65.8959 C   0  0  0  0  0  0  0  0  0  0  0  0
  -50.0376   58.2269   65.0529 C   0  0  0  0  0  0  0  0  0  0  0  0
  -49.7783   57.8965   63.5981 C   0  0  0  0  0  0  0  0  0  0  0  0
  -50.7418   58.5752   62.6311 C   0  0  0  0  0  0  0  0  0  0  0  0
  -50.2297   58.6554   61.2057 C   0  0  0  0  0  0  0  0  0  0  0  0
  -50.6516   57.4803   60.3475 C   0  0  0  0  0  0  0  0  0  0  0  0
  -49.5865   56.3993   60.2270 C   0  0  0  0  0  0  0  0  0  0  0  0
  -48.6752   56.5755   59.0254 C   0  0  0  0  0  0  0  0  0  0  0  0
  -46.7323   57.8365   58.0402 C   0  0  0  0  0  0  0  0  0  0  0  0
  -47.3970   57.3431   59.3052 C   0  0  0  0  0  0  0  0  0  0  0  0
  -37.3970   61.6604   62.2152 C   0  0  0  0  0  0  0  0  0  0  0  0
  -36.2309   61.6330   63.0683 O   0  0  0  0  0  0  0  0  0  0  0  0
  -35.2609   62.8928   63.2523 P   0  0  0  0  0  0  0  0  0  0  0  0
  -34.2021   62.8097   62.2232 O   0  0  0  0  0  0  0  0  0  0  0  0
  -36.0984   64.1147   63.3155 O   0  0  0  0  0  0  0  0  0  0  0  0
  -36.5270   64.2578   62.4571 H   0  0  0  0  0  0  0  0  0  0  0  0
  -34.5760   62.6939   64.6786 O   0  0  0  0  0  0  0  0  0  0  0  0
  -34.2133   63.8428   65.4712 C   0  0  0  0  0  0  0  0  0  0  0  0
  -34.1517   64.6043   67.7425 O   0  0  0  0  0  0  0  0  0  0  0  0
  -34.7576   63.6502   66.8653 C   0  0  0  0  0  0  0  0  0  0  0  0
  -33.1868   64.5147   67.7008 H   0  0  0  0  0  0  0  0  0  0  0  0
  -36.8815   62.5879   66.4418 O   0  0  0  0  0  0  0  0  0  0  0  0
  -36.2614   63.7756   66.9176 C   0  0  0  0  0  0  0  0  0  0  0  0
  -37.8454   62.6876   66.4831 H   0  0  0  0  0  0  0  0  0  0  0  0
  -39.6049   60.6143   61.9233 O   0  0  0  0  0  0  0  0  0  0  0  0
  -40.3476   60.6288   59.8000 O   0  0  0  0  0  0  0  0  0  0  0  0
  -39.6655   60.1457   60.6620 C   0  0  0  0  0  0  0  0  0  0  0  0
  -38.7683   58.9642   60.4593 C   0  0  0  0  0  0  0  0  0  0  0  0
  -37.6911   59.2526   59.4185 C   0  0  0  0  0  0  0  0  0  0  0  0
  -37.6049   58.2104   58.3156 C   0  0  0  0  0  0  0  0  0  0  0  0
  -36.2163   58.0888   57.6987 C   0  0  0  0  0  0  0  0  0  0  0  0
  -35.6454   56.6835   57.7363 C   0  0  0  0  0  0  0  0  0  0  0  0
  -36.5509   55.6461   58.4063 C   0  0  0  0  0  0  0  0  0  0  0  0
  -35.8961   54.8373   59.5282 C   0  0  0  0  0  0  0  0  0  0  0  0
  -34.7554   55.5739   60.1640 C   0  0  0  0  0  0  0  0  0  0  0  0
  -34.8358   56.4637   61.1342 C   0  0  0  0  0  0  0  0  0  0  0  0
  -36.0899   56.9247   61.8073 C   0  0  0  0  0  0  0  0  0  0  0  0
  -35.8455   58.0948   62.7557 C   0  0  0  0  0  0  0  0  0  0  0  0
  -35.0762   57.7136   64.0084 C   0  0  0  0  0  0  0  0  0  0  0  0
  -33.7309   58.4076   64.1328 C   0  0  0  0  0  0  0  0  0  0  0  0
  -33.3682   59.2944   62.9531 C   0  0  0  0  0  0  0  0  0  0  0  0
  -32.2169   58.7527   62.1197 C   0  0  0  0  0  0  0  0  0  0  0  0
  -30.9432   59.5692   62.2133 C   0  0  0  0  0  0  0  0  0  0  0  0
  -31.1629   61.0258   61.9141 C   0  0  0  0  0  0  0  0  0  0  0  0
 21 22  1  0  0  0
  4  5  2  0  0  0
 25 24  1  0  0  0
 25 26  2  0  0  0
 25 27  1  0  0  0
 25 29  1  0  0  0
 22 20  1  0  0  0
  3  5  1  0  0  0
  3  2  1  0  0  0
 20 19  1  0  0  0
 24 23  1  0  0  0
 19 18  1  0  0  0
 18 17  1  0  0  0
 27 28  1  0  0  0
 17 16  1  0  0  0
 29 30  1  0  0  0
 16 15  1  0  0  0
 34 35  1  0  0  0
 34 36  1  0  0  0
 15 14  1  0  0  0
 31 32  1  0  0  0
 31 33  1  0  0  0
 14 13  1  0  0  0
 37  1  1  0  0  0
 37 39  1  0  0  0
 13 12  1  0  0  0
 38 39  2  0  0  0
 12 11  1  0  0  0
 11 10  1  0  0  0
 10  9  1  0  0  0
  9  8  1  0  0  0
  8  7  1  0  0  0
  7  6  1  0  0  0
  6  5  1  0  0  0
  2  1  1  0  0  0
  1 23  1  0  0  0
 30 32  1  0  0  0
 32 35  1  0  0  0
 39 40  1  0  0  0
 40 41  1  0  0  0
 41 42  1  0  0  0
 42 43  1  0  0  0
 43 44  1  0  0  0
 44 45  1  0  0  0
 45 46  1  0  0  0
 46 47  1  0  0  0
 47 48  2  0  0  0
 48 49  1  0  0  0
 49 50  1  0  0  0
 50 51  1  0  0  0
 51 52  1  0  0  0
 52 53  1  0  0  0
 53 54  1  0  0  0
 54 55  1  0  0  0
 55 56  1  0  0  0
M  CHG 1  26  -1
M  END
> <minimizedAffinity>
-8.49086

> <CNNscore>
0.5381819010

> <CNNaffinity>
7.5430002213

> <CNN_VS>
4.0595064163

> <CNNaffinity_variance>
0.5943027139

$$$$
/media/chris/experiments/cd1a-new-docking/inputs/ligands/7sh4_ligand.pdb


 56 55  0  0  0  0  0  0  0  0999 V2000
  -37.0725   60.3974   65.3578 C   0  0  0  0  0  0  0  0  0  0  0  0
  -38.4972   60.1637   65.7742 C   0  0  0  0  0  0  0  0  0  0  0  0
  -39.2733   60.7758   64.7225 O   0  0  0  0  0  0  0  0  0  0  0  0
  -41.3803   61.2024   64.1078 O   0  0  0  0  0  0  0  0  0  0  0  0
  -40.5873   60.5500   64.7316 C   0  0  0  0  0  0  0  0  0  0  0  0
  -40.9197   59.3121   65.5137 C   0  0  0  0  0  0  0  0  0  0  0  0
  -41.9824   59.5181   66.5799 C   0  0  0  0  0  0  0  0  0  0  0  0
  -43.1861   58.6196   66.3893 C   0  0  0  0  0  0  0  0  0  0  0  0
  -44.2792   59.2214   65.5355 C   0  0  0  0  0  0  0  0  0  0  0  0
  -45.5790   58.4456   65.6021 C   0  0  0  0  0  0  0  0  0  0  0  0
  -46.7685   59.3079   65.9475 C   0  0  0  0  0  0  0  0  0  0  0  0
  -47.5279   59.7762   64.7345 C   0  0  0  0  0  0  0  0  0  0  0  0
  -48.9837   59.3653   64.7420 C   0  0  0  0  0  0  0  0  0  0  0  0
  -49.8281   60.1850   63.7875 C   0  0  0  0  0  0  0  0  0  0  0  0
  -51.1271   59.5194   63.3839 C   0  0  0  0  0  0  0  0  0  0  0  0
  -50.9387   58.2112   62.6241 C   0  0  0  0  0  0  0  0  0  0  0  0
  -50.0819   58.3396   61.3792 C   0  0  0  0  0  0  0  0  0  0  0  0
  -50.4139   57.3169   60.3119 C   0  0  0  0  0  0  0  0  0  0  0  0
  -49.1933   56.7934   59.5679 C   0  0  0  0  0  0  0  0  0  0  0  0
  -48.2101   57.8807   59.1726 C   0  0  0  0  0  0  0  0  0  0  0  0
  -45.7524   57.4283   59.4742 C   0  0  0  0  0  0  0  0  0  0  0  0
  -46.9317   57.3773   58.5295 C   0  0  0  0  0  0  0  0  0  0  0  0
  -36.7819   61.8585   65.1291 C   0  0  0  0  0  0  0  0  0  0  0  0
  -35.4625   62.1555   65.6383 O   0  0  0  0  0  0  0  0  0  0  0  0
  -35.1814   63.3343   66.6840 P   0  0  0  0  0  0  0  0  0  0  0  0
  -36.4800   63.9361   67.0556 O   0  0  0  0  0  0  0  0  0  0  0  0
  -34.3104   62.8000   67.7585 O   0  0  0  0  0  0  0  0  0  0  0  0
  -34.7964   62.1316   68.2664 H   0  0  0  0  0  0  0  0  0  0  0  0
  -34.3475   64.4266   65.8751 O   0  0  0  0  0  0  0  0  0  0  0  0
  -34.3375   64.4043   64.4331 C   0  0  0  0  0  0  0  0  0  0  0  0
  -32.8534   64.6283   62.5650 O   0  0  0  0  0  0  0  0  0  0  0  0
  -32.9029   64.3524   63.9681 C   0  0  0  0  0  0  0  0  0  0  0  0
  -33.4240   64.0024   62.0922 H   0  0  0  0  0  0  0  0  0  0  0  0
  -31.5325   64.7255   65.9177 O   0  0  0  0  0  0  0  0  0  0  0  0
  -32.0193   65.3183   64.7205 C   0  0  0  0  0  0  0  0  0  0  0  0
  -30.9680   65.3600   66.3863 H   0  0  0  0  0  0  0  0  0  0  0  0
  -36.8052   59.5978   64.1581 O   0  0  0  0  0  0  0  0  0  0  0  0
  -34.8756   58.6641   64.8401 O   0  0  0  0  0  0  0  0  0  0  0  0
  -35.9374   58.5758   64.2864 C   0  0  0  0  0  0  0  0  0  0  0  0
  -36.4622   57.3145   63.6735 C   0  0  0  0  0  0  0  0  0  0  0  0
  -37.9740   57.3749   63.4788 C   0  0  0  0  0  0  0  0  0  0  0  0
  -38.4024   57.5520   62.0314 C   0  0  0  0  0  0  0  0  0  0  0  0
  -39.1697   58.8443   61.7763 C   0  0  0  0  0  0  0  0  0  0  0  0
  -38.6971   59.6116   60.5555 C   0  0  0  0  0  0  0  0  0  0  0  0
  -37.4751   59.0078   59.8575 C   0  0  0  0  0  0  0  0  0  0  0  0
  -37.7342   58.4514   58.4558 C   0  0  0  0  0  0  0  0  0  0  0  0
  -36.4768   57.9651   57.7998 C   0  0  0  0  0  0  0  0  0  0  0  0
  -35.8826   56.8047   57.9994 C   0  0  0  0  0  0  0  0  0  0  0  0
  -36.3436   55.7250   58.9268 C   0  0  0  0  0  0  0  0  0  0  0  0
  -35.6127   55.7562   60.2659 C   0  0  0  0  0  0  0  0  0  0  0  0
  -34.0998   55.7676   60.1345 C   0  0  0  0  0  0  0  0  0  0  0  0
  -33.3889   56.3889   61.3243 C   0  0  0  0  0  0  0  0  0  0  0  0
  -33.5836   57.8899   61.4609 C   0  0  0  0  0  0  0  0  0  0  0  0
  -32.5244   58.5621   62.3209 C   0  0  0  0  0  0  0  0  0  0  0  0
  -31.6047   59.4956   61.5590 C   0  0  0  0  0  0  0  0  0  0  0  0
  -31.3670   60.7934   62.2792 C   0  0  0  0  0  0  0  0  0  0  0  0
 21 22  1  0  0  0
  4  5  2  0  0  0
 25 24  1  0  0  0
 25 26  2  0  0  0
 25 27  1  0  0  0
 25 29  1  0  0  0
 22 20  1  0  0  0
  3  5  1  0  0  0
  3  2  1  0  0  0
 20 19  1  0  0  0
 24 23  1  0  0  0
 19 18  1  0  0  0
 18 17  1  0  0  0
 27 28  1  0  0  0
 17 16  1  0  0  0
 29 30  1  0  0  0
 16 15  1  0  0  0
 34 35  1  0  0  0
 34 36  1  0  0  0
 15 14  1  0  0  0
 31 32  1  0  0  0
 31 33  1  0  0  0
 14 13  1  0  0  0
 37  1  1  0  0  0
 37 39  1  0  0  0
 13 12  1  0  0  0
 38 39  2  0  0  0
 12 11  1  0  0  0
 11 10  1  0  0  0
 10  9  1  0  0  0
  9  8  1  0  0  0
  8  7  1  0  0  0
  7  6  1  0  0  0
  6  5  1  0  0  0
  2  1  1  0  0  0
  1 23  1  0  0  0
 30 32  1  0  0  0
 32 35  1  0  0  0
 39 40  1  0  0  0
 40 41  1  0  0  0
 41 42  1  0  0  0
 42 43  1  0  0  0
 43 44  1  0  0  0
 44 45  1  0  0  0
 45 46  1  0  0  0
 46 47  1  0  0  0
 47 48  2  0  0  0
 48 49  1  0  0  0
 49 50  1  0  0  0
 50 51  1  0  0  0
 51 52  1  0  0  0
 52 53  1  0  0  0
 53 54  1  0  0  0
 54 55  1  0  0  0
 55 56  1  0  0  0
M  CHG 1  26  -1
M  END
> <minimizedAffinity>
-8.77865

> <CNNscore>
0.4070757329

> <CNNaffinity>
7.2247323990

> <CNN_VS>
2.9410133362

> <CNNaffinity_variance>
0.9364468455

$$$$
/media/chris/experiments/cd1a-new-docking/inputs/ligands/7sh4_ligand.pdb


 56 55  0  0  0  0  0  0  0  0999 V2000
  -38.4008   60.7713   64.4810 C   0  0  0  0  0  0  0  0  0  0  0  0
  -38.1639   60.7491   62.9974 C   0  0  0  0  0  0  0  0  0  0  0  0
  -39.4803   60.5614   62.4363 O   0  0  0  0  0  0  0  0  0  0  0  0
  -40.5729   60.3404   60.4981 O   0  0  0  0  0  0  0  0  0  0  0  0
  -39.5499   60.3154   61.1277 C   0  0  0  0  0  0  0  0  0  0  0  0
  -38.1819   60.1317   60.5366 C   0  0  0  0  0  0  0  0  0  0  0  0
  -38.1668   59.3369   59.2418 C   0  0  0  0  0  0  0  0  0  0  0  0
  -37.1341   58.2296   59.2456 C   0  0  0  0  0  0  0  0  0  0  0  0
  -36.5564   57.9169   57.8838 C   0  0  0  0  0  0  0  0  0  0  0  0
  -36.0198   56.5039   57.7773 C   0  0  0  0  0  0  0  0  0  0  0  0
  -36.5691   55.5785   58.8354 C   0  0  0  0  0  0  0  0  0  0  0  0
  -35.5060   55.0410   59.7565 C   0  0  0  0  0  0  0  0  0  0  0  0
  -34.1767   55.7495   59.6172 C   0  0  0  0  0  0  0  0  0  0  0  0
  -33.5948   56.1696   60.9517 C   0  0  0  0  0  0  0  0  0  0  0  0
  -33.2174   57.6342   61.0279 C   0  0  0  0  0  0  0  0  0  0  0  0
  -32.5499   58.0308   62.3398 C   0  0  0  0  0  0  0  0  0  0  0  0
  -33.1755   59.2400   63.0085 C   0  0  0  0  0  0  0  0  0  0  0  0
  -34.6448   59.0573   63.3297 C   0  0  0  0  0  0  0  0  0  0  0  0
  -34.9156   57.9498   64.3384 C   0  0  0  0  0  0  0  0  0  0  0  0
  -36.2013   57.1870   64.0728 C   0  0  0  0  0  0  0  0  0  0  0  0
  -38.2360   57.0671   62.5961 C   0  0  0  0  0  0  0  0  0  0  0  0
  -36.7505   57.3386   62.6669 C   0  0  0  0  0  0  0  0  0  0  0  0
  -37.1123   60.7146   65.2610 C   0  0  0  0  0  0  0  0  0  0  0  0
  -37.1470   61.7280   66.2906 O   0  0  0  0  0  0  0  0  0  0  0  0
  -36.0653   62.9038   66.3872 P   0  0  0  0  0  0  0  0  0  0  0  0
  -36.7916   64.1825   66.5431 O   0  0  0  0  0  0  0  0  0  0  0  0
  -35.0621   62.5250   67.4112 O   0  0  0  0  0  0  0  0  0  0  0  0
  -35.4831   62.5060   68.2849 H   0  0  0  0  0  0  0  0  0  0  0  0
  -35.3351   62.9235   64.9697 O   0  0  0  0  0  0  0  0  0  0  0  0
  -33.9701   62.4725   64.8550 C   0  0  0  0  0  0  0  0  0  0  0  0
  -34.1958   62.9744   62.5227 O   0  0  0  0  0  0  0  0  0  0  0  0
  -33.3446   63.1482   63.6595 C   0  0  0  0  0  0  0  0  0  0  0  0
  -34.3539   62.0283   62.3788 H   0  0  0  0  0  0  0  0  0  0  0  0
  -34.3038   65.3022   64.1681 O   0  0  0  0  0  0  0  0  0  0  0  0
  -33.0876   64.6167   63.8985 C   0  0  0  0  0  0  0  0  0  0  0  0
  -34.1185   66.2423   64.3187 H   0  0  0  0  0  0  0  0  0  0  0  0
  -39.2905   59.6572   64.8230 O   0  0  0  0  0  0  0  0  0  0  0  0
  -40.5104   60.9542   66.1977 O   0  0  0  0  0  0  0  0  0  0  0  0
  -40.3861   59.9514   65.5490 C   0  0  0  0  0  0  0  0  0  0  0  0
  -41.4355   58.8894   65.4357 C   0  0  0  0  0  0  0  0  0  0  0  0
  -42.3250   58.8484   66.6742 C   0  0  0  0  0  0  0  0  0  0  0  0
  -43.6965   58.2414   66.4282 C   0  0  0  0  0  0  0  0  0  0  0  0
  -44.3899   58.7852   65.1843 C   0  0  0  0  0  0  0  0  0  0  0  0
  -45.7908   59.3098   65.4385 C   0  0  0  0  0  0  0  0  0  0  0  0
  -46.9029   58.2746   65.2464 C   0  0  0  0  0  0  0  0  0  0  0  0
  -48.3275   58.8153   65.3861 C   0  0  0  0  0  0  0  0  0  0  0  0
  -48.5021   60.1333   64.6931 C   0  0  0  0  0  0  0  0  0  0  0  0
  -49.5460   60.5185   63.9850 C   0  0  0  0  0  0  0  0  0  0  0  0
  -50.7816   59.7156   63.7260 C   0  0  0  0  0  0  0  0  0  0  0  0
  -50.8788   59.2476   62.2769 C   0  0  0  0  0  0  0  0  0  0  0  0
  -50.4368   57.8096   62.0699 C   0  0  0  0  0  0  0  0  0  0  0  0
  -50.9381   57.1981   60.7730 C   0  0  0  0  0  0  0  0  0  0  0  0
  -50.1433   57.5962   59.5404 C   0  0  0  0  0  0  0  0  0  0  0  0
  -48.6451   57.6828   59.7879 C   0  0  0  0  0  0  0  0  0  0  0  0
  -47.8090   56.8420   58.8436 C   0  0  0  0  0  0  0  0  0  0  0  0
  -48.4730   56.6290   57.5119 C   0  0  0  0  0  0  0  0  0  0  0  0
 21 22  1  0  0  0
  4  5  2  0  0  0
 25 24  1  0  0  0
 25 26  2  0  0  0
 25 27  1  0  0  0
 25 29  1  0  0  0
 22 20  1  0  0  0
  3  5  1  0  0  0
  3  2  1  0  0  0
 20 19  1  0  0  0
 24 23  1  0  0  0
 19 18  1  0  0  0
 18 17  1  0  0  0
 27 28  1  0  0  0
 17 16  1  0  0  0
 29 30  1  0  0  0
 16 15  1  0  0  0
 34 35  1  0  0  0
 34 36  1  0  0  0
 15 14  1  0  0  0
 31 32  1  0  0  0
 31 33  1  0  0  0
 14 13  1  0  0  0
 37  1  1  0  0  0
 37 39  1  0  0  0
 13 12  1  0  0  0
 38 39  2  0  0  0
 12 11  1  0  0  0
 11 10  1  0  0  0
 10  9  1  0  0  0
  9  8  1  0  0  0
  8  7  1  0  0  0
  7  6  1  0  0  0
  6  5  1  0  0  0
  2  1  1  0  0  0
  1 23  1  0  0  0
 30 32  1  0  0  0
 32 35  1  0  0  0
 39 40  1  0  0  0
 40 41  1  0  0  0
 41 42  1  0  0  0
 42 43  1  0  0  0
 43 44  1  0  0  0
 44 45  1  0  0  0
 45 46  1  0  0  0
 46 47  1  0  0  0
 47 48  2  0  0  0
 48 49  1  0  0  0
 49 50  1  0  0  0
 50 51  1  0  0  0
 51 52  1  0  0  0
 52 53  1  0  0  0
 53 54  1  0  0  0
 54 55  1  0  0  0
 55 56  1  0  0  0
M  CHG 1  26  -1
M  END
> <minimizedAffinity>
-8.85483

> <CNNscore>
0.4028418958

> <CNNaffinity>
7.2695665359

> <CNN_VS>
2.9284858704

> <CNNaffinity_variance>
1.0228869915

$$$$
/media/chris/experiments/cd1a-new-docking/inputs/ligands/7sh4_ligand.pdb


 56 55  0  0  0  0  0  0  0  0999 V2000
  -37.0599   60.3242   65.2639 C   0  0  0  0  0  0  0  0  0  0  0  0
  -38.5090   60.3394   64.8669 C   0  0  0  0  0  0  0  0  0  0  0  0
  -39.0947   59.2721   65.6420 O   0  0  0  0  0  0  0  0  0  0  0  0
  -39.9758   57.4113   64.7701 O   0  0  0  0  0  0  0  0  0  0  0  0
  -40.0717   58.5721   65.0648 C   0  0  0  0  0  0  0  0  0  0  0  0
  -41.3286   59.3858   64.9523 C   0  0  0  0  0  0  0  0  0  0  0  0
  -42.3030   59.1849   66.1006 C   0  0  0  0  0  0  0  0  0  0  0  0
  -43.7479   59.1722   65.6482 C   0  0  0  0  0  0  0  0  0  0  0  0
  -44.6895   58.4728   66.6021 C   0  0  0  0  0  0  0  0  0  0  0  0
  -46.1492   58.6726   66.2481 C   0  0  0  0  0  0  0  0  0  0  0  0
  -46.3658   59.7357   65.1990 C   0  0  0  0  0  0  0  0  0  0  0  0
  -47.8188   59.9421   64.8616 C   0  0  0  0  0  0  0  0  0  0  0  0
  -48.6591   58.6969   65.0396 C   0  0  0  0  0  0  0  0  0  0  0  0
  -48.9587   58.0005   63.7276 C   0  0  0  0  0  0  0  0  0  0  0  0
  -49.4131   58.9317   62.6233 C   0  0  0  0  0  0  0  0  0  0  0  0
  -50.8611   58.7197   62.1959 C   0  0  0  0  0  0  0  0  0  0  0  0
  -51.0753   57.4906   61.3335 C   0  0  0  0  0  0  0  0  0  0  0  0
  -50.0575   57.3518   60.2199 C   0  0  0  0  0  0  0  0  0  0  0  0
  -49.4193   55.9717   60.1451 C   0  0  0  0  0  0  0  0  0  0  0  0
  -48.2317   55.9016   59.2017 C   0  0  0  0  0  0  0  0  0  0  0  0
  -47.8888   56.5504   56.7940 C   0  0  0  0  0  0  0  0  0  0  0  0
  -48.1479   57.0388   58.2012 C   0  0  0  0  0  0  0  0  0  0  0  0
  -36.7617   61.3189   66.3563 C   0  0  0  0  0  0  0  0  0  0  0  0
  -35.7408   62.2294   65.8903 O   0  0  0  0  0  0  0  0  0  0  0  0
  -35.7175   63.7809   66.2830 P   0  0  0  0  0  0  0  0  0  0  0  0
  -36.1975   64.5553   65.1181 O   0  0  0  0  0  0  0  0  0  0  0  0
  -36.4170   63.9392   67.5807 O   0  0  0  0  0  0  0  0  0  0  0  0
  -37.3572   63.7280   67.4692 H   0  0  0  0  0  0  0  0  0  0  0  0
  -34.1795   64.1364   66.5089 O   0  0  0  0  0  0  0  0  0  0  0  0
  -33.1915   63.7077   65.5497 C   0  0  0  0  0  0  0  0  0  0  0  0
  -30.9291   64.2946   65.0211 O   0  0  0  0  0  0  0  0  0  0  0  0
  -32.2149   64.8378   65.3353 C   0  0  0  0  0  0  0  0  0  0  0  0
  -30.6529   63.6888   65.7265 H   0  0  0  0  0  0  0  0  0  0  0  0
  -33.8946   66.4011   64.5915 O   0  0  0  0  0  0  0  0  0  0  0  0
  -32.6608   65.7842   64.2465 C   0  0  0  0  0  0  0  0  0  0  0  0
  -34.1642   67.0042   63.8813 H   0  0  0  0  0  0  0  0  0  0  0  0
  -36.2509   60.5754   64.0671 O   0  0  0  0  0  0  0  0  0  0  0  0
  -36.8977   62.0581   62.5040 O   0  0  0  0  0  0  0  0  0  0  0  0
  -36.9092   60.9439   62.9513 C   0  0  0  0  0  0  0  0  0  0  0  0
  -37.6401   59.7960   62.3269 C   0  0  0  0  0  0  0  0  0  0  0  0
  -37.3890   59.7249   60.8239 C   0  0  0  0  0  0  0  0  0  0  0  0
  -38.0311   58.5246   60.1479 C   0  0  0  0  0  0  0  0  0  0  0  0
  -37.9117   58.5445   58.6283 C   0  0  0  0  0  0  0  0  0  0  0  0
  -36.6589   57.8715   58.0991 C   0  0  0  0  0  0  0  0  0  0  0  0
  -36.6576   56.3448   58.2180 C   0  0  0  0  0  0  0  0  0  0  0  0
  -36.3936   55.8010   59.6238 C   0  0  0  0  0  0  0  0  0  0  0  0
  -34.9920   55.2914   59.7783 C   0  0  0  0  0  0  0  0  0  0  0  0
  -33.9353   55.9915   60.1425 C   0  0  0  0  0  0  0  0  0  0  0  0
  -33.9157   57.4487   60.4807 C   0  0  0  0  0  0  0  0  0  0  0  0
  -34.4932   57.7333   61.8641 C   0  0  0  0  0  0  0  0  0  0  0  0
  -33.4576   58.1975   62.8732 C   0  0  0  0  0  0  0  0  0  0  0  0
  -32.0260   58.0631   62.3836 C   0  0  0  0  0  0  0  0  0  0  0  0
  -31.3223   59.3848   62.1245 C   0  0  0  0  0  0  0  0  0  0  0  0
  -32.2154   60.5979   62.3351 C   0  0  0  0  0  0  0  0  0  0  0  0
  -31.5218   61.9272   62.1127 C   0  0  0  0  0  0  0  0  0  0  0  0
  -32.4877   63.0692   61.9630 C   0  0  0  0  0  0  0  0  0  0  0  0
 21 22  1  0  0  0
  4  5  2  0  0  0
 25 24  1  0  0  0
 25 26  2  0  0  0
 25 27  1  0  0  0
 25 29  1  0  0  0
 22 20  1  0  0  0
  3  5  1  0  0  0
  3  2  1  0  0  0
 20 19  1  0  0  0
 24 23  1  0  0  0
 19 18  1  0  0  0
 18 17  1  0  0  0
 27 28  1  0  0  0
 17 16  1  0  0  0
 29 30  1  0  0  0
 16 15  1  0  0  0
 34 35  1  0  0  0
 34 36  1  0  0  0
 15 14  1  0  0  0
 31 32  1  0  0  0
 31 33  1  0  0  0
 14 13  1  0  0  0
 37  1  1  0  0  0
 37 39  1  0  0  0
 13 12  1  0  0  0
 38 39  2  0  0  0
 12 11  1  0  0  0
 11 10  1  0  0  0
 10  9  1  0  0  0
  9  8  1  0  0  0
  8  7  1  0  0  0
  7  6  1  0  0  0
  6  5  1  0  0  0
  2  1  1  0  0  0
  1 23  1  0  0  0
 30 32  1  0  0  0
 32 35  1  0  0  0
 39 40  1  0  0  0
 40 41  1  0  0  0
 41 42  1  0  0  0
 42 43  1  0  0  0
 43 44  1  0  0  0
 44 45  1  0  0  0
 45 46  1  0  0  0
 46 47  1  0  0  0
 47 48  2  0  0  0
 48 49  1  0  0  0
 49 50  1  0  0  0
 50 51  1  0  0  0
 51 52  1  0  0  0
 52 53  1  0  0  0
 53 54  1  0  0  0
 54 55  1  0  0  0
 55 56  1  0  0  0
M  CHG 1  26  -1
M  END
> <minimizedAffinity>
-8.54942

> <CNNscore>
0.3807844520

> <CNNaffinity>
7.0708198547

> <CNN_VS>
2.6924581528

> <CNNaffinity_variance>
0.5641061068

$$$$
/media/chris/experiments/cd1a-new-docking/inputs/ligands/7sh4_ligand.pdb


 56 55  0  0  0  0  0  0  0  0999 V2000
  -40.3283   60.1094   65.2498 C   0  0  0  0  0  0  0  0  0  0  0  0
  -40.6537   60.3925   63.8105 C   0  0  0  0  0  0  0  0  0  0  0  0
  -39.4753   59.9645   63.0954 O   0  0  0  0  0  0  0  0  0  0  0  0
  -40.4930   60.3672   61.1457 O   0  0  0  0  0  0  0  0  0  0  0  0
  -39.5231   60.0201   61.7641 C   0  0  0  0  0  0  0  0  0  0  0  0
  -38.1823   59.7169   61.1599 C   0  0  0  0  0  0  0  0  0  0  0  0
  -38.2464   59.2141   59.7276 C   0  0  0  0  0  0  0  0  0  0  0  0
  -37.2736   58.0855   59.4583 C   0  0  0  0  0  0  0  0  0  0  0  0
  -37.2696   57.5997   58.0265 C   0  0  0  0  0  0  0  0  0  0  0  0
  -36.4246   56.3584   57.8236 C   0  0  0  0  0  0  0  0  0  0  0  0
  -36.4805   55.4042   58.9915 C   0  0  0  0  0  0  0  0  0  0  0  0
  -35.1538   55.2457   59.6859 C   0  0  0  0  0  0  0  0  0  0  0  0
  -34.0527   56.0843   59.0755 C   0  0  0  0  0  0  0  0  0  0  0  0
  -33.6536   57.2540   59.9523 C   0  0  0  0  0  0  0  0  0  0  0  0
  -33.7770   56.9839   61.4371 C   0  0  0  0  0  0  0  0  0  0  0  0
  -32.5191   57.3186   62.2307 C   0  0  0  0  0  0  0  0  0  0  0  0
  -31.9265   58.6756   61.9026 C   0  0  0  0  0  0  0  0  0  0  0  0
  -32.7067   59.8320   62.4936 C   0  0  0  0  0  0  0  0  0  0  0  0
  -31.8357   61.0151   62.8925 C   0  0  0  0  0  0  0  0  0  0  0  0
  -31.3182   61.8147   61.7100 C   0  0  0  0  0  0  0  0  0  0  0  0
  -32.8738   63.7672   62.0319 C   0  0  0  0  0  0  0  0  0  0  0  0
  -31.4402   63.3194   61.8589 C   0  0  0  0  0  0  0  0  0  0  0  0
  -38.8543   59.8773   65.4620 C   0  0  0  0  0  0  0  0  0  0  0  0
  -38.2205   61.1440   65.7485 O   0  0  0  0  0  0  0  0  0  0  0  0
  -36.8365   61.5921   65.0809 P   0  0  0  0  0  0  0  0  0  0  0  0
  -35.7641   60.7355   65.6314 O   0  0  0  0  0  0  0  0  0  0  0  0
  -37.0268   61.6390   63.6112 O   0  0  0  0  0  0  0  0  0  0  0  0
  -37.1821   60.7419   63.2764 H   0  0  0  0  0  0  0  0  0  0  0  0
  -36.5847   63.0821   65.5901 O   0  0  0  0  0  0  0  0  0  0  0  0
  -35.8147   63.9989   64.7861 C   0  0  0  0  0  0  0  0  0  0  0  0
  -34.1160   65.6415   65.1846 O   0  0  0  0  0  0  0  0  0  0  0  0
  -34.5342   64.3149   65.5193 C   0  0  0  0  0  0  0  0  0  0  0  0
  -34.0260   65.7189   64.2219 H   0  0  0  0  0  0  0  0  0  0  0  0
  -34.2608   62.8868   67.4440 O   0  0  0  0  0  0  0  0  0  0  0  0
  -34.6796   64.1763   67.0158 C   0  0  0  0  0  0  0  0  0  0  0  0
  -34.3613   62.8172   68.4062 H   0  0  0  0  0  0  0  0  0  0  0  0
  -41.1260   58.9589   65.6857 O   0  0  0  0  0  0  0  0  0  0  0  0
  -42.4106   59.6050   67.4156 O   0  0  0  0  0  0  0  0  0  0  0  0
  -42.3044   59.2236   66.2820 C   0  0  0  0  0  0  0  0  0  0  0  0
  -43.4620   59.0036   65.3582 C   0  0  0  0  0  0  0  0  0  0  0  0
  -44.7756   58.8912   66.1254 C   0  0  0  0  0  0  0  0  0  0  0  0
  -45.9935   58.6972   65.2372 C   0  0  0  0  0  0  0  0  0  0  0  0
  -47.0456   59.7886   65.3979 C   0  0  0  0  0  0  0  0  0  0  0  0
  -48.2225   59.3878   66.2677 C   0  0  0  0  0  0  0  0  0  0  0  0
  -48.9112   58.0863   65.8470 C   0  0  0  0  0  0  0  0  0  0  0  0
  -50.3814   58.2270   65.4469 C   0  0  0  0  0  0  0  0  0  0  0  0
  -50.6143   59.4127   64.5593 C   0  0  0  0  0  0  0  0  0  0  0  0
  -50.8326   59.3918   63.2587 C   0  0  0  0  0  0  0  0  0  0  0  0
  -50.8949   58.1727   62.3937 C   0  0  0  0  0  0  0  0  0  0  0  0
  -49.5452   57.8328   61.7682 C   0  0  0  0  0  0  0  0  0  0  0  0
  -49.6437   56.8932   60.5793 C   0  0  0  0  0  0  0  0  0  0  0  0
  -49.1917   57.5167   59.2701 C   0  0  0  0  0  0  0  0  0  0  0  0
  -48.5830   56.5354   58.2822 C   0  0  0  0  0  0  0  0  0  0  0  0
  -47.1731   56.9076   57.8496 C   0  0  0  0  0  0  0  0  0  0  0  0
  -46.3434   57.5668   58.9335 C   0  0  0  0  0  0  0  0  0  0  0  0
  -44.9715   57.9571   58.4592 C   0  0  0  0  0  0  0  0  0  0  0  0
 21 22  1  0  0  0
  4  5  2  0  0  0
 25 24  1  0  0  0
 25 26  2  0  0  0
 25 27  1  0  0  0
 25 29  1  0  0  0
 22 20  1  0  0  0
  3  5  1  0  0  0
  3  2  1  0  0  0
 20 19  1  0  0  0
 24 23  1  0  0  0
 19 18  1  0  0  0
 18 17  1  0  0  0
 27 28  1  0  0  0
 17 16  1  0  0  0
 29 30  1  0  0  0
 16 15  1  0  0  0
 34 35  1  0  0  0
 34 36  1  0  0  0
 15 14  1  0  0  0
 31 32  1  0  0  0
 31 33  1  0  0  0
 14 13  1  0  0  0
 37  1  1  0  0  0
 37 39  1  0  0  0
 13 12  1  0  0  0
 38 39  2  0  0  0
 12 11  1  0  0  0
 11 10  1  0  0  0
 10  9  1  0  0  0
  9  8  1  0  0  0
  8  7  1  0  0  0
  7  6  1  0  0  0
  6  5  1  0  0  0
  2  1  1  0  0  0
  1 23  1  0  0  0
 30 32  1  0  0  0
 32 35  1  0  0  0
 39 40  1  0  0  0
 40 41  1  0  0  0
 41 42  1  0  0  0
 42 43  1  0  0  0
 43 44  1  0  0  0
 44 45  1  0  0  0
 45 46  1  0  0  0
 46 47  1  0  0  0
 47 48  2  0  0  0
 48 49  1  0  0  0
 49 50  1  0  0  0
 50 51  1  0  0  0
 51 52  1  0  0  0
 52 53  1  0  0  0
 53 54  1  0  0  0
 54 55  1  0  0  0
 55 56  1  0  0  0
M  CHG 1  26  -1
M  END
> <minimizedAffinity>
-8.55102

> <CNNscore>
0.3768311143

> <CNNaffinity>
7.0333938599

> <CNN_VS>
2.6504015923

> <CNNaffinity_variance>
0.5100973845

$$$$
/media/chris/experiments/cd1a-new-docking/inputs/ligands/7sh4_ligand.pdb


 56 55  0  0  0  0  0  0  0  0999 V2000
  -37.3895   60.4716   65.2149 C   0  0  0  0  0  0  0  0  0  0  0  0
  -38.3775   60.3721   66.3426 C   0  0  0  0  0  0  0  0  0  0  0  0
  -39.3643   59.4357   65.8606 O   0  0  0  0  0  0  0  0  0  0  0  0
  -40.9761   60.9802   65.9869 O   0  0  0  0  0  0  0  0  0  0  0  0
  -40.6372   59.8317   65.8882 C   0  0  0  0  0  0  0  0  0  0  0  0
  -41.5696   58.6780   65.6551 C   0  0  0  0  0  0  0  0  0  0  0  0
  -42.6731   58.5526   66.6919 C   0  0  0  0  0  0  0  0  0  0  0  0
  -44.0278   58.9698   66.1598 C   0  0  0  0  0  0  0  0  0  0  0  0
  -44.9419   57.8148   65.8191 C   0  0  0  0  0  0  0  0  0  0  0  0
  -45.7925   58.0733   64.5920 C   0  0  0  0  0  0  0  0  0  0  0  0
  -47.2737   57.9764   64.8648 C   0  0  0  0  0  0  0  0  0  0  0  0
  -47.8808   59.2873   65.2897 C   0  0  0  0  0  0  0  0  0  0  0  0
  -49.2522   59.1404   65.9110 C   0  0  0  0  0  0  0  0  0  0  0  0
  -50.2205   58.3883   65.0207 C   0  0  0  0  0  0  0  0  0  0  0  0
  -50.9003   59.2516   63.9788 C   0  0  0  0  0  0  0  0  0  0  0  0
  -51.0480   58.5760   62.6201 C   0  0  0  0  0  0  0  0  0  0  0  0
  -49.7449   58.0520   62.0477 C   0  0  0  0  0  0  0  0  0  0  0  0
  -49.5284   58.4325   60.5973 C   0  0  0  0  0  0  0  0  0  0  0  0
  -49.9695   57.3587   59.6125 C   0  0  0  0  0  0  0  0  0  0  0  0
  -48.9302   57.0433   58.5515 C   0  0  0  0  0  0  0  0  0  0  0  0
  -46.4742   57.5111   58.8436 C   0  0  0  0  0  0  0  0  0  0  0  0
  -47.6052   56.5388   59.0910 C   0  0  0  0  0  0  0  0  0  0  0  0
  -36.0370   60.9406   65.6869 C   0  0  0  0  0  0  0  0  0  0  0  0
  -36.1189   62.3469   66.0094 O   0  0  0  0  0  0  0  0  0  0  0  0
  -34.8330   63.2320   66.3628 P   0  0  0  0  0  0  0  0  0  0  0  0
  -35.2368   64.6545   66.3430 O   0  0  0  0  0  0  0  0  0  0  0  0
  -34.2193   62.6828   67.5957 O   0  0  0  0  0  0  0  0  0  0  0  0
  -34.8223   62.8156   68.3439 H   0  0  0  0  0  0  0  0  0  0  0  0
  -33.8131   62.9944   65.1601 O   0  0  0  0  0  0  0  0  0  0  0  0
  -33.7137   63.9631   64.0964 C   0  0  0  0  0  0  0  0  0  0  0  0
  -34.0190   61.8816   62.9489 O   0  0  0  0  0  0  0  0  0  0  0  0
  -34.1369   63.3006   62.8084 C   0  0  0  0  0  0  0  0  0  0  0  0
  -33.1112   61.6566   63.2060 H   0  0  0  0  0  0  0  0  0  0  0  0
  -36.3380   63.9449   63.5558 O   0  0  0  0  0  0  0  0  0  0  0  0
  -35.5454   63.6693   62.4081 C   0  0  0  0  0  0  0  0  0  0  0  0
  -37.2375   64.1794   63.2788 H   0  0  0  0  0  0  0  0  0  0  0  0
  -37.9451   61.3629   64.1918 O   0  0  0  0  0  0  0  0  0  0  0  0
  -37.0079   61.0845   62.1658 O   0  0  0  0  0  0  0  0  0  0  0  0
  -37.9272   60.9189   62.9203 C   0  0  0  0  0  0  0  0  0  0  0  0
  -39.1805   60.1796   62.5670 C   0  0  0  0  0  0  0  0  0  0  0  0
  -39.0409   59.4471   61.2363 C   0  0  0  0  0  0  0  0  0  0  0  0
  -38.5248   58.0235   61.3676 C   0  0  0  0  0  0  0  0  0  0  0  0
  -37.4610   57.6631   60.3370 C   0  0  0  0  0  0  0  0  0  0  0  0
  -37.4547   58.5639   59.1160 C   0  0  0  0  0  0  0  0  0  0  0  0
  -37.1811   57.8419   57.7935 C   0  0  0  0  0  0  0  0  0  0  0  0
  -36.3932   56.5358   57.9150 C   0  0  0  0  0  0  0  0  0  0  0  0
  -34.9125   56.7607   57.8441 C   0  0  0  0  0  0  0  0  0  0  0  0
  -34.0195   56.4173   58.7519 C   0  0  0  0  0  0  0  0  0  0  0  0
  -34.3002   55.7261   60.0488 C   0  0  0  0  0  0  0  0  0  0  0  0
  -33.4686   56.2862   61.1991 C   0  0  0  0  0  0  0  0  0  0  0  0
  -33.4956   57.8019   61.2891 C   0  0  0  0  0  0  0  0  0  0  0  0
  -32.8222   58.3510   62.5350 C   0  0  0  0  0  0  0  0  0  0  0  0
  -33.6368   58.2010   63.8092 C   0  0  0  0  0  0  0  0  0  0  0  0
  -35.1387   58.1843   63.5693 C   0  0  0  0  0  0  0  0  0  0  0  0
  -35.8430   56.9599   64.1195 C   0  0  0  0  0  0  0  0  0  0  0  0
  -37.2531   57.2465   64.5542 C   0  0  0  0  0  0  0  0  0  0  0  0
 21 22  1  0  0  0
  4  5  2  0  0  0
 25 24  1  0  0  0
 25 26  2  0  0  0
 25 27  1  0  0  0
 25 29  1  0  0  0
 22 20  1  0  0  0
  3  5  1  0  0  0
  3  2  1  0  0  0
 20 19  1  0  0  0
 24 23  1  0  0  0
 19 18  1  0  0  0
 18 17  1  0  0  0
 27 28  1  0  0  0
 17 16  1  0  0  0
 29 30  1  0  0  0
 16 15  1  0  0  0
 34 35  1  0  0  0
 34 36  1  0  0  0
 15 14  1  0  0  0
 31 32  1  0  0  0
 31 33  1  0  0  0
 14 13  1  0  0  0
 37  1  1  0  0  0
 37 39  1  0  0  0
 13 12  1  0  0  0
 38 39  2  0  0  0
 12 11  1  0  0  0
 11 10  1  0  0  0
 10  9  1  0  0  0
  9  8  1  0  0  0
  8  7  1  0  0  0
  7  6  1  0  0  0
  6  5  1  0  0  0
  2  1  1  0  0  0
  1 23  1  0  0  0
 30 32  1  0  0  0
 32 35  1  0  0  0
 39 40  1  0  0  0
 40 41  1  0  0  0
 41 42  1  0  0  0
 42 43  1  0  0  0
 43 44  1  0  0  0
 44 45  1  0  0  0
 45 46  1  0  0  0
 46 47  1  0  0  0
 47 48  2  0  0  0
 48 49  1  0  0  0
 49 50  1  0  0  0
 50 51  1  0  0  0
 51 52  1  0  0  0
 52 53  1  0  0  0
 53 54  1  0  0  0
 54 55  1  0  0  0
 55 56  1  0  0  0
M  CHG 1  26  -1
M  END
> <minimizedAffinity>
-8.77304

> <CNNscore>
0.3733025789

> <CNNaffinity>
7.2666969299

> <CNN_VS>
2.7126767635

> <CNNaffinity_variance>
1.1554239988

$$$$
