/media/chris/experiments/cd1a-new-docking/inputs/ligands/7sh4_ligand.pdb


 56 55  0  0  0  0  0  0  0  0999 V2000
  -39.0903   58.1572   64.3025 C   0  0  0  0  0  0  0  0  0  0  0  0
  -39.7178   58.8825   65.4591 C   0  0  0  0  0  0  0  0  0  0  0  0
  -40.9971   58.2351   65.6246 O   0  0  0  0  0  0  0  0  0  0  0  0
  -42.0035   59.6192   67.0636 O   0  0  0  0  0  0  0  0  0  0  0  0
  -42.0111   58.9971   66.0358 C   0  0  0  0  0  0  0  0  0  0  0  0
  -43.0917   59.0699   64.9956 C   0  0  0  0  0  0  0  0  0  0  0  0
  -44.3720   58.3475   65.3793 C   0  0  0  0  0  0  0  0  0  0  0  0
  -45.2985   59.2020   66.2183 C   0  0  0  0  0  0  0  0  0  0  0  0
  -46.4299   58.4366   66.8662 C   0  0  0  0  0  0  0  0  0  0  0  0
  -47.5865   58.1756   65.9227 C   0  0  0  0  0  0  0  0  0  0  0  0
  -48.7560   59.1031   66.1456 C   0  0  0  0  0  0  0  0  0  0  0  0
  -49.3859   59.5750   64.8618 C   0  0  0  0  0  0  0  0  0  0  0  0
  -50.1684   58.4969   64.1453 C   0  0  0  0  0  0  0  0  0  0  0  0
  -51.0571   59.0492   63.0493 C   0  0  0  0  0  0  0  0  0  0  0  0
  -51.1772   58.1482   61.8382 C   0  0  0  0  0  0  0  0  0  0  0  0
  -49.9106   57.3575   61.5306 C   0  0  0  0  0  0  0  0  0  0  0  0
  -49.7270   57.0356   60.0600 C   0  0  0  0  0  0  0  0  0  0  0  0
  -48.8693   55.8113   59.8141 C   0  0  0  0  0  0  0  0  0  0  0  0
  -47.7921   56.0226   58.7593 C   0  0  0  0  0  0  0  0  0  0  0  0
  -47.2011   57.4212   58.7659 C   0  0  0  0  0  0  0  0  0  0  0  0
  -44.8681   58.1596   58.1763 C   0  0  0  0  0  0  0  0  0  0  0  0
  -46.2085   57.6961   57.6524 C   0  0  0  0  0  0  0  0  0  0  0  0
  -37.6356   58.5134   64.1328 C   0  0  0  0  0  0  0  0  0  0  0  0
  -37.3256   59.6278   64.9991 O   0  0  0  0  0  0  0  0  0  0  0  0
  -36.5125   60.9135   64.5010 P   0  0  0  0  0  0  0  0  0  0  0  0
  -35.7732   60.5412   63.2756 O   0  0  0  0  0  0  0  0  0  0  0  0
  -37.4509   62.0602   64.4461 O   0  0  0  0  0  0  0  0  0  0  0  0
  -38.1121   61.9042   63.7537 H   0  0  0  0  0  0  0  0  0  0  0  0
  -35.4449   61.2085   65.6481 O   0  0  0  0  0  0  0  0  0  0  0  0
  -34.4595   62.2458   65.4671 C   0  0  0  0  0  0  0  0  0  0  0  0
  -34.5774   62.8484   67.7835 O   0  0  0  0  0  0  0  0  0  0  0  0
  -34.7449   63.3507   66.4544 C   0  0  0  0  0  0  0  0  0  0  0  0
  -35.1481   62.0745   67.9110 H   0  0  0  0  0  0  0  0  0  0  0  0
  -34.2346   65.2449   65.0507 O   0  0  0  0  0  0  0  0  0  0  0  0
  -33.8628   64.5569   66.2382 C   0  0  0  0  0  0  0  0  0  0  0  0
  -33.6577   66.0152   64.9291 H   0  0  0  0  0  0  0  0  0  0  0  0
  -39.8656   58.4565   63.0945 O   0  0  0  0  0  0  0  0  0  0  0  0
  -39.9989   60.6841   63.3774 O   0  0  0  0  0  0  0  0  0  0  0  0
  -39.8527   59.7317   62.6611 C   0  0  0  0  0  0  0  0  0  0  0  0
  -39.6161   59.8197   61.1851 C   0  0  0  0  0  0  0  0  0  0  0  0
  -38.1804   60.2301   60.8728 C   0  0  0  0  0  0  0  0  0  0  0  0
  -37.4922   59.3373   59.8535 C   0  0  0  0  0  0  0  0  0  0  0  0
  -37.7585   57.8514   60.0659 C   0  0  0  0  0  0  0  0  0  0  0  0
  -36.9205   56.9425   59.1860 C   0  0  0  0  0  0  0  0  0  0  0  0
  -36.4782   55.6386   59.8562 C   0  0  0  0  0  0  0  0  0  0  0  0
  -34.9691   55.3851   59.8555 C   0  0  0  0  0  0  0  0  0  0  0  0
  -34.1878   56.6270   59.5470 C   0  0  0  0  0  0  0  0  0  0  0  0
  -33.3050   57.2166   60.3297 C   0  0  0  0  0  0  0  0  0  0  0  0
  -32.8960   56.7649   61.6961 C   0  0  0  0  0  0  0  0  0  0  0  0
  -32.9349   57.8963   62.7193 C   0  0  0  0  0  0  0  0  0  0  0  0
  -32.6514   59.2651   62.1256 C   0  0  0  0  0  0  0  0  0  0  0  0
  -31.1842   59.6558   62.1669 C   0  0  0  0  0  0  0  0  0  0  0  0
  -30.9310   61.1185   62.4926 C   0  0  0  0  0  0  0  0  0  0  0  0
  -32.0448   62.0440   62.0275 C   0  0  0  0  0  0  0  0  0  0  0  0
  -32.3414   63.1870   62.9780 C   0  0  0  0  0  0  0  0  0  0  0  0
  -31.1123   63.9692   63.3484 C   0  0  0  0  0  0  0  0  0  0  0  0
 21 22  1  0  0  0
  4  5  2  0  0  0
 25 24  1  0  0  0
 25 26  2  0  0  0
 25 27  1  0  0  0
 25 29  1  0  0  0
 22 20  1  0  0  0
  3  5  1  0  0  0
  3  2  1  0  0  0
 20 19  1  0  0  0
 24 23  1  0  0  0
 19 18  1  0  0  0
 18 17  1  0  0  0
 27 28  1  0  0  0
 17 16  1  0  0  0
 29 30  1  0  0  0
 16 15  1  0  0  0
 34 35  1  0  0  0
 34 36  1  0  0  0
 15 14  1  0  0  0
 31 32  1  0  0  0
 31 33  1  0  0  0
 14 13  1  0  0  0
 37  1  1  0  0  0
 37 39  1  0  0  0
 13 12  1  0  0  0
 38 39  2  0  0  0
 12 11  1  0  0  0
 11 10  1  0  0  0
 10  9  1  0  0  0
  9  8  1  0  0  0
  8  7  1  0  0  0
  7  6  1  0  0  0
  6  5  1  0  0  0
  2  1  1  0  0  0
  1 23  1  0  0  0
 30 32  1  0  0  0
 32 35  1  0  0  0
 39 40  1  0  0  0
 40 41  1  0  0  0
 41 42  1  0  0  0
 42 43  1  0  0  0
 43 44  1  0  0  0
 44 45  1  0  0  0
 45 46  1  0  0  0
 46 47  1  0  0  0
 47 48  2  0  0  0
 48 49  1  0  0  0
 49 50  1  0  0  0
 50 51  1  0  0  0
 51 52  1  0  0  0
 52 53  1  0  0  0
 53 54  1  0  0  0
 54 55  1  0  0  0
 55 56  1  0  0  0
M  CHG 1  26  -1
M  END
> <minimizedAffinity>
-8.08569

> <CNNscore>
0.6569520831

> <CNNaffinity>
7.4588723183

> <CNN_VS>
4.9001216888

> <CNNaffinity_variance>
0.3477405906

$$$$
/media/chris/experiments/cd1a-new-docking/inputs/ligands/7sh4_ligand.pdb


 56 55  0  0  0  0  0  0  0  0999 V2000
  -37.9592   59.9129   61.1046 C   0  0  0  0  0  0  0  0  0  0  0  0
  -37.0219   58.7475   60.9598 C   0  0  0  0  0  0  0  0  0  0  0  0
  -37.6521   57.9142   59.9639 O   0  0  0  0  0  0  0  0  0  0  0  0
  -36.5918   57.2183   58.1225 O   0  0  0  0  0  0  0  0  0  0  0  0
  -36.8623   57.0816   59.2852 C   0  0  0  0  0  0  0  0  0  0  0  0
  -36.2666   56.0410   60.1891 C   0  0  0  0  0  0  0  0  0  0  0  0
  -34.7617   55.8857   60.0494 C   0  0  0  0  0  0  0  0  0  0  0  0
  -33.9952   57.0549   60.6309 C   0  0  0  0  0  0  0  0  0  0  0  0
  -32.9739   56.6675   61.6761 C   0  0  0  0  0  0  0  0  0  0  0  0
  -32.8993   57.6514   62.8261 C   0  0  0  0  0  0  0  0  0  0  0  0
  -34.1722   58.4394   63.0172 C   0  0  0  0  0  0  0  0  0  0  0  0
  -34.9426   58.0248   64.2427 C   0  0  0  0  0  0  0  0  0  0  0  0
  -36.1670   57.1936   63.9295 C   0  0  0  0  0  0  0  0  0  0  0  0
  -37.3410   57.5182   64.8309 C   0  0  0  0  0  0  0  0  0  0  0  0
  -38.6573   57.6752   64.0988 C   0  0  0  0  0  0  0  0  0  0  0  0
  -39.8353   57.9965   65.0116 C   0  0  0  0  0  0  0  0  0  0  0  0
  -40.0861   59.4811   65.1944 C   0  0  0  0  0  0  0  0  0  0  0  0
  -41.3365   59.7865   65.9935 C   0  0  0  0  0  0  0  0  0  0  0  0
  -42.4116   58.7149   65.8779 C   0  0  0  0  0  0  0  0  0  0  0  0
  -43.6446   59.1707   65.1182 C   0  0  0  0  0  0  0  0  0  0  0  0
  -44.4972   56.9423   65.9200 C   0  0  0  0  0  0  0  0  0  0  0  0
  -44.8420   58.2474   65.2390 C   0  0  0  0  0  0  0  0  0  0  0  0
  -37.7303   60.6674   62.3892 C   0  0  0  0  0  0  0  0  0  0  0  0
  -36.8333   61.7698   62.1276 O   0  0  0  0  0  0  0  0  0  0  0  0
  -36.0579   62.5515   63.2893 P   0  0  0  0  0  0  0  0  0  0  0  0
  -34.6783   62.0231   63.3549 O   0  0  0  0  0  0  0  0  0  0  0  0
  -36.2542   64.0059   63.0776 O   0  0  0  0  0  0  0  0  0  0  0  0
  -35.8089   64.2767   62.2596 H   0  0  0  0  0  0  0  0  0  0  0  0
  -36.8030   62.1480   64.6401 O   0  0  0  0  0  0  0  0  0  0  0  0
  -36.0932   62.1867   65.8950 C   0  0  0  0  0  0  0  0  0  0  0  0
  -36.9842   64.2144   66.8100 O   0  0  0  0  0  0  0  0  0  0  0  0
  -35.8109   63.6288   66.2376 C   0  0  0  0  0  0  0  0  0  0  0  0
  -37.7283   64.1133   66.1961 H   0  0  0  0  0  0  0  0  0  0  0  0
  -33.9707   62.5348   67.3489 O   0  0  0  0  0  0  0  0  0  0  0  0
  -34.6413   63.7772   67.1809 C   0  0  0  0  0  0  0  0  0  0  0  0
  -33.2238   62.6501   67.9571 H   0  0  0  0  0  0  0  0  0  0  0  0
  -39.3345   59.4140   61.0072 O   0  0  0  0  0  0  0  0  0  0  0  0
  -40.8522   61.0477   61.3028 O   0  0  0  0  0  0  0  0  0  0  0  0
  -40.2709   60.2836   60.5818 C   0  0  0  0  0  0  0  0  0  0  0  0
  -40.4860   60.1964   59.1025 C   0  0  0  0  0  0  0  0  0  0  0  0
  -41.8078   59.5116   58.7695 C   0  0  0  0  0  0  0  0  0  0  0  0
  -41.9565   59.1390   57.3036 C   0  0  0  0  0  0  0  0  0  0  0  0
  -43.3579   58.6668   56.9336 C   0  0  0  0  0  0  0  0  0  0  0  0
  -44.2171   58.2901   58.1263 C   0  0  0  0  0  0  0  0  0  0  0  0
  -45.6787   57.9845   57.7869 C   0  0  0  0  0  0  0  0  0  0  0  0
  -46.5558   57.5922   58.9779 C   0  0  0  0  0  0  0  0  0  0  0  0
  -47.6942   56.7045   58.5730 C   0  0  0  0  0  0  0  0  0  0  0  0
  -48.9552   56.8242   58.9403 C   0  0  0  0  0  0  0  0  0  0  0  0
  -49.5156   57.8784   59.8420 C   0  0  0  0  0  0  0  0  0  0  0  0
  -50.8017   57.4318   60.5311 C   0  0  0  0  0  0  0  0  0  0  0  0
  -50.9339   57.9325   61.9587 C   0  0  0  0  0  0  0  0  0  0  0  0
  -49.9443   59.0284   62.3148 C   0  0  0  0  0  0  0  0  0  0  0  0
  -50.1523   59.6423   63.6893 C   0  0  0  0  0  0  0  0  0  0  0  0
  -49.8694   58.6790   64.8319 C   0  0  0  0  0  0  0  0  0  0  0  0
  -48.5648   57.9191   64.6964 C   0  0  0  0  0  0  0  0  0  0  0  0
  -48.2505   57.0829   65.9053 C   0  0  0  0  0  0  0  0  0  0  0  0
 21 22  1  0  0  0
  4  5  2  0  0  0
 25 24  1  0  0  0
 25 26  2  0  0  0
 25 27  1  0  0  0
 25 29  1  0  0  0
 22 20  1  0  0  0
  3  5  1  0  0  0
  3  2  1  0  0  0
 20 19  1  0  0  0
 24 23  1  0  0  0
 19 18  1  0  0  0
 18 17  1  0  0  0
 27 28  1  0  0  0
 17 16  1  0  0  0
 29 30  1  0  0  0
 16 15  1  0  0  0
 34 35  1  0  0  0
 34 36  1  0  0  0
 15 14  1  0  0  0
 31 32  1  0  0  0
 31 33  1  0  0  0
 14 13  1  0  0  0
 37  1  1  0  0  0
 37 39  1  0  0  0
 13 12  1  0  0  0
 38 39  2  0  0  0
 12 11  1  0  0  0
 11 10  1  0  0  0
 10  9  1  0  0  0
  9  8  1  0  0  0
  8  7  1  0  0  0
  7  6  1  0  0  0
  6  5  1  0  0  0
  2  1  1  0  0  0
  1 23  1  0  0  0
 30 32  1  0  0  0
 32 35  1  0  0  0
 39 40  1  0  0  0
 40 41  1  0  0  0
 41 42  1  0  0  0
 42 43  1  0  0  0
 43 44  1  0  0  0
 44 45  1  0  0  0
 45 46  1  0  0  0
 46 47  1  0  0  0
 47 48  2  0  0  0
 48 49  1  0  0  0
 49 50  1  0  0  0
 50 51  1  0  0  0
 51 52  1  0  0  0
 52 53  1  0  0  0
 53 54  1  0  0  0
 54 55  1  0  0  0
 55 56  1  0  0  0
M  CHG 1  26  -1
M  END
> <minimizedAffinity>
-8.44640

> <CNNscore>
0.6422143579

> <CNNaffinity>
7.8764944077

> <CNN_VS>
5.0583977699

> <CNNaffinity_variance>
0.7752249837

$$$$
/media/chris/experiments/cd1a-new-docking/inputs/ligands/7sh4_ligand.pdb


 56 55  0  0  0  0  0  0  0  0999 V2000
  -37.7081   60.5842   65.1430 C   0  0  0  0  0  0  0  0  0  0  0  0
  -36.9813   59.2699   65.1884 C   0  0  0  0  0  0  0  0  0  0  0  0
  -35.6411   59.5971   64.7643 O   0  0  0  0  0  0  0  0  0  0  0  0
  -35.7315   59.3550   62.5434 O   0  0  0  0  0  0  0  0  0  0  0  0
  -35.2331   59.0851   63.6027 C   0  0  0  0  0  0  0  0  0  0  0  0
  -34.0060   58.2388   63.7840 C   0  0  0  0  0  0  0  0  0  0  0  0
  -32.7891   58.7396   63.0246 C   0  0  0  0  0  0  0  0  0  0  0  0
  -32.6169   58.0627   61.6812 C   0  0  0  0  0  0  0  0  0  0  0  0
  -32.8265   56.5657   61.7107 C   0  0  0  0  0  0  0  0  0  0  0  0
  -33.7308   56.0712   60.5999 C   0  0  0  0  0  0  0  0  0  0  0  0
  -35.1949   56.3154   60.8728 C   0  0  0  0  0  0  0  0  0  0  0  0
  -36.0962   55.7218   59.8227 C   0  0  0  0  0  0  0  0  0  0  0  0
  -35.6206   55.9766   58.4095 C   0  0  0  0  0  0  0  0  0  0  0  0
  -36.5712   56.8549   57.6215 C   0  0  0  0  0  0  0  0  0  0  0  0
  -36.7264   58.2540   58.1798 C   0  0  0  0  0  0  0  0  0  0  0  0
  -38.1668   58.6294   58.5094 C   0  0  0  0  0  0  0  0  0  0  0  0
  -38.2954   59.7130   59.5626 C   0  0  0  0  0  0  0  0  0  0  0  0
  -39.7194   60.1883   59.7666 C   0  0  0  0  0  0  0  0  0  0  0  0
  -40.2332   59.9853   61.1851 C   0  0  0  0  0  0  0  0  0  0  0  0
  -39.1449   59.6218   62.1795 C   0  0  0  0  0  0  0  0  0  0  0  0
  -38.4106   57.2163   62.0798 C   0  0  0  0  0  0  0  0  0  0  0  0
  -39.2749   58.2370   62.7848 C   0  0  0  0  0  0  0  0  0  0  0  0
  -36.7911   61.7481   65.4187 C   0  0  0  0  0  0  0  0  0  0  0  0
  -36.8994   62.6934   64.3310 O   0  0  0  0  0  0  0  0  0  0  0  0
  -35.6235   63.3571   63.6284 P   0  0  0  0  0  0  0  0  0  0  0  0
  -34.5441   62.3469   63.5910 O   0  0  0  0  0  0  0  0  0  0  0  0
  -36.0665   63.9736   62.3547 O   0  0  0  0  0  0  0  0  0  0  0  0
  -36.3513   63.2786   61.7409 H   0  0  0  0  0  0  0  0  0  0  0  0
  -35.1648   64.5297   64.6068 O   0  0  0  0  0  0  0  0  0  0  0  0
  -33.8014   64.5885   65.0732 C   0  0  0  0  0  0  0  0  0  0  0  0
  -33.9610   64.6197   67.4641 O   0  0  0  0  0  0  0  0  0  0  0  0
  -33.7595   65.4464   66.3139 C   0  0  0  0  0  0  0  0  0  0  0  0
  -34.7958   64.1345   67.3714 H   0  0  0  0  0  0  0  0  0  0  0  0
  -31.9618   66.1300   67.7697 O   0  0  0  0  0  0  0  0  0  0  0  0
  -32.4630   66.2096   66.4415 C   0  0  0  0  0  0  0  0  0  0  0  0
  -31.1301   66.6255   67.8317 H   0  0  0  0  0  0  0  0  0  0  0  0
  -38.8183   60.5310   66.0993 O   0  0  0  0  0  0  0  0  0  0  0  0
  -40.5902   61.1998   64.8857 O   0  0  0  0  0  0  0  0  0  0  0  0
  -40.0567   60.3866   65.5897 C   0  0  0  0  0  0  0  0  0  0  0  0
  -40.6795   59.0853   65.9905 C   0  0  0  0  0  0  0  0  0  0  0  0
  -42.0243   58.8739   65.3020 C   0  0  0  0  0  0  0  0  0  0  0  0
  -43.2186   58.9855   66.2352 C   0  0  0  0  0  0  0  0  0  0  0  0
  -44.4294   58.1818   65.7748 C   0  0  0  0  0  0  0  0  0  0  0  0
  -45.6260   59.0332   65.3928 C   0  0  0  0  0  0  0  0  0  0  0  0
  -46.6394   59.2495   66.5202 C   0  0  0  0  0  0  0  0  0  0  0  0
  -47.9551   59.9060   66.0965 C   0  0  0  0  0  0  0  0  0  0  0  0
  -48.0199   60.1379   64.6166 C   0  0  0  0  0  0  0  0  0  0  0  0
  -49.0475   59.8965   63.8260 C   0  0  0  0  0  0  0  0  0  0  0  0
  -50.3713   59.3390   64.2445 C   0  0  0  0  0  0  0  0  0  0  0  0
  -51.1775   58.8047   63.0643 C   0  0  0  0  0  0  0  0  0  0  0  0
  -50.3534   58.6023   61.8049 C   0  0  0  0  0  0  0  0  0  0  0  0
  -50.9120   57.5393   60.8748 C   0  0  0  0  0  0  0  0  0  0  0  0
  -49.9709   57.1240   59.7560 C   0  0  0  0  0  0  0  0  0  0  0  0
  -48.5047   57.3746   60.0736 C   0  0  0  0  0  0  0  0  0  0  0  0
  -47.5585   57.0626   58.9312 C   0  0  0  0  0  0  0  0  0  0  0  0
  -47.4654   55.5911   58.6385 C   0  0  0  0  0  0  0  0  0  0  0  0
 21 22  1  0  0  0
  4  5  2  0  0  0
 25 24  1  0  0  0
 25 26  2  0  0  0
 25 27  1  0  0  0
 25 29  1  0  0  0
 22 20  1  0  0  0
  3  5  1  0  0  0
  3  2  1  0  0  0
 20 19  1  0  0  0
 24 23  1  0  0  0
 19 18  1  0  0  0
 18 17  1  0  0  0
 27 28  1  0  0  0
 17 16  1  0  0  0
 29 30  1  0  0  0
 16 15  1  0  0  0
 34 35  1  0  0  0
 34 36  1  0  0  0
 15 14  1  0  0  0
 31 32  1  0  0  0
 31 33  1  0  0  0
 14 13  1  0  0  0
 37  1  1  0  0  0
 37 39  1  0  0  0
 13 12  1  0  0  0
 38 39  2  0  0  0
 12 11  1  0  0  0
 11 10  1  0  0  0
 10  9  1  0  0  0
  9  8  1  0  0  0
  8  7  1  0  0  0
  7  6  1  0  0  0
  6  5  1  0  0  0
  2  1  1  0  0  0
  1 23  1  0  0  0
 30 32  1  0  0  0
 32 35  1  0  0  0
 39 40  1  0  0  0
 40 41  1  0  0  0
 41 42  1  0  0  0
 42 43  1  0  0  0
 43 44  1  0  0  0
 44 45  1  0  0  0
 45 46  1  0  0  0
 46 47  1  0  0  0
 47 48  2  0  0  0
 48 49  1  0  0  0
 49 50  1  0  0  0
 50 51  1  0  0  0
 51 52  1  0  0  0
 52 53  1  0  0  0
 53 54  1  0  0  0
 54 55  1  0  0  0
 55 56  1  0  0  0
M  CHG 1  26  -1
M  END
> <minimizedAffinity>
-8.61732

> <CNNscore>
0.5890926123

> <CNNaffinity>
7.5655846596

> <CNN_VS>
4.4568300247

> <CNNaffinity_variance>
0.5058958530

$$$$
/media/chris/experiments/cd1a-new-docking/inputs/ligands/7sh4_ligand.pdb


 56 55  0  0  0  0  0  0  0  0999 V2000
  -38.8864   60.1513   65.3695 C   0  0  0  0  0  0  0  0  0  0  0  0
  -38.9883   58.6575   65.2439 C   0  0  0  0  0  0  0  0  0  0  0  0
  -37.6963   58.2607   64.7377 O   0  0  0  0  0  0  0  0  0  0  0  0
  -38.6190   57.1466   63.0328 O   0  0  0  0  0  0  0  0  0  0  0  0
  -37.6695   57.6843   63.5356 C   0  0  0  0  0  0  0  0  0  0  0  0
  -36.3491   57.9075   62.8562 C   0  0  0  0  0  0  0  0  0  0  0  0
  -35.7427   59.2767   63.1129 C   0  0  0  0  0  0  0  0  0  0  0  0
  -34.3942   59.2017   63.7974 C   0  0  0  0  0  0  0  0  0  0  0  0
  -33.2665   59.8357   63.0150 C   0  0  0  0  0  0  0  0  0  0  0  0
  -32.6228   58.8852   62.0260 C   0  0  0  0  0  0  0  0  0  0  0  0
  -32.4548   57.4871   62.5689 C   0  0  0  0  0  0  0  0  0  0  0  0
  -33.0297   56.4309   61.6626 C   0  0  0  0  0  0  0  0  0  0  0  0
  -33.7852   56.9993   60.4819 C   0  0  0  0  0  0  0  0  0  0  0  0
  -34.0270   55.9736   59.3930 C   0  0  0  0  0  0  0  0  0  0  0  0
  -35.2179   55.0731   59.6457 C   0  0  0  0  0  0  0  0  0  0  0  0
  -36.5395   55.6442   59.1442 C   0  0  0  0  0  0  0  0  0  0  0  0
  -36.4099   56.4883   57.8909 C   0  0  0  0  0  0  0  0  0  0  0  0
  -37.0264   57.8656   58.0262 C   0  0  0  0  0  0  0  0  0  0  0  0
  -37.4110   58.2244   59.4547 C   0  0  0  0  0  0  0  0  0  0  0  0
  -38.0468   59.5969   59.5864 C   0  0  0  0  0  0  0  0  0  0  0  0
  -40.4412   60.3295   59.8429 C   0  0  0  0  0  0  0  0  0  0  0  0
  -39.2591   59.6502   60.4965 C   0  0  0  0  0  0  0  0  0  0  0  0
  -37.6205   60.5756   66.0689 C   0  0  0  0  0  0  0  0  0  0  0  0
  -37.2842   61.9168   65.6489 O   0  0  0  0  0  0  0  0  0  0  0  0
  -36.2684   62.8507   66.4601 P   0  0  0  0  0  0  0  0  0  0  0  0
  -36.7560   64.2439   66.3703 O   0  0  0  0  0  0  0  0  0  0  0  0
  -36.0628   62.2530   67.8014 O   0  0  0  0  0  0  0  0  0  0  0  0
  -36.8909   62.2954   68.3047 H   0  0  0  0  0  0  0  0  0  0  0  0
  -34.8877   62.7616   65.6672 O   0  0  0  0  0  0  0  0  0  0  0  0
  -33.6558   63.1308   66.3198 C   0  0  0  0  0  0  0  0  0  0  0  0
  -31.7080   63.4209   64.9542 O   0  0  0  0  0  0  0  0  0  0  0  0
  -32.8989   64.0686   65.4118 C   0  0  0  0  0  0  0  0  0  0  0  0
  -31.1833   63.1324   65.7173 H   0  0  0  0  0  0  0  0  0  0  0  0
  -34.6576   65.5247   64.6338 O   0  0  0  0  0  0  0  0  0  0  0  0
  -33.7287   64.5246   64.2356 C   0  0  0  0  0  0  0  0  0  0  0  0
  -35.1805   65.8044   63.8662 H   0  0  0  0  0  0  0  0  0  0  0  0
  -40.0802   60.6384   66.0676 O   0  0  0  0  0  0  0  0  0  0  0  0
  -41.6017   60.5486   64.4133 O   0  0  0  0  0  0  0  0  0  0  0  0
  -41.2742   60.3032   65.5421 C   0  0  0  0  0  0  0  0  0  0  0  0
  -42.1349   59.5733   66.5262 C   0  0  0  0  0  0  0  0  0  0  0  0
  -42.8079   58.3617   65.8891 C   0  0  0  0  0  0  0  0  0  0  0  0
  -44.1621   58.6642   65.2690 C   0  0  0  0  0  0  0  0  0  0  0  0
  -45.0882   57.4549   65.2067 C   0  0  0  0  0  0  0  0  0  0  0  0
  -46.5591   57.8095   65.0922 C   0  0  0  0  0  0  0  0  0  0  0  0
  -46.8539   59.3122   65.0960 C   0  0  0  0  0  0  0  0  0  0  0  0
  -48.3379   59.6850   65.0742 C   0  0  0  0  0  0  0  0  0  0  0  0
  -48.7314   60.3629   63.7961 C   0  0  0  0  0  0  0  0  0  0  0  0
  -49.6307   59.9439   62.9271 C   0  0  0  0  0  0  0  0  0  0  0  0
  -50.4515   58.6979   63.0376 C   0  0  0  0  0  0  0  0  0  0  0  0
  -50.4930   57.9103   61.7314 C   0  0  0  0  0  0  0  0  0  0  0  0
  -49.6697   58.5331   60.6176 C   0  0  0  0  0  0  0  0  0  0  0  0
  -49.1935   57.5327   59.5786 C   0  0  0  0  0  0  0  0  0  0  0  0
  -47.6853   57.3541   59.5213 C   0  0  0  0  0  0  0  0  0  0  0  0
  -47.1061   57.5404   58.1272 C   0  0  0  0  0  0  0  0  0  0  0  0
  -47.7889   56.7153   57.0545 C   0  0  0  0  0  0  0  0  0  0  0  0
  -47.4334   55.2566   57.1285 C   0  0  0  0  0  0  0  0  0  0  0  0
 21 22  1  0  0  0
  4  5  2  0  0  0
 25 24  1  0  0  0
 25 26  2  0  0  0
 25 27  1  0  0  0
 25 29  1  0  0  0
 22 20  1  0  0  0
  3  5  1  0  0  0
  3  2  1  0  0  0
 20 19  1  0  0  0
 24 23  1  0  0  0
 19 18  1  0  0  0
 18 17  1  0  0  0
 27 28  1  0  0  0
 17 16  1  0  0  0
 29 30  1  0  0  0
 16 15  1  0  0  0
 34 35  1  0  0  0
 34 36  1  0  0  0
 15 14  1  0  0  0
 31 32  1  0  0  0
 31 33  1  0  0  0
 14 13  1  0  0  0
 37  1  1  0  0  0
 37 39  1  0  0  0
 13 12  1  0  0  0
 38 39  2  0  0  0
 12 11  1  0  0  0
 11 10  1  0  0  0
 10  9  1  0  0  0
  9  8  1  0  0  0
  8  7  1  0  0  0
  7  6  1  0  0  0
  6  5  1  0  0  0
  2  1  1  0  0  0
  1 23  1  0  0  0
 30 32  1  0  0  0
 32 35  1  0  0  0
 39 40  1  0  0  0
 40 41  1  0  0  0
 41 42  1  0  0  0
 42 43  1  0  0  0
 43 44  1  0  0  0
 44 45  1  0  0  0
 45 46  1  0  0  0
 46 47  1  0  0  0
 47 48  2  0  0  0
 48 49  1  0  0  0
 49 50  1  0  0  0
 50 51  1  0  0  0
 51 52  1  0  0  0
 52 53  1  0  0  0
 53 54  1  0  0  0
 54 55  1  0  0  0
 55 56  1  0  0  0
M  CHG 1  26  -1
M  END
> <minimizedAffinity>
-8.88144

> <CNNscore>
0.5880403519

> <CNNaffinity>
7.6341490746

> <CNN_VS>
4.4891877174

> <CNNaffinity_variance>
0.7390339971

$$$$
/media/chris/experiments/cd1a-new-docking/inputs/ligands/7sh4_ligand.pdb


 56 55  0  0  0  0  0  0  0  0999 V2000
  -36.6837   59.9692   65.1101 C   0  0  0  0  0  0  0  0  0  0  0  0
  -37.7456   58.9131   64.9893 C   0  0  0  0  0  0  0  0  0  0  0  0
  -38.9658   59.6040   65.3312 O   0  0  0  0  0  0  0  0  0  0  0  0
  -40.1845   57.8553   64.6558 O   0  0  0  0  0  0  0  0  0  0  0  0
  -40.1114   58.9997   65.0143 C   0  0  0  0  0  0  0  0  0  0  0  0
  -41.2884   59.8920   65.2846 C   0  0  0  0  0  0  0  0  0  0  0  0
  -42.6277   59.1749   65.2670 C   0  0  0  0  0  0  0  0  0  0  0  0
  -43.1266   58.8304   66.6544 C   0  0  0  0  0  0  0  0  0  0  0  0
  -44.6327   58.8175   66.7854 C   0  0  0  0  0  0  0  0  0  0  0  0
  -45.3415   59.2882   65.5316 C   0  0  0  0  0  0  0  0  0  0  0  0
  -46.4776   58.3854   65.1169 C   0  0  0  0  0  0  0  0  0  0  0  0
  -47.7042   58.5515   65.9744 C   0  0  0  0  0  0  0  0  0  0  0  0
  -48.8415   57.6359   65.5791 C   0  0  0  0  0  0  0  0  0  0  0  0
  -50.1851   58.3365   65.5822 C   0  0  0  0  0  0  0  0  0  0  0  0
  -50.3781   59.3082   64.4369 C   0  0  0  0  0  0  0  0  0  0  0  0
  -49.8314   58.8068   63.1049 C   0  0  0  0  0  0  0  0  0  0  0  0
  -50.7586   57.8512   62.3788 C   0  0  0  0  0  0  0  0  0  0  0  0
  -50.4798   57.7543   60.8929 C   0  0  0  0  0  0  0  0  0  0  0  0
  -49.1559   58.3812   60.4782 C   0  0  0  0  0  0  0  0  0  0  0  0
  -48.6449   57.8894   59.1357 C   0  0  0  0  0  0  0  0  0  0  0  0
  -48.1372   55.4262   59.2375 C   0  0  0  0  0  0  0  0  0  0  0  0
  -47.5663   56.8260   59.2179 C   0  0  0  0  0  0  0  0  0  0  0  0
  -36.7345   60.9560   63.9720 C   0  0  0  0  0  0  0  0  0  0  0  0
  -37.0832   62.2558   64.4985 O   0  0  0  0  0  0  0  0  0  0  0  0
  -36.0388   63.1840   65.2793 P   0  0  0  0  0  0  0  0  0  0  0  0
  -36.7825   63.9495   66.3029 O   0  0  0  0  0  0  0  0  0  0  0  0
  -34.9009   62.3367   65.7106 O   0  0  0  0  0  0  0  0  0  0  0  0
  -35.2063   61.6984   66.3741 H   0  0  0  0  0  0  0  0  0  0  0  0
  -35.4962   64.2165   64.1920 O   0  0  0  0  0  0  0  0  0  0  0  0
  -34.1120   64.1789   63.7888 C   0  0  0  0  0  0  0  0  0  0  0  0
  -34.8370   63.5524   61.5923 O   0  0  0  0  0  0  0  0  0  0  0  0
  -33.9701   63.1791   62.6675 C   0  0  0  0  0  0  0  0  0  0  0  0
  -35.7473   63.6219   61.9202 H   0  0  0  0  0  0  0  0  0  0  0  0
  -32.1944   64.2019   61.3950 O   0  0  0  0  0  0  0  0  0  0  0  0
  -32.5474   63.0664   62.1746 C   0  0  0  0  0  0  0  0  0  0  0  0
  -31.2787   64.1113   61.0879 H   0  0  0  0  0  0  0  0  0  0  0  0
  -35.3793   59.3048   65.1932 O   0  0  0  0  0  0  0  0  0  0  0  0
  -35.7738   57.4285   64.0169 O   0  0  0  0  0  0  0  0  0  0  0  0
  -35.0964   58.3939   64.2422 C   0  0  0  0  0  0  0  0  0  0  0  0
  -33.8490   58.7387   63.4892 C   0  0  0  0  0  0  0  0  0  0  0  0
  -33.9822   58.4080   62.0059 C   0  0  0  0  0  0  0  0  0  0  0  0
  -33.1868   57.1875   61.5729 C   0  0  0  0  0  0  0  0  0  0  0  0
  -34.0535   55.9699   61.2724 C   0  0  0  0  0  0  0  0  0  0  0  0
  -34.2151   55.6777   59.7922 C   0  0  0  0  0  0  0  0  0  0  0  0
  -34.7785   56.8413   58.9713 C   0  0  0  0  0  0  0  0  0  0  0  0
  -36.3048   56.8914   58.8746 C   0  0  0  0  0  0  0  0  0  0  0  0
  -36.9663   56.4434   60.1434 C   0  0  0  0  0  0  0  0  0  0  0  0
  -37.6284   57.2010   60.9961 C   0  0  0  0  0  0  0  0  0  0  0  0
  -37.8599   58.6739   60.8730 C   0  0  0  0  0  0  0  0  0  0  0  0
  -39.1299   59.1255   61.5883 C   0  0  0  0  0  0  0  0  0  0  0  0
  -39.9464   60.1356   60.8013 C   0  0  0  0  0  0  0  0  0  0  0  0
  -40.0443   59.8186   59.3190 C   0  0  0  0  0  0  0  0  0  0  0  0
  -41.4635   59.7709   58.7777 C   0  0  0  0  0  0  0  0  0  0  0  0
  -41.5613   59.1609   57.3877 C   0  0  0  0  0  0  0  0  0  0  0  0
  -42.9769   59.0410   56.8592 C   0  0  0  0  0  0  0  0  0  0  0  0
  -43.9167   58.4137   57.8506 C   0  0  0  0  0  0  0  0  0  0  0  0
 21 22  1  0  0  0
  4  5  2  0  0  0
 25 24  1  0  0  0
 25 26  2  0  0  0
 25 27  1  0  0  0
 25 29  1  0  0  0
 22 20  1  0  0  0
  3  5  1  0  0  0
  3  2  1  0  0  0
 20 19  1  0  0  0
 24 23  1  0  0  0
 19 18  1  0  0  0
 18 17  1  0  0  0
 27 28  1  0  0  0
 17 16  1  0  0  0
 29 30  1  0  0  0
 16 15  1  0  0  0
 34 35  1  0  0  0
 34 36  1  0  0  0
 15 14  1  0  0  0
 31 32  1  0  0  0
 31 33  1  0  0  0
 14 13  1  0  0  0
 37  1  1  0  0  0
 37 39  1  0  0  0
 13 12  1  0  0  0
 38 39  2  0  0  0
 12 11  1  0  0  0
 11 10  1  0  0  0
 10  9  1  0  0  0
  9  8  1  0  0  0
  8  7  1  0  0  0
  7  6  1  0  0  0
  6  5  1  0  0  0
  2  1  1  0  0  0
  1 23  1  0  0  0
 30 32  1  0  0  0
 32 35  1  0  0  0
 39 40  1  0  0  0
 40 41  1  0  0  0
 41 42  1  0  0  0
 42 43  1  0  0  0
 43 44  1  0  0  0
 44 45  1  0  0  0
 45 46  1  0  0  0
 46 47  1  0  0  0
 47 48  2  0  0  0
 48 49  1  0  0  0
 49 50  1  0  0  0
 50 51  1  0  0  0
 51 52  1  0  0  0
 52 53  1  0  0  0
 53 54  1  0  0  0
 54 55  1  0  0  0
 55 56  1  0  0  0
M  CHG 1  26  -1
M  END
> <minimizedAffinity>
-7.81922

> <CNNscore>
0.4945107102

> <CNNaffinity>
7.4752373695

> <CNN_VS>
3.6965849400

> <CNNaffinity_variance>
0.5716673732

$$$$
/media/chris/experiments/cd1a-new-docking/inputs/ligands/7sh4_ligand.pdb


 56 55  0  0  0  0  0  0  0  0999 V2000
  -37.5447   60.0256   65.5560 C   0  0  0  0  0  0  0  0  0  0  0  0
  -38.8984   59.4364   65.8354 C   0  0  0  0  0  0  0  0  0  0  0  0
  -39.8008   60.5546   65.6993 O   0  0  0  0  0  0  0  0  0  0  0  0
  -41.2788   61.1693   64.1383 O   0  0  0  0  0  0  0  0  0  0  0  0
  -40.8827   60.3692   64.9423 C   0  0  0  0  0  0  0  0  0  0  0  0
  -41.4533   58.9942   65.1389 C   0  0  0  0  0  0  0  0  0  0  0  0
  -42.7201   58.9621   65.9771 C   0  0  0  0  0  0  0  0  0  0  0  0
  -43.9727   59.1803   65.1551 C   0  0  0  0  0  0  0  0  0  0  0  0
  -44.8234   57.9425   64.9822 C   0  0  0  0  0  0  0  0  0  0  0  0
  -46.3092   58.2400   64.9742 C   0  0  0  0  0  0  0  0  0  0  0  0
  -46.6256   59.6926   65.2345 C   0  0  0  0  0  0  0  0  0  0  0  0
  -48.1030   59.9837   65.2256 C   0  0  0  0  0  0  0  0  0  0  0  0
  -48.7693   59.6675   63.9050 C   0  0  0  0  0  0  0  0  0  0  0  0
  -50.1976   60.1688   63.8352 C   0  0  0  0  0  0  0  0  0  0  0  0
  -51.1009   59.3394   62.9468 C   0  0  0  0  0  0  0  0  0  0  0  0
  -50.5182   57.9814   62.5721 C   0  0  0  0  0  0  0  0  0  0  0  0
  -50.6539   57.6373   61.1013 C   0  0  0  0  0  0  0  0  0  0  0  0
  -49.4624   56.8835   60.5469 C   0  0  0  0  0  0  0  0  0  0  0  0
  -48.5219   57.7505   59.7216 C   0  0  0  0  0  0  0  0  0  0  0  0
  -47.4295   56.9640   59.0192 C   0  0  0  0  0  0  0  0  0  0  0  0
  -47.8603   55.1816   57.2948 C   0  0  0  0  0  0  0  0  0  0  0  0
  -47.7593   55.5048   58.7683 C   0  0  0  0  0  0  0  0  0  0  0  0
  -37.3628   61.3663   66.2202 C   0  0  0  0  0  0  0  0  0  0  0  0
  -35.9612   61.7166   66.1845 O   0  0  0  0  0  0  0  0  0  0  0  0
  -35.4145   63.1528   66.6326 P   0  0  0  0  0  0  0  0  0  0  0  0
  -36.5786   64.0386   66.8494 O   0  0  0  0  0  0  0  0  0  0  0  0
  -34.4534   62.9545   67.7441 O   0  0  0  0  0  0  0  0  0  0  0  0
  -34.9240   62.6170   68.5222 H   0  0  0  0  0  0  0  0  0  0  0  0
  -34.6033   63.7066   65.3764 O   0  0  0  0  0  0  0  0  0  0  0  0
  -33.4167   64.5013   65.5771 C   0  0  0  0  0  0  0  0  0  0  0  0
  -31.2148   63.7464   65.0075 O   0  0  0  0  0  0  0  0  0  0  0  0
  -32.4516   64.2071   64.4551 C   0  0  0  0  0  0  0  0  0  0  0  0
  -30.8742   64.4056   65.6323 H   0  0  0  0  0  0  0  0  0  0  0  0
  -33.9752   63.7830   62.6338 O   0  0  0  0  0  0  0  0  0  0  0  0
  -32.9966   63.1920   63.4793 C   0  0  0  0  0  0  0  0  0  0  0  0
  -34.3130   63.1166   62.0151 H   0  0  0  0  0  0  0  0  0  0  0  0
  -37.3704   60.1130   64.1028 O   0  0  0  0  0  0  0  0  0  0  0  0
  -35.5180   60.4881   62.8831 O   0  0  0  0  0  0  0  0  0  0  0  0
  -36.1604   59.7827   63.6120 C   0  0  0  0  0  0  0  0  0  0  0  0
  -35.7053   58.4416   64.0983 C   0  0  0  0  0  0  0  0  0  0  0  0
  -36.6183   57.3266   63.5979 C   0  0  0  0  0  0  0  0  0  0  0  0
  -36.9235   57.4007   62.1109 C   0  0  0  0  0  0  0  0  0  0  0  0
  -38.4080   57.5533   61.7999 C   0  0  0  0  0  0  0  0  0  0  0  0
  -38.7716   58.8817   61.1630 C   0  0  0  0  0  0  0  0  0  0  0  0
  -37.8110   59.3449   60.0641 C   0  0  0  0  0  0  0  0  0  0  0  0
  -37.9415   58.6059   58.7305 C   0  0  0  0  0  0  0  0  0  0  0  0
  -36.6100   58.3687   58.0834 C   0  0  0  0  0  0  0  0  0  0  0  0
  -35.9992   57.2085   57.9410 C   0  0  0  0  0  0  0  0  0  0  0  0
  -36.5121   55.8792   58.3972 C   0  0  0  0  0  0  0  0  0  0  0  0
  -35.7770   55.3636   59.6309 C   0  0  0  0  0  0  0  0  0  0  0  0
  -34.3008   55.7194   59.6540 C   0  0  0  0  0  0  0  0  0  0  0  0
  -33.8005   56.1583   61.0194 C   0  0  0  0  0  0  0  0  0  0  0  0
  -33.5609   57.6532   61.1516 C   0  0  0  0  0  0  0  0  0  0  0  0
  -32.3977   58.0014   62.0677 C   0  0  0  0  0  0  0  0  0  0  0  0
  -32.2562   59.4824   62.3581 C   0  0  0  0  0  0  0  0  0  0  0  0
  -31.0143   60.0772   61.7553 C   0  0  0  0  0  0  0  0  0  0  0  0
 21 22  1  0  0  0
  4  5  2  0  0  0
 25 24  1  0  0  0
 25 26  2  0  0  0
 25 27  1  0  0  0
 25 29  1  0  0  0
 22 20  1  0  0  0
  3  5  1  0  0  0
  3  2  1  0  0  0
 20 19  1  0  0  0
 24 23  1  0  0  0
 19 18  1  0  0  0
 18 17  1  0  0  0
 27 28  1  0  0  0
 17 16  1  0  0  0
 29 30  1  0  0  0
 16 15  1  0  0  0
 34 35  1  0  0  0
 34 36  1  0  0  0
 15 14  1  0  0  0
 31 32  1  0  0  0
 31 33  1  0  0  0
 14 13  1  0  0  0
 37  1  1  0  0  0
 37 39  1  0  0  0
 13 12  1  0  0  0
 38 39  2  0  0  0
 12 11  1  0  0  0
 11 10  1  0  0  0
 10  9  1  0  0  0
  9  8  1  0  0  0
  8  7  1  0  0  0
  7  6  1  0  0  0
  6  5  1  0  0  0
  2  1  1  0  0  0
  1 23  1  0  0  0
 30 32  1  0  0  0
 32 35  1  0  0  0
 39 40  1  0  0  0
 40 41  1  0  0  0
 41 42  1  0  0  0
 42 43  1  0  0  0
 43 44  1  0  0  0
 44 45  1  0  0  0
 45 46  1  0  0  0
 46 47  1  0  0  0
 47 48  2  0  0  0
 48 49  1  0  0  0
 49 50  1  0  0  0
 50 51  1  0  0  0
 51 52  1  0  0  0
 52 53  1  0  0  0
 53 54  1  0  0  0
 54 55  1  0  0  0
 55 56  1  0  0  0
M  CHG 1  26  -1
M  END
> <minimizedAffinity>
-8.88893

> <CNNscore>
0.4877882600

> <CNNaffinity>
7.4177513123

> <CNN_VS>
3.6182920933

> <CNNaffinity_variance>
0.5756429434

$$$$
/media/chris/experiments/cd1a-new-docking/inputs/ligands/7sh4_ligand.pdb


 56 55  0  0  0  0  0  0  0  0999 V2000
  -38.2651   61.1022   64.2993 C   0  0  0  0  0  0  0  0  0  0  0  0
  -38.0474   60.8796   62.8293 C   0  0  0  0  0  0  0  0  0  0  0  0
  -39.3825   60.7884   62.2885 O   0  0  0  0  0  0  0  0  0  0  0  0
  -40.4389   60.0177   60.4749 O   0  0  0  0  0  0  0  0  0  0  0  0
  -39.5771   59.9093   61.3051 C   0  0  0  0  0  0  0  0  0  0  0  0
  -38.5106   58.8522   61.3032 C   0  0  0  0  0  0  0  0  0  0  0  0
  -38.8633   57.6135   62.1092 C   0  0  0  0  0  0  0  0  0  0  0  0
  -37.6458   56.9250   62.6889 C   0  0  0  0  0  0  0  0  0  0  0  0
  -36.4573   57.8368   62.8934 C   0  0  0  0  0  0  0  0  0  0  0  0
  -35.7974   57.6573   64.2455 C   0  0  0  0  0  0  0  0  0  0  0  0
  -34.6202   58.5773   64.4589 C   0  0  0  0  0  0  0  0  0  0  0  0
  -34.3515   59.4726   63.2783 C   0  0  0  0  0  0  0  0  0  0  0  0
  -33.0301   59.1896   62.5987 C   0  0  0  0  0  0  0  0  0  0  0  0
  -32.4315   57.8607   63.0132 C   0  0  0  0  0  0  0  0  0  0  0  0
  -32.3413   56.8469   61.8919 C   0  0  0  0  0  0  0  0  0  0  0  0
  -33.6451   56.1018   61.6288 C   0  0  0  0  0  0  0  0  0  0  0  0
  -34.2147   56.3278   60.2415 C   0  0  0  0  0  0  0  0  0  0  0  0
  -35.2009   55.2600   59.8144 C   0  0  0  0  0  0  0  0  0  0  0  0
  -36.5361   55.8169   59.3402 C   0  0  0  0  0  0  0  0  0  0  0  0
  -36.5569   56.1714   57.8640 C   0  0  0  0  0  0  0  0  0  0  0  0
  -36.8954   58.6115   58.3805 C   0  0  0  0  0  0  0  0  0  0  0  0
  -37.3194   57.4384   57.5262 C   0  0  0  0  0  0  0  0  0  0  0  0
  -36.9936   61.4953   65.0067 C   0  0  0  0  0  0  0  0  0  0  0  0
  -36.0051   61.8610   64.0179 O   0  0  0  0  0  0  0  0  0  0  0  0
  -35.6500   63.3819   63.6678 P   0  0  0  0  0  0  0  0  0  0  0  0
  -35.5942   63.5119   62.1957 O   0  0  0  0  0  0  0  0  0  0  0  0
  -36.5755   64.2582   64.4256 O   0  0  0  0  0  0  0  0  0  0  0  0
  -37.4796   64.1350   64.0967 H   0  0  0  0  0  0  0  0  0  0  0  0
  -34.1788   63.6141   64.2374 O   0  0  0  0  0  0  0  0  0  0  0  0
  -33.8109   64.8969   64.7842 C   0  0  0  0  0  0  0  0  0  0  0  0
  -33.1973   65.9653   66.8396 O   0  0  0  0  0  0  0  0  0  0  0  0
  -33.3402   64.6919   66.2031 C   0  0  0  0  0  0  0  0  0  0  0  0
  -32.5943   66.5203   66.3207 H   0  0  0  0  0  0  0  0  0  0  0  0
  -33.8619   62.4553   66.9405 O   0  0  0  0  0  0  0  0  0  0  0  0
  -34.2766   63.8141   66.9983 C   0  0  0  0  0  0  0  0  0  0  0  0
  -34.4746   61.9080   67.4562 H   0  0  0  0  0  0  0  0  0  0  0  0
  -38.8475   59.8834   64.8694 O   0  0  0  0  0  0  0  0  0  0  0  0
  -40.3697   60.8358   66.2242 O   0  0  0  0  0  0  0  0  0  0  0  0
  -40.0701   59.9924   65.4238 C   0  0  0  0  0  0  0  0  0  0  0  0
  -41.0138   58.9498   64.9096 C   0  0  0  0  0  0  0  0  0  0  0  0
  -41.8193   58.3185   66.0408 C   0  0  0  0  0  0  0  0  0  0  0  0
  -43.1919   58.9396   66.2409 C   0  0  0  0  0  0  0  0  0  0  0  0
  -44.0281   58.9942   64.9674 C   0  0  0  0  0  0  0  0  0  0  0  0
  -45.0964   57.9197   64.8842 C   0  0  0  0  0  0  0  0  0  0  0  0
  -46.4300   58.2960   65.5360 C   0  0  0  0  0  0  0  0  0  0  0  0
  -47.6582   57.5842   64.9646 C   0  0  0  0  0  0  0  0  0  0  0  0
  -48.8920   58.4319   65.0480 C   0  0  0  0  0  0  0  0  0  0  0  0
  -49.6844   58.7694   64.0492 C   0  0  0  0  0  0  0  0  0  0  0  0
  -49.5165   58.3728   62.6164 C   0  0  0  0  0  0  0  0  0  0  0  0
  -50.8495   58.0857   61.9316 C   0  0  0  0  0  0  0  0  0  0  0  0
  -50.7364   57.1379   60.7504 C   0  0  0  0  0  0  0  0  0  0  0  0
  -49.3087   56.9131   60.2834 C   0  0  0  0  0  0  0  0  0  0  0  0
  -49.0871   57.1499   58.7987 C   0  0  0  0  0  0  0  0  0  0  0  0
  -47.6286   57.3793   58.4331 C   0  0  0  0  0  0  0  0  0  0  0  0
  -47.1509   56.5708   57.2431 C   0  0  0  0  0  0  0  0  0  0  0  0
  -47.7433   55.1899   57.2028 C   0  0  0  0  0  0  0  0  0  0  0  0
 21 22  1  0  0  0
  4  5  2  0  0  0
 25 24  1  0  0  0
 25 26  2  0  0  0
 25 27  1  0  0  0
 25 29  1  0  0  0
 22 20  1  0  0  0
  3  5  1  0  0  0
  3  2  1  0  0  0
 20 19  1  0  0  0
 24 23  1  0  0  0
 19 18  1  0  0  0
 18 17  1  0  0  0
 27 28  1  0  0  0
 17 16  1  0  0  0
 29 30  1  0  0  0
 16 15  1  0  0  0
 34 35  1  0  0  0
 34 36  1  0  0  0
 15 14  1  0  0  0
 31 32  1  0  0  0
 31 33  1  0  0  0
 14 13  1  0  0  0
 37  1  1  0  0  0
 37 39  1  0  0  0
 13 12  1  0  0  0
 38 39  2  0  0  0
 12 11  1  0  0  0
 11 10  1  0  0  0
 10  9  1  0  0  0
  9  8  1  0  0  0
  8  7  1  0  0  0
  7  6  1  0  0  0
  6  5  1  0  0  0
  2  1  1  0  0  0
  1 23  1  0  0  0
 30 32  1  0  0  0
 32 35  1  0  0  0
 39 40  1  0  0  0
 40 41  1  0  0  0
 41 42  1  0  0  0
 42 43  1  0  0  0
 43 44  1  0  0  0
 44 45  1  0  0  0
 45 46  1  0  0  0
 46 47  1  0  0  0
 47 48  2  0  0  0
 48 49  1  0  0  0
 49 50  1  0  0  0
 50 51  1  0  0  0
 51 52  1  0  0  0
 52 53  1  0  0  0
 53 54  1  0  0  0
 54 55  1  0  0  0
 55 56  1  0  0  0
M  CHG 1  26  -1
M  END
> <minimizedAffinity>
-8.36467

> <CNNscore>
0.4877794385

> <CNNaffinity>
7.4694848061

> <CNN_VS>
3.6434609890

> <CNNaffinity_variance>
0.6298935413

$$$$
/media/chris/experiments/cd1a-new-docking/inputs/ligands/7sh4_ligand.pdb


 56 55  0  0  0  0  0  0  0  0999 V2000
  -39.2917   60.7560   63.4620 C   0  0  0  0  0  0  0  0  0  0  0  0
  -39.9978   60.6083   62.1440 C   0  0  0  0  0  0  0  0  0  0  0  0
  -39.1138   59.7740   61.3658 O   0  0  0  0  0  0  0  0  0  0  0  0
  -39.9218   60.5771   59.4420 O   0  0  0  0  0  0  0  0  0  0  0  0
  -39.0570   60.0116   60.0550 C   0  0  0  0  0  0  0  0  0  0  0  0
  -37.7313   59.5961   59.4852 C   0  0  0  0  0  0  0  0  0  0  0  0
  -37.6490   58.1249   59.1146 C   0  0  0  0  0  0  0  0  0  0  0  0
  -36.8704   57.8844   57.8385 C   0  0  0  0  0  0  0  0  0  0  0  0
  -36.2503   56.5090   57.7412 C   0  0  0  0  0  0  0  0  0  0  0  0
  -36.6265   55.6054   58.8979 C   0  0  0  0  0  0  0  0  0  0  0  0
  -35.4338   54.9576   59.5580 C   0  0  0  0  0  0  0  0  0  0  0  0
  -34.1605   55.7390   59.3695 C   0  0  0  0  0  0  0  0  0  0  0  0
  -33.9516   56.8085   60.4186 C   0  0  0  0  0  0  0  0  0  0  0  0
  -33.2543   56.2846   61.6577 C   0  0  0  0  0  0  0  0  0  0  0  0
  -32.1843   57.2080   62.2017 C   0  0  0  0  0  0  0  0  0  0  0  0
  -32.5014   58.6889   62.0266 C   0  0  0  0  0  0  0  0  0  0  0  0
  -33.1707   59.3222   63.2312 C   0  0  0  0  0  0  0  0  0  0  0  0
  -34.6669   59.0899   63.2799 C   0  0  0  0  0  0  0  0  0  0  0  0
  -35.1067   58.1819   64.4199 C   0  0  0  0  0  0  0  0  0  0  0  0
  -36.2800   57.2858   64.0651 C   0  0  0  0  0  0  0  0  0  0  0  0
  -38.1928   56.9263   62.4690 C   0  0  0  0  0  0  0  0  0  0  0  0
  -36.7750   57.4235   62.6379 C   0  0  0  0  0  0  0  0  0  0  0  0
  -37.7948   60.8208   63.2983 C   0  0  0  0  0  0  0  0  0  0  0  0
  -37.2947   61.9568   64.0384 O   0  0  0  0  0  0  0  0  0  0  0  0
  -36.1927   62.9579   63.4507 P   0  0  0  0  0  0  0  0  0  0  0  0
  -36.0953   62.7273   61.9933 O   0  0  0  0  0  0  0  0  0  0  0  0
  -36.5042   64.3239   63.9365 O   0  0  0  0  0  0  0  0  0  0  0  0
  -37.3406   64.6228   63.5467 H   0  0  0  0  0  0  0  0  0  0  0  0
  -34.8146   62.5049   64.1127 O   0  0  0  0  0  0  0  0  0  0  0  0
  -34.7916   62.0197   65.4707 C   0  0  0  0  0  0  0  0  0  0  0  0
  -33.7340   64.1673   65.5799 O   0  0  0  0  0  0  0  0  0  0  0  0
  -34.3504   63.1472   66.3713 C   0  0  0  0  0  0  0  0  0  0  0  0
  -33.0017   63.7843   65.0720 H   0  0  0  0  0  0  0  0  0  0  0  0
  -36.6512   62.9084   67.0553 O   0  0  0  0  0  0  0  0  0  0  0  0
  -35.4938   63.7264   67.1693 C   0  0  0  0  0  0  0  0  0  0  0  0
  -37.3736   63.2961   67.5738 H   0  0  0  0  0  0  0  0  0  0  0  0
  -39.6941   59.6436   64.3284 O   0  0  0  0  0  0  0  0  0  0  0  0
  -40.5226   60.9572   65.9556 O   0  0  0  0  0  0  0  0  0  0  0  0
  -40.5420   59.9295   65.3350 C   0  0  0  0  0  0  0  0  0  0  0  0
  -41.5213   58.8224   65.5745 C   0  0  0  0  0  0  0  0  0  0  0  0
  -42.3405   59.0647   66.8384 C   0  0  0  0  0  0  0  0  0  0  0  0
  -43.8402   58.9222   66.6374 C   0  0  0  0  0  0  0  0  0  0  0  0
  -44.2778   59.0721   65.1849 C   0  0  0  0  0  0  0  0  0  0  0  0
  -45.2507   58.0043   64.7202 C   0  0  0  0  0  0  0  0  0  0  0  0
  -46.5787   57.9780   65.4822 C   0  0  0  0  0  0  0  0  0  0  0  0
  -47.8027   58.4124   64.6731 C   0  0  0  0  0  0  0  0  0  0  0  0
  -49.0880   58.0638   65.3619 C   0  0  0  0  0  0  0  0  0  0  0  0
  -50.2973   58.4669   65.0234 C   0  0  0  0  0  0  0  0  0  0  0  0
  -50.6402   59.3602   63.8733 C   0  0  0  0  0  0  0  0  0  0  0  0
  -51.1728   58.5845   62.6721 C   0  0  0  0  0  0  0  0  0  0  0  0
  -50.0840   58.0736   61.7449 C   0  0  0  0  0  0  0  0  0  0  0  0
  -50.6063   57.2171   60.6044 C   0  0  0  0  0  0  0  0  0  0  0  0
  -49.8436   57.3731   59.2992 C   0  0  0  0  0  0  0  0  0  0  0  0
  -48.6603   56.4258   59.1725 C   0  0  0  0  0  0  0  0  0  0  0  0
  -47.7926   56.6737   57.9544 C   0  0  0  0  0  0  0  0  0  0  0  0
  -47.5678   55.4318   57.1380 C   0  0  0  0  0  0  0  0  0  0  0  0
 21 22  1  0  0  0
  4  5  2  0  0  0
 25 24  1  0  0  0
 25 26  2  0  0  0
 25 27  1  0  0  0
 25 29  1  0  0  0
 22 20  1  0  0  0
  3  5  1  0  0  0
  3  2  1  0  0  0
 20 19  1  0  0  0
 24 23  1  0  0  0
 19 18  1  0  0  0
 18 17  1  0  0  0
 27 28  1  0  0  0
 17 16  1  0  0  0
 29 30  1  0  0  0
 16 15  1  0  0  0
 34 35  1  0  0  0
 34 36  1  0  0  0
 15 14  1  0  0  0
 31 32  1  0  0  0
 31 33  1  0  0  0
 14 13  1  0  0  0
 37  1  1  0  0  0
 37 39  1  0  0  0
 13 12  1  0  0  0
 38 39  2  0  0  0
 12 11  1  0  0  0
 11 10  1  0  0  0
 10  9  1  0  0  0
  9  8  1  0  0  0
  8  7  1  0  0  0
  7  6  1  0  0  0
  6  5  1  0  0  0
  2  1  1  0  0  0
  1 23  1  0  0  0
 30 32  1  0  0  0
 32 35  1  0  0  0
 39 40  1  0  0  0
 40 41  1  0  0  0
 41 42  1  0  0  0
 42 43  1  0  0  0
 43 44  1  0  0  0
 44 45  1  0  0  0
 45 46  1  0  0  0
 46 47  1  0  0  0
 47 48  2  0  0  0
 48 49  1  0  0  0
 49 50  1  0  0  0
 50 51  1  0  0  0
 51 52  1  0  0  0
 52 53  1  0  0  0
 53 54  1  0  0  0
 54 55  1  0  0  0
 55 56  1  0  0  0
M  CHG 1  26  -1
M  END
> <minimizedAffinity>
-8.88571

> <CNNscore>
0.4794130623

> <CNNaffinity>
7.5484962463

> <CNN_VS>
3.6188476086

> <CNNaffinity_variance>
0.9448698759

$$$$
/media/chris/experiments/cd1a-new-docking/inputs/ligands/7sh4_ligand.pdb


 56 55  0  0  0  0  0  0  0  0999 V2000
  -37.7043   60.3982   65.1354 C   0  0  0  0  0  0  0  0  0  0  0  0
  -38.8007   59.8523   66.0057 C   0  0  0  0  0  0  0  0  0  0  0  0
  -39.8956   60.7712   65.8056 O   0  0  0  0  0  0  0  0  0  0  0  0
  -41.4828   60.1636   64.3528 O   0  0  0  0  0  0  0  0  0  0  0  0
  -41.0758   60.2429   65.4805 C   0  0  0  0  0  0  0  0  0  0  0  0
  -41.7576   59.6563   66.6830 C   0  0  0  0  0  0  0  0  0  0  0  0
  -42.6069   58.4336   66.3799 C   0  0  0  0  0  0  0  0  0  0  0  0
  -44.0902   58.6985   66.5291 C   0  0  0  0  0  0  0  0  0  0  0  0
  -44.8160   58.9117   65.2200 C   0  0  0  0  0  0  0  0  0  0  0  0
  -46.1619   59.5864   65.3908 C   0  0  0  0  0  0  0  0  0  0  0  0
  -47.0257   58.9317   66.4411 C   0  0  0  0  0  0  0  0  0  0  0  0
  -48.4230   58.6448   65.9587 C   0  0  0  0  0  0  0  0  0  0  0  0
  -48.4769   58.1689   64.5239 C   0  0  0  0  0  0  0  0  0  0  0  0
  -49.8158   58.4388   63.8677 C   0  0  0  0  0  0  0  0  0  0  0  0
  -49.7758   59.5128   62.8009 C   0  0  0  0  0  0  0  0  0  0  0  0
  -49.7122   58.9667   61.3789 C   0  0  0  0  0  0  0  0  0  0  0  0
  -50.4325   57.6450   61.1938 C   0  0  0  0  0  0  0  0  0  0  0  0
  -49.6353   56.6311   60.3989 C   0  0  0  0  0  0  0  0  0  0  0  0
  -49.3029   57.0886   58.9855 C   0  0  0  0  0  0  0  0  0  0  0  0
  -47.8251   57.3592   58.7660 C   0  0  0  0  0  0  0  0  0  0  0  0
  -47.8164   55.4416   57.1354 C   0  0  0  0  0  0  0  0  0  0  0  0
  -47.2651   56.8096   57.4678 C   0  0  0  0  0  0  0  0  0  0  0  0
  -36.7207   61.2296   65.9184 C   0  0  0  0  0  0  0  0  0  0  0  0
  -37.0635   62.6248   65.7628 O   0  0  0  0  0  0  0  0  0  0  0  0
  -36.1125   63.8123   66.2603 P   0  0  0  0  0  0  0  0  0  0  0  0
  -36.4985   65.0423   65.5357 O   0  0  0  0  0  0  0  0  0  0  0  0
  -36.1269   63.8249   67.7430 O   0  0  0  0  0  0  0  0  0  0  0  0
  -37.0114   64.0710   68.0557 H   0  0  0  0  0  0  0  0  0  0  0  0
  -34.6451   63.4043   65.7881 O   0  0  0  0  0  0  0  0  0  0  0  0
  -33.8177   64.3613   65.0956 C   0  0  0  0  0  0  0  0  0  0  0  0
  -31.6583   63.3537   64.8420 O   0  0  0  0  0  0  0  0  0  0  0  0
  -32.8945   63.6095   64.1686 C   0  0  0  0  0  0  0  0  0  0  0  0
  -31.2792   64.1913   65.1511 H   0  0  0  0  0  0  0  0  0  0  0  0
  -34.7080   62.5607   62.9729 O   0  0  0  0  0  0  0  0  0  0  0  0
  -33.4994   62.3151   63.6804 C   0  0  0  0  0  0  0  0  0  0  0  0
  -35.0809   61.7189   62.6678 H   0  0  0  0  0  0  0  0  0  0  0  0
  -38.3178   61.1666   64.0477 O   0  0  0  0  0  0  0  0  0  0  0  0
  -37.0550   61.4309   62.2051 O   0  0  0  0  0  0  0  0  0  0  0  0
  -37.9339   60.8623   62.7931 C   0  0  0  0  0  0  0  0  0  0  0  0
  -38.7203   59.7204   62.2277 C   0  0  0  0  0  0  0  0  0  0  0  0
  -39.7650   60.2029   61.2263 C   0  0  0  0  0  0  0  0  0  0  0  0
  -39.3825   59.9660   59.7746 C   0  0  0  0  0  0  0  0  0  0  0  0
  -37.9859   59.3807   59.5996 C   0  0  0  0  0  0  0  0  0  0  0  0
  -37.8605   58.4225   58.4297 C   0  0  0  0  0  0  0  0  0  0  0  0
  -36.4210   58.0519   58.0617 C   0  0  0  0  0  0  0  0  0  0  0  0
  -36.1712   56.5600   57.8305 C   0  0  0  0  0  0  0  0  0  0  0  0
  -36.3294   55.7592   59.0881 C   0  0  0  0  0  0  0  0  0  0  0  0
  -35.4209   55.5807   60.0274 C   0  0  0  0  0  0  0  0  0  0  0  0
  -34.0354   56.1452   60.0340 C   0  0  0  0  0  0  0  0  0  0  0  0
  -33.5689   56.5270   61.4357 C   0  0  0  0  0  0  0  0  0  0  0  0
  -32.7687   57.8169   61.4816 C   0  0  0  0  0  0  0  0  0  0  0  0
  -33.0740   58.6814   62.6926 C   0  0  0  0  0  0  0  0  0  0  0  0
  -34.5435   58.7297   63.0774 C   0  0  0  0  0  0  0  0  0  0  0  0
  -34.8433   58.0569   64.4082 C   0  0  0  0  0  0  0  0  0  0  0  0
  -36.0697   57.1661   64.3925 C   0  0  0  0  0  0  0  0  0  0  0  0
  -36.7973   57.2013   63.0777 C   0  0  0  0  0  0  0  0  0  0  0  0
 21 22  1  0  0  0
  4  5  2  0  0  0
 25 24  1  0  0  0
 25 26  2  0  0  0
 25 27  1  0  0  0
 25 29  1  0  0  0
 22 20  1  0  0  0
  3  5  1  0  0  0
  3  2  1  0  0  0
 20 19  1  0  0  0
 24 23  1  0  0  0
 19 18  1  0  0  0
 18 17  1  0  0  0
 27 28  1  0  0  0
 17 16  1  0  0  0
 29 30  1  0  0  0
 16 15  1  0  0  0
 34 35  1  0  0  0
 34 36  1  0  0  0
 15 14  1  0  0  0
 31 32  1  0  0  0
 31 33  1  0  0  0
 14 13  1  0  0  0
 37  1  1  0  0  0
 37 39  1  0  0  0
 13 12  1  0  0  0
 38 39  2  0  0  0
 12 11  1  0  0  0
 11 10  1  0  0  0
 10  9  1  0  0  0
  9  8  1  0  0  0
  8  7  1  0  0  0
  7  6  1  0  0  0
  6  5  1  0  0  0
  2  1  1  0  0  0
  1 23  1  0  0  0
 30 32  1  0  0  0
 32 35  1  0  0  0
 39 40  1  0  0  0
 40 41  1  0  0  0
 41 42  1  0  0  0
 42 43  1  0  0  0
 43 44  1  0  0  0
 44 45  1  0  0  0
 45 46  1  0  0  0
 46 47  1  0  0  0
 47 48  2  0  0  0
 48 49  1  0  0  0
 49 50  1  0  0  0
 50 51  1  0  0  0
 51 52  1  0  0  0
 52 53  1  0  0  0
 53 54  1  0  0  0
 54 55  1  0  0  0
 55 56  1  0  0  0
M  CHG 1  26  -1
M  END
> <minimizedAffinity>
-8.88847

> <CNNscore>
0.3941007853

> <CNNaffinity>
7.4010672569

> <CNN_VS>
2.9167664051

> <CNNaffinity_variance>
0.8715918660

$$$$
