/media/chris/experiments/cd1a-new-docking/inputs/ligands/7sh4_ligand.pdb


 56 55  0  0  0  0  0  0  0  0999 V2000
  -37.8747   60.0895   65.7407 C   0  0  0  0  0  0  0  0  0  0  0  0
  -39.1192   60.5620   65.0439 C   0  0  0  0  0  0  0  0  0  0  0  0
  -40.1876   60.1634   65.9287 O   0  0  0  0  0  0  0  0  0  0  0  0
  -41.1386   58.9438   64.3138 O   0  0  0  0  0  0  0  0  0  0  0  0
  -41.1962   59.4792   65.3878 C   0  0  0  0  0  0  0  0  0  0  0  0
  -42.3485   59.3649   66.3439 C   0  0  0  0  0  0  0  0  0  0  0  0
  -43.1144   58.0569   66.2390 C   0  0  0  0  0  0  0  0  0  0  0  0
  -44.4687   58.2217   65.5820 C   0  0  0  0  0  0  0  0  0  0  0  0
  -45.4508   57.1179   65.9024 C   0  0  0  0  0  0  0  0  0  0  0  0
  -46.7531   57.6321   66.4818 C   0  0  0  0  0  0  0  0  0  0  0  0
  -47.9726   57.0139   65.8429 C   0  0  0  0  0  0  0  0  0  0  0  0
  -48.4908   57.8086   64.6734 C   0  0  0  0  0  0  0  0  0  0  0  0
  -49.8658   58.3940   64.9075 C   0  0  0  0  0  0  0  0  0  0  0  0
  -50.6422   58.5971   63.6221 C   0  0  0  0  0  0  0  0  0  0  0  0
  -49.9274   58.0998   62.3832 C   0  0  0  0  0  0  0  0  0  0  0  0
  -50.8583   57.5096   61.3300 C   0  0  0  0  0  0  0  0  0  0  0  0
  -50.1482   57.0333   60.0774 C   0  0  0  0  0  0  0  0  0  0  0  0
  -48.9409   57.8731   59.7135 C   0  0  0  0  0  0  0  0  0  0  0  0
  -47.6867   57.0538   59.4432 C   0  0  0  0  0  0  0  0  0  0  0  0
  -46.9097   57.5163   58.2235 C   0  0  0  0  0  0  0  0  0  0  0  0
  -47.5500   55.2897   57.2396 C   0  0  0  0  0  0  0  0  0  0  0  0
  -47.1904   56.7307   56.9566 C   0  0  0  0  0  0  0  0  0  0  0  0
  -37.0797   61.2329   66.3171 C   0  0  0  0  0  0  0  0  0  0  0  0
  -36.7406   62.1477   65.2509 O   0  0  0  0  0  0  0  0  0  0  0  0
  -36.0805   63.5816   65.5156 P   0  0  0  0  0  0  0  0  0  0  0  0
  -36.0790   64.3277   64.2389 O   0  0  0  0  0  0  0  0  0  0  0  0
  -36.7480   64.1867   66.6933 O   0  0  0  0  0  0  0  0  0  0  0  0
  -37.6739   64.3784   66.4772 H   0  0  0  0  0  0  0  0  0  0  0  0
  -34.5650   63.2825   65.9114 O   0  0  0  0  0  0  0  0  0  0  0  0
  -33.4935   63.7424   65.0626 C   0  0  0  0  0  0  0  0  0  0  0  0
  -31.2904   64.5870   65.4815 O   0  0  0  0  0  0  0  0  0  0  0  0
  -32.6677   64.7400   65.8371 C   0  0  0  0  0  0  0  0  0  0  0  0
  -31.0157   63.6701   65.6388 H   0  0  0  0  0  0  0  0  0  0  0  0
  -33.7738   66.2790   64.3450 O   0  0  0  0  0  0  0  0  0  0  0  0
  -33.1125   66.1630   65.5983 C   0  0  0  0  0  0  0  0  0  0  0  0
  -34.0516   67.1985   64.2098 H   0  0  0  0  0  0  0  0  0  0  0  0
  -37.0825   59.3046   64.7887 O   0  0  0  0  0  0  0  0  0  0  0  0
  -38.2830   57.4393   65.1622 O   0  0  0  0  0  0  0  0  0  0  0  0
  -37.2736   57.9714   64.7885 C   0  0  0  0  0  0  0  0  0  0  0  0
  -36.0861   57.2351   64.2502 C   0  0  0  0  0  0  0  0  0  0  0  0
  -34.8532   58.1312   64.1896 C   0  0  0  0  0  0  0  0  0  0  0  0
  -34.4143   58.4808   62.7771 C   0  0  0  0  0  0  0  0  0  0  0  0
  -32.9705   58.0968   62.4746 C   0  0  0  0  0  0  0  0  0  0  0  0
  -32.8228   56.7675   61.7578 C   0  0  0  0  0  0  0  0  0  0  0  0
  -34.1255   56.2083   61.1787 C   0  0  0  0  0  0  0  0  0  0  0  0
  -34.0007   55.5665   59.7951 C   0  0  0  0  0  0  0  0  0  0  0  0
  -33.8443   56.5894   58.7100 C   0  0  0  0  0  0  0  0  0  0  0  0
  -34.7850   57.0195   57.8918 C   0  0  0  0  0  0  0  0  0  0  0  0
  -36.2133   56.5745   57.8773 C   0  0  0  0  0  0  0  0  0  0  0  0
  -37.1868   57.7446   57.7701 C   0  0  0  0  0  0  0  0  0  0  0  0
  -37.4263   58.4610   59.0875 C   0  0  0  0  0  0  0  0  0  0  0  0
  -37.5667   57.5238   60.2746 C   0  0  0  0  0  0  0  0  0  0  0  0
  -38.3771   58.0878   61.4298 C   0  0  0  0  0  0  0  0  0  0  0  0
  -38.5552   59.5971   61.3646 C   0  0  0  0  0  0  0  0  0  0  0  0
  -39.9993   60.0500   61.2805 C   0  0  0  0  0  0  0  0  0  0  0  0
  -40.4184   60.3996   59.8798 C   0  0  0  0  0  0  0  0  0  0  0  0
 21 22  1  0  0  0
  4  5  2  0  0  0
 25 24  1  0  0  0
 25 26  2  0  0  0
 25 27  1  0  0  0
 25 29  1  0  0  0
 22 20  1  0  0  0
  3  5  1  0  0  0
  3  2  1  0  0  0
 20 19  1  0  0  0
 24 23  1  0  0  0
 19 18  1  0  0  0
 18 17  1  0  0  0
 27 28  1  0  0  0
 17 16  1  0  0  0
 29 30  1  0  0  0
 16 15  1  0  0  0
 34 35  1  0  0  0
 34 36  1  0  0  0
 15 14  1  0  0  0
 31 32  1  0  0  0
 31 33  1  0  0  0
 14 13  1  0  0  0
 37  1  1  0  0  0
 37 39  1  0  0  0
 13 12  1  0  0  0
 38 39  2  0  0  0
 12 11  1  0  0  0
 11 10  1  0  0  0
 10  9  1  0  0  0
  9  8  1  0  0  0
  8  7  1  0  0  0
  7  6  1  0  0  0
  6  5  1  0  0  0
  2  1  1  0  0  0
  1 23  1  0  0  0
 30 32  1  0  0  0
 32 35  1  0  0  0
 39 40  1  0  0  0
 40 41  1  0  0  0
 41 42  1  0  0  0
 42 43  1  0  0  0
 43 44  1  0  0  0
 44 45  1  0  0  0
 45 46  1  0  0  0
 46 47  1  0  0  0
 47 48  2  0  0  0
 48 49  1  0  0  0
 49 50  1  0  0  0
 50 51  1  0  0  0
 51 52  1  0  0  0
 52 53  1  0  0  0
 53 54  1  0  0  0
 54 55  1  0  0  0
 55 56  1  0  0  0
M  CHG 1  26  -1
M  END
> <minimizedAffinity>
-9.09771

> <CNNscore>
0.7972262502

> <CNNaffinity>
7.8501787186

> <CNN_VS>
6.2583684921

> <CNNaffinity_variance>
0.5293774009

$$$$
/media/chris/experiments/cd1a-new-docking/inputs/ligands/7sh4_ligand.pdb


 56 55  0  0  0  0  0  0  0  0999 V2000
  -36.7304   59.9449   64.4190 C   0  0  0  0  0  0  0  0  0  0  0  0
  -37.9868   60.6956   64.0792 C   0  0  0  0  0  0  0  0  0  0  0  0
  -38.8774   60.4005   65.1760 O   0  0  0  0  0  0  0  0  0  0  0  0
  -40.7875   61.0985   64.2466 O   0  0  0  0  0  0  0  0  0  0  0  0
  -40.1743   60.2880   64.8875 C   0  0  0  0  0  0  0  0  0  0  0  0
  -40.7223   58.9711   65.3568 C   0  0  0  0  0  0  0  0  0  0  0  0
  -42.1368   59.0480   65.9063 C   0  0  0  0  0  0  0  0  0  0  0  0
  -42.6108   57.7340   66.4907 C   0  0  0  0  0  0  0  0  0  0  0  0
  -44.1144   57.5835   66.5374 C   0  0  0  0  0  0  0  0  0  0  0  0
  -44.6882   56.9650   65.2788 C   0  0  0  0  0  0  0  0  0  0  0  0
  -45.4836   57.9410   64.4467 C   0  0  0  0  0  0  0  0  0  0  0  0
  -46.1247   59.0285   65.2679 C   0  0  0  0  0  0  0  0  0  0  0  0
  -47.5770   59.2671   64.9190 C   0  0  0  0  0  0  0  0  0  0  0  0
  -48.1180   58.2482   63.9364 C   0  0  0  0  0  0  0  0  0  0  0  0
  -49.6029   58.3760   63.6684 C   0  0  0  0  0  0  0  0  0  0  0  0
  -49.9409   58.7109   62.2200 C   0  0  0  0  0  0  0  0  0  0  0  0
  -50.8955   57.7296   61.5673 C   0  0  0  0  0  0  0  0  0  0  0  0
  -50.4881   57.3378   60.1616 C   0  0  0  0  0  0  0  0  0  0  0  0
  -49.1129   56.6897   60.0831 C   0  0  0  0  0  0  0  0  0  0  0  0
  -48.2468   57.2356   58.9619 C   0  0  0  0  0  0  0  0  0  0  0  0
  -47.4475   55.5738   57.2487 C   0  0  0  0  0  0  0  0  0  0  0  0
  -48.4940   56.6053   57.6045 C   0  0  0  0  0  0  0  0  0  0  0  0
  -35.4965   60.7881   64.2233 C   0  0  0  0  0  0  0  0  0  0  0  0
  -35.7215   61.6922   63.1185 O   0  0  0  0  0  0  0  0  0  0  0  0
  -35.1455   63.1853   63.0886 P   0  0  0  0  0  0  0  0  0  0  0  0
  -34.3131   63.3307   61.8751 O   0  0  0  0  0  0  0  0  0  0  0  0
  -36.2778   64.1209   63.2919 O   0  0  0  0  0  0  0  0  0  0  0  0
  -36.8773   64.0734   62.5308 H   0  0  0  0  0  0  0  0  0  0  0  0
  -34.1865   63.2937   64.3580 O   0  0  0  0  0  0  0  0  0  0  0  0
  -34.4257   64.3043   65.3587 C   0  0  0  0  0  0  0  0  0  0  0  0
  -34.1082   64.5271   67.7234 O   0  0  0  0  0  0  0  0  0  0  0  0
  -34.5440   63.6257   66.7014 C   0  0  0  0  0  0  0  0  0  0  0  0
  -33.2045   64.8222   67.5306 H   0  0  0  0  0  0  0  0  0  0  0  0
  -36.8921   64.1770   66.6832 O   0  0  0  0  0  0  0  0  0  0  0  0
  -35.9503   63.1558   66.9860 C   0  0  0  0  0  0  0  0  0  0  0  0
  -37.7881   63.8569   66.8722 H   0  0  0  0  0  0  0  0  0  0  0  0
  -36.6874   58.7252   63.6063 O   0  0  0  0  0  0  0  0  0  0  0  0
  -37.5095   57.1704   65.0089 O   0  0  0  0  0  0  0  0  0  0  0  0
  -37.5319   57.7334   63.9485 C   0  0  0  0  0  0  0  0  0  0  0  0
  -38.5118   57.4303   62.8577 C   0  0  0  0  0  0  0  0  0  0  0  0
  -37.9637   57.8224   61.4893 C   0  0  0  0  0  0  0  0  0  0  0  0
  -38.7231   58.9584   60.8237 C   0  0  0  0  0  0  0  0  0  0  0  0
  -38.0691   59.4600   59.5413 C   0  0  0  0  0  0  0  0  0  0  0  0
  -37.9648   58.4103   58.4506 C   0  0  0  0  0  0  0  0  0  0  0  0
  -36.5338   58.0922   58.0078 C   0  0  0  0  0  0  0  0  0  0  0  0
  -36.2582   56.6178   57.7044 C   0  0  0  0  0  0  0  0  0  0  0  0
  -36.4430   55.7486   58.9120 C   0  0  0  0  0  0  0  0  0  0  0  0
  -35.5005   55.3368   59.7375 C   0  0  0  0  0  0  0  0  0  0  0  0
  -34.0418   55.6549   59.6408 C   0  0  0  0  0  0  0  0  0  0  0  0
  -33.6671   56.9125   60.4195 C   0  0  0  0  0  0  0  0  0  0  0  0
  -33.1174   56.6295   61.8066 C   0  0  0  0  0  0  0  0  0  0  0  0
  -32.6665   57.8751   62.5498 C   0  0  0  0  0  0  0  0  0  0  0  0
  -32.1776   59.0008   61.6536 C   0  0  0  0  0  0  0  0  0  0  0  0
  -31.0112   59.7801   62.2418 C   0  0  0  0  0  0  0  0  0  0  0  0
  -30.8865   61.1990   61.7233 C   0  0  0  0  0  0  0  0  0  0  0  0
  -30.7407   62.2102   62.8259 C   0  0  0  0  0  0  0  0  0  0  0  0
 21 22  1  0  0  0
  4  5  2  0  0  0
 25 24  1  0  0  0
 25 26  2  0  0  0
 25 27  1  0  0  0
 25 29  1  0  0  0
 22 20  1  0  0  0
  3  5  1  0  0  0
  3  2  1  0  0  0
 20 19  1  0  0  0
 24 23  1  0  0  0
 19 18  1  0  0  0
 18 17  1  0  0  0
 27 28  1  0  0  0
 17 16  1  0  0  0
 29 30  1  0  0  0
 16 15  1  0  0  0
 34 35  1  0  0  0
 34 36  1  0  0  0
 15 14  1  0  0  0
 31 32  1  0  0  0
 31 33  1  0  0  0
 14 13  1  0  0  0
 37  1  1  0  0  0
 37 39  1  0  0  0
 13 12  1  0  0  0
 38 39  2  0  0  0
 12 11  1  0  0  0
 11 10  1  0  0  0
 10  9  1  0  0  0
  9  8  1  0  0  0
  8  7  1  0  0  0
  7  6  1  0  0  0
  6  5  1  0  0  0
  2  1  1  0  0  0
  1 23  1  0  0  0
 30 32  1  0  0  0
 32 35  1  0  0  0
 39 40  1  0  0  0
 40 41  1  0  0  0
 41 42  1  0  0  0
 42 43  1  0  0  0
 43 44  1  0  0  0
 44 45  1  0  0  0
 45 46  1  0  0  0
 46 47  1  0  0  0
 47 48  2  0  0  0
 48 49  1  0  0  0
 49 50  1  0  0  0
 50 51  1  0  0  0
 51 52  1  0  0  0
 52 53  1  0  0  0
 53 54  1  0  0  0
 54 55  1  0  0  0
 55 56  1  0  0  0
M  CHG 1  26  -1
M  END
> <minimizedAffinity>
-9.01632

> <CNNscore>
0.7184527516

> <CNNaffinity>
7.7500991821

> <CNN_VS>
5.5680799484

> <CNNaffinity_variance>
0.7497407198

$$$$
/media/chris/experiments/cd1a-new-docking/inputs/ligands/7sh4_ligand.pdb


 56 55  0  0  0  0  0  0  0  0999 V2000
  -38.2614   60.2509   65.4411 C   0  0  0  0  0  0  0  0  0  0  0  0
  -37.9420   58.8176   65.1229 C   0  0  0  0  0  0  0  0  0  0  0  0
  -36.7159   58.8930   64.3652 O   0  0  0  0  0  0  0  0  0  0  0  0
  -36.2694   56.7020   64.3720 O   0  0  0  0  0  0  0  0  0  0  0  0
  -35.8973   57.8427   64.4349 C   0  0  0  0  0  0  0  0  0  0  0  0
  -34.4603   58.2766   64.4739 C   0  0  0  0  0  0  0  0  0  0  0  0
  -34.1559   59.4933   63.6162 C   0  0  0  0  0  0  0  0  0  0  0  0
  -32.9555   59.2904   62.7160 C   0  0  0  0  0  0  0  0  0  0  0  0
  -32.7445   57.8588   62.2782 C   0  0  0  0  0  0  0  0  0  0  0  0
  -33.6028   57.4684   61.0921 C   0  0  0  0  0  0  0  0  0  0  0  0
  -33.9963   56.0115   61.0976 C   0  0  0  0  0  0  0  0  0  0  0  0
  -34.5511   55.5469   59.7769 C   0  0  0  0  0  0  0  0  0  0  0  0
  -33.9370   56.2504   58.5869 C   0  0  0  0  0  0  0  0  0  0  0  0
  -34.9406   57.0870   57.8195 C   0  0  0  0  0  0  0  0  0  0  0  0
  -36.3633   56.5746   57.9010 C   0  0  0  0  0  0  0  0  0  0  0  0
  -37.3852   57.6482   58.2578 C   0  0  0  0  0  0  0  0  0  0  0  0
  -37.0451   58.4300   59.5121 C   0  0  0  0  0  0  0  0  0  0  0  0
  -37.3587   57.6816   60.7916 C   0  0  0  0  0  0  0  0  0  0  0  0
  -38.6297   58.1577   61.4811 C   0  0  0  0  0  0  0  0  0  0  0  0
  -38.7184   59.6673   61.6170 C   0  0  0  0  0  0  0  0  0  0  0  0
  -40.3745   60.3439   59.8463 C   0  0  0  0  0  0  0  0  0  0  0  0
  -40.0882   60.2513   61.3279 C   0  0  0  0  0  0  0  0  0  0  0  0
  -37.1387   60.9299   66.1828 C   0  0  0  0  0  0  0  0  0  0  0  0
  -36.8951   62.2198   65.5784 O   0  0  0  0  0  0  0  0  0  0  0  0
  -35.9462   63.3240   66.2434 P   0  0  0  0  0  0  0  0  0  0  0  0
  -36.7850   64.4823   66.6193 O   0  0  0  0  0  0  0  0  0  0  0  0
  -35.1336   62.6626   67.2928 O   0  0  0  0  0  0  0  0  0  0  0  0
  -35.7128   62.3698   68.0137 H   0  0  0  0  0  0  0  0  0  0  0  0
  -34.9594   63.7890   65.0803 O   0  0  0  0  0  0  0  0  0  0  0  0
  -33.7024   63.1093   64.8857 C   0  0  0  0  0  0  0  0  0  0  0  0
  -34.6395   62.9260   62.6879 O   0  0  0  0  0  0  0  0  0  0  0  0
  -33.4098   63.0645   63.4060 C   0  0  0  0  0  0  0  0  0  0  0  0
  -35.1100   62.1378   63.0013 H   0  0  0  0  0  0  0  0  0  0  0  0
  -33.1668   65.4594   63.5594 O   0  0  0  0  0  0  0  0  0  0  0  0
  -32.6635   64.2878   62.9304 C   0  0  0  0  0  0  0  0  0  0  0  0
  -32.6758   66.2333   63.2417 H   0  0  0  0  0  0  0  0  0  0  0  0
  -39.5135   60.2865   66.2033 O   0  0  0  0  0  0  0  0  0  0  0  0
  -41.0077   60.9935   64.6776 O   0  0  0  0  0  0  0  0  0  0  0  0
  -40.6588   60.1920   65.5008 C   0  0  0  0  0  0  0  0  0  0  0  0
  -41.4339   58.9610   65.8555 C   0  0  0  0  0  0  0  0  0  0  0  0
  -42.9344   59.1775   65.6869 C   0  0  0  0  0  0  0  0  0  0  0  0
  -43.7736   57.9505   66.0037 C   0  0  0  0  0  0  0  0  0  0  0  0
  -45.2258   58.2740   66.3356 C   0  0  0  0  0  0  0  0  0  0  0  0
  -45.8381   59.3421   65.4486 C   0  0  0  0  0  0  0  0  0  0  0  0
  -47.2112   59.8407   65.9078 C   0  0  0  0  0  0  0  0  0  0  0  0
  -48.3231   59.7438   64.8609 C   0  0  0  0  0  0  0  0  0  0  0  0
  -49.5119   58.9838   65.3682 C   0  0  0  0  0  0  0  0  0  0  0  0
  -50.6875   58.8767   64.7802 C   0  0  0  0  0  0  0  0  0  0  0  0
  -51.0813   59.4939   63.4754 C   0  0  0  0  0  0  0  0  0  0  0  0
  -51.1763   58.4671   62.3507 C   0  0  0  0  0  0  0  0  0  0  0  0
  -50.0718   58.5925   61.3159 C   0  0  0  0  0  0  0  0  0  0  0  0
  -49.7223   57.2805   60.6349 C   0  0  0  0  0  0  0  0  0  0  0  0
  -49.8459   57.3048   59.1204 C   0  0  0  0  0  0  0  0  0  0  0  0
  -48.5714   56.8884   58.4020 C   0  0  0  0  0  0  0  0  0  0  0  0
  -47.3018   57.4473   59.0133 C   0  0  0  0  0  0  0  0  0  0  0  0
  -46.2983   57.8757   57.9793 C   0  0  0  0  0  0  0  0  0  0  0  0
 21 22  1  0  0  0
  4  5  2  0  0  0
 25 24  1  0  0  0
 25 26  2  0  0  0
 25 27  1  0  0  0
 25 29  1  0  0  0
 22 20  1  0  0  0
  3  5  1  0  0  0
  3  2  1  0  0  0
 20 19  1  0  0  0
 24 23  1  0  0  0
 19 18  1  0  0  0
 18 17  1  0  0  0
 27 28  1  0  0  0
 17 16  1  0  0  0
 29 30  1  0  0  0
 16 15  1  0  0  0
 34 35  1  0  0  0
 34 36  1  0  0  0
 15 14  1  0  0  0
 31 32  1  0  0  0
 31 33  1  0  0  0
 14 13  1  0  0  0
 37  1  1  0  0  0
 37 39  1  0  0  0
 13 12  1  0  0  0
 38 39  2  0  0  0
 12 11  1  0  0  0
 11 10  1  0  0  0
 10  9  1  0  0  0
  9  8  1  0  0  0
  8  7  1  0  0  0
  7  6  1  0  0  0
  6  5  1  0  0  0
  2  1  1  0  0  0
  1 23  1  0  0  0
 30 32  1  0  0  0
 32 35  1  0  0  0
 39 40  1  0  0  0
 40 41  1  0  0  0
 41 42  1  0  0  0
 42 43  1  0  0  0
 43 44  1  0  0  0
 44 45  1  0  0  0
 45 46  1  0  0  0
 46 47  1  0  0  0
 47 48  2  0  0  0
 48 49  1  0  0  0
 49 50  1  0  0  0
 50 51  1  0  0  0
 51 52  1  0  0  0
 52 53  1  0  0  0
 53 54  1  0  0  0
 54 55  1  0  0  0
 55 56  1  0  0  0
M  CHG 1  26  -1
M  END
> <minimizedAffinity>
-8.80946

> <CNNscore>
0.6261845231

> <CNNaffinity>
7.5258240700

> <CNN_VS>
4.7125544548

> <CNNaffinity_variance>
1.0687942505

$$$$
/media/chris/experiments/cd1a-new-docking/inputs/ligands/7sh4_ligand.pdb


 56 55  0  0  0  0  0  0  0  0999 V2000
  -38.4394   60.4369   64.6087 C   0  0  0  0  0  0  0  0  0  0  0  0
  -38.6235   59.5586   65.8138 C   0  0  0  0  0  0  0  0  0  0  0  0
  -37.8632   58.3723   65.5008 O   0  0  0  0  0  0  0  0  0  0  0  0
  -39.3362   57.4844   64.0720 O   0  0  0  0  0  0  0  0  0  0  0  0
  -38.2009   57.7135   64.3918 C   0  0  0  0  0  0  0  0  0  0  0  0
  -36.9942   57.4147   63.5496 C   0  0  0  0  0  0  0  0  0  0  0  0
  -35.7055   57.2694   64.3412 C   0  0  0  0  0  0  0  0  0  0  0  0
  -34.9113   58.5567   64.4096 C   0  0  0  0  0  0  0  0  0  0  0  0
  -34.3538   59.0119   63.0801 C   0  0  0  0  0  0  0  0  0  0  0  0
  -32.8678   58.7512   62.9392 C   0  0  0  0  0  0  0  0  0  0  0  0
  -32.5541   57.5531   62.0769 C   0  0  0  0  0  0  0  0  0  0  0  0
  -33.5081   57.3928   60.9228 C   0  0  0  0  0  0  0  0  0  0  0  0
  -34.3224   56.1198   60.9894 C   0  0  0  0  0  0  0  0  0  0  0  0
  -34.4731   55.4500   59.6385 C   0  0  0  0  0  0  0  0  0  0  0  0
  -35.8023   54.7524   59.4394 C   0  0  0  0  0  0  0  0  0  0  0  0
  -36.6679   55.3756   58.3502 C   0  0  0  0  0  0  0  0  0  0  0  0
  -36.1122   56.6691   57.7862 C   0  0  0  0  0  0  0  0  0  0  0  0
  -37.0919   57.8231   57.8483 C   0  0  0  0  0  0  0  0  0  0  0  0
  -37.5503   58.1591   59.2606 C   0  0  0  0  0  0  0  0  0  0  0  0
  -37.7241   59.6474   59.5051 C   0  0  0  0  0  0  0  0  0  0  0  0
  -39.5280   59.4432   61.2486 C   0  0  0  0  0  0  0  0  0  0  0  0
  -38.1693   60.0124   60.9085 C   0  0  0  0  0  0  0  0  0  0  0  0
  -37.3859   61.4914   64.8323 C   0  0  0  0  0  0  0  0  0  0  0  0
  -36.7103   61.7467   63.5806 O   0  0  0  0  0  0  0  0  0  0  0  0
  -35.6943   62.9666   63.3765 P   0  0  0  0  0  0  0  0  0  0  0  0
  -34.3377   62.4070   63.1939 O   0  0  0  0  0  0  0  0  0  0  0  0
  -36.2455   63.8554   62.3253 O   0  0  0  0  0  0  0  0  0  0  0  0
  -36.2444   63.3895   61.4746 H   0  0  0  0  0  0  0  0  0  0  0  0
  -35.7136   63.7677   64.7551 O   0  0  0  0  0  0  0  0  0  0  0  0
  -34.4756   64.0765   65.4275 C   0  0  0  0  0  0  0  0  0  0  0  0
  -34.0174   64.8065   67.6634 O   0  0  0  0  0  0  0  0  0  0  0  0
  -34.6438   63.7740   66.8963 C   0  0  0  0  0  0  0  0  0  0  0  0
  -33.0870   64.8854   67.4007 H   0  0  0  0  0  0  0  0  0  0  0  0
  -36.2794   62.5110   68.1404 O   0  0  0  0  0  0  0  0  0  0  0  0
  -36.0942   63.6374   67.2927 C   0  0  0  0  0  0  0  0  0  0  0  0
  -37.2157   62.4400   68.3839 H   0  0  0  0  0  0  0  0  0  0  0  0
  -39.7360   61.0304   64.2677 O   0  0  0  0  0  0  0  0  0  0  0  0
  -40.8531   61.1132   66.2185 O   0  0  0  0  0  0  0  0  0  0  0  0
  -40.7716   60.7425   65.0793 C   0  0  0  0  0  0  0  0  0  0  0  0
  -41.8153   59.9222   64.3866 C   0  0  0  0  0  0  0  0  0  0  0  0
  -42.6380   59.1090   65.3809 C   0  0  0  0  0  0  0  0  0  0  0  0
  -43.9827   58.6518   64.8400 C   0  0  0  0  0  0  0  0  0  0  0  0
  -45.1732   59.2792   65.5561 C   0  0  0  0  0  0  0  0  0  0  0  0
  -46.4096   58.4000   65.5842 C   0  0  0  0  0  0  0  0  0  0  0  0
  -47.6666   59.0501   64.9992 C   0  0  0  0  0  0  0  0  0  0  0  0
  -48.8505   58.1041   64.7862 C   0  0  0  0  0  0  0  0  0  0  0  0
  -50.0538   58.8177   64.2471 C   0  0  0  0  0  0  0  0  0  0  0  0
  -50.5809   58.6762   63.0464 C   0  0  0  0  0  0  0  0  0  0  0  0
  -50.0853   57.7670   61.9665 C   0  0  0  0  0  0  0  0  0  0  0  0
  -49.7128   58.5229   60.6944 C   0  0  0  0  0  0  0  0  0  0  0  0
  -48.9439   57.6832   59.6894 C   0  0  0  0  0  0  0  0  0  0  0  0
  -47.5215   57.3682   60.1193 C   0  0  0  0  0  0  0  0  0  0  0  0
  -46.5510   57.1470   58.9709 C   0  0  0  0  0  0  0  0  0  0  0  0
  -47.0643   57.6651   57.6360 C   0  0  0  0  0  0  0  0  0  0  0  0
  -47.3442   56.5810   56.6141 C   0  0  0  0  0  0  0  0  0  0  0  0
  -47.5348   55.2275   57.2397 C   0  0  0  0  0  0  0  0  0  0  0  0
 21 22  1  0  0  0
  4  5  2  0  0  0
 25 24  1  0  0  0
 25 26  2  0  0  0
 25 27  1  0  0  0
 25 29  1  0  0  0
 22 20  1  0  0  0
  3  5  1  0  0  0
  3  2  1  0  0  0
 20 19  1  0  0  0
 24 23  1  0  0  0
 19 18  1  0  0  0
 18 17  1  0  0  0
 27 28  1  0  0  0
 17 16  1  0  0  0
 29 30  1  0  0  0
 16 15  1  0  0  0
 34 35  1  0  0  0
 34 36  1  0  0  0
 15 14  1  0  0  0
 31 32  1  0  0  0
 31 33  1  0  0  0
 14 13  1  0  0  0
 37  1  1  0  0  0
 37 39  1  0  0  0
 13 12  1  0  0  0
 38 39  2  0  0  0
 12 11  1  0  0  0
 11 10  1  0  0  0
 10  9  1  0  0  0
  9  8  1  0  0  0
  8  7  1  0  0  0
  7  6  1  0  0  0
  6  5  1  0  0  0
  2  1  1  0  0  0
  1 23  1  0  0  0
 30 32  1  0  0  0
 32 35  1  0  0  0
 39 40  1  0  0  0
 40 41  1  0  0  0
 41 42  1  0  0  0
 42 43  1  0  0  0
 43 44  1  0  0  0
 44 45  1  0  0  0
 45 46  1  0  0  0
 46 47  1  0  0  0
 47 48  2  0  0  0
 48 49  1  0  0  0
 49 50  1  0  0  0
 50 51  1  0  0  0
 51 52  1  0  0  0
 52 53  1  0  0  0
 53 54  1  0  0  0
 54 55  1  0  0  0
 55 56  1  0  0  0
M  CHG 1  26  -1
M  END
> <minimizedAffinity>
-8.64418

> <CNNscore>
0.6093561649

> <CNNaffinity>
7.6785287857

> <CNN_VS>
4.6789588928

> <CNNaffinity_variance>
0.6917023063

$$$$
/media/chris/experiments/cd1a-new-docking/inputs/ligands/7sh4_ligand.pdb


 56 55  0  0  0  0  0  0  0  0999 V2000
  -37.5024   60.1492   65.0288 C   0  0  0  0  0  0  0  0  0  0  0  0
  -38.7049   60.2190   65.9270 C   0  0  0  0  0  0  0  0  0  0  0  0
  -39.7345   60.7851   65.0887 O   0  0  0  0  0  0  0  0  0  0  0  0
  -41.2817   59.8105   63.8019 O   0  0  0  0  0  0  0  0  0  0  0  0
  -40.8252   60.0447   64.8884 C   0  0  0  0  0  0  0  0  0  0  0  0
  -41.3211   59.4499   66.1749 C   0  0  0  0  0  0  0  0  0  0  0  0
  -42.3543   58.3509   65.9929 C   0  0  0  0  0  0  0  0  0  0  0  0
  -43.7763   58.8673   66.0542 C   0  0  0  0  0  0  0  0  0  0  0  0
  -44.8184   57.8662   65.6097 C   0  0  0  0  0  0  0  0  0  0  0  0
  -46.1175   58.5148   65.1764 C   0  0  0  0  0  0  0  0  0  0  0  0
  -46.7497   59.3579   66.2567 C   0  0  0  0  0  0  0  0  0  0  0  0
  -48.2365   59.5207   66.0814 C   0  0  0  0  0  0  0  0  0  0  0  0
  -48.9712   58.2066   65.9352 C   0  0  0  0  0  0  0  0  0  0  0  0
  -50.2009   58.3180   65.0567 C   0  0  0  0  0  0  0  0  0  0  0  0
  -50.0154   59.2051   63.8436 C   0  0  0  0  0  0  0  0  0  0  0  0
  -51.1611   59.1251   62.8410 C   0  0  0  0  0  0  0  0  0  0  0  0
  -51.0287   57.9904   61.8434 C   0  0  0  0  0  0  0  0  0  0  0  0
  -49.9519   58.2252   60.8039 C   0  0  0  0  0  0  0  0  0  0  0  0
  -49.9121   57.1617   59.7154 C   0  0  0  0  0  0  0  0  0  0  0  0
  -48.5273   56.5862   59.4784 C   0  0  0  0  0  0  0  0  0  0  0  0
  -46.9160   57.4642   57.7554 C   0  0  0  0  0  0  0  0  0  0  0  0
  -47.4588   57.6143   59.1585 C   0  0  0  0  0  0  0  0  0  0  0  0
  -36.8955   61.5078   64.7886 C   0  0  0  0  0  0  0  0  0  0  0  0
  -35.8544   61.7315   65.7656 O   0  0  0  0  0  0  0  0  0  0  0  0
  -35.8653   62.9731   66.7757 P   0  0  0  0  0  0  0  0  0  0  0  0
  -36.7585   64.0105   66.2165 O   0  0  0  0  0  0  0  0  0  0  0  0
  -36.1391   62.4569   68.1385 O   0  0  0  0  0  0  0  0  0  0  0  0
  -37.0412   62.1024   68.1750 H   0  0  0  0  0  0  0  0  0  0  0  0
  -34.3769   63.5450   66.7583 O   0  0  0  0  0  0  0  0  0  0  0  0
  -33.8110   64.0462   65.5301 C   0  0  0  0  0  0  0  0  0  0  0  0
  -31.7442   64.8929   64.6617 O   0  0  0  0  0  0  0  0  0  0  0  0
  -32.5198   64.7561   65.8561 C   0  0  0  0  0  0  0  0  0  0  0  0
  -31.6022   64.0185   64.2663 H   0  0  0  0  0  0  0  0  0  0  0  0
  -32.9977   65.9790   67.8795 O   0  0  0  0  0  0  0  0  0  0  0  0
  -32.7507   66.1090   66.4853 C   0  0  0  0  0  0  0  0  0  0  0  0
  -33.1434   66.8570   68.2653 H   0  0  0  0  0  0  0  0  0  0  0  0
  -37.9006   59.5043   63.7737 O   0  0  0  0  0  0  0  0  0  0  0  0
  -36.2683   57.9747   64.0110 O   0  0  0  0  0  0  0  0  0  0  0  0
  -37.2008   58.4168   63.3971 C   0  0  0  0  0  0  0  0  0  0  0  0
  -37.7353   57.8160   62.1340 C   0  0  0  0  0  0  0  0  0  0  0  0
  -38.5708   58.8208   61.3471 C   0  0  0  0  0  0  0  0  0  0  0  0
  -37.8421   59.4352   60.1633 C   0  0  0  0  0  0  0  0  0  0  0  0
  -38.1382   58.7420   58.8384 C   0  0  0  0  0  0  0  0  0  0  0  0
  -36.8989   58.2956   58.0852 C   0  0  0  0  0  0  0  0  0  0  0  0
  -36.7323   56.7773   57.9764 C   0  0  0  0  0  0  0  0  0  0  0  0
  -36.7340   56.0245   59.3087 C   0  0  0  0  0  0  0  0  0  0  0  0
  -35.5475   55.1184   59.4470 C   0  0  0  0  0  0  0  0  0  0  0  0
  -34.2960   55.4843   59.6449 C   0  0  0  0  0  0  0  0  0  0  0  0
  -33.7971   56.8888   59.7749 C   0  0  0  0  0  0  0  0  0  0  0  0
  -34.1608   57.5139   61.1186 C   0  0  0  0  0  0  0  0  0  0  0  0
  -33.2989   57.0275   62.2704 C   0  0  0  0  0  0  0  0  0  0  0  0
  -32.3796   58.0955   62.8376 C   0  0  0  0  0  0  0  0  0  0  0  0
  -32.1191   59.2639   61.9015 C   0  0  0  0  0  0  0  0  0  0  0  0
  -30.8130   59.9894   62.1873 C   0  0  0  0  0  0  0  0  0  0  0  0
  -30.7476   61.3965   61.6273 C   0  0  0  0  0  0  0  0  0  0  0  0
  -31.8322   62.2874   62.1653 C   0  0  0  0  0  0  0  0  0  0  0  0
 21 22  1  0  0  0
  4  5  2  0  0  0
 25 24  1  0  0  0
 25 26  2  0  0  0
 25 27  1  0  0  0
 25 29  1  0  0  0
 22 20  1  0  0  0
  3  5  1  0  0  0
  3  2  1  0  0  0
 20 19  1  0  0  0
 24 23  1  0  0  0
 19 18  1  0  0  0
 18 17  1  0  0  0
 27 28  1  0  0  0
 17 16  1  0  0  0
 29 30  1  0  0  0
 16 15  1  0  0  0
 34 35  1  0  0  0
 34 36  1  0  0  0
 15 14  1  0  0  0
 31 32  1  0  0  0
 31 33  1  0  0  0
 14 13  1  0  0  0
 37  1  1  0  0  0
 37 39  1  0  0  0
 13 12  1  0  0  0
 38 39  2  0  0  0
 12 11  1  0  0  0
 11 10  1  0  0  0
 10  9  1  0  0  0
  9  8  1  0  0  0
  8  7  1  0  0  0
  7  6  1  0  0  0
  6  5  1  0  0  0
  2  1  1  0  0  0
  1 23  1  0  0  0
 30 32  1  0  0  0
 32 35  1  0  0  0
 39 40  1  0  0  0
 40 41  1  0  0  0
 41 42  1  0  0  0
 42 43  1  0  0  0
 43 44  1  0  0  0
 44 45  1  0  0  0
 45 46  1  0  0  0
 46 47  1  0  0  0
 47 48  2  0  0  0
 48 49  1  0  0  0
 49 50  1  0  0  0
 50 51  1  0  0  0
 51 52  1  0  0  0
 52 53  1  0  0  0
 53 54  1  0  0  0
 54 55  1  0  0  0
 55 56  1  0  0  0
M  CHG 1  26  -1
M  END
> <minimizedAffinity>
-8.85396

> <CNNscore>
0.5766258836

> <CNNaffinity>
7.2913560867

> <CNN_VS>
4.2043848038

> <CNNaffinity_variance>
0.7505128384

$$$$
/media/chris/experiments/cd1a-new-docking/inputs/ligands/7sh4_ligand.pdb


 56 55  0  0  0  0  0  0  0  0999 V2000
  -37.4635   60.6151   65.3235 C   0  0  0  0  0  0  0  0  0  0  0  0
  -36.4815   59.8040   64.5263 C   0  0  0  0  0  0  0  0  0  0  0  0
  -36.8720   58.4374   64.7776 O   0  0  0  0  0  0  0  0  0  0  0  0
  -35.6139   56.6368   64.3596 O   0  0  0  0  0  0  0  0  0  0  0  0
  -36.3529   57.5043   63.9789 C   0  0  0  0  0  0  0  0  0  0  0  0
  -36.9100   57.6093   62.5884 C   0  0  0  0  0  0  0  0  0  0  0  0
  -38.4142   57.4113   62.5059 C   0  0  0  0  0  0  0  0  0  0  0  0
  -39.1505   58.6728   62.1072 C   0  0  0  0  0  0  0  0  0  0  0  0
  -38.2854   59.7032   61.4178 C   0  0  0  0  0  0  0  0  0  0  0  0
  -38.7799   60.0611   60.0309 C   0  0  0  0  0  0  0  0  0  0  0  0
  -38.4711   59.0041   58.9991 C   0  0  0  0  0  0  0  0  0  0  0  0
  -37.0326   58.5590   59.0250 C   0  0  0  0  0  0  0  0  0  0  0  0
  -36.6006   57.8506   57.7603 C   0  0  0  0  0  0  0  0  0  0  0  0
  -36.4999   56.3488   57.9357 C   0  0  0  0  0  0  0  0  0  0  0  0
  -36.5547   55.8900   59.3778 C   0  0  0  0  0  0  0  0  0  0  0  0
  -35.3832   55.0046   59.7875 C   0  0  0  0  0  0  0  0  0  0  0  0
  -34.0518   55.7292   59.8394 C   0  0  0  0  0  0  0  0  0  0  0  0
  -33.7107   56.2640   61.2153 C   0  0  0  0  0  0  0  0  0  0  0  0
  -33.4672   57.7665   61.2429 C   0  0  0  0  0  0  0  0  0  0  0  0
  -32.6437   58.2269   62.4324 C   0  0  0  0  0  0  0  0  0  0  0  0
  -31.0961   60.0922   61.7531 C   0  0  0  0  0  0  0  0  0  0  0  0
  -32.3702   59.7183   62.4760 C   0  0  0  0  0  0  0  0  0  0  0  0
  -36.7827   61.4599   66.3697 C   0  0  0  0  0  0  0  0  0  0  0  0
  -35.7778   62.2759   65.7270 O   0  0  0  0  0  0  0  0  0  0  0  0
  -35.7812   63.8747   65.8015 P   0  0  0  0  0  0  0  0  0  0  0  0
  -35.8589   64.3973   64.4203 O   0  0  0  0  0  0  0  0  0  0  0  0
  -36.8164   64.2891   66.7789 O   0  0  0  0  0  0  0  0  0  0  0  0
  -37.6944   64.0569   66.4381 H   0  0  0  0  0  0  0  0  0  0  0  0
  -34.3570   64.2730   66.3978 O   0  0  0  0  0  0  0  0  0  0  0  0
  -33.1629   64.0599   65.6176 C   0  0  0  0  0  0  0  0  0  0  0  0
  -33.3150   65.8086   63.9862 O   0  0  0  0  0  0  0  0  0  0  0  0
  -32.6355   65.4038   65.1784 C   0  0  0  0  0  0  0  0  0  0  0  0
  -33.2110   65.1244   63.3065 H   0  0  0  0  0  0  0  0  0  0  0  0
  -32.2818   65.9889   67.4916 O   0  0  0  0  0  0  0  0  0  0  0  0
  -32.7871   66.4584   66.2482 C   0  0  0  0  0  0  0  0  0  0  0  0
  -32.3878   66.6790   68.1650 H   0  0  0  0  0  0  0  0  0  0  0  0
  -38.4421   59.7000   65.9190 O   0  0  0  0  0  0  0  0  0  0  0  0
  -40.2186   60.8926   65.2247 O   0  0  0  0  0  0  0  0  0  0  0  0
  -39.7248   59.8426   65.5336 C   0  0  0  0  0  0  0  0  0  0  0  0
  -40.4543   58.5351   65.5190 C   0  0  0  0  0  0  0  0  0  0  0  0
  -41.9654   58.7387   65.4752 C   0  0  0  0  0  0  0  0  0  0  0  0
  -42.7012   58.1526   66.6689 C   0  0  0  0  0  0  0  0  0  0  0  0
  -43.8417   57.2176   66.2833 C   0  0  0  0  0  0  0  0  0  0  0  0
  -44.5845   57.6356   65.0279 C   0  0  0  0  0  0  0  0  0  0  0  0
  -45.6122   58.7513   65.2379 C   0  0  0  0  0  0  0  0  0  0  0  0
  -46.5410   58.5638   66.4395 C   0  0  0  0  0  0  0  0  0  0  0  0
  -47.6365   59.5869   66.4718 C   0  0  0  0  0  0  0  0  0  0  0  0
  -48.8871   59.4138   66.0908 C   0  0  0  0  0  0  0  0  0  0  0  0
  -49.4770   58.1517   65.5453 C   0  0  0  0  0  0  0  0  0  0  0  0
  -50.3049   58.3924   64.2863 C   0  0  0  0  0  0  0  0  0  0  0  0
  -49.5051   58.2811   63.0002 C   0  0  0  0  0  0  0  0  0  0  0  0
  -50.1254   59.0245   61.8299 C   0  0  0  0  0  0  0  0  0  0  0  0
  -49.6303   58.5756   60.4651 C   0  0  0  0  0  0  0  0  0  0  0  0
  -48.4593   57.6072   60.5340 C   0  0  0  0  0  0  0  0  0  0  0  0
  -47.6848   57.4744   59.2378 C   0  0  0  0  0  0  0  0  0  0  0  0
  -48.5080   56.8853   58.1264 C   0  0  0  0  0  0  0  0  0  0  0  0
 21 22  1  0  0  0
  4  5  2  0  0  0
 25 24  1  0  0  0
 25 26  2  0  0  0
 25 27  1  0  0  0
 25 29  1  0  0  0
 22 20  1  0  0  0
  3  5  1  0  0  0
  3  2  1  0  0  0
 20 19  1  0  0  0
 24 23  1  0  0  0
 19 18  1  0  0  0
 18 17  1  0  0  0
 27 28  1  0  0  0
 17 16  1  0  0  0
 29 30  1  0  0  0
 16 15  1  0  0  0
 34 35  1  0  0  0
 34 36  1  0  0  0
 15 14  1  0  0  0
 31 32  1  0  0  0
 31 33  1  0  0  0
 14 13  1  0  0  0
 37  1  1  0  0  0
 37 39  1  0  0  0
 13 12  1  0  0  0
 38 39  2  0  0  0
 12 11  1  0  0  0
 11 10  1  0  0  0
 10  9  1  0  0  0
  9  8  1  0  0  0
  8  7  1  0  0  0
  7  6  1  0  0  0
  6  5  1  0  0  0
  2  1  1  0  0  0
  1 23  1  0  0  0
 30 32  1  0  0  0
 32 35  1  0  0  0
 39 40  1  0  0  0
 40 41  1  0  0  0
 41 42  1  0  0  0
 42 43  1  0  0  0
 43 44  1  0  0  0
 44 45  1  0  0  0
 45 46  1  0  0  0
 46 47  1  0  0  0
 47 48  2  0  0  0
 48 49  1  0  0  0
 49 50  1  0  0  0
 50 51  1  0  0  0
 51 52  1  0  0  0
 52 53  1  0  0  0
 53 54  1  0  0  0
 54 55  1  0  0  0
 55 56  1  0  0  0
M  CHG 1  26  -1
M  END
> <minimizedAffinity>
-8.77452

> <CNNscore>
0.5691741109

> <CNNaffinity>
7.4419236183

> <CNN_VS>
4.2357501984

> <CNNaffinity_variance>
1.0074210167

$$$$
/media/chris/experiments/cd1a-new-docking/inputs/ligands/7sh4_ligand.pdb


 56 55  0  0  0  0  0  0  0  0999 V2000
  -38.5526   59.7594   65.3044 C   0  0  0  0  0  0  0  0  0  0  0  0
  -39.9538   60.2547   65.5260 C   0  0  0  0  0  0  0  0  0  0  0  0
  -40.6446   59.1134   66.0765 O   0  0  0  0  0  0  0  0  0  0  0  0
  -42.3743   59.6581   67.3846 O   0  0  0  0  0  0  0  0  0  0  0  0
  -41.9443   59.2611   66.3353 C   0  0  0  0  0  0  0  0  0  0  0  0
  -42.7750   58.9891   65.1142 C   0  0  0  0  0  0  0  0  0  0  0  0
  -44.2662   59.1950   65.3197 C   0  0  0  0  0  0  0  0  0  0  0  0
  -45.0951   58.0424   64.7933 C   0  0  0  0  0  0  0  0  0  0  0  0
  -45.5440   57.0660   65.8566 C   0  0  0  0  0  0  0  0  0  0  0  0
  -47.0471   56.8779   65.8930 C   0  0  0  0  0  0  0  0  0  0  0  0
  -47.7978   58.1507   66.1994 C   0  0  0  0  0  0  0  0  0  0  0  0
  -49.1687   58.1895   65.5773 C   0  0  0  0  0  0  0  0  0  0  0  0
  -49.2108   58.9376   64.2633 C   0  0  0  0  0  0  0  0  0  0  0  0
  -50.5632   59.5638   63.9892 C   0  0  0  0  0  0  0  0  0  0  0  0
  -51.3210   58.9222   62.8460 C   0  0  0  0  0  0  0  0  0  0  0  0
  -50.5608   57.7927   62.1600 C   0  0  0  0  0  0  0  0  0  0  0  0
  -51.1211   57.4072   60.8044 C   0  0  0  0  0  0  0  0  0  0  0  0
  -50.0711   57.3478   59.7138 C   0  0  0  0  0  0  0  0  0  0  0  0
  -49.1166   56.1696   59.8492 C   0  0  0  0  0  0  0  0  0  0  0  0
  -48.0896   56.0881   58.7340 C   0  0  0  0  0  0  0  0  0  0  0  0
  -46.6496   57.9759   57.8982 C   0  0  0  0  0  0  0  0  0  0  0  0
  -46.8395   56.9170   58.9605 C   0  0  0  0  0  0  0  0  0  0  0  0
  -37.5206   60.7823   65.7049 C   0  0  0  0  0  0  0  0  0  0  0  0
  -37.5899   61.8968   64.7875 O   0  0  0  0  0  0  0  0  0  0  0  0
  -36.3158   62.4407   63.9858 P   0  0  0  0  0  0  0  0  0  0  0  0
  -35.9338   61.4201   62.9862 O   0  0  0  0  0  0  0  0  0  0  0  0
  -36.6161   63.8162   63.5202 O   0  0  0  0  0  0  0  0  0  0  0  0
  -37.3270   63.7865   62.8611 H   0  0  0  0  0  0  0  0  0  0  0  0
  -35.1455   62.5334   65.0650 O   0  0  0  0  0  0  0  0  0  0  0  0
  -34.8198   63.8019   65.6690 C   0  0  0  0  0  0  0  0  0  0  0  0
  -33.8527   64.9616   63.8083 O   0  0  0  0  0  0  0  0  0  0  0  0
  -33.5440   64.3122   65.0452 C   0  0  0  0  0  0  0  0  0  0  0  0
  -34.3327   64.3471   63.2314 H   0  0  0  0  0  0  0  0  0  0  0  0
  -31.4095   64.9405   65.9766 O   0  0  0  0  0  0  0  0  0  0  0  0
  -32.7959   65.2555   65.9564 C   0  0  0  0  0  0  0  0  0  0  0  0
  -30.9467   65.5562   66.5663 H   0  0  0  0  0  0  0  0  0  0  0  0
  -38.4162   59.3752   63.8960 O   0  0  0  0  0  0  0  0  0  0  0  0
  -39.2280   57.2786   63.8204 O   0  0  0  0  0  0  0  0  0  0  0  0
  -38.3350   58.0578   63.6277 C   0  0  0  0  0  0  0  0  0  0  0  0
  -37.0071   57.6855   63.0444 C   0  0  0  0  0  0  0  0  0  0  0  0
  -36.0101   57.2929   64.1301 C   0  0  0  0  0  0  0  0  0  0  0  0
  -35.0187   58.3898   64.4823 C   0  0  0  0  0  0  0  0  0  0  0  0
  -33.5927   58.0896   64.0348 C   0  0  0  0  0  0  0  0  0  0  0  0
  -33.1403   58.8974   62.8327 C   0  0  0  0  0  0  0  0  0  0  0  0
  -33.0954   58.1127   61.5186 C   0  0  0  0  0  0  0  0  0  0  0  0
  -32.9946   56.5932   61.6701 C   0  0  0  0  0  0  0  0  0  0  0  0
  -34.2435   55.8966   61.2197 C   0  0  0  0  0  0  0  0  0  0  0  0
  -34.6554   55.7444   59.9761 C   0  0  0  0  0  0  0  0  0  0  0  0
  -33.9565   56.2370   58.7483 C   0  0  0  0  0  0  0  0  0  0  0  0
  -34.8443   57.1382   57.8949 C   0  0  0  0  0  0  0  0  0  0  0  0
  -36.2660   56.6263   57.7434 C   0  0  0  0  0  0  0  0  0  0  0  0
  -37.3252   57.6902   57.9746 C   0  0  0  0  0  0  0  0  0  0  0  0
  -37.4656   58.1350   59.4209 C   0  0  0  0  0  0  0  0  0  0  0  0
  -37.9622   59.5652   59.5692 C   0  0  0  0  0  0  0  0  0  0  0  0
  -39.1770   59.7122   60.4638 C   0  0  0  0  0  0  0  0  0  0  0  0
  -40.3607   60.2973   59.7453 C   0  0  0  0  0  0  0  0  0  0  0  0
 21 22  1  0  0  0
  4  5  2  0  0  0
 25 24  1  0  0  0
 25 26  2  0  0  0
 25 27  1  0  0  0
 25 29  1  0  0  0
 22 20  1  0  0  0
  3  5  1  0  0  0
  3  2  1  0  0  0
 20 19  1  0  0  0
 24 23  1  0  0  0
 19 18  1  0  0  0
 18 17  1  0  0  0
 27 28  1  0  0  0
 17 16  1  0  0  0
 29 30  1  0  0  0
 16 15  1  0  0  0
 34 35  1  0  0  0
 34 36  1  0  0  0
 15 14  1  0  0  0
 31 32  1  0  0  0
 31 33  1  0  0  0
 14 13  1  0  0  0
 37  1  1  0  0  0
 37 39  1  0  0  0
 13 12  1  0  0  0
 38 39  2  0  0  0
 12 11  1  0  0  0
 11 10  1  0  0  0
 10  9  1  0  0  0
  9  8  1  0  0  0
  8  7  1  0  0  0
  7  6  1  0  0  0
  6  5  1  0  0  0
  2  1  1  0  0  0
  1 23  1  0  0  0
 30 32  1  0  0  0
 32 35  1  0  0  0
 39 40  1  0  0  0
 40 41  1  0  0  0
 41 42  1  0  0  0
 42 43  1  0  0  0
 43 44  1  0  0  0
 44 45  1  0  0  0
 45 46  1  0  0  0
 46 47  1  0  0  0
 47 48  2  0  0  0
 48 49  1  0  0  0
 49 50  1  0  0  0
 50 51  1  0  0  0
 51 52  1  0  0  0
 52 53  1  0  0  0
 53 54  1  0  0  0
 54 55  1  0  0  0
 55 56  1  0  0  0
M  CHG 1  26  -1
M  END
> <minimizedAffinity>
-8.90275

> <CNNscore>
0.5472925901

> <CNNaffinity>
7.4456853867

> <CNN_VS>
4.0749683380

> <CNNaffinity_variance>
0.8699682355

$$$$
/media/chris/experiments/cd1a-new-docking/inputs/ligands/7sh4_ligand.pdb


 56 55  0  0  0  0  0  0  0  0999 V2000
  -38.2703   60.7886   65.1175 C   0  0  0  0  0  0  0  0  0  0  0  0
  -38.0368   60.3888   63.6881 C   0  0  0  0  0  0  0  0  0  0  0  0
  -39.1070   61.0338   62.9658 O   0  0  0  0  0  0  0  0  0  0  0  0
  -41.1879   60.3296   62.5489 O   0  0  0  0  0  0  0  0  0  0  0  0
  -40.0022   60.2403   62.3766 C   0  0  0  0  0  0  0  0  0  0  0  0
  -39.3446   59.3204   61.3886 C   0  0  0  0  0  0  0  0  0  0  0  0
  -39.1458   59.9292   60.0108 C   0  0  0  0  0  0  0  0  0  0  0  0
  -37.8201   59.5473   59.3869 C   0  0  0  0  0  0  0  0  0  0  0  0
  -37.6166   58.0577   59.2281 C   0  0  0  0  0  0  0  0  0  0  0  0
  -37.0777   57.6745   57.8647 C   0  0  0  0  0  0  0  0  0  0  0  0
  -36.2284   56.4273   57.8908 C   0  0  0  0  0  0  0  0  0  0  0  0
  -36.3898   55.6320   59.1594 C   0  0  0  0  0  0  0  0  0  0  0  0
  -35.0774   55.3212   59.8442 C   0  0  0  0  0  0  0  0  0  0  0  0
  -33.9973   56.3358   59.5276 C   0  0  0  0  0  0  0  0  0  0  0  0
  -33.7227   57.3163   60.6484 C   0  0  0  0  0  0  0  0  0  0  0  0
  -32.8656   56.7437   61.7716 C   0  0  0  0  0  0  0  0  0  0  0  0
  -32.5924   57.7218   62.8981 C   0  0  0  0  0  0  0  0  0  0  0  0
  -33.3619   59.0203   62.7678 C   0  0  0  0  0  0  0  0  0  0  0  0
  -34.5258   59.1403   63.7417 C   0  0  0  0  0  0  0  0  0  0  0  0
  -34.8692   57.8375   64.4417 C   0  0  0  0  0  0  0  0  0  0  0  0
  -36.6454   57.1659   62.7894 C   0  0  0  0  0  0  0  0  0  0  0  0
  -36.2991   57.3699   64.2469 C   0  0  0  0  0  0  0  0  0  0  0  0
  -36.9789   61.0356   65.8545 C   0  0  0  0  0  0  0  0  0  0  0  0
  -37.0556   62.3216   66.5092 O   0  0  0  0  0  0  0  0  0  0  0  0
  -35.9753   63.4794   66.2761 P   0  0  0  0  0  0  0  0  0  0  0  0
  -36.4932   64.3846   65.2277 O   0  0  0  0  0  0  0  0  0  0  0  0
  -35.6182   64.0502   67.5972 O   0  0  0  0  0  0  0  0  0  0  0  0
  -36.3887   64.5049   67.9720 H   0  0  0  0  0  0  0  0  0  0  0  0
  -34.6854   62.7430   65.6958 O   0  0  0  0  0  0  0  0  0  0  0  0
  -33.3938   63.3796   65.7764 C   0  0  0  0  0  0  0  0  0  0  0  0
  -33.5534   62.6187   63.5098 O   0  0  0  0  0  0  0  0  0  0  0  0
  -32.8328   63.4959   64.3804 C   0  0  0  0  0  0  0  0  0  0  0  0
  -33.5125   61.7136   63.8563 H   0  0  0  0  0  0  0  0  0  0  0  0
  -34.0709   65.5641   64.2923 O   0  0  0  0  0  0  0  0  0  0  0  0
  -32.8861   64.9106   63.8555 C   0  0  0  0  0  0  0  0  0  0  0  0
  -34.0871   66.4699   63.9457 H   0  0  0  0  0  0  0  0  0  0  0  0
  -39.0716   59.7446   65.7638 O   0  0  0  0  0  0  0  0  0  0  0  0
  -40.8211   61.0655   66.2684 O   0  0  0  0  0  0  0  0  0  0  0  0
  -40.3834   59.9988   65.9333 C   0  0  0  0  0  0  0  0  0  0  0  0
  -41.2296   58.7997   65.6366 C   0  0  0  0  0  0  0  0  0  0  0  0
  -42.6119   58.9205   66.2700 C   0  0  0  0  0  0  0  0  0  0  0  0
  -43.7448   59.0243   65.2621 C   0  0  0  0  0  0  0  0  0  0  0  0
  -44.6864   57.8256   65.2775 C   0  0  0  0  0  0  0  0  0  0  0  0
  -46.1469   58.1858   65.0790 C   0  0  0  0  0  0  0  0  0  0  0  0
  -46.4891   59.6474   65.3815 C   0  0  0  0  0  0  0  0  0  0  0  0
  -47.9843   59.9654   65.4522 C   0  0  0  0  0  0  0  0  0  0  0  0
  -48.8218   58.7251   65.5430 C   0  0  0  0  0  0  0  0  0  0  0  0
  -50.0563   58.5747   65.1039 C   0  0  0  0  0  0  0  0  0  0  0  0
  -50.8823   59.6167   64.4181 C   0  0  0  0  0  0  0  0  0  0  0  0
  -51.2855   59.2035   63.0056 C   0  0  0  0  0  0  0  0  0  0  0  0
  -50.4686   58.0494   62.4515 C   0  0  0  0  0  0  0  0  0  0  0  0
  -51.0450   57.4488   61.1809 C   0  0  0  0  0  0  0  0  0  0  0  0
  -50.0309   56.7270   60.3093 C   0  0  0  0  0  0  0  0  0  0  0  0
  -49.0675   57.6647   59.5977 C   0  0  0  0  0  0  0  0  0  0  0  0
  -47.7012   57.0659   59.3286 C   0  0  0  0  0  0  0  0  0  0  0  0
  -46.9705   57.7620   58.2145 C   0  0  0  0  0  0  0  0  0  0  0  0
 21 22  1  0  0  0
  4  5  2  0  0  0
 25 24  1  0  0  0
 25 26  2  0  0  0
 25 27  1  0  0  0
 25 29  1  0  0  0
 22 20  1  0  0  0
  3  5  1  0  0  0
  3  2  1  0  0  0
 20 19  1  0  0  0
 24 23  1  0  0  0
 19 18  1  0  0  0
 18 17  1  0  0  0
 27 28  1  0  0  0
 17 16  1  0  0  0
 29 30  1  0  0  0
 16 15  1  0  0  0
 34 35  1  0  0  0
 34 36  1  0  0  0
 15 14  1  0  0  0
 31 32  1  0  0  0
 31 33  1  0  0  0
 14 13  1  0  0  0
 37  1  1  0  0  0
 37 39  1  0  0  0
 13 12  1  0  0  0
 38 39  2  0  0  0
 12 11  1  0  0  0
 11 10  1  0  0  0
 10  9  1  0  0  0
  9  8  1  0  0  0
  8  7  1  0  0  0
  7  6  1  0  0  0
  6  5  1  0  0  0
  2  1  1  0  0  0
  1 23  1  0  0  0
 30 32  1  0  0  0
 32 35  1  0  0  0
 39 40  1  0  0  0
 40 41  1  0  0  0
 41 42  1  0  0  0
 42 43  1  0  0  0
 43 44  1  0  0  0
 44 45  1  0  0  0
 45 46  1  0  0  0
 46 47  1  0  0  0
 47 48  2  0  0  0
 48 49  1  0  0  0
 49 50  1  0  0  0
 50 51  1  0  0  0
 51 52  1  0  0  0
 52 53  1  0  0  0
 53 54  1  0  0  0
 54 55  1  0  0  0
 55 56  1  0  0  0
M  CHG 1  26  -1
M  END
> <minimizedAffinity>
-8.87375

> <CNNscore>
0.5404022336

> <CNNaffinity>
7.4799909592

> <CNN_VS>
4.0422039032

> <CNNaffinity_variance>
0.7404181361

$$$$
/media/chris/experiments/cd1a-new-docking/inputs/ligands/7sh4_ligand.pdb


 56 55  0  0  0  0  0  0  0  0999 V2000
  -37.6143   60.9526   64.2145 C   0  0  0  0  0  0  0  0  0  0  0  0
  -36.4231   60.8393   63.3056 C   0  0  0  0  0  0  0  0  0  0  0  0
  -36.5015   62.0195   62.4785 O   0  0  0  0  0  0  0  0  0  0  0  0
  -36.2205   64.1085   63.2245 O   0  0  0  0  0  0  0  0  0  0  0  0
  -35.7603   63.0651   62.8462 C   0  0  0  0  0  0  0  0  0  0  0  0
  -34.2985   62.7217   62.8434 C   0  0  0  0  0  0  0  0  0  0  0  0
  -33.4448   63.6488   61.9946 C   0  0  0  0  0  0  0  0  0  0  0  0
  -32.0261   63.1477   61.8248 C   0  0  0  0  0  0  0  0  0  0  0  0
  -31.3928   62.6376   63.0993 C   0  0  0  0  0  0  0  0  0  0  0  0
  -30.7425   61.2788   62.9361 C   0  0  0  0  0  0  0  0  0  0  0  0
  -31.2287   60.5298   61.7195 C   0  0  0  0  0  0  0  0  0  0  0  0
  -31.7280   59.1459   62.0411 C   0  0  0  0  0  0  0  0  0  0  0  0
  -33.0833   59.1377   62.7126 C   0  0  0  0  0  0  0  0  0  0  0  0
  -33.9990   58.0592   62.1699 C   0  0  0  0  0  0  0  0  0  0  0  0
  -33.3256   57.1034   61.2077 C   0  0  0  0  0  0  0  0  0  0  0  0
  -34.1790   55.8940   60.8424 C   0  0  0  0  0  0  0  0  0  0  0  0
  -34.2015   55.5814   59.3585 C   0  0  0  0  0  0  0  0  0  0  0  0
  -34.2307   56.8176   58.4832 C   0  0  0  0  0  0  0  0  0  0  0  0
  -35.6358   57.3246   58.1898 C   0  0  0  0  0  0  0  0  0  0  0  0
  -36.6984   56.7290   59.0961 C   0  0  0  0  0  0  0  0  0  0  0  0
  -37.7348   57.1255   61.3554 C   0  0  0  0  0  0  0  0  0  0  0  0
  -37.3814   57.7255   60.0135 C   0  0  0  0  0  0  0  0  0  0  0  0
  -37.2466   60.7335   65.6597 C   0  0  0  0  0  0  0  0  0  0  0  0
  -36.0346   61.4661   65.9475 O   0  0  0  0  0  0  0  0  0  0  0  0
  -36.0083   62.7675   66.8789 P   0  0  0  0  0  0  0  0  0  0  0  0
  -36.8289   63.8122   66.2294 O   0  0  0  0  0  0  0  0  0  0  0  0
  -36.3476   62.3525   68.2614 O   0  0  0  0  0  0  0  0  0  0  0  0
  -37.2679   62.0476   68.2909 H   0  0  0  0  0  0  0  0  0  0  0  0
  -34.4917   63.2603   66.8736 O   0  0  0  0  0  0  0  0  0  0  0  0
  -34.1903   64.6661   66.7595 C   0  0  0  0  0  0  0  0  0  0  0  0
  -34.2977   65.8293   64.6673 O   0  0  0  0  0  0  0  0  0  0  0  0
  -33.5186   64.9022   65.4290 C   0  0  0  0  0  0  0  0  0  0  0  0
  -35.2029   65.4928   64.5761 H   0  0  0  0  0  0  0  0  0  0  0  0
  -31.9867   66.7285   65.0606 O   0  0  0  0  0  0  0  0  0  0  0  0
  -32.1051   65.4106   65.5809 C   0  0  0  0  0  0  0  0  0  0  0  0
  -31.0733   67.0373   65.1670 H   0  0  0  0  0  0  0  0  0  0  0  0
  -38.6313   59.9975   63.7636 O   0  0  0  0  0  0  0  0  0  0  0  0
  -40.5002   61.1125   64.3329 O   0  0  0  0  0  0  0  0  0  0  0  0
  -39.8542   60.1005   64.3185 C   0  0  0  0  0  0  0  0  0  0  0  0
  -40.3183   58.7999   64.8975 C   0  0  0  0  0  0  0  0  0  0  0  0
  -41.3309   59.0164   66.0176 C   0  0  0  0  0  0  0  0  0  0  0  0
  -42.5972   58.1886   65.8721 C   0  0  0  0  0  0  0  0  0  0  0  0
  -43.8684   58.9513   66.2274 C   0  0  0  0  0  0  0  0  0  0  0  0
  -45.1237   58.0990   66.2126 C   0  0  0  0  0  0  0  0  0  0  0  0
  -46.1408   58.4821   65.1338 C   0  0  0  0  0  0  0  0  0  0  0  0
  -47.4327   59.1174   65.6526 C   0  0  0  0  0  0  0  0  0  0  0  0
  -48.6457   58.3235   65.2701 C   0  0  0  0  0  0  0  0  0  0  0  0
  -49.3758   58.4760   64.1824 C   0  0  0  0  0  0  0  0  0  0  0  0
  -49.1428   59.4782   63.0963 C   0  0  0  0  0  0  0  0  0  0  0  0
  -50.2000   59.4036   61.9985 C   0  0  0  0  0  0  0  0  0  0  0  0
  -51.0832   58.1713   62.0855 C   0  0  0  0  0  0  0  0  0  0  0  0
  -51.0169   57.2851   60.8536 C   0  0  0  0  0  0  0  0  0  0  0  0
  -49.6270   56.7653   60.5260 C   0  0  0  0  0  0  0  0  0  0  0  0
  -49.1310   57.1876   59.1514 C   0  0  0  0  0  0  0  0  0  0  0  0
  -47.7132   56.7506   58.8404 C   0  0  0  0  0  0  0  0  0  0  0  0
  -46.9159   57.8169   58.1426 C   0  0  0  0  0  0  0  0  0  0  0  0
 21 22  1  0  0  0
  4  5  2  0  0  0
 25 24  1  0  0  0
 25 26  2  0  0  0
 25 27  1  0  0  0
 25 29  1  0  0  0
 22 20  1  0  0  0
  3  5  1  0  0  0
  3  2  1  0  0  0
 20 19  1  0  0  0
 24 23  1  0  0  0
 19 18  1  0  0  0
 18 17  1  0  0  0
 27 28  1  0  0  0
 17 16  1  0  0  0
 29 30  1  0  0  0
 16 15  1  0  0  0
 34 35  1  0  0  0
 34 36  1  0  0  0
 15 14  1  0  0  0
 31 32  1  0  0  0
 31 33  1  0  0  0
 14 13  1  0  0  0
 37  1  1  0  0  0
 37 39  1  0  0  0
 13 12  1  0  0  0
 38 39  2  0  0  0
 12 11  1  0  0  0
 11 10  1  0  0  0
 10  9  1  0  0  0
  9  8  1  0  0  0
  8  7  1  0  0  0
  7  6  1  0  0  0
  6  5  1  0  0  0
  2  1  1  0  0  0
  1 23  1  0  0  0
 30 32  1  0  0  0
 32 35  1  0  0  0
 39 40  1  0  0  0
 40 41  1  0  0  0
 41 42  1  0  0  0
 42 43  1  0  0  0
 43 44  1  0  0  0
 44 45  1  0  0  0
 45 46  1  0  0  0
 46 47  1  0  0  0
 47 48  2  0  0  0
 48 49  1  0  0  0
 49 50  1  0  0  0
 50 51  1  0  0  0
 51 52  1  0  0  0
 52 53  1  0  0  0
 53 54  1  0  0  0
 54 55  1  0  0  0
 55 56  1  0  0  0
M  CHG 1  26  -1
M  END
> <minimizedAffinity>
-8.65354

> <CNNscore>
0.5277607441

> <CNNaffinity>
7.2510542870

> <CNN_VS>
3.8268218040

> <CNNaffinity_variance>
0.5402040482

$$$$
