/media/chris/experiments/cd1a-new-docking/inputs/ligands/7sh4_ligand.pdb


 56 55  0  0  0  0  0  0  0  0999 V2000
  -37.8811   60.0473   62.5749 C   0  0  0  0  0  0  0  0  0  0  0  0
  -38.1900   59.2868   63.8335 C   0  0  0  0  0  0  0  0  0  0  0  0
  -39.6228   59.3989   63.9664 O   0  0  0  0  0  0  0  0  0  0  0  0
  -39.6878   60.5846   65.8609 O   0  0  0  0  0  0  0  0  0  0  0  0
  -40.0965   59.6831   65.1800 C   0  0  0  0  0  0  0  0  0  0  0  0
  -41.2753   58.8166   65.5189 C   0  0  0  0  0  0  0  0  0  0  0  0
  -42.6180   59.4222   65.1462 C   0  0  0  0  0  0  0  0  0  0  0  0
  -43.7641   58.8474   65.9516 C   0  0  0  0  0  0  0  0  0  0  0  0
  -44.8700   58.2470   65.1135 C   0  0  0  0  0  0  0  0  0  0  0  0
  -45.2073   56.8235   65.5082 C   0  0  0  0  0  0  0  0  0  0  0  0
  -46.6086   56.6730   66.0481 C   0  0  0  0  0  0  0  0  0  0  0  0
  -47.3928   57.9581   66.0157 C   0  0  0  0  0  0  0  0  0  0  0  0
  -48.8383   57.7693   65.6118 C   0  0  0  0  0  0  0  0  0  0  0  0
  -49.1160   58.2339   64.1964 C   0  0  0  0  0  0  0  0  0  0  0  0
  -50.5418   58.6878   63.9636 C   0  0  0  0  0  0  0  0  0  0  0  0
  -51.0434   58.4396   62.5456 C   0  0  0  0  0  0  0  0  0  0  0  0
  -50.0210   57.7860   61.6359 C   0  0  0  0  0  0  0  0  0  0  0  0
  -50.5840   57.3846   60.2879 C   0  0  0  0  0  0  0  0  0  0  0  0
  -49.5184   57.1568   59.2249 C   0  0  0  0  0  0  0  0  0  0  0  0
  -48.1157   57.5127   59.6844 C   0  0  0  0  0  0  0  0  0  0  0  0
  -46.6525   57.7307   57.6480 C   0  0  0  0  0  0  0  0  0  0  0  0
  -47.0019   56.8964   58.8594 C   0  0  0  0  0  0  0  0  0  0  0  0
  -37.5272   61.4854   62.8548 C   0  0  0  0  0  0  0  0  0  0  0  0
  -36.1031   61.6568   62.6785 O   0  0  0  0  0  0  0  0  0  0  0  0
  -35.3514   63.0370   62.9816 P   0  0  0  0  0  0  0  0  0  0  0  0
  -34.5298   63.3797   61.8008 O   0  0  0  0  0  0  0  0  0  0  0  0
  -36.3581   64.0161   63.4573 O   0  0  0  0  0  0  0  0  0  0  0  0
  -36.9728   64.2241   62.7364 H   0  0  0  0  0  0  0  0  0  0  0  0
  -34.3632   62.7226   64.1929 O   0  0  0  0  0  0  0  0  0  0  0  0
  -34.3647   63.5661   65.3628 C   0  0  0  0  0  0  0  0  0  0  0  0
  -33.9688   62.5937   67.5169 O   0  0  0  0  0  0  0  0  0  0  0  0
  -34.9650   62.7892   66.5087 C   0  0  0  0  0  0  0  0  0  0  0  0
  -33.1972   62.1529   67.1280 H   0  0  0  0  0  0  0  0  0  0  0  0
  -36.6720   64.4666   66.2079 O   0  0  0  0  0  0  0  0  0  0  0  0
  -36.1745   63.4750   67.0972 C   0  0  0  0  0  0  0  0  0  0  0  0
  -37.4473   64.8953   66.6027 H   0  0  0  0  0  0  0  0  0  0  0  0
  -39.0337   59.9384   61.6752 O   0  0  0  0  0  0  0  0  0  0  0  0
  -39.2768   60.4421   59.4964 O   0  0  0  0  0  0  0  0  0  0  0  0
  -38.7716   59.7826   60.3633 C   0  0  0  0  0  0  0  0  0  0  0  0
  -37.7633   58.7034   60.1175 C   0  0  0  0  0  0  0  0  0  0  0  0
  -37.5830   58.4360   58.6265 C   0  0  0  0  0  0  0  0  0  0  0  0
  -36.3258   57.6517   58.2887 C   0  0  0  0  0  0  0  0  0  0  0  0
  -36.5206   56.1403   58.3291 C   0  0  0  0  0  0  0  0  0  0  0  0
  -35.7761   55.4523   59.4582 C   0  0  0  0  0  0  0  0  0  0  0  0
  -34.3179   55.8909   59.6196 C   0  0  0  0  0  0  0  0  0  0  0  0
  -33.8911   56.2194   61.0520 C   0  0  0  0  0  0  0  0  0  0  0  0
  -34.9790   56.9058   61.8222 C   0  0  0  0  0  0  0  0  0  0  0  0
  -34.8224   57.7618   62.8132 C   0  0  0  0  0  0  0  0  0  0  0  0
  -33.5183   58.2301   63.3774 C   0  0  0  0  0  0  0  0  0  0  0  0
  -33.0294   59.5185   62.7220 C   0  0  0  0  0  0  0  0  0  0  0  0
  -31.8766   59.3113   61.7554 C   0  0  0  0  0  0  0  0  0  0  0  0
  -30.5463   59.8309   62.2726 C   0  0  0  0  0  0  0  0  0  0  0  0
  -30.0017   61.0308   61.5157 C   0  0  0  0  0  0  0  0  0  0  0  0
  -29.8521   62.2744   62.3787 C   0  0  0  0  0  0  0  0  0  0  0  0
  -31.1473   62.7622   62.9967 C   0  0  0  0  0  0  0  0  0  0  0  0
  -31.1884   64.2562   63.1574 C   0  0  0  0  0  0  0  0  0  0  0  0
 21 22  1  0  0  0
  4  5  2  0  0  0
 25 24  1  0  0  0
 25 26  2  0  0  0
 25 27  1  0  0  0
 25 29  1  0  0  0
 22 20  1  0  0  0
  3  5  1  0  0  0
  3  2  1  0  0  0
 20 19  1  0  0  0
 24 23  1  0  0  0
 19 18  1  0  0  0
 18 17  1  0  0  0
 27 28  1  0  0  0
 17 16  1  0  0  0
 29 30  1  0  0  0
 16 15  1  0  0  0
 34 35  1  0  0  0
 34 36  1  0  0  0
 15 14  1  0  0  0
 31 32  1  0  0  0
 31 33  1  0  0  0
 14 13  1  0  0  0
 37  1  1  0  0  0
 37 39  1  0  0  0
 13 12  1  0  0  0
 38 39  2  0  0  0
 12 11  1  0  0  0
 11 10  1  0  0  0
 10  9  1  0  0  0
  9  8  1  0  0  0
  8  7  1  0  0  0
  7  6  1  0  0  0
  6  5  1  0  0  0
  2  1  1  0  0  0
  1 23  1  0  0  0
 30 32  1  0  0  0
 32 35  1  0  0  0
 39 40  1  0  0  0
 40 41  1  0  0  0
 41 42  1  0  0  0
 42 43  1  0  0  0
 43 44  1  0  0  0
 44 45  1  0  0  0
 45 46  1  0  0  0
 46 47  1  0  0  0
 47 48  2  0  0  0
 48 49  1  0  0  0
 49 50  1  0  0  0
 50 51  1  0  0  0
 51 52  1  0  0  0
 52 53  1  0  0  0
 53 54  1  0  0  0
 54 55  1  0  0  0
 55 56  1  0  0  0
M  CHG 1  26  -1
M  END
> <minimizedAffinity>
-8.79821

> <CNNscore>
0.8874354959

> <CNNaffinity>
7.7561216354

> <CNN_VS>
6.8830575943

> <CNNaffinity_variance>
0.6348806620

$$$$
/media/chris/experiments/cd1a-new-docking/inputs/ligands/7sh4_ligand.pdb


 56 55  0  0  0  0  0  0  0  0999 V2000
  -37.7881   59.9009   62.2450 C   0  0  0  0  0  0  0  0  0  0  0  0
  -39.0603   60.5544   62.7056 C   0  0  0  0  0  0  0  0  0  0  0  0
  -39.2332   60.0702   64.0542 O   0  0  0  0  0  0  0  0  0  0  0  0
  -39.8647   57.9483   64.3665 O   0  0  0  0  0  0  0  0  0  0  0  0
  -40.1403   59.1108   64.2398 C   0  0  0  0  0  0  0  0  0  0  0  0
  -41.5178   59.6887   64.3932 C   0  0  0  0  0  0  0  0  0  0  0  0
  -42.2987   59.1277   65.5696 C   0  0  0  0  0  0  0  0  0  0  0  0
  -43.7845   59.0311   65.2945 C   0  0  0  0  0  0  0  0  0  0  0  0
  -44.5651   58.2961   66.3605 C   0  0  0  0  0  0  0  0  0  0  0  0
  -45.9874   58.7979   66.5063 C   0  0  0  0  0  0  0  0  0  0  0  0
  -46.4490   59.6248   65.3312 C   0  0  0  0  0  0  0  0  0  0  0  0
  -47.9308   59.8929   65.3462 C   0  0  0  0  0  0  0  0  0  0  0  0
  -48.7332   58.7930   66.0054 C   0  0  0  0  0  0  0  0  0  0  0  0
  -49.8811   58.3086   65.1428 C   0  0  0  0  0  0  0  0  0  0  0  0
  -50.3356   59.3087   64.1004 C   0  0  0  0  0  0  0  0  0  0  0  0
  -50.8463   58.6689   62.8145 C   0  0  0  0  0  0  0  0  0  0  0  0
  -49.9571   58.9116   61.6101 C   0  0  0  0  0  0  0  0  0  0  0  0
  -49.2199   57.6720   61.1465 C   0  0  0  0  0  0  0  0  0  0  0  0
  -48.4370   57.8742   59.8566 C   0  0  0  0  0  0  0  0  0  0  0  0
  -48.0254   56.5758   59.1857 C   0  0  0  0  0  0  0  0  0  0  0  0
  -47.4999   55.3384   57.0577 C   0  0  0  0  0  0  0  0  0  0  0  0
  -47.7931   56.6799   57.6902 C   0  0  0  0  0  0  0  0  0  0  0  0
  -36.6330   60.1985   63.1664 C   0  0  0  0  0  0  0  0  0  0  0  0
  -36.1865   61.5524   62.9303 O   0  0  0  0  0  0  0  0  0  0  0  0
  -36.1955   62.6794   64.0669 P   0  0  0  0  0  0  0  0  0  0  0  0
  -36.4263   63.9861   63.4142 O   0  0  0  0  0  0  0  0  0  0  0  0
  -37.1224   62.2455   65.1398 O   0  0  0  0  0  0  0  0  0  0  0  0
  -38.0301   62.2340   64.7979 H   0  0  0  0  0  0  0  0  0  0  0  0
  -34.7186   62.6849   64.6680 O   0  0  0  0  0  0  0  0  0  0  0  0
  -34.3361   63.6864   65.6328 C   0  0  0  0  0  0  0  0  0  0  0  0
  -34.2317   65.7428   64.4071 O   0  0  0  0  0  0  0  0  0  0  0  0
  -33.4350   64.6855   64.9496 C   0  0  0  0  0  0  0  0  0  0  0  0
  -34.9000   65.3708   63.8106 H   0  0  0  0  0  0  0  0  0  0  0  0
  -32.9853   65.7136   67.0847 O   0  0  0  0  0  0  0  0  0  0  0  0
  -32.3883   65.2471   65.8816 C   0  0  0  0  0  0  0  0  0  0  0  0
  -32.2983   66.0701   67.6694 H   0  0  0  0  0  0  0  0  0  0  0  0
  -37.5138   60.3405   60.8733 O   0  0  0  0  0  0  0  0  0  0  0  0
  -39.0011   60.1095   59.2016 O   0  0  0  0  0  0  0  0  0  0  0  0
  -38.1195   59.6597   59.8814 C   0  0  0  0  0  0  0  0  0  0  0  0
  -37.5502   58.2847   59.7164 C   0  0  0  0  0  0  0  0  0  0  0  0
  -37.3656   57.9291   58.2446 C   0  0  0  0  0  0  0  0  0  0  0  0
  -36.2086   56.9797   57.9803 C   0  0  0  0  0  0  0  0  0  0  0  0
  -35.9321   56.0201   59.1320 C   0  0  0  0  0  0  0  0  0  0  0  0
  -34.4569   55.8005   59.4114 C   0  0  0  0  0  0  0  0  0  0  0  0
  -34.0392   56.0532   60.8629 C   0  0  0  0  0  0  0  0  0  0  0  0
  -34.4696   57.4040   61.4390 C   0  0  0  0  0  0  0  0  0  0  0  0
  -33.7335   57.7400   62.7012 C   0  0  0  0  0  0  0  0  0  0  0  0
  -32.6501   58.4848   62.8063 C   0  0  0  0  0  0  0  0  0  0  0  0
  -31.9270   59.1549   61.6809 C   0  0  0  0  0  0  0  0  0  0  0  0
  -30.6584   59.8650   62.1447 C   0  0  0  0  0  0  0  0  0  0  0  0
  -30.6629   61.3593   61.8742 C   0  0  0  0  0  0  0  0  0  0  0  0
  -31.9967   62.0271   62.1611 C   0  0  0  0  0  0  0  0  0  0  0  0
  -31.9920   63.5381   61.9997 C   0  0  0  0  0  0  0  0  0  0  0  0
  -30.5975   64.1271   61.8513 C   0  0  0  0  0  0  0  0  0  0  0  0
  -30.5754   65.5498   61.3289 C   0  0  0  0  0  0  0  0  0  0  0  0
  -31.2487   66.5209   62.2579 C   0  0  0  0  0  0  0  0  0  0  0  0
 21 22  1  0  0  0
  4  5  2  0  0  0
 25 24  1  0  0  0
 25 26  2  0  0  0
 25 27  1  0  0  0
 25 29  1  0  0  0
 22 20  1  0  0  0
  3  5  1  0  0  0
  3  2  1  0  0  0
 20 19  1  0  0  0
 24 23  1  0  0  0
 19 18  1  0  0  0
 18 17  1  0  0  0
 27 28  1  0  0  0
 17 16  1  0  0  0
 29 30  1  0  0  0
 16 15  1  0  0  0
 34 35  1  0  0  0
 34 36  1  0  0  0
 15 14  1  0  0  0
 31 32  1  0  0  0
 31 33  1  0  0  0
 14 13  1  0  0  0
 37  1  1  0  0  0
 37 39  1  0  0  0
 13 12  1  0  0  0
 38 39  2  0  0  0
 12 11  1  0  0  0
 11 10  1  0  0  0
 10  9  1  0  0  0
  9  8  1  0  0  0
  8  7  1  0  0  0
  7  6  1  0  0  0
  6  5  1  0  0  0
  2  1  1  0  0  0
  1 23  1  0  0  0
 30 32  1  0  0  0
 32 35  1  0  0  0
 39 40  1  0  0  0
 40 41  1  0  0  0
 41 42  1  0  0  0
 42 43  1  0  0  0
 43 44  1  0  0  0
 44 45  1  0  0  0
 45 46  1  0  0  0
 46 47  1  0  0  0
 47 48  2  0  0  0
 48 49  1  0  0  0
 49 50  1  0  0  0
 50 51  1  0  0  0
 51 52  1  0  0  0
 52 53  1  0  0  0
 53 54  1  0  0  0
 54 55  1  0  0  0
 55 56  1  0  0  0
M  CHG 1  26  -1
M  END
> <minimizedAffinity>
-8.64706

> <CNNscore>
0.6974585652

> <CNNaffinity>
7.3197836876

> <CNN_VS>
5.1052455902

> <CNNaffinity_variance>
0.6922929883

$$$$
/media/chris/experiments/cd1a-new-docking/inputs/ligands/7sh4_ligand.pdb


 56 55  0  0  0  0  0  0  0  0999 V2000
  -37.2169   60.0559   65.1930 C   0  0  0  0  0  0  0  0  0  0  0  0
  -38.5311   59.9256   65.9096 C   0  0  0  0  0  0  0  0  0  0  0  0
  -39.4207   60.7861   65.1671 O   0  0  0  0  0  0  0  0  0  0  0  0
  -41.2260   60.6625   63.8539 O   0  0  0  0  0  0  0  0  0  0  0  0
  -40.5912   60.2676   64.7944 C   0  0  0  0  0  0  0  0  0  0  0  0
  -40.9381   59.0620   65.6199 C   0  0  0  0  0  0  0  0  0  0  0  0
  -42.2004   59.2210   66.4504 C   0  0  0  0  0  0  0  0  0  0  0  0
  -43.2343   58.1548   66.1556 C   0  0  0  0  0  0  0  0  0  0  0  0
  -44.6593   58.5833   66.4232 C   0  0  0  0  0  0  0  0  0  0  0  0
  -45.3287   59.2053   65.2144 C   0  0  0  0  0  0  0  0  0  0  0  0
  -46.6537   58.5673   64.8753 C   0  0  0  0  0  0  0  0  0  0  0  0
  -47.8303   59.3198   65.4382 C   0  0  0  0  0  0  0  0  0  0  0  0
  -48.1979   60.5475   64.6345 C   0  0  0  0  0  0  0  0  0  0  0  0
  -49.1785   60.2452   63.5195 C   0  0  0  0  0  0  0  0  0  0  0  0
  -50.4711   59.6106   63.9885 C   0  0  0  0  0  0  0  0  0  0  0  0
  -51.2847   58.9708   62.8694 C   0  0  0  0  0  0  0  0  0  0  0  0
  -50.4765   58.6473   61.6275 C   0  0  0  0  0  0  0  0  0  0  0  0
  -50.9169   57.3723   60.9378 C   0  0  0  0  0  0  0  0  0  0  0  0
  -49.7601   56.5165   60.4408 C   0  0  0  0  0  0  0  0  0  0  0  0
  -49.2981   56.8738   59.0393 C   0  0  0  0  0  0  0  0  0  0  0  0
  -47.2192   57.1796   57.6536 C   0  0  0  0  0  0  0  0  0  0  0  0
  -47.9446   56.3080   58.6535 C   0  0  0  0  0  0  0  0  0  0  0  0
  -36.7720   61.4918   65.0830 C   0  0  0  0  0  0  0  0  0  0  0  0
  -36.1433   61.6867   63.7965 O   0  0  0  0  0  0  0  0  0  0  0  0
  -35.2211   62.9521   63.4645 P   0  0  0  0  0  0  0  0  0  0  0  0
  -34.1661   62.5158   62.5246 O   0  0  0  0  0  0  0  0  0  0  0  0
  -36.1043   64.0766   63.0719 O   0  0  0  0  0  0  0  0  0  0  0  0
  -36.5432   63.8654   62.2331 H   0  0  0  0  0  0  0  0  0  0  0  0
  -34.5207   63.3379   64.8441 O   0  0  0  0  0  0  0  0  0  0  0  0
  -34.5316   64.7058   65.3010 C   0  0  0  0  0  0  0  0  0  0  0  0
  -33.7299   66.7421   64.3246 O   0  0  0  0  0  0  0  0  0  0  0  0
  -33.3434   65.4171   64.7014 C   0  0  0  0  0  0  0  0  0  0  0  0
  -34.4861   66.6984   63.7188 H   0  0  0  0  0  0  0  0  0  0  0  0
  -31.5939   64.1741   65.8026 O   0  0  0  0  0  0  0  0  0  0  0  0
  -32.1663   65.4661   65.6457 C   0  0  0  0  0  0  0  0  0  0  0  0
  -30.8407   64.2260   66.4116 H   0  0  0  0  0  0  0  0  0  0  0  0
  -37.3455   59.4263   63.8750 O   0  0  0  0  0  0  0  0  0  0  0  0
  -36.6208   57.3773   64.4550 O   0  0  0  0  0  0  0  0  0  0  0  0
  -37.3769   58.0802   63.8419 C   0  0  0  0  0  0  0  0  0  0  0  0
  -38.4768   57.5666   62.9653 C   0  0  0  0  0  0  0  0  0  0  0  0
  -37.9733   57.2598   61.5585 C   0  0  0  0  0  0  0  0  0  0  0  0
  -37.2669   58.4269   60.8886 C   0  0  0  0  0  0  0  0  0  0  0  0
  -38.1126   59.1249   59.8296 C   0  0  0  0  0  0  0  0  0  0  0  0
  -38.0144   58.4993   58.4507 C   0  0  0  0  0  0  0  0  0  0  0  0
  -36.5867   58.1872   57.9933 C   0  0  0  0  0  0  0  0  0  0  0  0
  -36.2098   56.7041   58.0004 C   0  0  0  0  0  0  0  0  0  0  0  0
  -34.7365   56.4948   57.8174 C   0  0  0  0  0  0  0  0  0  0  0  0
  -33.8496   56.2677   58.7668 C   0  0  0  0  0  0  0  0  0  0  0  0
  -34.1315   56.1692   60.2328 C   0  0  0  0  0  0  0  0  0  0  0  0
  -33.9824   57.5100   60.9459 C   0  0  0  0  0  0  0  0  0  0  0  0
  -33.6274   57.3819   62.4168 C   0  0  0  0  0  0  0  0  0  0  0  0
  -32.5547   58.3561   62.8724 C   0  0  0  0  0  0  0  0  0  0  0  0
  -31.8644   59.1052   61.7447 C   0  0  0  0  0  0  0  0  0  0  0  0
  -30.6969   59.9610   62.2118 C   0  0  0  0  0  0  0  0  0  0  0  0
  -30.6998   61.3723   61.6588 C   0  0  0  0  0  0  0  0  0  0  0  0
  -29.8425   62.3123   62.4596 C   0  0  0  0  0  0  0  0  0  0  0  0
 21 22  1  0  0  0
  4  5  2  0  0  0
 25 24  1  0  0  0
 25 26  2  0  0  0
 25 27  1  0  0  0
 25 29  1  0  0  0
 22 20  1  0  0  0
  3  5  1  0  0  0
  3  2  1  0  0  0
 20 19  1  0  0  0
 24 23  1  0  0  0
 19 18  1  0  0  0
 18 17  1  0  0  0
 27 28  1  0  0  0
 17 16  1  0  0  0
 29 30  1  0  0  0
 16 15  1  0  0  0
 34 35  1  0  0  0
 34 36  1  0  0  0
 15 14  1  0  0  0
 31 32  1  0  0  0
 31 33  1  0  0  0
 14 13  1  0  0  0
 37  1  1  0  0  0
 37 39  1  0  0  0
 13 12  1  0  0  0
 38 39  2  0  0  0
 12 11  1  0  0  0
 11 10  1  0  0  0
 10  9  1  0  0  0
  9  8  1  0  0  0
  8  7  1  0  0  0
  7  6  1  0  0  0
  6  5  1  0  0  0
  2  1  1  0  0  0
  1 23  1  0  0  0
 30 32  1  0  0  0
 32 35  1  0  0  0
 39 40  1  0  0  0
 40 41  1  0  0  0
 41 42  1  0  0  0
 42 43  1  0  0  0
 43 44  1  0  0  0
 44 45  1  0  0  0
 45 46  1  0  0  0
 46 47  1  0  0  0
 47 48  2  0  0  0
 48 49  1  0  0  0
 49 50  1  0  0  0
 50 51  1  0  0  0
 51 52  1  0  0  0
 52 53  1  0  0  0
 53 54  1  0  0  0
 54 55  1  0  0  0
 55 56  1  0  0  0
M  CHG 1  26  -1
M  END
> <minimizedAffinity>
-8.76824

> <CNNscore>
0.6273310184

> <CNNaffinity>
7.2919631004

> <CNN_VS>
4.5744748116

> <CNNaffinity_variance>
0.7862364650

$$$$
/media/chris/experiments/cd1a-new-docking/inputs/ligands/7sh4_ligand.pdb


 56 55  0  0  0  0  0  0  0  0999 V2000
  -39.3771   59.7277   65.1185 C   0  0  0  0  0  0  0  0  0  0  0  0
  -39.2725   58.2345   64.9871 C   0  0  0  0  0  0  0  0  0  0  0  0
  -39.2707   58.0087   63.5616 O   0  0  0  0  0  0  0  0  0  0  0  0
  -37.2005   57.1685   63.6480 O   0  0  0  0  0  0  0  0  0  0  0  0
  -38.1227   57.6071   63.0151 C   0  0  0  0  0  0  0  0  0  0  0  0
  -38.1882   57.6589   61.5157 C   0  0  0  0  0  0  0  0  0  0  0  0
  -38.7687   58.9501   60.9641 C   0  0  0  0  0  0  0  0  0  0  0  0
  -38.3950   59.1896   59.5165 C   0  0  0  0  0  0  0  0  0  0  0  0
  -37.1037   58.5274   59.0926 C   0  0  0  0  0  0  0  0  0  0  0  0
  -37.2711   57.6117   57.8969 C   0  0  0  0  0  0  0  0  0  0  0  0
  -36.2530   56.4985   57.8540 C   0  0  0  0  0  0  0  0  0  0  0  0
  -34.8434   56.9817   58.0713 C   0  0  0  0  0  0  0  0  0  0  0  0
  -34.0424   56.0976   59.0012 C   0  0  0  0  0  0  0  0  0  0  0  0
  -34.7528   55.8327   60.3133 C   0  0  0  0  0  0  0  0  0  0  0  0
  -34.4602   56.8546   61.3918 C   0  0  0  0  0  0  0  0  0  0  0  0
  -32.9984   56.8940   61.8226 C   0  0  0  0  0  0  0  0  0  0  0  0
  -32.5942   58.1822   62.5135 C   0  0  0  0  0  0  0  0  0  0  0  0
  -31.9211   59.1757   61.5889 C   0  0  0  0  0  0  0  0  0  0  0  0
  -30.7463   59.9040   62.2268 C   0  0  0  0  0  0  0  0  0  0  0  0
  -30.5073   61.2899   61.6546 C   0  0  0  0  0  0  0  0  0  0  0  0
  -29.8658   63.6906   62.0561 C   0  0  0  0  0  0  0  0  0  0  0  0
  -29.9747   62.3041   62.6490 C   0  0  0  0  0  0  0  0  0  0  0  0
  -38.0862   60.3463   65.5901 C   0  0  0  0  0  0  0  0  0  0  0  0
  -37.7056   61.3901   64.6659 O   0  0  0  0  0  0  0  0  0  0  0  0
  -36.3311   61.3643   63.8464 P   0  0  0  0  0  0  0  0  0  0  0  0
  -35.6303   60.1022   64.1672 O   0  0  0  0  0  0  0  0  0  0  0  0
  -36.6338   61.6700   62.4274 O   0  0  0  0  0  0  0  0  0  0  0  0
  -37.1606   60.9499   62.0468 H   0  0  0  0  0  0  0  0  0  0  0  0
  -35.4666   62.5688   64.4333 O   0  0  0  0  0  0  0  0  0  0  0  0
  -36.1095   63.8068   64.7997 C   0  0  0  0  0  0  0  0  0  0  0  0
  -36.6715   63.1529   67.0355 O   0  0  0  0  0  0  0  0  0  0  0  0
  -35.8660   64.0527   66.2685 C   0  0  0  0  0  0  0  0  0  0  0  0
  -37.6028   63.2600   66.7865 H   0  0  0  0  0  0  0  0  0  0  0  0
  -34.1547   62.5896   67.1337 O   0  0  0  0  0  0  0  0  0  0  0  0
  -34.4116   63.8993   66.6437 C   0  0  0  0  0  0  0  0  0  0  0  0
  -33.2170   62.5106   67.3691 H   0  0  0  0  0  0  0  0  0  0  0  0
  -40.4878   60.0345   66.0252 O   0  0  0  0  0  0  0  0  0  0  0  0
  -42.1927   59.6791   64.6014 O   0  0  0  0  0  0  0  0  0  0  0  0
  -41.7006   59.5543   65.6895 C   0  0  0  0  0  0  0  0  0  0  0  0
  -42.3520   58.8319   66.8278 C   0  0  0  0  0  0  0  0  0  0  0  0
  -42.8452   57.4518   66.4049 C   0  0  0  0  0  0  0  0  0  0  0  0
  -44.3583   57.3376   66.3188 C   0  0  0  0  0  0  0  0  0  0  0  0
  -45.0897   58.6147   66.7163 C   0  0  0  0  0  0  0  0  0  0  0  0
  -46.0102   59.1590   65.6398 C   0  0  0  0  0  0  0  0  0  0  0  0
  -46.6354   58.0915   64.7372 C   0  0  0  0  0  0  0  0  0  0  0  0
  -47.9343   57.4747   65.2610 C   0  0  0  0  0  0  0  0  0  0  0  0
  -49.0794   58.4411   65.2094 C   0  0  0  0  0  0  0  0  0  0  0  0
  -49.8415   58.7038   64.1655 C   0  0  0  0  0  0  0  0  0  0  0  0
  -49.7221   58.0869   62.8078 C   0  0  0  0  0  0  0  0  0  0  0  0
  -51.0359   58.1264   62.0326 C   0  0  0  0  0  0  0  0  0  0  0  0
  -51.0170   57.3002   60.7586 C   0  0  0  0  0  0  0  0  0  0  0  0
  -49.6601   56.6934   60.4455 C   0  0  0  0  0  0  0  0  0  0  0  0
  -49.1309   57.0164   59.0581 C   0  0  0  0  0  0  0  0  0  0  0  0
  -47.7507   57.6556   59.0700 C   0  0  0  0  0  0  0  0  0  0  0  0
  -46.9471   57.4243   57.8058 C   0  0  0  0  0  0  0  0  0  0  0  0
  -47.5051   56.3167   56.9565 C   0  0  0  0  0  0  0  0  0  0  0  0
 21 22  1  0  0  0
  4  5  2  0  0  0
 25 24  1  0  0  0
 25 26  2  0  0  0
 25 27  1  0  0  0
 25 29  1  0  0  0
 22 20  1  0  0  0
  3  5  1  0  0  0
  3  2  1  0  0  0
 20 19  1  0  0  0
 24 23  1  0  0  0
 19 18  1  0  0  0
 18 17  1  0  0  0
 27 28  1  0  0  0
 17 16  1  0  0  0
 29 30  1  0  0  0
 16 15  1  0  0  0
 34 35  1  0  0  0
 34 36  1  0  0  0
 15 14  1  0  0  0
 31 32  1  0  0  0
 31 33  1  0  0  0
 14 13  1  0  0  0
 37  1  1  0  0  0
 37 39  1  0  0  0
 13 12  1  0  0  0
 38 39  2  0  0  0
 12 11  1  0  0  0
 11 10  1  0  0  0
 10  9  1  0  0  0
  9  8  1  0  0  0
  8  7  1  0  0  0
  7  6  1  0  0  0
  6  5  1  0  0  0
  2  1  1  0  0  0
  1 23  1  0  0  0
 30 32  1  0  0  0
 32 35  1  0  0  0
 39 40  1  0  0  0
 40 41  1  0  0  0
 41 42  1  0  0  0
 42 43  1  0  0  0
 43 44  1  0  0  0
 44 45  1  0  0  0
 45 46  1  0  0  0
 46 47  1  0  0  0
 47 48  2  0  0  0
 48 49  1  0  0  0
 49 50  1  0  0  0
 50 51  1  0  0  0
 51 52  1  0  0  0
 52 53  1  0  0  0
 53 54  1  0  0  0
 54 55  1  0  0  0
 55 56  1  0  0  0
M  CHG 1  26  -1
M  END
> <minimizedAffinity>
-9.09644

> <CNNscore>
0.6215000749

> <CNNaffinity>
7.3804893494

> <CNN_VS>
4.5869746208

> <CNNaffinity_variance>
0.6763085127

$$$$
/media/chris/experiments/cd1a-new-docking/inputs/ligands/7sh4_ligand.pdb


 56 55  0  0  0  0  0  0  0  0999 V2000
  -38.1709   60.4019   65.2672 C   0  0  0  0  0  0  0  0  0  0  0  0
  -37.4469   59.8573   64.0685 C   0  0  0  0  0  0  0  0  0  0  0  0
  -37.6304   58.4292   64.1688 O   0  0  0  0  0  0  0  0  0  0  0  0
  -39.3058   57.7395   62.8586 O   0  0  0  0  0  0  0  0  0  0  0  0
  -38.1309   57.8080   63.1004 C   0  0  0  0  0  0  0  0  0  0  0  0
  -37.0372   57.3250   62.1918 C   0  0  0  0  0  0  0  0  0  0  0  0
  -37.4960   57.0214   60.7755 C   0  0  0  0  0  0  0  0  0  0  0  0
  -37.2639   58.1761   59.8239 C   0  0  0  0  0  0  0  0  0  0  0  0
  -37.1337   57.7672   58.3742 C   0  0  0  0  0  0  0  0  0  0  0  0
  -36.1827   56.6056   58.1685 C   0  0  0  0  0  0  0  0  0  0  0  0
  -34.7546   57.0396   57.9450 C   0  0  0  0  0  0  0  0  0  0  0  0
  -33.7577   56.1847   58.6817 C   0  0  0  0  0  0  0  0  0  0  0  0
  -34.2310   55.7573   60.0534 C   0  0  0  0  0  0  0  0  0  0  0  0
  -33.3486   56.2834   61.1673 C   0  0  0  0  0  0  0  0  0  0  0  0
  -33.5796   57.7421   61.5020 C   0  0  0  0  0  0  0  0  0  0  0  0
  -32.6211   58.2924   62.5519 C   0  0  0  0  0  0  0  0  0  0  0  0
  -32.1675   59.7151   62.2866 C   0  0  0  0  0  0  0  0  0  0  0  0
  -30.6678   59.8473   62.1179 C   0  0  0  0  0  0  0  0  0  0  0  0
  -30.2474   61.0935   61.3513 C   0  0  0  0  0  0  0  0  0  0  0  0
  -29.6320   62.1685   62.2294 C   0  0  0  0  0  0  0  0  0  0  0  0
  -31.7683   63.4705   61.9523 C   0  0  0  0  0  0  0  0  0  0  0  0
  -30.6316   63.1058   62.8800 C   0  0  0  0  0  0  0  0  0  0  0  0
  -37.2214   60.8189   66.3610 C   0  0  0  0  0  0  0  0  0  0  0  0
  -36.1819   61.6418   65.7859 O   0  0  0  0  0  0  0  0  0  0  0  0
  -35.7490   63.0521   66.4066 P   0  0  0  0  0  0  0  0  0  0  0  0
  -36.0898   64.1071   65.4280 O   0  0  0  0  0  0  0  0  0  0  0  0
  -36.3078   63.1444   67.7769 O   0  0  0  0  0  0  0  0  0  0  0  0
  -37.2759   63.1834   67.7295 H   0  0  0  0  0  0  0  0  0  0  0  0
  -34.1604   62.9901   66.5286 O   0  0  0  0  0  0  0  0  0  0  0  0
  -33.3344   63.5070   65.4652 C   0  0  0  0  0  0  0  0  0  0  0  0
  -31.3186   64.7269   65.9019 O   0  0  0  0  0  0  0  0  0  0  0  0
  -32.7461   64.8215   65.9159 C   0  0  0  0  0  0  0  0  0  0  0  0
  -31.0385   63.9811   66.4551 H   0  0  0  0  0  0  0  0  0  0  0  0
  -33.9841   65.5170   63.9661 O   0  0  0  0  0  0  0  0  0  0  0  0
  -33.2002   65.9786   65.0588 C   0  0  0  0  0  0  0  0  0  0  0  0
  -34.2659   66.2733   63.4280 H   0  0  0  0  0  0  0  0  0  0  0  0
  -39.1213   59.3871   65.7328 O   0  0  0  0  0  0  0  0  0  0  0  0
  -40.7935   60.8759   65.9509 O   0  0  0  0  0  0  0  0  0  0  0  0
  -40.4181   59.7465   65.7921 C   0  0  0  0  0  0  0  0  0  0  0  0
  -41.3331   58.5741   65.6181 C   0  0  0  0  0  0  0  0  0  0  0  0
  -42.4508   58.5787   66.6561 C   0  0  0  0  0  0  0  0  0  0  0  0
  -43.4297   57.4248   66.5128 C   0  0  0  0  0  0  0  0  0  0  0  0
  -44.3342   57.5407   65.2913 C   0  0  0  0  0  0  0  0  0  0  0  0
  -45.2664   58.7375   65.3252 C   0  0  0  0  0  0  0  0  0  0  0  0
  -46.6907   58.4492   64.8423 C   0  0  0  0  0  0  0  0  0  0  0  0
  -47.7641   59.4020   65.3732 C   0  0  0  0  0  0  0  0  0  0  0  0
  -48.2322   60.3659   64.3247 C   0  0  0  0  0  0  0  0  0  0  0  0
  -49.4327   60.4157   63.7807 C   0  0  0  0  0  0  0  0  0  0  0  0
  -50.5846   59.5161   64.1001 C   0  0  0  0  0  0  0  0  0  0  0  0
  -51.2177   58.9140   62.8490 C   0  0  0  0  0  0  0  0  0  0  0  0
  -50.2511   58.0970   62.0098 C   0  0  0  0  0  0  0  0  0  0  0  0
  -50.9138   57.3653   60.8553 C   0  0  0  0  0  0  0  0  0  0  0  0
  -49.9573   56.9122   59.7649 C   0  0  0  0  0  0  0  0  0  0  0  0
  -48.4919   57.0852   60.1343 C   0  0  0  0  0  0  0  0  0  0  0  0
  -47.6450   57.7104   59.0437 C   0  0  0  0  0  0  0  0  0  0  0  0
  -46.1752   57.4585   59.2325 C   0  0  0  0  0  0  0  0  0  0  0  0
 21 22  1  0  0  0
  4  5  2  0  0  0
 25 24  1  0  0  0
 25 26  2  0  0  0
 25 27  1  0  0  0
 25 29  1  0  0  0
 22 20  1  0  0  0
  3  5  1  0  0  0
  3  2  1  0  0  0
 20 19  1  0  0  0
 24 23  1  0  0  0
 19 18  1  0  0  0
 18 17  1  0  0  0
 27 28  1  0  0  0
 17 16  1  0  0  0
 29 30  1  0  0  0
 16 15  1  0  0  0
 34 35  1  0  0  0
 34 36  1  0  0  0
 15 14  1  0  0  0
 31 32  1  0  0  0
 31 33  1  0  0  0
 14 13  1  0  0  0
 37  1  1  0  0  0
 37 39  1  0  0  0
 13 12  1  0  0  0
 38 39  2  0  0  0
 12 11  1  0  0  0
 11 10  1  0  0  0
 10  9  1  0  0  0
  9  8  1  0  0  0
  8  7  1  0  0  0
  7  6  1  0  0  0
  6  5  1  0  0  0
  2  1  1  0  0  0
  1 23  1  0  0  0
 30 32  1  0  0  0
 32 35  1  0  0  0
 39 40  1  0  0  0
 40 41  1  0  0  0
 41 42  1  0  0  0
 42 43  1  0  0  0
 43 44  1  0  0  0
 44 45  1  0  0  0
 45 46  1  0  0  0
 46 47  1  0  0  0
 47 48  2  0  0  0
 48 49  1  0  0  0
 49 50  1  0  0  0
 50 51  1  0  0  0
 51 52  1  0  0  0
 52 53  1  0  0  0
 53 54  1  0  0  0
 54 55  1  0  0  0
 55 56  1  0  0  0
M  CHG 1  26  -1
M  END
> <minimizedAffinity>
-8.92892

> <CNNscore>
0.6022083163

> <CNNaffinity>
7.0789079666

> <CNN_VS>
4.2629771233

> <CNNaffinity_variance>
0.7431420088

$$$$
/media/chris/experiments/cd1a-new-docking/inputs/ligands/7sh4_ligand.pdb


 56 55  0  0  0  0  0  0  0  0999 V2000
  -36.9244   61.4205   63.6166 C   0  0  0  0  0  0  0  0  0  0  0  0
  -38.2266   61.1285   62.9263 C   0  0  0  0  0  0  0  0  0  0  0  0
  -39.1620   60.9420   64.0095 O   0  0  0  0  0  0  0  0  0  0  0  0
  -40.8484   60.4412   62.6296 O   0  0  0  0  0  0  0  0  0  0  0  0
  -40.3270   60.3671   63.7094 C   0  0  0  0  0  0  0  0  0  0  0  0
  -40.8253   59.5242   64.8480 C   0  0  0  0  0  0  0  0  0  0  0  0
  -42.3382   59.5004   64.9866 C   0  0  0  0  0  0  0  0  0  0  0  0
  -42.7938   59.0776   66.3673 C   0  0  0  0  0  0  0  0  0  0  0  0
  -44.2538   58.6931   66.4468 C   0  0  0  0  0  0  0  0  0  0  0  0
  -44.5741   57.4204   65.6895 C   0  0  0  0  0  0  0  0  0  0  0  0
  -45.4860   57.6455   64.5082 C   0  0  0  0  0  0  0  0  0  0  0  0
  -46.7509   58.3769   64.8724 C   0  0  0  0  0  0  0  0  0  0  0  0
  -47.7127   57.5428   65.6893 C   0  0  0  0  0  0  0  0  0  0  0  0
  -49.1536   57.9827   65.5258 C   0  0  0  0  0  0  0  0  0  0  0  0
  -49.4345   58.7087   64.2269 C   0  0  0  0  0  0  0  0  0  0  0  0
  -50.6861   58.2204   63.5066 C   0  0  0  0  0  0  0  0  0  0  0  0
  -50.7351   58.5908   62.0367 C   0  0  0  0  0  0  0  0  0  0  0  0
  -51.1182   57.4338   61.1368 C   0  0  0  0  0  0  0  0  0  0  0  0
  -49.9292   56.7720   60.4543 C   0  0  0  0  0  0  0  0  0  0  0  0
  -49.7077   57.2430   59.0279 C   0  0  0  0  0  0  0  0  0  0  0  0
  -47.8835   55.5242   58.7961 C   0  0  0  0  0  0  0  0  0  0  0  0
  -48.3368   56.9269   58.4607 C   0  0  0  0  0  0  0  0  0  0  0  0
  -36.3951   62.7890   63.2716 C   0  0  0  0  0  0  0  0  0  0  0  0
  -35.0882   62.6447   62.6720 O   0  0  0  0  0  0  0  0  0  0  0  0
  -33.7896   63.3946   63.2314 P   0  0  0  0  0  0  0  0  0  0  0  0
  -32.9366   62.3921   63.9052 O   0  0  0  0  0  0  0  0  0  0  0  0
  -33.2093   64.1977   62.1284 O   0  0  0  0  0  0  0  0  0  0  0  0
  -32.8725   63.6044   61.4388 H   0  0  0  0  0  0  0  0  0  0  0  0
  -34.3301   64.4045   64.3408 O   0  0  0  0  0  0  0  0  0  0  0  0
  -33.8821   64.2835   65.7063 C   0  0  0  0  0  0  0  0  0  0  0  0
  -33.8551   62.3020   67.0536 O   0  0  0  0  0  0  0  0  0  0  0  0
  -34.7185   63.2297   66.3898 C   0  0  0  0  0  0  0  0  0  0  0  0
  -33.2294   61.9277   66.4139 H   0  0  0  0  0  0  0  0  0  0  0  0
  -36.9287   64.1346   66.7279 O   0  0  0  0  0  0  0  0  0  0  0  0
  -35.7001   63.8226   67.3719 C   0  0  0  0  0  0  0  0  0  0  0  0
  -37.5451   64.5138   67.3737 H   0  0  0  0  0  0  0  0  0  0  0  0
  -35.9687   60.3657   63.2647 O   0  0  0  0  0  0  0  0  0  0  0  0
  -34.8726   60.0482   65.2032 O   0  0  0  0  0  0  0  0  0  0  0  0
  -35.4940   59.6104   64.2738 C   0  0  0  0  0  0  0  0  0  0  0  0
  -35.8492   58.1653   64.1073 C   0  0  0  0  0  0  0  0  0  0  0  0
  -37.3396   57.9271   64.3286 C   0  0  0  0  0  0  0  0  0  0  0  0
  -37.9749   57.0026   63.3032 C   0  0  0  0  0  0  0  0  0  0  0  0
  -38.5675   57.7360   62.1054 C   0  0  0  0  0  0  0  0  0  0  0  0
  -37.6854   57.7147   60.8709 C   0  0  0  0  0  0  0  0  0  0  0  0
  -38.0392   58.7682   59.8172 C   0  0  0  0  0  0  0  0  0  0  0  0
  -37.2451   58.6769   58.5123 C   0  0  0  0  0  0  0  0  0  0  0  0
  -37.1661   57.2713   57.9964 C   0  0  0  0  0  0  0  0  0  0  0  0
  -36.0686   56.5733   57.7782 C   0  0  0  0  0  0  0  0  0  0  0  0
  -34.6655   57.0412   58.0031 C   0  0  0  0  0  0  0  0  0  0  0  0
  -33.8427   56.0453   58.8153 C   0  0  0  0  0  0  0  0  0  0  0  0
  -34.6194   55.3901   59.9438 C   0  0  0  0  0  0  0  0  0  0  0  0
  -34.4970   56.1179   61.2714 C   0  0  0  0  0  0  0  0  0  0  0  0
  -33.1377   56.7504   61.5198 C   0  0  0  0  0  0  0  0  0  0  0  0
  -33.1886   58.2653   61.6461 C   0  0  0  0  0  0  0  0  0  0  0  0
  -32.1105   58.8520   62.5356 C   0  0  0  0  0  0  0  0  0  0  0  0
  -31.2436   59.8488   61.8184 C   0  0  0  0  0  0  0  0  0  0  0  0
 21 22  1  0  0  0
  4  5  2  0  0  0
 25 24  1  0  0  0
 25 26  2  0  0  0
 25 27  1  0  0  0
 25 29  1  0  0  0
 22 20  1  0  0  0
  3  5  1  0  0  0
  3  2  1  0  0  0
 20 19  1  0  0  0
 24 23  1  0  0  0
 19 18  1  0  0  0
 18 17  1  0  0  0
 27 28  1  0  0  0
 17 16  1  0  0  0
 29 30  1  0  0  0
 16 15  1  0  0  0
 34 35  1  0  0  0
 34 36  1  0  0  0
 15 14  1  0  0  0
 31 32  1  0  0  0
 31 33  1  0  0  0
 14 13  1  0  0  0
 37  1  1  0  0  0
 37 39  1  0  0  0
 13 12  1  0  0  0
 38 39  2  0  0  0
 12 11  1  0  0  0
 11 10  1  0  0  0
 10  9  1  0  0  0
  9  8  1  0  0  0
  8  7  1  0  0  0
  7  6  1  0  0  0
  6  5  1  0  0  0
  2  1  1  0  0  0
  1 23  1  0  0  0
 30 32  1  0  0  0
 32 35  1  0  0  0
 39 40  1  0  0  0
 40 41  1  0  0  0
 41 42  1  0  0  0
 42 43  1  0  0  0
 43 44  1  0  0  0
 44 45  1  0  0  0
 45 46  1  0  0  0
 46 47  1  0  0  0
 47 48  2  0  0  0
 48 49  1  0  0  0
 49 50  1  0  0  0
 50 51  1  0  0  0
 51 52  1  0  0  0
 52 53  1  0  0  0
 53 54  1  0  0  0
 54 55  1  0  0  0
 55 56  1  0  0  0
M  CHG 1  26  -1
M  END
> <minimizedAffinity>
-8.86339

> <CNNscore>
0.5982488990

> <CNNaffinity>
7.4120368958

> <CNN_VS>
4.4342427254

> <CNNaffinity_variance>
0.6997949481

$$$$
/media/chris/experiments/cd1a-new-docking/inputs/ligands/7sh4_ligand.pdb


 56 55  0  0  0  0  0  0  0  0999 V2000
  -38.5934   60.9241   63.3736 C   0  0  0  0  0  0  0  0  0  0  0  0
  -39.1986   59.9544   62.3984 C   0  0  0  0  0  0  0  0  0  0  0  0
  -38.0939   59.1075   62.0169 O   0  0  0  0  0  0  0  0  0  0  0  0
  -39.0167   57.3694   63.0782 O   0  0  0  0  0  0  0  0  0  0  0  0
  -38.1850   57.8159   62.3351 C   0  0  0  0  0  0  0  0  0  0  0  0
  -37.2025   56.9936   61.5517 C   0  0  0  0  0  0  0  0  0  0  0  0
  -37.4929   56.9332   60.0616 C   0  0  0  0  0  0  0  0  0  0  0  0
  -37.0230   58.1681   59.3222 C   0  0  0  0  0  0  0  0  0  0  0  0
  -36.5568   57.9036   57.9085 C   0  0  0  0  0  0  0  0  0  0  0  0
  -35.6838   56.6704   57.7927 C   0  0  0  0  0  0  0  0  0  0  0  0
  -34.2081   56.9786   57.8626 C   0  0  0  0  0  0  0  0  0  0  0  0
  -33.4474   56.0186   58.7386 C   0  0  0  0  0  0  0  0  0  0  0  0
  -34.1891   55.6418   60.0019 C   0  0  0  0  0  0  0  0  0  0  0  0
  -33.5118   56.1595   61.2547 C   0  0  0  0  0  0  0  0  0  0  0  0
  -33.4735   57.6698   61.3574 C   0  0  0  0  0  0  0  0  0  0  0  0
  -32.2943   58.2027   62.1633 C   0  0  0  0  0  0  0  0  0  0  0  0
  -31.8003   59.5621   61.7072 C   0  0  0  0  0  0  0  0  0  0  0  0
  -30.4909   59.9732   62.3487 C   0  0  0  0  0  0  0  0  0  0  0  0
  -29.8053   61.1362   61.6453 C   0  0  0  0  0  0  0  0  0  0  0  0
  -30.2646   62.4982   62.1343 C   0  0  0  0  0  0  0  0  0  0  0  0
  -30.9537   63.9508   64.0710 C   0  0  0  0  0  0  0  0  0  0  0  0
  -30.6741   62.5436   63.5942 C   0  0  0  0  0  0  0  0  0  0  0  0
  -37.0914   60.8106   63.4268 C   0  0  0  0  0  0  0  0  0  0  0  0
  -36.5207   61.7440   62.4827 O   0  0  0  0  0  0  0  0  0  0  0  0
  -35.5623   62.9475   62.9242 P   0  0  0  0  0  0  0  0  0  0  0  0
  -34.1717   62.5717   62.5897 O   0  0  0  0  0  0  0  0  0  0  0  0
  -36.1140   64.2056   62.3662 O   0  0  0  0  0  0  0  0  0  0  0  0
  -36.0523   64.1845   61.3984 H   0  0  0  0  0  0  0  0  0  0  0  0
  -35.6822   63.0220   64.5125 O   0  0  0  0  0  0  0  0  0  0  0  0
  -34.4947   62.9663   65.3292 C   0  0  0  0  0  0  0  0  0  0  0  0
  -34.1258   62.9964   67.6967 O   0  0  0  0  0  0  0  0  0  0  0  0
  -34.8579   62.3439   66.6550 C   0  0  0  0  0  0  0  0  0  0  0  0
  -33.1762   62.9451   67.5057 H   0  0  0  0  0  0  0  0  0  0  0  0
  -36.7635   63.7657   67.0622 O   0  0  0  0  0  0  0  0  0  0  0  0
  -36.3396   62.4143   66.9364 C   0  0  0  0  0  0  0  0  0  0  0  0
  -37.7162   63.7902   67.2426 H   0  0  0  0  0  0  0  0  0  0  0  0
  -39.2007   60.6958   64.6885 O   0  0  0  0  0  0  0  0  0  0  0  0
  -41.2836   61.3757   64.1792 O   0  0  0  0  0  0  0  0  0  0  0  0
  -40.5441   60.6096   64.7340 C   0  0  0  0  0  0  0  0  0  0  0  0
  -41.0033   59.4358   65.5423 C   0  0  0  0  0  0  0  0  0  0  0  0
  -42.4644   59.1002   65.2601 C   0  0  0  0  0  0  0  0  0  0  0  0
  -42.9886   57.9143   66.0531 C   0  0  0  0  0  0  0  0  0  0  0  0
  -44.4836   57.9870   66.3420 C   0  0  0  0  0  0  0  0  0  0  0  0
  -45.3244   57.0658   65.4778 C   0  0  0  0  0  0  0  0  0  0  0  0
  -46.5788   56.5179   66.1642 C   0  0  0  0  0  0  0  0  0  0  0  0
  -47.9054   57.0550   65.6223 C   0  0  0  0  0  0  0  0  0  0  0  0
  -47.9670   58.5525   65.6624 C   0  0  0  0  0  0  0  0  0  0  0  0
  -49.0243   59.3037   65.4232 C   0  0  0  0  0  0  0  0  0  0  0  0
  -50.3911   58.8145   65.0616 C   0  0  0  0  0  0  0  0  0  0  0  0
  -51.2375   59.8933   64.3919 C   0  0  0  0  0  0  0  0  0  0  0  0
  -51.5881   59.5835   62.9473 C   0  0  0  0  0  0  0  0  0  0  0  0
  -50.8145   58.4106   62.3700 C   0  0  0  0  0  0  0  0  0  0  0  0
  -49.6959   58.8013   61.4184 C   0  0  0  0  0  0  0  0  0  0  0  0
  -49.6857   57.9916   60.1308 C   0  0  0  0  0  0  0  0  0  0  0  0
  -49.7912   56.4937   60.3370 C   0  0  0  0  0  0  0  0  0  0  0  0
  -48.7368   55.7279   59.5877 C   0  0  0  0  0  0  0  0  0  0  0  0
 21 22  1  0  0  0
  4  5  2  0  0  0
 25 24  1  0  0  0
 25 26  2  0  0  0
 25 27  1  0  0  0
 25 29  1  0  0  0
 22 20  1  0  0  0
  3  5  1  0  0  0
  3  2  1  0  0  0
 20 19  1  0  0  0
 24 23  1  0  0  0
 19 18  1  0  0  0
 18 17  1  0  0  0
 27 28  1  0  0  0
 17 16  1  0  0  0
 29 30  1  0  0  0
 16 15  1  0  0  0
 34 35  1  0  0  0
 34 36  1  0  0  0
 15 14  1  0  0  0
 31 32  1  0  0  0
 31 33  1  0  0  0
 14 13  1  0  0  0
 37  1  1  0  0  0
 37 39  1  0  0  0
 13 12  1  0  0  0
 38 39  2  0  0  0
 12 11  1  0  0  0
 11 10  1  0  0  0
 10  9  1  0  0  0
  9  8  1  0  0  0
  8  7  1  0  0  0
  7  6  1  0  0  0
  6  5  1  0  0  0
  2  1  1  0  0  0
  1 23  1  0  0  0
 30 32  1  0  0  0
 32 35  1  0  0  0
 39 40  1  0  0  0
 40 41  1  0  0  0
 41 42  1  0  0  0
 42 43  1  0  0  0
 43 44  1  0  0  0
 44 45  1  0  0  0
 45 46  1  0  0  0
 46 47  1  0  0  0
 47 48  2  0  0  0
 48 49  1  0  0  0
 49 50  1  0  0  0
 50 51  1  0  0  0
 51 52  1  0  0  0
 52 53  1  0  0  0
 53 54  1  0  0  0
 54 55  1  0  0  0
 55 56  1  0  0  0
M  CHG 1  26  -1
M  END
> <minimizedAffinity>
-8.76216

> <CNNscore>
0.5783324242

> <CNNaffinity>
7.2441377640

> <CNN_VS>
4.1895198822

> <CNNaffinity_variance>
0.4782997072

$$$$
/media/chris/experiments/cd1a-new-docking/inputs/ligands/7sh4_ligand.pdb


 56 55  0  0  0  0  0  0  0  0999 V2000
  -37.2680   60.6285   65.3102 C   0  0  0  0  0  0  0  0  0  0  0  0
  -38.4012   60.0144   66.0824 C   0  0  0  0  0  0  0  0  0  0  0  0
  -39.5734   60.3546   65.3122 O   0  0  0  0  0  0  0  0  0  0  0  0
  -40.1465   58.2639   64.7651 O   0  0  0  0  0  0  0  0  0  0  0  0
  -40.4544   59.3788   65.0900 C   0  0  0  0  0  0  0  0  0  0  0  0
  -41.8506   59.8229   65.4194 C   0  0  0  0  0  0  0  0  0  0  0  0
  -42.4448   59.1456   66.6428 C   0  0  0  0  0  0  0  0  0  0  0  0
  -43.5936   58.2204   66.3007 C   0  0  0  0  0  0  0  0  0  0  0  0
  -44.6519   58.8464   65.4210 C   0  0  0  0  0  0  0  0  0  0  0  0
  -46.0038   58.9454   66.0983 C   0  0  0  0  0  0  0  0  0  0  0  0
  -47.0580   59.5867   65.2293 C   0  0  0  0  0  0  0  0  0  0  0  0
  -48.4233   59.5878   65.8646 C   0  0  0  0  0  0  0  0  0  0  0  0
  -49.1065   58.2389   65.8215 C   0  0  0  0  0  0  0  0  0  0  0  0
  -50.5421   58.3251   65.3439 C   0  0  0  0  0  0  0  0  0  0  0  0
  -50.8387   59.5430   64.4944 C   0  0  0  0  0  0  0  0  0  0  0  0
  -51.3185   59.2099   63.0863 C   0  0  0  0  0  0  0  0  0  0  0  0
  -50.4045   58.2637   62.3317 C   0  0  0  0  0  0  0  0  0  0  0  0
  -51.1158   57.4708   61.2544 C   0  0  0  0  0  0  0  0  0  0  0  0
  -50.3394   57.3834   59.9479 C   0  0  0  0  0  0  0  0  0  0  0  0
  -48.9720   58.0404   60.0084 C   0  0  0  0  0  0  0  0  0  0  0  0
  -47.9798   56.9937   57.9455 C   0  0  0  0  0  0  0  0  0  0  0  0
  -47.8413   57.2069   59.4359 C   0  0  0  0  0  0  0  0  0  0  0  0
  -36.3183   61.3846   66.2036 C   0  0  0  0  0  0  0  0  0  0  0  0
  -36.7125   62.7747   66.2309 O   0  0  0  0  0  0  0  0  0  0  0  0
  -35.6727   63.9753   66.0330 P   0  0  0  0  0  0  0  0  0  0  0  0
  -36.2892   64.9706   65.1296 O   0  0  0  0  0  0  0  0  0  0  0  0
  -35.2161   64.4161   67.3730 O   0  0  0  0  0  0  0  0  0  0  0  0
  -35.9597   64.8117   67.8541 H   0  0  0  0  0  0  0  0  0  0  0  0
  -34.4245   63.3326   65.2770 O   0  0  0  0  0  0  0  0  0  0  0  0
  -33.1105   63.3996   65.8678 C   0  0  0  0  0  0  0  0  0  0  0  0
  -31.5682   65.1999   66.2178 O   0  0  0  0  0  0  0  0  0  0  0  0
  -32.3571   64.5379   65.2246 C   0  0  0  0  0  0  0  0  0  0  0  0
  -32.1409   65.4919   66.9441 H   0  0  0  0  0  0  0  0  0  0  0  0
  -30.4636   63.2013   64.5566 O   0  0  0  0  0  0  0  0  0  0  0  0
  -31.4806   64.0761   64.0853 C   0  0  0  0  0  0  0  0  0  0  0  0
  -29.9118   62.9160   63.8116 H   0  0  0  0  0  0  0  0  0  0  0  0
  -37.8336   61.4908   64.2679 O   0  0  0  0  0  0  0  0  0  0  0  0
  -36.3190   61.9927   62.6822 O   0  0  0  0  0  0  0  0  0  0  0  0
  -37.2968   61.3926   63.0364 C   0  0  0  0  0  0  0  0  0  0  0  0
  -38.0530   60.4335   62.1702 C   0  0  0  0  0  0  0  0  0  0  0  0
  -37.6048   58.9946   62.4060 C   0  0  0  0  0  0  0  0  0  0  0  0
  -38.3486   57.9715   61.5635 C   0  0  0  0  0  0  0  0  0  0  0  0
  -37.5929   57.5497   60.3086 C   0  0  0  0  0  0  0  0  0  0  0  0
  -37.7956   58.4778   59.1253 C   0  0  0  0  0  0  0  0  0  0  0  0
  -37.1733   57.9850   57.8157 C   0  0  0  0  0  0  0  0  0  0  0  0
  -36.3644   56.6906   57.9252 C   0  0  0  0  0  0  0  0  0  0  0  0
  -34.8870   56.9424   57.8815 C   0  0  0  0  0  0  0  0  0  0  0  0
  -33.9910   56.5247   58.7546 C   0  0  0  0  0  0  0  0  0  0  0  0
  -34.2641   55.7062   59.9768 C   0  0  0  0  0  0  0  0  0  0  0  0
  -33.5636   56.2576   61.2153 C   0  0  0  0  0  0  0  0  0  0  0  0
  -34.4830   57.0366   62.1394 C   0  0  0  0  0  0  0  0  0  0  0  0
  -33.8520   58.2962   62.7074 C   0  0  0  0  0  0  0  0  0  0  0  0
  -32.3625   58.4309   62.4382 C   0  0  0  0  0  0  0  0  0  0  0  0
  -31.9275   59.8575   62.1395 C   0  0  0  0  0  0  0  0  0  0  0  0
  -30.4270   60.0697   62.1705 C   0  0  0  0  0  0  0  0  0  0  0  0
  -30.0104   61.3693   61.5403 C   0  0  0  0  0  0  0  0  0  0  0  0
 21 22  1  0  0  0
  4  5  2  0  0  0
 25 24  1  0  0  0
 25 26  2  0  0  0
 25 27  1  0  0  0
 25 29  1  0  0  0
 22 20  1  0  0  0
  3  5  1  0  0  0
  3  2  1  0  0  0
 20 19  1  0  0  0
 24 23  1  0  0  0
 19 18  1  0  0  0
 18 17  1  0  0  0
 27 28  1  0  0  0
 17 16  1  0  0  0
 29 30  1  0  0  0
 16 15  1  0  0  0
 34 35  1  0  0  0
 34 36  1  0  0  0
 15 14  1  0  0  0
 31 32  1  0  0  0
 31 33  1  0  0  0
 14 13  1  0  0  0
 37  1  1  0  0  0
 37 39  1  0  0  0
 13 12  1  0  0  0
 38 39  2  0  0  0
 12 11  1  0  0  0
 11 10  1  0  0  0
 10  9  1  0  0  0
  9  8  1  0  0  0
  8  7  1  0  0  0
  7  6  1  0  0  0
  6  5  1  0  0  0
  2  1  1  0  0  0
  1 23  1  0  0  0
 30 32  1  0  0  0
 32 35  1  0  0  0
 39 40  1  0  0  0
 40 41  1  0  0  0
 41 42  1  0  0  0
 42 43  1  0  0  0
 43 44  1  0  0  0
 44 45  1  0  0  0
 45 46  1  0  0  0
 46 47  1  0  0  0
 47 48  2  0  0  0
 48 49  1  0  0  0
 49 50  1  0  0  0
 50 51  1  0  0  0
 51 52  1  0  0  0
 52 53  1  0  0  0
 53 54  1  0  0  0
 54 55  1  0  0  0
 55 56  1  0  0  0
M  CHG 1  26  -1
M  END
> <minimizedAffinity>
-9.26513

> <CNNscore>
0.5179774761

> <CNNaffinity>
7.1996660233

> <CNN_VS>
3.7292647362

> <CNNaffinity_variance>
0.5233228207

$$$$
/media/chris/experiments/cd1a-new-docking/inputs/ligands/7sh4_ligand.pdb


 56 55  0  0  0  0  0  0  0  0999 V2000
  -36.5076   60.8803   64.9775 C   0  0  0  0  0  0  0  0  0  0  0  0
  -37.6819   60.5695   65.8619 C   0  0  0  0  0  0  0  0  0  0  0  0
  -38.7801   60.4063   64.9398 O   0  0  0  0  0  0  0  0  0  0  0  0
  -39.2089   58.2803   65.4832 O   0  0  0  0  0  0  0  0  0  0  0  0
  -39.5908   59.3677   65.1437 C   0  0  0  0  0  0  0  0  0  0  0  0
  -41.0318   59.7710   65.0165 C   0  0  0  0  0  0  0  0  0  0  0  0
  -41.7373   59.9799   66.3459 C   0  0  0  0  0  0  0  0  0  0  0  0
  -42.2551   58.6889   66.9441 C   0  0  0  0  0  0  0  0  0  0  0  0
  -42.8197   57.7195   65.9305 C   0  0  0  0  0  0  0  0  0  0  0  0
  -44.2910   57.4273   66.1446 C   0  0  0  0  0  0  0  0  0  0  0  0
  -45.0562   58.6049   66.6971 C   0  0  0  0  0  0  0  0  0  0  0  0
  -46.4033   58.7875   66.0493 C   0  0  0  0  0  0  0  0  0  0  0  0
  -47.0497   57.4855   65.6308 C   0  0  0  0  0  0  0  0  0  0  0  0
  -48.3831   57.6894   64.9404 C   0  0  0  0  0  0  0  0  0  0  0  0
  -49.1632   58.8857   65.4439 C   0  0  0  0  0  0  0  0  0  0  0  0
  -50.6570   58.8157   65.1484 C   0  0  0  0  0  0  0  0  0  0  0  0
  -51.1809   59.9876   64.3407 C   0  0  0  0  0  0  0  0  0  0  0  0
  -51.7477   59.5855   62.9945 C   0  0  0  0  0  0  0  0  0  0  0  0
  -50.7227   58.9484   62.0665 C   0  0  0  0  0  0  0  0  0  0  0  0
  -51.1379   57.5830   61.5484 C   0  0  0  0  0  0  0  0  0  0  0  0
  -49.1772   57.9286   60.0084 C   0  0  0  0  0  0  0  0  0  0  0  0
  -50.1419   56.9309   60.6083 C   0  0  0  0  0  0  0  0  0  0  0  0
  -36.6324   62.2334   64.3254 C   0  0  0  0  0  0  0  0  0  0  0  0
  -36.3135   63.2510   65.3008 O   0  0  0  0  0  0  0  0  0  0  0  0
  -34.8496   63.8806   65.4503 P   0  0  0  0  0  0  0  0  0  0  0  0
  -34.9258   65.3100   65.0788 O   0  0  0  0  0  0  0  0  0  0  0  0
  -34.3266   63.5199   66.7901 O   0  0  0  0  0  0  0  0  0  0  0  0
  -34.8551   63.9615   67.4732 H   0  0  0  0  0  0  0  0  0  0  0  0
  -33.9562   63.1366   64.3591 O   0  0  0  0  0  0  0  0  0  0  0  0
  -32.5454   63.4212   64.2657 C   0  0  0  0  0  0  0  0  0  0  0  0
  -31.0122   64.9323   63.2130 O   0  0  0  0  0  0  0  0  0  0  0  0
  -32.3280   64.3783   63.1195 C   0  0  0  0  0  0  0  0  0  0  0  0
  -30.8992   65.3530   64.0796 H   0  0  0  0  0  0  0  0  0  0  0  0
  -33.9003   63.4732   61.5299 O   0  0  0  0  0  0  0  0  0  0  0  0
  -32.5215   63.7187   61.7752 C   0  0  0  0  0  0  0  0  0  0  0  0
  -34.0042   63.0498   60.6634 H   0  0  0  0  0  0  0  0  0  0  0  0
  -36.3822   59.8096   63.9836 O   0  0  0  0  0  0  0  0  0  0  0  0
  -34.5999   58.7736   64.8838 O   0  0  0  0  0  0  0  0  0  0  0  0
  -35.6704   58.7238   64.3423 C   0  0  0  0  0  0  0  0  0  0  0  0
  -36.3810   57.4505   64.0022 C   0  0  0  0  0  0  0  0  0  0  0  0
  -36.7616   57.4000   62.5259 C   0  0  0  0  0  0  0  0  0  0  0  0
  -38.2559   57.2733   62.2787 C   0  0  0  0  0  0  0  0  0  0  0  0
  -38.8607   58.4789   61.5683 C   0  0  0  0  0  0  0  0  0  0  0  0
  -37.8330   59.4516   61.0203 C   0  0  0  0  0  0  0  0  0  0  0  0
  -37.7742   59.5217   59.4917 C   0  0  0  0  0  0  0  0  0  0  0  0
  -37.7879   58.1689   58.7764 C   0  0  0  0  0  0  0  0  0  0  0  0
  -36.5324   57.9322   57.9919 C   0  0  0  0  0  0  0  0  0  0  0  0
  -35.4748   57.2496   58.3857 C   0  0  0  0  0  0  0  0  0  0  0  0
  -35.3078   56.5637   59.7048 C   0  0  0  0  0  0  0  0  0  0  0  0
  -33.9934   55.7943   59.7988 C   0  0  0  0  0  0  0  0  0  0  0  0
  -33.1197   56.2207   60.9655 C   0  0  0  0  0  0  0  0  0  0  0  0
  -33.4027   57.6302   61.4561 C   0  0  0  0  0  0  0  0  0  0  0  0
  -32.2996   58.2331   62.3098 C   0  0  0  0  0  0  0  0  0  0  0  0
  -32.2660   59.7533   62.2709 C   0  0  0  0  0  0  0  0  0  0  0  0
  -31.0221   60.3318   61.6263 C   0  0  0  0  0  0  0  0  0  0  0  0
  -29.8882   60.5007   62.5986 C   0  0  0  0  0  0  0  0  0  0  0  0
 21 22  1  0  0  0
  4  5  2  0  0  0
 25 24  1  0  0  0
 25 26  2  0  0  0
 25 27  1  0  0  0
 25 29  1  0  0  0
 22 20  1  0  0  0
  3  5  1  0  0  0
  3  2  1  0  0  0
 20 19  1  0  0  0
 24 23  1  0  0  0
 19 18  1  0  0  0
 18 17  1  0  0  0
 27 28  1  0  0  0
 17 16  1  0  0  0
 29 30  1  0  0  0
 16 15  1  0  0  0
 34 35  1  0  0  0
 34 36  1  0  0  0
 15 14  1  0  0  0
 31 32  1  0  0  0
 31 33  1  0  0  0
 14 13  1  0  0  0
 37  1  1  0  0  0
 37 39  1  0  0  0
 13 12  1  0  0  0
 38 39  2  0  0  0
 12 11  1  0  0  0
 11 10  1  0  0  0
 10  9  1  0  0  0
  9  8  1  0  0  0
  8  7  1  0  0  0
  7  6  1  0  0  0
  6  5  1  0  0  0
  2  1  1  0  0  0
  1 23  1  0  0  0
 30 32  1  0  0  0
 32 35  1  0  0  0
 39 40  1  0  0  0
 40 41  1  0  0  0
 41 42  1  0  0  0
 42 43  1  0  0  0
 43 44  1  0  0  0
 44 45  1  0  0  0
 45 46  1  0  0  0
 46 47  1  0  0  0
 47 48  2  0  0  0
 48 49  1  0  0  0
 49 50  1  0  0  0
 50 51  1  0  0  0
 51 52  1  0  0  0
 52 53  1  0  0  0
 53 54  1  0  0  0
 54 55  1  0  0  0
 55 56  1  0  0  0
M  CHG 1  26  -1
M  END
> <minimizedAffinity>
-8.41420

> <CNNscore>
0.5089389682

> <CNNaffinity>
7.1760039330

> <CNN_VS>
3.6521480083

> <CNNaffinity_variance>
0.8009797335

$$$$
