/media/chris/experiments/cd1a-new-docking/inputs/ligands/7sh4_ligand.pdb


 56 55  0  0  0  0  0  0  0  0999 V2000
  -37.3292   60.1339   65.1847 C   0  0  0  0  0  0  0  0  0  0  0  0
  -38.6959   60.3348   65.7758 C   0  0  0  0  0  0  0  0  0  0  0  0
  -39.5393   60.5792   64.6303 O   0  0  0  0  0  0  0  0  0  0  0  0
  -41.7264   60.7833   64.2128 O   0  0  0  0  0  0  0  0  0  0  0  0
  -40.8125   60.1947   64.7247 C   0  0  0  0  0  0  0  0  0  0  0  0
  -40.9306   58.8789   65.4386 C   0  0  0  0  0  0  0  0  0  0  0  0
  -42.1581   58.7625   66.3264 C   0  0  0  0  0  0  0  0  0  0  0  0
  -42.7454   57.3670   66.3348 C   0  0  0  0  0  0  0  0  0  0  0  0
  -44.1529   57.2841   65.7890 C   0  0  0  0  0  0  0  0  0  0  0  0
  -44.9187   58.5847   65.9229 C   0  0  0  0  0  0  0  0  0  0  0  0
  -46.0393   58.5132   66.9311 C   0  0  0  0  0  0  0  0  0  0  0  0
  -47.0367   57.4270   66.6262 C   0  0  0  0  0  0  0  0  0  0  0  0
  -47.9071   57.7306   65.4270 C   0  0  0  0  0  0  0  0  0  0  0  0
  -49.0980   58.6011   65.7735 C   0  0  0  0  0  0  0  0  0  0  0  0
  -50.3161   58.3549   64.9080 C   0  0  0  0  0  0  0  0  0  0  0  0
  -50.7338   59.5613   64.0749 C   0  0  0  0  0  0  0  0  0  0  0  0
  -51.0593   59.2302   62.6311 C   0  0  0  0  0  0  0  0  0  0  0  0
  -50.8705   57.7658   62.2920 C   0  0  0  0  0  0  0  0  0  0  0  0
  -50.9169   57.4743   60.7985 C   0  0  0  0  0  0  0  0  0  0  0  0
  -49.7497   58.0647   60.0276 C   0  0  0  0  0  0  0  0  0  0  0  0
  -47.5333   57.6324   58.9156 C   0  0  0  0  0  0  0  0  0  0  0  0
  -48.5134   57.1871   59.9772 C   0  0  0  0  0  0  0  0  0  0  0  0
  -37.0516   61.0979   64.0597 C   0  0  0  0  0  0  0  0  0  0  0  0
  -36.0263   62.0241   64.4832 O   0  0  0  0  0  0  0  0  0  0  0  0
  -35.6709   63.3559   63.6697 P   0  0  0  0  0  0  0  0  0  0  0  0
  -35.8601   63.0772   62.2299 O   0  0  0  0  0  0  0  0  0  0  0  0
  -36.4160   64.4828   64.2811 O   0  0  0  0  0  0  0  0  0  0  0  0
  -37.3674   64.3554   64.1407 H   0  0  0  0  0  0  0  0  0  0  0  0
  -34.1159   63.6027   63.9219 O   0  0  0  0  0  0  0  0  0  0  0  0
  -33.5930   63.5958   65.2661 C   0  0  0  0  0  0  0  0  0  0  0  0
  -31.6259   64.4141   64.1689 O   0  0  0  0  0  0  0  0  0  0  0  0
  -32.4421   64.5694   65.3337 C   0  0  0  0  0  0  0  0  0  0  0  0
  -31.3336   63.4917   64.0996 H   0  0  0  0  0  0  0  0  0  0  0  0
  -33.9112   66.2880   64.4932 O   0  0  0  0  0  0  0  0  0  0  0  0
  -32.9064   66.0008   65.4573 C   0  0  0  0  0  0  0  0  0  0  0  0
  -34.1963   67.2103   64.5882 H   0  0  0  0  0  0  0  0  0  0  0  0
  -37.2175   58.7401   64.7436 O   0  0  0  0  0  0  0  0  0  0  0  0
  -34.9830   58.4920   64.6683 O   0  0  0  0  0  0  0  0  0  0  0  0
  -36.0620   58.3769   64.1544 C   0  0  0  0  0  0  0  0  0  0  0  0
  -36.2856   57.7965   62.7923 C   0  0  0  0  0  0  0  0  0  0  0  0
  -37.6873   57.2102   62.6579 C   0  0  0  0  0  0  0  0  0  0  0  0
  -38.4730   57.7562   61.4769 C   0  0  0  0  0  0  0  0  0  0  0  0
  -38.6289   59.2724   61.4967 C   0  0  0  0  0  0  0  0  0  0  0  0
  -38.4836   59.9254   60.1348 C   0  0  0  0  0  0  0  0  0  0  0  0
  -38.3636   58.9423   58.9669 C   0  0  0  0  0  0  0  0  0  0  0  0
  -36.9338   58.6421   58.5121 C   0  0  0  0  0  0  0  0  0  0  0  0
  -36.8076   57.2743   57.9112 C   0  0  0  0  0  0  0  0  0  0  0  0
  -35.7515   56.4858   57.9631 C   0  0  0  0  0  0  0  0  0  0  0  0
  -34.4524   56.7938   58.6379 C   0  0  0  0  0  0  0  0  0  0  0  0
  -34.0292   55.6995   59.6136 C   0  0  0  0  0  0  0  0  0  0  0  0
  -34.0263   56.1451   61.0653 C   0  0  0  0  0  0  0  0  0  0  0  0
  -32.6428   56.4731   61.5999 C   0  0  0  0  0  0  0  0  0  0  0  0
  -32.5612   57.7756   62.3785 C   0  0  0  0  0  0  0  0  0  0  0  0
  -32.1985   58.9749   61.5161 C   0  0  0  0  0  0  0  0  0  0  0  0
  -31.2262   59.9384   62.1676 C   0  0  0  0  0  0  0  0  0  0  0  0
  -31.7906   61.3239   62.3139 C   0  0  0  0  0  0  0  0  0  0  0  0
 21 22  1  0  0  0
  4  5  2  0  0  0
 25 24  1  0  0  0
 25 26  2  0  0  0
 25 27  1  0  0  0
 25 29  1  0  0  0
 22 20  1  0  0  0
  3  5  1  0  0  0
  3  2  1  0  0  0
 20 19  1  0  0  0
 24 23  1  0  0  0
 19 18  1  0  0  0
 18 17  1  0  0  0
 27 28  1  0  0  0
 17 16  1  0  0  0
 29 30  1  0  0  0
 16 15  1  0  0  0
 34 35  1  0  0  0
 34 36  1  0  0  0
 15 14  1  0  0  0
 31 32  1  0  0  0
 31 33  1  0  0  0
 14 13  1  0  0  0
 37  1  1  0  0  0
 37 39  1  0  0  0
 13 12  1  0  0  0
 38 39  2  0  0  0
 12 11  1  0  0  0
 11 10  1  0  0  0
 10  9  1  0  0  0
  9  8  1  0  0  0
  8  7  1  0  0  0
  7  6  1  0  0  0
  6  5  1  0  0  0
  2  1  1  0  0  0
  1 23  1  0  0  0
 30 32  1  0  0  0
 32 35  1  0  0  0
 39 40  1  0  0  0
 40 41  1  0  0  0
 41 42  1  0  0  0
 42 43  1  0  0  0
 43 44  1  0  0  0
 44 45  1  0  0  0
 45 46  1  0  0  0
 46 47  1  0  0  0
 47 48  2  0  0  0
 48 49  1  0  0  0
 49 50  1  0  0  0
 50 51  1  0  0  0
 51 52  1  0  0  0
 52 53  1  0  0  0
 53 54  1  0  0  0
 54 55  1  0  0  0
 55 56  1  0  0  0
M  CHG 1  26  -1
M  END
> <minimizedAffinity>
-8.64673

> <CNNscore>
0.7227169871

> <CNNaffinity>
7.5812401772

> <CNN_VS>
5.4790911674

> <CNNaffinity_variance>
0.7743037939

$$$$
/media/chris/experiments/cd1a-new-docking/inputs/ligands/7sh4_ligand.pdb


 56 55  0  0  0  0  0  0  0  0999 V2000
  -35.9704   59.7470   63.8368 C   0  0  0  0  0  0  0  0  0  0  0  0
  -34.6814   58.9863   63.9698 C   0  0  0  0  0  0  0  0  0  0  0  0
  -34.8517   57.8543   63.0907 O   0  0  0  0  0  0  0  0  0  0  0  0
  -33.2432   58.6163   61.7374 O   0  0  0  0  0  0  0  0  0  0  0  0
  -33.9896   57.7392   62.0801 C   0  0  0  0  0  0  0  0  0  0  0  0
  -33.9907   56.3452   61.5220 C   0  0  0  0  0  0  0  0  0  0  0  0
  -34.4018   56.2618   60.0617 C   0  0  0  0  0  0  0  0  0  0  0  0
  -35.6681   57.0366   59.7639 C   0  0  0  0  0  0  0  0  0  0  0  0
  -36.9325   56.3693   60.2557 C   0  0  0  0  0  0  0  0  0  0  0  0
  -37.7530   57.2547   61.1717 C   0  0  0  0  0  0  0  0  0  0  0  0
  -38.2855   58.4884   60.4849 C   0  0  0  0  0  0  0  0  0  0  0  0
  -38.8372   59.5061   61.4479 C   0  0  0  0  0  0  0  0  0  0  0  0
  -40.0667   60.2185   60.9295 C   0  0  0  0  0  0  0  0  0  0  0  0
  -40.2151   60.1106   59.4254 C   0  0  0  0  0  0  0  0  0  0  0  0
  -41.6244   59.8035   58.9639 C   0  0  0  0  0  0  0  0  0  0  0  0
  -41.6927   59.1383   57.5939 C   0  0  0  0  0  0  0  0  0  0  0  0
  -43.1026   58.9656   57.0623 C   0  0  0  0  0  0  0  0  0  0  0  0
  -44.0402   58.2991   58.0481 C   0  0  0  0  0  0  0  0  0  0  0  0
  -45.4231   58.0148   57.4785 C   0  0  0  0  0  0  0  0  0  0  0  0
  -46.4780   57.7634   58.5411 C   0  0  0  0  0  0  0  0  0  0  0  0
  -47.3974   55.4492   58.1733 C   0  0  0  0  0  0  0  0  0  0  0  0
  -47.6611   56.9349   58.0775 C   0  0  0  0  0  0  0  0  0  0  0  0
  -35.7384   61.2074   63.5453 C   0  0  0  0  0  0  0  0  0  0  0  0
  -34.3462   61.3990   63.2082 O   0  0  0  0  0  0  0  0  0  0  0  0
  -33.6388   62.8347   63.2270 P   0  0  0  0  0  0  0  0  0  0  0  0
  -32.3151   62.7014   62.5816 O   0  0  0  0  0  0  0  0  0  0  0  0
  -34.5977   63.8287   62.6872 O   0  0  0  0  0  0  0  0  0  0  0  0
  -34.7584   63.6461   61.7482 H   0  0  0  0  0  0  0  0  0  0  0  0
  -33.4024   63.1689   64.7681 O   0  0  0  0  0  0  0  0  0  0  0  0
  -34.2463   64.1291   65.4359 C   0  0  0  0  0  0  0  0  0  0  0  0
  -34.2101   64.5215   67.7997 O   0  0  0  0  0  0  0  0  0  0  0  0
  -34.6056   63.5821   66.7956 C   0  0  0  0  0  0  0  0  0  0  0  0
  -33.2631   64.7113   67.7098 H   0  0  0  0  0  0  0  0  0  0  0  0
  -36.3156   62.3841   68.0034 O   0  0  0  0  0  0  0  0  0  0  0  0
  -36.0786   63.2749   66.9209 C   0  0  0  0  0  0  0  0  0  0  0  0
  -37.2656   62.1990   68.0678 H   0  0  0  0  0  0  0  0  0  0  0  0
  -36.7474   59.5568   65.0656 O   0  0  0  0  0  0  0  0  0  0  0  0
  -37.8268   57.6255   64.6590 O   0  0  0  0  0  0  0  0  0  0  0  0
  -37.8461   58.7825   64.9795 C   0  0  0  0  0  0  0  0  0  0  0  0
  -39.0894   59.5307   65.3486 C   0  0  0  0  0  0  0  0  0  0  0  0
  -40.3333   58.8721   64.7606 C   0  0  0  0  0  0  0  0  0  0  0  0
  -41.6154   59.6523   65.0002 C   0  0  0  0  0  0  0  0  0  0  0  0
  -42.5125   59.0380   66.0686 C   0  0  0  0  0  0  0  0  0  0  0  0
  -42.5337   57.5208   66.0587 C   0  0  0  0  0  0  0  0  0  0  0  0
  -43.8812   56.9003   66.4381 C   0  0  0  0  0  0  0  0  0  0  0  0
  -44.8406   56.6617   65.2702 C   0  0  0  0  0  0  0  0  0  0  0  0
  -45.2913   57.9444   64.6383 C   0  0  0  0  0  0  0  0  0  0  0  0
  -46.5205   58.4221   64.6163 C   0  0  0  0  0  0  0  0  0  0  0  0
  -47.7280   57.7798   65.2227 C   0  0  0  0  0  0  0  0  0  0  0  0
  -48.4882   58.7260   66.1476 C   0  0  0  0  0  0  0  0  0  0  0  0
  -49.9395   58.9310   65.7504 C   0  0  0  0  0  0  0  0  0  0  0  0
  -50.1130   59.6453   64.4211 C   0  0  0  0  0  0  0  0  0  0  0  0
  -51.1708   59.0390   63.5140 C   0  0  0  0  0  0  0  0  0  0  0  0
  -50.8206   59.1213   62.0361 C   0  0  0  0  0  0  0  0  0  0  0  0
  -50.8199   57.7844   61.3215 C   0  0  0  0  0  0  0  0  0  0  0  0
  -49.4634   57.1369   61.3007 C   0  0  0  0  0  0  0  0  0  0  0  0
 21 22  1  0  0  0
  4  5  2  0  0  0
 25 24  1  0  0  0
 25 26  2  0  0  0
 25 27  1  0  0  0
 25 29  1  0  0  0
 22 20  1  0  0  0
  3  5  1  0  0  0
  3  2  1  0  0  0
 20 19  1  0  0  0
 24 23  1  0  0  0
 19 18  1  0  0  0
 18 17  1  0  0  0
 27 28  1  0  0  0
 17 16  1  0  0  0
 29 30  1  0  0  0
 16 15  1  0  0  0
 34 35  1  0  0  0
 34 36  1  0  0  0
 15 14  1  0  0  0
 31 32  1  0  0  0
 31 33  1  0  0  0
 14 13  1  0  0  0
 37  1  1  0  0  0
 37 39  1  0  0  0
 13 12  1  0  0  0
 38 39  2  0  0  0
 12 11  1  0  0  0
 11 10  1  0  0  0
 10  9  1  0  0  0
  9  8  1  0  0  0
  8  7  1  0  0  0
  7  6  1  0  0  0
  6  5  1  0  0  0
  2  1  1  0  0  0
  1 23  1  0  0  0
 30 32  1  0  0  0
 32 35  1  0  0  0
 39 40  1  0  0  0
 40 41  1  0  0  0
 41 42  1  0  0  0
 42 43  1  0  0  0
 43 44  1  0  0  0
 44 45  1  0  0  0
 45 46  1  0  0  0
 46 47  1  0  0  0
 47 48  2  0  0  0
 48 49  1  0  0  0
 49 50  1  0  0  0
 50 51  1  0  0  0
 51 52  1  0  0  0
 52 53  1  0  0  0
 53 54  1  0  0  0
 54 55  1  0  0  0
 55 56  1  0  0  0
M  CHG 1  26  -1
M  END
> <minimizedAffinity>
-8.24099

> <CNNscore>
0.6194144487

> <CNNaffinity>
7.7238092422

> <CNN_VS>
4.7842388153

> <CNNaffinity_variance>
0.6546232700

$$$$
/media/chris/experiments/cd1a-new-docking/inputs/ligands/7sh4_ligand.pdb


 56 55  0  0  0  0  0  0  0  0999 V2000
  -37.7456   60.6136   64.6275 C   0  0  0  0  0  0  0  0  0  0  0  0
  -38.5427   60.2041   65.8335 C   0  0  0  0  0  0  0  0  0  0  0  0
  -38.6501   58.7701   65.7107 O   0  0  0  0  0  0  0  0  0  0  0  0
  -39.9303   57.3275   64.5796 O   0  0  0  0  0  0  0  0  0  0  0  0
  -39.8213   58.2853   65.2969 C   0  0  0  0  0  0  0  0  0  0  0  0
  -40.9671   59.0104   65.9418 C   0  0  0  0  0  0  0  0  0  0  0  0
  -42.3365   58.4910   65.5375 C   0  0  0  0  0  0  0  0  0  0  0  0
  -43.4403   58.9714   66.4559 C   0  0  0  0  0  0  0  0  0  0  0  0
  -44.7013   58.1393   66.3967 C   0  0  0  0  0  0  0  0  0  0  0  0
  -45.5616   58.4510   65.1889 C   0  0  0  0  0  0  0  0  0  0  0  0
  -46.5347   59.5794   65.4280 C   0  0  0  0  0  0  0  0  0  0  0  0
  -47.7141   59.1707   66.2704 C   0  0  0  0  0  0  0  0  0  0  0  0
  -48.4313   57.9467   65.7456 C   0  0  0  0  0  0  0  0  0  0  0  0
  -49.9342   58.1301   65.6848 C   0  0  0  0  0  0  0  0  0  0  0  0
  -50.4296   58.7480   64.3940 C   0  0  0  0  0  0  0  0  0  0  0  0
  -49.6143   58.3513   63.1685 C   0  0  0  0  0  0  0  0  0  0  0  0
  -50.3366   58.5653   61.8521 C   0  0  0  0  0  0  0  0  0  0  0  0
  -50.4594   57.3046   61.0211 C   0  0  0  0  0  0  0  0  0  0  0  0
  -50.2335   57.5305   59.5325 C   0  0  0  0  0  0  0  0  0  0  0  0
  -48.9697   56.8762   59.0036 C   0  0  0  0  0  0  0  0  0  0  0  0
  -46.7211   57.7298   58.2612 C   0  0  0  0  0  0  0  0  0  0  0  0
  -47.6801   57.5594   59.4175 C   0  0  0  0  0  0  0  0  0  0  0  0
  -36.4343   61.2531   65.0059 C   0  0  0  0  0  0  0  0  0  0  0  0
  -35.7739   61.7068   63.8032 O   0  0  0  0  0  0  0  0  0  0  0  0
  -35.7534   63.2422   63.3514 P   0  0  0  0  0  0  0  0  0  0  0  0
  -35.6746   63.2841   61.8754 O   0  0  0  0  0  0  0  0  0  0  0  0
  -36.8775   63.9364   64.0248 O   0  0  0  0  0  0  0  0  0  0  0  0
  -37.7191   63.5919   63.6870 H   0  0  0  0  0  0  0  0  0  0  0  0
  -34.3924   63.8356   63.9330 O   0  0  0  0  0  0  0  0  0  0  0  0
  -33.3308   62.9458   64.3346 C   0  0  0  0  0  0  0  0  0  0  0  0
  -31.9287   64.3052   65.7235 O   0  0  0  0  0  0  0  0  0  0  0  0
  -32.9338   63.2873   65.7498 C   0  0  0  0  0  0  0  0  0  0  0  0
  -31.1793   64.0056   65.1854 H   0  0  0  0  0  0  0  0  0  0  0  0
  -34.3699   62.8074   67.6275 O   0  0  0  0  0  0  0  0  0  0  0  0
  -34.1091   63.7373   66.5840 C   0  0  0  0  0  0  0  0  0  0  0  0
  -35.1268   63.1131   68.1515 H   0  0  0  0  0  0  0  0  0  0  0  0
  -38.5703   61.5107   63.8120 O   0  0  0  0  0  0  0  0  0  0  0  0
  -40.7875   61.2819   63.5091 O   0  0  0  0  0  0  0  0  0  0  0  0
  -39.6607   60.9764   63.2291 C   0  0  0  0  0  0  0  0  0  0  0  0
  -39.2994   59.9716   62.1794 C   0  0  0  0  0  0  0  0  0  0  0  0
  -40.2186   60.0755   60.9664 C   0  0  0  0  0  0  0  0  0  0  0  0
  -39.4842   60.0859   59.6358 C   0  0  0  0  0  0  0  0  0  0  0  0
  -38.0162   59.6902   59.7463 C   0  0  0  0  0  0  0  0  0  0  0  0
  -37.5605   58.7075   58.6837 C   0  0  0  0  0  0  0  0  0  0  0  0
  -37.2894   57.2916   59.2001 C   0  0  0  0  0  0  0  0  0  0  0  0
  -36.4369   56.4147   58.2805 C   0  0  0  0  0  0  0  0  0  0  0  0
  -35.1379   57.0706   57.9194 C   0  0  0  0  0  0  0  0  0  0  0  0
  -33.9450   56.7699   58.3950 C   0  0  0  0  0  0  0  0  0  0  0  0
  -33.6381   55.7040   59.3989 C   0  0  0  0  0  0  0  0  0  0  0  0
  -34.1802   56.0370   60.7860 C   0  0  0  0  0  0  0  0  0  0  0  0
  -33.1387   56.6232   61.7229 C   0  0  0  0  0  0  0  0  0  0  0  0
  -33.2180   58.1344   61.8541 C   0  0  0  0  0  0  0  0  0  0  0  0
  -34.4220   58.6363   62.6338 C   0  0  0  0  0  0  0  0  0  0  0  0
  -34.5998   57.9515   63.9803 C   0  0  0  0  0  0  0  0  0  0  0  0
  -35.9473   57.2818   64.1646 C   0  0  0  0  0  0  0  0  0  0  0  0
  -36.8186   57.3827   62.9438 C   0  0  0  0  0  0  0  0  0  0  0  0
 21 22  1  0  0  0
  4  5  2  0  0  0
 25 24  1  0  0  0
 25 26  2  0  0  0
 25 27  1  0  0  0
 25 29  1  0  0  0
 22 20  1  0  0  0
  3  5  1  0  0  0
  3  2  1  0  0  0
 20 19  1  0  0  0
 24 23  1  0  0  0
 19 18  1  0  0  0
 18 17  1  0  0  0
 27 28  1  0  0  0
 17 16  1  0  0  0
 29 30  1  0  0  0
 16 15  1  0  0  0
 34 35  1  0  0  0
 34 36  1  0  0  0
 15 14  1  0  0  0
 31 32  1  0  0  0
 31 33  1  0  0  0
 14 13  1  0  0  0
 37  1  1  0  0  0
 37 39  1  0  0  0
 13 12  1  0  0  0
 38 39  2  0  0  0
 12 11  1  0  0  0
 11 10  1  0  0  0
 10  9  1  0  0  0
  9  8  1  0  0  0
  8  7  1  0  0  0
  7  6  1  0  0  0
  6  5  1  0  0  0
  2  1  1  0  0  0
  1 23  1  0  0  0
 30 32  1  0  0  0
 32 35  1  0  0  0
 39 40  1  0  0  0
 40 41  1  0  0  0
 41 42  1  0  0  0
 42 43  1  0  0  0
 43 44  1  0  0  0
 44 45  1  0  0  0
 45 46  1  0  0  0
 46 47  1  0  0  0
 47 48  2  0  0  0
 48 49  1  0  0  0
 49 50  1  0  0  0
 50 51  1  0  0  0
 51 52  1  0  0  0
 52 53  1  0  0  0
 53 54  1  0  0  0
 54 55  1  0  0  0
 55 56  1  0  0  0
M  CHG 1  26  -1
M  END
> <minimizedAffinity>
-8.67938

> <CNNscore>
0.5876936913

> <CNNaffinity>
7.5724220276

> <CNN_VS>
4.4502644539

> <CNNaffinity_variance>
0.9710995555

$$$$
/media/chris/experiments/cd1a-new-docking/inputs/ligands/7sh4_ligand.pdb


 56 55  0  0  0  0  0  0  0  0999 V2000
  -39.0921   59.1518   64.2702 C   0  0  0  0  0  0  0  0  0  0  0  0
  -39.5533   58.7447   62.8993 C   0  0  0  0  0  0  0  0  0  0  0  0
  -39.5553   59.9788   62.1508 O   0  0  0  0  0  0  0  0  0  0  0  0
  -37.6284   60.8610   61.4381 O   0  0  0  0  0  0  0  0  0  0  0  0
  -38.5776   60.1463   61.2597 C   0  0  0  0  0  0  0  0  0  0  0  0
  -38.7588   59.2375   60.0782 C   0  0  0  0  0  0  0  0  0  0  0  0
  -37.6595   58.2010   59.9183 C   0  0  0  0  0  0  0  0  0  0  0  0
  -37.0900   58.1619   58.5159 C   0  0  0  0  0  0  0  0  0  0  0  0
  -35.8790   57.2697   58.3637 C   0  0  0  0  0  0  0  0  0  0  0  0
  -36.0684   55.9012   58.9862 C   0  0  0  0  0  0  0  0  0  0  0  0
  -34.9719   55.5325   59.9553 C   0  0  0  0  0  0  0  0  0  0  0  0
  -34.3971   56.7242   60.6744 C   0  0  0  0  0  0  0  0  0  0  0  0
  -33.2377   56.3761   61.5815 C   0  0  0  0  0  0  0  0  0  0  0  0
  -32.6857   57.5818   62.3147 C   0  0  0  0  0  0  0  0  0  0  0  0
  -32.3878   58.7664   61.4196 C   0  0  0  0  0  0  0  0  0  0  0  0
  -31.4328   59.7811   62.0381 C   0  0  0  0  0  0  0  0  0  0  0  0
  -32.0916   61.0915   62.4242 C   0  0  0  0  0  0  0  0  0  0  0  0
  -31.2502   62.3078   62.0959 C   0  0  0  0  0  0  0  0  0  0  0  0
  -32.0708   63.5548   61.7966 C   0  0  0  0  0  0  0  0  0  0  0  0
  -32.8869   64.0436   62.9799 C   0  0  0  0  0  0  0  0  0  0  0  0
  -32.0270   64.1036   65.3448 C   0  0  0  0  0  0  0  0  0  0  0  0
  -32.0989   64.8219   64.0164 C   0  0  0  0  0  0  0  0  0  0  0  0
  -37.7221   58.6111   64.5904 C   0  0  0  0  0  0  0  0  0  0  0  0
  -36.8549   59.7150   64.9335 O   0  0  0  0  0  0  0  0  0  0  0  0
  -35.4467   59.9674   64.2159 P   0  0  0  0  0  0  0  0  0  0  0  0
  -34.4027   59.2713   64.9983 O   0  0  0  0  0  0  0  0  0  0  0  0
  -35.5964   59.6394   62.7775 O   0  0  0  0  0  0  0  0  0  0  0  0
  -35.7561   58.6878   62.6778 H   0  0  0  0  0  0  0  0  0  0  0  0
  -35.1864   61.5360   64.3360 O   0  0  0  0  0  0  0  0  0  0  0  0
  -36.2773   62.4267   64.6470 C   0  0  0  0  0  0  0  0  0  0  0  0
  -36.6119   64.7368   65.1892 O   0  0  0  0  0  0  0  0  0  0  0  0
  -35.7180   63.6329   65.3605 C   0  0  0  0  0  0  0  0  0  0  0  0
  -36.7546   64.8934   64.2426 H   0  0  0  0  0  0  0  0  0  0  0  0
  -36.5695   63.8679   67.6050 O   0  0  0  0  0  0  0  0  0  0  0  0
  -35.4844   63.3748   66.8297 C   0  0  0  0  0  0  0  0  0  0  0  0
  -36.4015   63.6932   68.5443 H   0  0  0  0  0  0  0  0  0  0  0  0
  -40.0921   58.7052   65.2451 O   0  0  0  0  0  0  0  0  0  0  0  0
  -40.6678   60.8034   65.8163 O   0  0  0  0  0  0  0  0  0  0  0  0
  -40.9392   59.6376   65.7216 C   0  0  0  0  0  0  0  0  0  0  0  0
  -42.2634   59.0505   66.1007 C   0  0  0  0  0  0  0  0  0  0  0  0
  -43.3240   59.3334   65.0415 C   0  0  0  0  0  0  0  0  0  0  0  0
  -44.5290   58.4099   65.1139 C   0  0  0  0  0  0  0  0  0  0  0  0
  -44.9767   58.1020   66.5381 C   0  0  0  0  0  0  0  0  0  0  0  0
  -46.4480   58.3708   66.7941 C   0  0  0  0  0  0  0  0  0  0  0  0
  -47.0249   59.5532   66.0104 C   0  0  0  0  0  0  0  0  0  0  0  0
  -48.5467   59.6982   66.0765 C   0  0  0  0  0  0  0  0  0  0  0  0
  -49.2523   58.4367   65.6782 C   0  0  0  0  0  0  0  0  0  0  0  0
  -50.3160   58.3402   64.9044 C   0  0  0  0  0  0  0  0  0  0  0  0
  -51.0433   59.4765   64.2580 C   0  0  0  0  0  0  0  0  0  0  0  0
  -51.0976   59.3442   62.7387 C   0  0  0  0  0  0  0  0  0  0  0  0
  -49.9621   58.5199   62.1578 C   0  0  0  0  0  0  0  0  0  0  0  0
  -49.6322   58.8667   60.7162 C   0  0  0  0  0  0  0  0  0  0  0  0
  -50.0068   57.7923   59.7087 C   0  0  0  0  0  0  0  0  0  0  0  0
  -49.8141   56.3774   60.2325 C   0  0  0  0  0  0  0  0  0  0  0  0
  -48.4699   55.7652   59.8910 C   0  0  0  0  0  0  0  0  0  0  0  0
  -48.1742   55.7966   58.4175 C   0  0  0  0  0  0  0  0  0  0  0  0
 21 22  1  0  0  0
  4  5  2  0  0  0
 25 24  1  0  0  0
 25 26  2  0  0  0
 25 27  1  0  0  0
 25 29  1  0  0  0
 22 20  1  0  0  0
  3  5  1  0  0  0
  3  2  1  0  0  0
 20 19  1  0  0  0
 24 23  1  0  0  0
 19 18  1  0  0  0
 18 17  1  0  0  0
 27 28  1  0  0  0
 17 16  1  0  0  0
 29 30  1  0  0  0
 16 15  1  0  0  0
 34 35  1  0  0  0
 34 36  1  0  0  0
 15 14  1  0  0  0
 31 32  1  0  0  0
 31 33  1  0  0  0
 14 13  1  0  0  0
 37  1  1  0  0  0
 37 39  1  0  0  0
 13 12  1  0  0  0
 38 39  2  0  0  0
 12 11  1  0  0  0
 11 10  1  0  0  0
 10  9  1  0  0  0
  9  8  1  0  0  0
  8  7  1  0  0  0
  7  6  1  0  0  0
  6  5  1  0  0  0
  2  1  1  0  0  0
  1 23  1  0  0  0
 30 32  1  0  0  0
 32 35  1  0  0  0
 39 40  1  0  0  0
 40 41  1  0  0  0
 41 42  1  0  0  0
 42 43  1  0  0  0
 43 44  1  0  0  0
 44 45  1  0  0  0
 45 46  1  0  0  0
 46 47  1  0  0  0
 47 48  2  0  0  0
 48 49  1  0  0  0
 49 50  1  0  0  0
 50 51  1  0  0  0
 51 52  1  0  0  0
 52 53  1  0  0  0
 53 54  1  0  0  0
 54 55  1  0  0  0
 55 56  1  0  0  0
M  CHG 1  26  -1
M  END
> <minimizedAffinity>
-8.38889

> <CNNscore>
0.5600424409

> <CNNaffinity>
7.2285132408

> <CNN_VS>
4.0482740402

> <CNNaffinity_variance>
0.6274482012

$$$$
/media/chris/experiments/cd1a-new-docking/inputs/ligands/7sh4_ligand.pdb


 56 55  0  0  0  0  0  0  0  0999 V2000
  -33.5515   58.8993   62.6254 C   0  0  0  0  0  0  0  0  0  0  0  0
  -32.9682   57.7685   61.8262 C   0  0  0  0  0  0  0  0  0  0  0  0
  -34.0754   56.8601   61.6471 O   0  0  0  0  0  0  0  0  0  0  0  0
  -33.9985   56.8996   59.4128 O   0  0  0  0  0  0  0  0  0  0  0  0
  -34.6260   56.8106   60.4337 C   0  0  0  0  0  0  0  0  0  0  0  0
  -36.0941   56.5062   60.5160 C   0  0  0  0  0  0  0  0  0  0  0  0
  -36.9017   57.0221   59.3370 C   0  0  0  0  0  0  0  0  0  0  0  0
  -37.6195   58.3201   59.6411 C   0  0  0  0  0  0  0  0  0  0  0  0
  -38.4029   58.3064   60.9341 C   0  0  0  0  0  0  0  0  0  0  0  0
  -39.3240   59.5004   61.0825 C   0  0  0  0  0  0  0  0  0  0  0  0
  -39.5495   60.2412   59.7872 C   0  0  0  0  0  0  0  0  0  0  0  0
  -40.9828   60.1995   59.3273 C   0  0  0  0  0  0  0  0  0  0  0  0
  -41.2292   59.1983   58.2206 C   0  0  0  0  0  0  0  0  0  0  0  0
  -42.4228   59.5592   57.3598 C   0  0  0  0  0  0  0  0  0  0  0  0
  -43.3680   58.4051   57.0987 C   0  0  0  0  0  0  0  0  0  0  0  0
  -44.5238   58.3193   58.0891 C   0  0  0  0  0  0  0  0  0  0  0  0
  -45.8180   57.8111   57.4832 C   0  0  0  0  0  0  0  0  0  0  0  0
  -47.0347   58.0900   58.3416 C   0  0  0  0  0  0  0  0  0  0  0  0
  -47.1786   57.1409   59.5232 C   0  0  0  0  0  0  0  0  0  0  0  0
  -48.4649   56.3345   59.5018 C   0  0  0  0  0  0  0  0  0  0  0  0
  -50.5549   57.2292   60.5823 C   0  0  0  0  0  0  0  0  0  0  0  0
  -49.7265   57.1568   59.3195 C   0  0  0  0  0  0  0  0  0  0  0  0
  -32.6184   60.0807   62.6991 C   0  0  0  0  0  0  0  0  0  0  0  0
  -33.4040   61.2863   62.8329 O   0  0  0  0  0  0  0  0  0  0  0  0
  -32.7911   62.7492   62.6182 P   0  0  0  0  0  0  0  0  0  0  0  0
  -31.3170   62.6370   62.6482 O   0  0  0  0  0  0  0  0  0  0  0  0
  -33.4359   63.3491   61.4252 O   0  0  0  0  0  0  0  0  0  0  0  0
  -33.1741   62.8542   60.6330 H   0  0  0  0  0  0  0  0  0  0  0  0
  -33.2457   63.5892   63.8951 O   0  0  0  0  0  0  0  0  0  0  0  0
  -33.7818   62.9124   65.0505 C   0  0  0  0  0  0  0  0  0  0  0  0
  -36.0486   62.4333   64.4386 O   0  0  0  0  0  0  0  0  0  0  0  0
  -35.2272   63.3153   65.2096 C   0  0  0  0  0  0  0  0  0  0  0  0
  -35.7556   62.4443   63.5140 H   0  0  0  0  0  0  0  0  0  0  0  0
  -36.8452   64.0927   66.8208 O   0  0  0  0  0  0  0  0  0  0  0  0
  -35.6698   63.3105   66.6532 C   0  0  0  0  0  0  0  0  0  0  0  0
  -37.1136   64.0775   67.7528 H   0  0  0  0  0  0  0  0  0  0  0  0
  -33.8923   58.3942   63.9591 O   0  0  0  0  0  0  0  0  0  0  0  0
  -35.0930   59.8042   65.2359 O   0  0  0  0  0  0  0  0  0  0  0  0
  -35.0337   58.8491   64.5109 C   0  0  0  0  0  0  0  0  0  0  0  0
  -36.2197   58.0337   64.0978 C   0  0  0  0  0  0  0  0  0  0  0  0
  -37.5286   58.7217   64.4722 C   0  0  0  0  0  0  0  0  0  0  0  0
  -38.6075   57.7694   64.9613 C   0  0  0  0  0  0  0  0  0  0  0  0
  -40.0243   58.2615   64.6890 C   0  0  0  0  0  0  0  0  0  0  0  0
  -40.3051   59.6562   65.2168 C   0  0  0  0  0  0  0  0  0  0  0  0
  -41.5383   59.7593   66.1188 C   0  0  0  0  0  0  0  0  0  0  0  0
  -42.5679   58.6407   65.9452 C   0  0  0  0  0  0  0  0  0  0  0  0
  -43.7123   59.0570   65.0706 C   0  0  0  0  0  0  0  0  0  0  0  0
  -44.9831   58.7444   65.2347 C   0  0  0  0  0  0  0  0  0  0  0  0
  -45.5505   57.9054   66.3357 C   0  0  0  0  0  0  0  0  0  0  0  0
  -46.6638   58.6192   67.0972 C   0  0  0  0  0  0  0  0  0  0  0  0
  -47.6024   59.4111   66.2039 C   0  0  0  0  0  0  0  0  0  0  0  0
  -48.9992   58.8215   66.1120 C   0  0  0  0  0  0  0  0  0  0  0  0
  -49.2683   58.0352   64.8397 C   0  0  0  0  0  0  0  0  0  0  0  0
  -50.5509   58.4467   64.1332 C   0  0  0  0  0  0  0  0  0  0  0  0
  -50.4980   59.8227   63.4993 C   0  0  0  0  0  0  0  0  0  0  0  0
  -49.2360   60.0539   62.7159 C   0  0  0  0  0  0  0  0  0  0  0  0
 21 22  1  0  0  0
  4  5  2  0  0  0
 25 24  1  0  0  0
 25 26  2  0  0  0
 25 27  1  0  0  0
 25 29  1  0  0  0
 22 20  1  0  0  0
  3  5  1  0  0  0
  3  2  1  0  0  0
 20 19  1  0  0  0
 24 23  1  0  0  0
 19 18  1  0  0  0
 18 17  1  0  0  0
 27 28  1  0  0  0
 17 16  1  0  0  0
 29 30  1  0  0  0
 16 15  1  0  0  0
 34 35  1  0  0  0
 34 36  1  0  0  0
 15 14  1  0  0  0
 31 32  1  0  0  0
 31 33  1  0  0  0
 14 13  1  0  0  0
 37  1  1  0  0  0
 37 39  1  0  0  0
 13 12  1  0  0  0
 38 39  2  0  0  0
 12 11  1  0  0  0
 11 10  1  0  0  0
 10  9  1  0  0  0
  9  8  1  0  0  0
  8  7  1  0  0  0
  7  6  1  0  0  0
  6  5  1  0  0  0
  2  1  1  0  0  0
  1 23  1  0  0  0
 30 32  1  0  0  0
 32 35  1  0  0  0
 39 40  1  0  0  0
 40 41  1  0  0  0
 41 42  1  0  0  0
 42 43  1  0  0  0
 43 44  1  0  0  0
 44 45  1  0  0  0
 45 46  1  0  0  0
 46 47  1  0  0  0
 47 48  2  0  0  0
 48 49  1  0  0  0
 49 50  1  0  0  0
 50 51  1  0  0  0
 51 52  1  0  0  0
 52 53  1  0  0  0
 53 54  1  0  0  0
 54 55  1  0  0  0
 55 56  1  0  0  0
M  CHG 1  26  -1
M  END
> <minimizedAffinity>
-7.87674

> <CNNscore>
0.5409890413

> <CNNaffinity>
7.5308141708

> <CNN_VS>
4.0740880966

> <CNNaffinity_variance>
0.7623544931

$$$$
/media/chris/experiments/cd1a-new-docking/inputs/ligands/7sh4_ligand.pdb


 56 55  0  0  0  0  0  0  0  0999 V2000
  -37.0746   60.4784   65.4814 C   0  0  0  0  0  0  0  0  0  0  0  0
  -38.3343   59.8307   65.9829 C   0  0  0  0  0  0  0  0  0  0  0  0
  -39.3476   60.8395   65.7867 O   0  0  0  0  0  0  0  0  0  0  0  0
  -40.9439   61.1040   64.2436 O   0  0  0  0  0  0  0  0  0  0  0  0
  -40.4511   60.4687   65.1366 C   0  0  0  0  0  0  0  0  0  0  0  0
  -40.9118   59.1101   65.5802 C   0  0  0  0  0  0  0  0  0  0  0  0
  -42.4014   59.0228   65.8664 C   0  0  0  0  0  0  0  0  0  0  0  0
  -42.8878   57.5963   66.0116 C   0  0  0  0  0  0  0  0  0  0  0  0
  -44.3917   57.4593   66.0851 C   0  0  0  0  0  0  0  0  0  0  0  0
  -45.0989   58.7838   66.2889 C   0  0  0  0  0  0  0  0  0  0  0  0
  -46.5924   58.6964   66.0905 C   0  0  0  0  0  0  0  0  0  0  0  0
  -46.9805   58.4034   64.6653 C   0  0  0  0  0  0  0  0  0  0  0  0
  -48.3837   57.8561   64.5256 C   0  0  0  0  0  0  0  0  0  0  0  0
  -49.4193   58.9443   64.3273 C   0  0  0  0  0  0  0  0  0  0  0  0
  -50.7181   58.4579   63.7192 C   0  0  0  0  0  0  0  0  0  0  0  0
  -50.8568   58.7681   62.2330 C   0  0  0  0  0  0  0  0  0  0  0  0
  -50.2697   57.7052   61.3243 C   0  0  0  0  0  0  0  0  0  0  0  0
  -48.9735   58.1273   60.6634 C   0  0  0  0  0  0  0  0  0  0  0  0
  -48.3855   57.0681   59.7414 C   0  0  0  0  0  0  0  0  0  0  0  0
  -46.9542   57.3535   59.3229 C   0  0  0  0  0  0  0  0  0  0  0  0
  -47.3538   56.7102   56.9224 C   0  0  0  0  0  0  0  0  0  0  0  0
  -46.7844   57.7443   57.8671 C   0  0  0  0  0  0  0  0  0  0  0  0
  -37.1067   61.9769   65.6399 C   0  0  0  0  0  0  0  0  0  0  0  0
  -36.3228   62.3389   66.7987 O   0  0  0  0  0  0  0  0  0  0  0  0
  -34.8970   63.0581   66.6912 P   0  0  0  0  0  0  0  0  0  0  0  0
  -35.1263   64.4856   66.3810 O   0  0  0  0  0  0  0  0  0  0  0  0
  -34.1117   62.7089   67.8997 O   0  0  0  0  0  0  0  0  0  0  0  0
  -34.5283   63.1044   68.6814 H   0  0  0  0  0  0  0  0  0  0  0  0
  -34.1811   62.3908   65.4323 O   0  0  0  0  0  0  0  0  0  0  0  0
  -33.2249   63.1468   64.6614 C   0  0  0  0  0  0  0  0  0  0  0  0
  -33.9303   65.2670   63.7956 O   0  0  0  0  0  0  0  0  0  0  0  0
  -33.9625   63.8573   63.5532 C   0  0  0  0  0  0  0  0  0  0  0  0
  -34.3011   65.4528   64.6725 H   0  0  0  0  0  0  0  0  0  0  0  0
  -34.4159   63.5158   61.2089 O   0  0  0  0  0  0  0  0  0  0  0  0
  -33.3884   63.5497   62.1911 C   0  0  0  0  0  0  0  0  0  0  0  0
  -34.0283   63.3172   60.3421 H   0  0  0  0  0  0  0  0  0  0  0  0
  -36.8794   60.0858   64.0822 O   0  0  0  0  0  0  0  0  0  0  0  0
  -34.8742   60.3339   63.0933 O   0  0  0  0  0  0  0  0  0  0  0  0
  -35.6469   59.6718   63.7306 C   0  0  0  0  0  0  0  0  0  0  0  0
  -35.3496   58.2971   64.2444 C   0  0  0  0  0  0  0  0  0  0  0  0
  -36.4891   57.3291   63.9423 C   0  0  0  0  0  0  0  0  0  0  0  0
  -36.6494   57.0075   62.4655 C   0  0  0  0  0  0  0  0  0  0  0  0
  -38.1026   56.9393   62.0104 C   0  0  0  0  0  0  0  0  0  0  0  0
  -38.9734   58.0552   62.5572 C   0  0  0  0  0  0  0  0  0  0  0  0
  -39.2060   59.2156   61.5855 C   0  0  0  0  0  0  0  0  0  0  0  0
  -38.0361   59.5261   60.6493 C   0  0  0  0  0  0  0  0  0  0  0  0
  -38.3479   59.1849   59.2231 C   0  0  0  0  0  0  0  0  0  0  0  0
  -37.6454   58.3997   58.4297 C   0  0  0  0  0  0  0  0  0  0  0  0
  -36.3842   57.6806   58.7908 C   0  0  0  0  0  0  0  0  0  0  0  0
  -36.4969   56.1718   58.5923 C   0  0  0  0  0  0  0  0  0  0  0  0
  -35.6220   55.3658   59.5363 C   0  0  0  0  0  0  0  0  0  0  0  0
  -34.1655   55.7970   59.5357 C   0  0  0  0  0  0  0  0  0  0  0  0
  -33.6055   56.1252   60.9098 C   0  0  0  0  0  0  0  0  0  0  0  0
  -33.3963   57.6143   61.1386 C   0  0  0  0  0  0  0  0  0  0  0  0
  -32.3684   57.9417   62.2036 C   0  0  0  0  0  0  0  0  0  0  0  0
  -31.6852   59.2596   61.9669 C   0  0  0  0  0  0  0  0  0  0  0  0
 21 22  1  0  0  0
  4  5  2  0  0  0
 25 24  1  0  0  0
 25 26  2  0  0  0
 25 27  1  0  0  0
 25 29  1  0  0  0
 22 20  1  0  0  0
  3  5  1  0  0  0
  3  2  1  0  0  0
 20 19  1  0  0  0
 24 23  1  0  0  0
 19 18  1  0  0  0
 18 17  1  0  0  0
 27 28  1  0  0  0
 17 16  1  0  0  0
 29 30  1  0  0  0
 16 15  1  0  0  0
 34 35  1  0  0  0
 34 36  1  0  0  0
 15 14  1  0  0  0
 31 32  1  0  0  0
 31 33  1  0  0  0
 14 13  1  0  0  0
 37  1  1  0  0  0
 37 39  1  0  0  0
 13 12  1  0  0  0
 38 39  2  0  0  0
 12 11  1  0  0  0
 11 10  1  0  0  0
 10  9  1  0  0  0
  9  8  1  0  0  0
  8  7  1  0  0  0
  7  6  1  0  0  0
  6  5  1  0  0  0
  2  1  1  0  0  0
  1 23  1  0  0  0
 30 32  1  0  0  0
 32 35  1  0  0  0
 39 40  1  0  0  0
 40 41  1  0  0  0
 41 42  1  0  0  0
 42 43  1  0  0  0
 43 44  1  0  0  0
 44 45  1  0  0  0
 45 46  1  0  0  0
 46 47  1  0  0  0
 47 48  2  0  0  0
 48 49  1  0  0  0
 49 50  1  0  0  0
 50 51  1  0  0  0
 51 52  1  0  0  0
 52 53  1  0  0  0
 53 54  1  0  0  0
 54 55  1  0  0  0
 55 56  1  0  0  0
M  CHG 1  26  -1
M  END
> <minimizedAffinity>
-8.91052

> <CNNscore>
0.5122825503

> <CNNaffinity>
7.5861825943

> <CNN_VS>
3.8862688541

> <CNNaffinity_variance>
0.5709551573

$$$$
/media/chris/experiments/cd1a-new-docking/inputs/ligands/7sh4_ligand.pdb


 56 55  0  0  0  0  0  0  0  0999 V2000
  -38.1101   60.5048   62.3503 C   0  0  0  0  0  0  0  0  0  0  0  0
  -39.6123   60.4799   62.3694 C   0  0  0  0  0  0  0  0  0  0  0  0
  -39.9456   60.5910   63.7693 O   0  0  0  0  0  0  0  0  0  0  0  0
  -41.6946   61.9840   63.7612 O   0  0  0  0  0  0  0  0  0  0  0  0
  -41.1999   60.9324   64.0663 C   0  0  0  0  0  0  0  0  0  0  0  0
  -41.9345   59.7922   64.7107 C   0  0  0  0  0  0  0  0  0  0  0  0
  -41.9098   59.8175   66.2296 C   0  0  0  0  0  0  0  0  0  0  0  0
  -42.5837   58.6104   66.8471 C   0  0  0  0  0  0  0  0  0  0  0  0
  -43.7460   58.0718   66.0442 C   0  0  0  0  0  0  0  0  0  0  0  0
  -45.0763   58.6742   66.4486 C   0  0  0  0  0  0  0  0  0  0  0  0
  -45.7451   59.4400   65.3334 C   0  0  0  0  0  0  0  0  0  0  0  0
  -47.2478   59.3523   65.3782 C   0  0  0  0  0  0  0  0  0  0  0  0
  -47.8209   58.3591   64.3919 C   0  0  0  0  0  0  0  0  0  0  0  0
  -49.3361   58.3459   64.3879 C   0  0  0  0  0  0  0  0  0  0  0  0
  -49.9629   59.5551   63.7259 C   0  0  0  0  0  0  0  0  0  0  0  0
  -50.5186   59.2765   62.3340 C   0  0  0  0  0  0  0  0  0  0  0  0
  -50.8287   57.8146   62.0755 C   0  0  0  0  0  0  0  0  0  0  0  0
  -50.8570   57.4563   60.6037 C   0  0  0  0  0  0  0  0  0  0  0  0
  -49.7116   56.5501   60.1741 C   0  0  0  0  0  0  0  0  0  0  0  0
  -48.9582   57.0581   58.9578 C   0  0  0  0  0  0  0  0  0  0  0  0
  -46.7693   57.7967   57.9583 C   0  0  0  0  0  0  0  0  0  0  0  0
  -47.5258   57.4778   59.2279 C   0  0  0  0  0  0  0  0  0  0  0  0
  -37.5492   61.5450   63.2858 C   0  0  0  0  0  0  0  0  0  0  0  0
  -36.1518   61.7440   62.9759 O   0  0  0  0  0  0  0  0  0  0  0  0
  -35.4285   63.1660   63.1058 P   0  0  0  0  0  0  0  0  0  0  0  0
  -34.4791   63.3013   61.9802 O   0  0  0  0  0  0  0  0  0  0  0  0
  -36.4749   64.2014   63.2836 O   0  0  0  0  0  0  0  0  0  0  0  0
  -37.0047   64.2681   62.4737 H   0  0  0  0  0  0  0  0  0  0  0  0
  -34.5824   63.0879   64.4551 O   0  0  0  0  0  0  0  0  0  0  0  0
  -34.7838   61.9918   65.3707 C   0  0  0  0  0  0  0  0  0  0  0  0
  -33.8503   62.4546   67.5287 O   0  0  0  0  0  0  0  0  0  0  0  0
  -35.0422   62.5606   66.7442 C   0  0  0  0  0  0  0  0  0  0  0  0
  -33.5612   61.5291   67.5540 H   0  0  0  0  0  0  0  0  0  0  0  0
  -36.8933   64.0651   66.3864 O   0  0  0  0  0  0  0  0  0  0  0  0
  -35.5068   63.9963   66.6939 C   0  0  0  0  0  0  0  0  0  0  0  0
  -37.1727   64.9936   66.3586 H   0  0  0  0  0  0  0  0  0  0  0  0
  -37.6696   60.7246   60.9691 O   0  0  0  0  0  0  0  0  0  0  0  0
  -39.2590   60.3363   59.4253 O   0  0  0  0  0  0  0  0  0  0  0  0
  -38.2704   59.9909   60.0126 C   0  0  0  0  0  0  0  0  0  0  0  0
  -37.5485   58.7041   59.7571 C   0  0  0  0  0  0  0  0  0  0  0  0
  -37.0585   58.6151   58.3153 C   0  0  0  0  0  0  0  0  0  0  0  0
  -37.2945   57.2610   57.6667 C   0  0  0  0  0  0  0  0  0  0  0  0
  -36.2282   56.2268   58.0088 C   0  0  0  0  0  0  0  0  0  0  0  0
  -34.8067   56.7456   57.8957 C   0  0  0  0  0  0  0  0  0  0  0  0
  -33.8617   56.2592   58.9981 C   0  0  0  0  0  0  0  0  0  0  0  0
  -34.0838   56.8928   60.3731 C   0  0  0  0  0  0  0  0  0  0  0  0
  -33.1125   56.3813   61.3942 C   0  0  0  0  0  0  0  0  0  0  0  0
  -32.4719   57.0959   62.2990 C   0  0  0  0  0  0  0  0  0  0  0  0
  -32.5832   58.5747   62.4964 C   0  0  0  0  0  0  0  0  0  0  0  0
  -33.9177   58.9807   63.1153 C   0  0  0  0  0  0  0  0  0  0  0  0
  -34.2195   58.2789   64.4278 C   0  0  0  0  0  0  0  0  0  0  0  0
  -35.4463   57.3849   64.3734 C   0  0  0  0  0  0  0  0  0  0  0  0
  -36.2257   57.4639   63.0712 C   0  0  0  0  0  0  0  0  0  0  0  0
  -37.7279   57.3111   63.2542 C   0  0  0  0  0  0  0  0  0  0  0  0
  -38.2238   57.6587   64.6439 C   0  0  0  0  0  0  0  0  0  0  0  0
  -39.6806   57.3423   64.8375 C   0  0  0  0  0  0  0  0  0  0  0  0
 21 22  1  0  0  0
  4  5  2  0  0  0
 25 24  1  0  0  0
 25 26  2  0  0  0
 25 27  1  0  0  0
 25 29  1  0  0  0
 22 20  1  0  0  0
  3  5  1  0  0  0
  3  2  1  0  0  0
 20 19  1  0  0  0
 24 23  1  0  0  0
 19 18  1  0  0  0
 18 17  1  0  0  0
 27 28  1  0  0  0
 17 16  1  0  0  0
 29 30  1  0  0  0
 16 15  1  0  0  0
 34 35  1  0  0  0
 34 36  1  0  0  0
 15 14  1  0  0  0
 31 32  1  0  0  0
 31 33  1  0  0  0
 14 13  1  0  0  0
 37  1  1  0  0  0
 37 39  1  0  0  0
 13 12  1  0  0  0
 38 39  2  0  0  0
 12 11  1  0  0  0
 11 10  1  0  0  0
 10  9  1  0  0  0
  9  8  1  0  0  0
  8  7  1  0  0  0
  7  6  1  0  0  0
  6  5  1  0  0  0
  2  1  1  0  0  0
  1 23  1  0  0  0
 30 32  1  0  0  0
 32 35  1  0  0  0
 39 40  1  0  0  0
 40 41  1  0  0  0
 41 42  1  0  0  0
 42 43  1  0  0  0
 43 44  1  0  0  0
 44 45  1  0  0  0
 45 46  1  0  0  0
 46 47  1  0  0  0
 47 48  2  0  0  0
 48 49  1  0  0  0
 49 50  1  0  0  0
 50 51  1  0  0  0
 51 52  1  0  0  0
 52 53  1  0  0  0
 53 54  1  0  0  0
 54 55  1  0  0  0
 55 56  1  0  0  0
M  CHG 1  26  -1
M  END
> <minimizedAffinity>
-9.05537

> <CNNscore>
0.4753425121

> <CNNaffinity>
7.4637765884

> <CNN_VS>
3.5478503704

> <CNNaffinity_variance>
1.4492781162

$$$$
/media/chris/experiments/cd1a-new-docking/inputs/ligands/7sh4_ligand.pdb


 56 55  0  0  0  0  0  0  0  0999 V2000
  -39.3386   59.5218   65.0282 C   0  0  0  0  0  0  0  0  0  0  0  0
  -40.7057   60.0923   64.7766 C   0  0  0  0  0  0  0  0  0  0  0  0
  -41.3307   60.0878   66.0776 O   0  0  0  0  0  0  0  0  0  0  0  0
  -42.6064   58.6996   67.2797 O   0  0  0  0  0  0  0  0  0  0  0  0
  -42.3666   59.2655   66.2472 C   0  0  0  0  0  0  0  0  0  0  0  0
  -43.2475   59.2444   65.0313 C   0  0  0  0  0  0  0  0  0  0  0  0
  -44.7309   59.1368   65.3417 C   0  0  0  0  0  0  0  0  0  0  0  0
  -45.3537   57.8695   64.7953 C   0  0  0  0  0  0  0  0  0  0  0  0
  -45.7522   56.8682   65.8557 C   0  0  0  0  0  0  0  0  0  0  0  0
  -47.1775   57.0494   66.3371 C   0  0  0  0  0  0  0  0  0  0  0  0
  -48.1420   57.3835   65.2255 C   0  0  0  0  0  0  0  0  0  0  0  0
  -49.4401   57.9594   65.7263 C   0  0  0  0  0  0  0  0  0  0  0  0
  -50.0175   59.0197   64.8151 C   0  0  0  0  0  0  0  0  0  0  0  0
  -49.0461   59.4583   63.7380 C   0  0  0  0  0  0  0  0  0  0  0  0
  -49.6272   59.4467   62.3397 C   0  0  0  0  0  0  0  0  0  0  0  0
  -51.0299   58.8549   62.2605 C   0  0  0  0  0  0  0  0  0  0  0  0
  -51.0968   57.5226   61.5388 C   0  0  0  0  0  0  0  0  0  0  0  0
  -50.3004   57.4953   60.2504 C   0  0  0  0  0  0  0  0  0  0  0  0
  -49.4607   56.2370   60.0786 C   0  0  0  0  0  0  0  0  0  0  0  0
  -48.3789   56.3681   59.0214 C   0  0  0  0  0  0  0  0  0  0  0  0
  -46.6600   57.8599   57.9463 C   0  0  0  0  0  0  0  0  0  0  0  0
  -47.4681   57.5693   59.1906 C   0  0  0  0  0  0  0  0  0  0  0  0
  -38.3769   60.5621   65.5427 C   0  0  0  0  0  0  0  0  0  0  0  0
  -37.8430   61.2980   64.4194 O   0  0  0  0  0  0  0  0  0  0  0  0
  -36.5660   62.2556   64.5378 P   0  0  0  0  0  0  0  0  0  0  0  0
  -35.3548   61.4298   64.3439 O   0  0  0  0  0  0  0  0  0  0  0  0
  -36.7813   63.4238   63.6502 O   0  0  0  0  0  0  0  0  0  0  0  0
  -36.7842   63.1310   62.7254 H   0  0  0  0  0  0  0  0  0  0  0  0
  -36.5681   62.7782   66.0443 O   0  0  0  0  0  0  0  0  0  0  0  0
  -35.3285   62.8787   66.7748 C   0  0  0  0  0  0  0  0  0  0  0  0
  -34.1992   64.6388   67.9450 O   0  0  0  0  0  0  0  0  0  0  0  0
  -34.8576   64.3112   66.7178 C   0  0  0  0  0  0  0  0  0  0  0  0
  -34.7988   64.4702   68.6886 H   0  0  0  0  0  0  0  0  0  0  0  0
  -34.5901   65.3534   64.5590 O   0  0  0  0  0  0  0  0  0  0  0  0
  -33.9377   64.5678   65.5484 C   0  0  0  0  0  0  0  0  0  0  0  0
  -33.9843   65.5075   63.8172 H   0  0  0  0  0  0  0  0  0  0  0  0
  -38.8589   58.9080   63.7860 O   0  0  0  0  0  0  0  0  0  0  0  0
  -37.7918   57.3108   64.9566 O   0  0  0  0  0  0  0  0  0  0  0  0
  -38.0925   57.8069   63.9054 C   0  0  0  0  0  0  0  0  0  0  0  0
  -37.6769   57.2660   62.5724 C   0  0  0  0  0  0  0  0  0  0  0  0
  -38.3380   58.0291   61.4290 C   0  0  0  0  0  0  0  0  0  0  0  0
  -37.3555   58.5987   60.4189 C   0  0  0  0  0  0  0  0  0  0  0  0
  -37.8081   58.4407   58.9719 C   0  0  0  0  0  0  0  0  0  0  0  0
  -36.6701   58.2465   57.9872 C   0  0  0  0  0  0  0  0  0  0  0  0
  -36.2280   56.7919   57.8036 C   0  0  0  0  0  0  0  0  0  0  0  0
  -34.8590   56.4475   58.3940 C   0  0  0  0  0  0  0  0  0  0  0  0
  -34.9724   55.7795   59.7314 C   0  0  0  0  0  0  0  0  0  0  0  0
  -34.5023   56.2293   60.8787 C   0  0  0  0  0  0  0  0  0  0  0  0
  -33.7549   57.5087   61.0854 C   0  0  0  0  0  0  0  0  0  0  0  0
  -34.1093   58.1830   62.4077 C   0  0  0  0  0  0  0  0  0  0  0  0
  -33.0085   59.0775   62.9500 C   0  0  0  0  0  0  0  0  0  0  0  0
  -31.7910   59.1629   62.0457 C   0  0  0  0  0  0  0  0  0  0  0  0
  -31.3840   60.5779   61.6698 C   0  0  0  0  0  0  0  0  0  0  0  0
  -31.7784   61.6175   62.7077 C   0  0  0  0  0  0  0  0  0  0  0  0
  -32.6758   62.7177   62.1764 C   0  0  0  0  0  0  0  0  0  0  0  0
  -31.9509   64.0217   61.9931 C   0  0  0  0  0  0  0  0  0  0  0  0
 21 22  1  0  0  0
  4  5  2  0  0  0
 25 24  1  0  0  0
 25 26  2  0  0  0
 25 27  1  0  0  0
 25 29  1  0  0  0
 22 20  1  0  0  0
  3  5  1  0  0  0
  3  2  1  0  0  0
 20 19  1  0  0  0
 24 23  1  0  0  0
 19 18  1  0  0  0
 18 17  1  0  0  0
 27 28  1  0  0  0
 17 16  1  0  0  0
 29 30  1  0  0  0
 16 15  1  0  0  0
 34 35  1  0  0  0
 34 36  1  0  0  0
 15 14  1  0  0  0
 31 32  1  0  0  0
 31 33  1  0  0  0
 14 13  1  0  0  0
 37  1  1  0  0  0
 37 39  1  0  0  0
 13 12  1  0  0  0
 38 39  2  0  0  0
 12 11  1  0  0  0
 11 10  1  0  0  0
 10  9  1  0  0  0
  9  8  1  0  0  0
  8  7  1  0  0  0
  7  6  1  0  0  0
  6  5  1  0  0  0
  2  1  1  0  0  0
  1 23  1  0  0  0
 30 32  1  0  0  0
 32 35  1  0  0  0
 39 40  1  0  0  0
 40 41  1  0  0  0
 41 42  1  0  0  0
 42 43  1  0  0  0
 43 44  1  0  0  0
 44 45  1  0  0  0
 45 46  1  0  0  0
 46 47  1  0  0  0
 47 48  2  0  0  0
 48 49  1  0  0  0
 49 50  1  0  0  0
 50 51  1  0  0  0
 51 52  1  0  0  0
 52 53  1  0  0  0
 53 54  1  0  0  0
 54 55  1  0  0  0
 55 56  1  0  0  0
M  CHG 1  26  -1
M  END
> <minimizedAffinity>
-8.59017

> <CNNscore>
0.4680116177

> <CNNaffinity>
7.1991281509

> <CNN_VS>
3.3692755699

> <CNNaffinity_variance>
0.9320484996

$$$$
/media/chris/experiments/cd1a-new-docking/inputs/ligands/7sh4_ligand.pdb


 56 55  0  0  0  0  0  0  0  0999 V2000
  -38.4327   59.9005   65.4651 C   0  0  0  0  0  0  0  0  0  0  0  0
  -37.7298   58.7503   64.8012 C   0  0  0  0  0  0  0  0  0  0  0  0
  -38.0433   58.9106   63.4014 O   0  0  0  0  0  0  0  0  0  0  0  0
  -36.5580   60.3767   62.5992 O   0  0  0  0  0  0  0  0  0  0  0  0
  -37.6947   60.0650   62.8327 C   0  0  0  0  0  0  0  0  0  0  0  0
  -38.9040   60.8515   62.4158 C   0  0  0  0  0  0  0  0  0  0  0  0
  -39.9752   60.0237   61.7260 C   0  0  0  0  0  0  0  0  0  0  0  0
  -40.1990   60.4368   60.2866 C   0  0  0  0  0  0  0  0  0  0  0  0
  -39.5281   59.5379   59.2728 C   0  0  0  0  0  0  0  0  0  0  0  0
  -38.0160   59.5620   59.3674 C   0  0  0  0  0  0  0  0  0  0  0  0
  -37.3976   58.1855   59.3489 C   0  0  0  0  0  0  0  0  0  0  0  0
  -37.3323   57.5883   57.9681 C   0  0  0  0  0  0  0  0  0  0  0  0
  -36.2690   56.5220   57.8249 C   0  0  0  0  0  0  0  0  0  0  0  0
  -34.8899   57.0145   58.2144 C   0  0  0  0  0  0  0  0  0  0  0  0
  -34.0853   56.0208   59.0259 C   0  0  0  0  0  0  0  0  0  0  0  0
  -34.3893   56.0555   60.5194 C   0  0  0  0  0  0  0  0  0  0  0  0
  -34.5112   57.4550   61.0910 C   0  0  0  0  0  0  0  0  0  0  0  0
  -34.5239   57.4875   62.6056 C   0  0  0  0  0  0  0  0  0  0  0  0
  -33.2231   57.9905   63.2161 C   0  0  0  0  0  0  0  0  0  0  0  0
  -32.0426   57.9333   62.2630 C   0  0  0  0  0  0  0  0  0  0  0  0
  -32.2615   60.4364   62.4130 C   0  0  0  0  0  0  0  0  0  0  0  0
  -31.4032   59.2758   61.9632 C   0  0  0  0  0  0  0  0  0  0  0  0
  -37.5461   60.6096   66.4565 C   0  0  0  0  0  0  0  0  0  0  0  0
  -37.1037   61.8569   65.8760 O   0  0  0  0  0  0  0  0  0  0  0  0
  -36.2760   62.9516   66.6995 P   0  0  0  0  0  0  0  0  0  0  0  0
  -36.9337   64.2622   66.5084 O   0  0  0  0  0  0  0  0  0  0  0  0
  -36.0863   62.4444   68.0800 O   0  0  0  0  0  0  0  0  0  0  0  0
  -36.9453   62.3973   68.5281 H   0  0  0  0  0  0  0  0  0  0  0  0
  -34.8447   63.0137   65.9995 O   0  0  0  0  0  0  0  0  0  0  0  0
  -34.6796   62.5300   64.6508 C   0  0  0  0  0  0  0  0  0  0  0  0
  -34.7555   64.9119   64.3990 O   0  0  0  0  0  0  0  0  0  0  0  0
  -34.9296   63.6754   63.7007 C   0  0  0  0  0  0  0  0  0  0  0  0
  -35.3405   64.9315   65.1726 H   0  0  0  0  0  0  0  0  0  0  0  0
  -34.7879   63.4909   61.2999 O   0  0  0  0  0  0  0  0  0  0  0  0
  -34.0256   63.6278   62.4923 C   0  0  0  0  0  0  0  0  0  0  0  0
  -34.1908   63.4622   60.5359 H   0  0  0  0  0  0  0  0  0  0  0  0
  -39.6540   59.3921   66.0974 O   0  0  0  0  0  0  0  0  0  0  0  0
  -40.9576   61.2186   66.2543 O   0  0  0  0  0  0  0  0  0  0  0  0
  -40.7869   60.0889   65.8852 C   0  0  0  0  0  0  0  0  0  0  0  0
  -41.7987   59.2940   65.1194 C   0  0  0  0  0  0  0  0  0  0  0  0
  -42.1125   57.9723   65.8133 C   0  0  0  0  0  0  0  0  0  0  0  0
  -43.5983   57.7112   65.9985 C   0  0  0  0  0  0  0  0  0  0  0  0
  -44.4667   58.9439   65.7750 C   0  0  0  0  0  0  0  0  0  0  0  0
  -45.8676   58.8234   66.3454 C   0  0  0  0  0  0  0  0  0  0  0  0
  -46.9563   59.5015   65.5088 C   0  0  0  0  0  0  0  0  0  0  0  0
  -48.3055   59.6721   66.2101 C   0  0  0  0  0  0  0  0  0  0  0  0
  -49.2284   58.5201   65.9474 C   0  0  0  0  0  0  0  0  0  0  0  0
  -50.2996   58.5289   65.1780 C   0  0  0  0  0  0  0  0  0  0  0  0
  -50.8188   59.6974   64.4013 C   0  0  0  0  0  0  0  0  0  0  0  0
  -51.1318   59.3399   62.9512 C   0  0  0  0  0  0  0  0  0  0  0  0
  -50.3884   58.1136   62.4517 C   0  0  0  0  0  0  0  0  0  0  0  0
  -51.0164   57.4780   61.2233 C   0  0  0  0  0  0  0  0  0  0  0  0
  -50.0336   56.7573   60.3153 C   0  0  0  0  0  0  0  0  0  0  0  0
  -48.8432   57.6132   59.9107 C   0  0  0  0  0  0  0  0  0  0  0  0
  -47.9580   56.9869   58.8514 C   0  0  0  0  0  0  0  0  0  0  0  0
  -48.0460   55.4864   58.8329 C   0  0  0  0  0  0  0  0  0  0  0  0
 21 22  1  0  0  0
  4  5  2  0  0  0
 25 24  1  0  0  0
 25 26  2  0  0  0
 25 27  1  0  0  0
 25 29  1  0  0  0
 22 20  1  0  0  0
  3  5  1  0  0  0
  3  2  1  0  0  0
 20 19  1  0  0  0
 24 23  1  0  0  0
 19 18  1  0  0  0
 18 17  1  0  0  0
 27 28  1  0  0  0
 17 16  1  0  0  0
 29 30  1  0  0  0
 16 15  1  0  0  0
 34 35  1  0  0  0
 34 36  1  0  0  0
 15 14  1  0  0  0
 31 32  1  0  0  0
 31 33  1  0  0  0
 14 13  1  0  0  0
 37  1  1  0  0  0
 37 39  1  0  0  0
 13 12  1  0  0  0
 38 39  2  0  0  0
 12 11  1  0  0  0
 11 10  1  0  0  0
 10  9  1  0  0  0
  9  8  1  0  0  0
  8  7  1  0  0  0
  7  6  1  0  0  0
  6  5  1  0  0  0
  2  1  1  0  0  0
  1 23  1  0  0  0
 30 32  1  0  0  0
 32 35  1  0  0  0
 39 40  1  0  0  0
 40 41  1  0  0  0
 41 42  1  0  0  0
 42 43  1  0  0  0
 43 44  1  0  0  0
 44 45  1  0  0  0
 45 46  1  0  0  0
 46 47  1  0  0  0
 47 48  2  0  0  0
 48 49  1  0  0  0
 49 50  1  0  0  0
 50 51  1  0  0  0
 51 52  1  0  0  0
 52 53  1  0  0  0
 53 54  1  0  0  0
 54 55  1  0  0  0
 55 56  1  0  0  0
M  CHG 1  26  -1
M  END
> <minimizedAffinity>
-8.84812

> <CNNscore>
0.4233409166

> <CNNaffinity>
7.4213628769

> <CNN_VS>
3.1417665482

> <CNNaffinity_variance>
0.7359235883

$$$$
