/media/chris/experiments/cd1a-new-docking/inputs/ligands/7sh4_ligand.pdb


 56 55  0  0  0  0  0  0  0  0999 V2000
  -37.9923   60.0030   62.3010 C   0  0  0  0  0  0  0  0  0  0  0  0
  -39.3601   60.2863   62.8546 C   0  0  0  0  0  0  0  0  0  0  0  0
  -39.1466   60.3876   64.2784 O   0  0  0  0  0  0  0  0  0  0  0  0
  -40.3594   60.9303   66.0768 O   0  0  0  0  0  0  0  0  0  0  0  0
  -40.2253   60.3073   65.0582 C   0  0  0  0  0  0  0  0  0  0  0  0
  -41.2831   59.4438   64.4337 C   0  0  0  0  0  0  0  0  0  0  0  0
  -42.3221   58.9279   65.4149 C   0  0  0  0  0  0  0  0  0  0  0  0
  -43.7415   59.1646   64.9440 C   0  0  0  0  0  0  0  0  0  0  0  0
  -44.7509   58.1885   65.5045 C   0  0  0  0  0  0  0  0  0  0  0  0
  -46.1569   58.4302   64.9939 C   0  0  0  0  0  0  0  0  0  0  0  0
  -46.7058   59.7814   65.3821 C   0  0  0  0  0  0  0  0  0  0  0  0
  -48.2106   59.8324   65.3642 C   0  0  0  0  0  0  0  0  0  0  0  0
  -48.8602   58.5008   65.6689 C   0  0  0  0  0  0  0  0  0  0  0  0
  -50.3175   58.4525   65.2568 C   0  0  0  0  0  0  0  0  0  0  0  0
  -50.7567   59.6219   64.4007 C   0  0  0  0  0  0  0  0  0  0  0  0
  -51.2985   59.2161   63.0346 C   0  0  0  0  0  0  0  0  0  0  0  0
  -50.6383   57.9812   62.4520 C   0  0  0  0  0  0  0  0  0  0  0  0
  -49.3178   58.2705   61.7682 C   0  0  0  0  0  0  0  0  0  0  0  0
  -49.4204   58.3487   60.2513 C   0  0  0  0  0  0  0  0  0  0  0  0
  -48.7459   57.1917   59.5362 C   0  0  0  0  0  0  0  0  0  0  0  0
  -46.6765   57.8529   58.2646 C   0  0  0  0  0  0  0  0  0  0  0  0
  -47.2298   57.2444   59.5333 C   0  0  0  0  0  0  0  0  0  0  0  0
  -36.8990   60.5087   63.2070 C   0  0  0  0  0  0  0  0  0  0  0  0
  -36.5824   61.8699   62.8390 O   0  0  0  0  0  0  0  0  0  0  0  0
  -35.3074   62.6493   63.4124 P   0  0  0  0  0  0  0  0  0  0  0  0
  -34.0964   62.0518   62.8098 O   0  0  0  0  0  0  0  0  0  0  0  0
  -35.5423   64.1039   63.2460 O   0  0  0  0  0  0  0  0  0  0  0  0
  -35.5597   64.3225   62.3011 H   0  0  0  0  0  0  0  0  0  0  0  0
  -35.2859   62.3322   64.9750 O   0  0  0  0  0  0  0  0  0  0  0  0
  -36.3693   62.7774   65.8165 C   0  0  0  0  0  0  0  0  0  0  0  0
  -36.5619   63.9170   67.9157 O   0  0  0  0  0  0  0  0  0  0  0  0
  -35.8746   63.9259   66.6610 C   0  0  0  0  0  0  0  0  0  0  0  0
  -37.5188   63.9503   67.7605 H   0  0  0  0  0  0  0  0  0  0  0  0
  -34.0063   62.6423   67.4856 O   0  0  0  0  0  0  0  0  0  0  0  0
  -34.3821   63.8745   66.8840 C   0  0  0  0  0  0  0  0  0  0  0  0
  -33.0459   62.6282   67.6207 H   0  0  0  0  0  0  0  0  0  0  0  0
  -37.9041   60.5957   60.9628 O   0  0  0  0  0  0  0  0  0  0  0  0
  -39.3862   60.2758   59.3011 O   0  0  0  0  0  0  0  0  0  0  0  0
  -38.4486   59.8967   59.9484 C   0  0  0  0  0  0  0  0  0  0  0  0
  -37.7347   58.6017   59.7133 C   0  0  0  0  0  0  0  0  0  0  0  0
  -37.0738   58.5694   58.3389 C   0  0  0  0  0  0  0  0  0  0  0  0
  -37.2383   57.2478   57.6068 C   0  0  0  0  0  0  0  0  0  0  0  0
  -36.1075   56.2599   57.8700 C   0  0  0  0  0  0  0  0  0  0  0  0
  -34.7238   56.8815   57.8312 C   0  0  0  0  0  0  0  0  0  0  0  0
  -33.8117   56.4776   58.9930 C   0  0  0  0  0  0  0  0  0  0  0  0
  -34.2638   56.9579   60.3738 C   0  0  0  0  0  0  0  0  0  0  0  0
  -33.3384   56.5015   61.4616 C   0  0  0  0  0  0  0  0  0  0  0  0
  -32.6171   57.2691   62.2552 C   0  0  0  0  0  0  0  0  0  0  0  0
  -32.5734   58.7645   62.2359 C   0  0  0  0  0  0  0  0  0  0  0  0
  -31.1467   59.3050   62.2013 C   0  0  0  0  0  0  0  0  0  0  0  0
  -31.0483   60.7338   61.6963 C   0  0  0  0  0  0  0  0  0  0  0  0
  -29.8595   61.4972   62.2541 C   0  0  0  0  0  0  0  0  0  0  0  0
  -30.1496   62.9479   62.6018 C   0  0  0  0  0  0  0  0  0  0  0  0
  -30.5597   63.1528   64.0520 C   0  0  0  0  0  0  0  0  0  0  0  0
  -31.6581   64.1786   64.2490 C   0  0  0  0  0  0  0  0  0  0  0  0
  -32.0233   64.8911   62.9767 C   0  0  0  0  0  0  0  0  0  0  0  0
 21 22  1  0  0  0
  4  5  2  0  0  0
 25 24  1  0  0  0
 25 26  2  0  0  0
 25 27  1  0  0  0
 25 29  1  0  0  0
 22 20  1  0  0  0
  3  5  1  0  0  0
  3  2  1  0  0  0
 20 19  1  0  0  0
 24 23  1  0  0  0
 19 18  1  0  0  0
 18 17  1  0  0  0
 27 28  1  0  0  0
 17 16  1  0  0  0
 29 30  1  0  0  0
 16 15  1  0  0  0
 34 35  1  0  0  0
 34 36  1  0  0  0
 15 14  1  0  0  0
 31 32  1  0  0  0
 31 33  1  0  0  0
 14 13  1  0  0  0
 37  1  1  0  0  0
 37 39  1  0  0  0
 13 12  1  0  0  0
 38 39  2  0  0  0
 12 11  1  0  0  0
 11 10  1  0  0  0
 10  9  1  0  0  0
  9  8  1  0  0  0
  8  7  1  0  0  0
  7  6  1  0  0  0
  6  5  1  0  0  0
  2  1  1  0  0  0
  1 23  1  0  0  0
 30 32  1  0  0  0
 32 35  1  0  0  0
 39 40  1  0  0  0
 40 41  1  0  0  0
 41 42  1  0  0  0
 42 43  1  0  0  0
 43 44  1  0  0  0
 44 45  1  0  0  0
 45 46  1  0  0  0
 46 47  1  0  0  0
 47 48  2  0  0  0
 48 49  1  0  0  0
 49 50  1  0  0  0
 50 51  1  0  0  0
 51 52  1  0  0  0
 52 53  1  0  0  0
 53 54  1  0  0  0
 54 55  1  0  0  0
 55 56  1  0  0  0
M  CHG 1  26  -1
M  END
> <minimizedAffinity>
-9.14719

> <CNNscore>
0.6700387001

> <CNNaffinity>
7.2103805542

> <CNN_VS>
4.8312339783

> <CNNaffinity_variance>
0.5346692204

$$$$
/media/chris/experiments/cd1a-new-docking/inputs/ligands/7sh4_ligand.pdb


 56 55  0  0  0  0  0  0  0  0999 V2000
  -38.0524   60.5386   65.3053 C   0  0  0  0  0  0  0  0  0  0  0  0
  -37.6804   59.1061   65.0462 C   0  0  0  0  0  0  0  0  0  0  0  0
  -37.6985   58.9954   63.6073 O   0  0  0  0  0  0  0  0  0  0  0  0
  -39.4099   57.5605   63.7161 O   0  0  0  0  0  0  0  0  0  0  0  0
  -38.5683   58.1341   63.0786 C   0  0  0  0  0  0  0  0  0  0  0  0
  -38.4357   58.0777   61.5840 C   0  0  0  0  0  0  0  0  0  0  0  0
  -39.0962   59.2375   60.8581 C   0  0  0  0  0  0  0  0  0  0  0  0
  -38.6778   59.3349   59.4062 C   0  0  0  0  0  0  0  0  0  0  0  0
  -37.2997   58.7827   59.1205 C   0  0  0  0  0  0  0  0  0  0  0  0
  -37.2721   57.8407   57.9339 C   0  0  0  0  0  0  0  0  0  0  0  0
  -36.3176   56.6857   58.1145 C   0  0  0  0  0  0  0  0  0  0  0  0
  -34.8771   57.0761   57.9149 C   0  0  0  0  0  0  0  0  0  0  0  0
  -33.9397   56.4478   58.9221 C   0  0  0  0  0  0  0  0  0  0  0  0
  -34.6731   55.7033   60.0193 C   0  0  0  0  0  0  0  0  0  0  0  0
  -34.1221   55.9495   61.4082 C   0  0  0  0  0  0  0  0  0  0  0  0
  -34.9381   56.9430   62.2275 C   0  0  0  0  0  0  0  0  0  0  0  0
  -34.4557   58.3766   62.1159 C   0  0  0  0  0  0  0  0  0  0  0  0
  -33.0610   58.5872   62.6687 C   0  0  0  0  0  0  0  0  0  0  0  0
  -32.0427   58.9996   61.6148 C   0  0  0  0  0  0  0  0  0  0  0  0
  -31.0962   60.0921   62.0791 C   0  0  0  0  0  0  0  0  0  0  0  0
  -30.8016   62.5901   62.1761 C   0  0  0  0  0  0  0  0  0  0  0  0
  -31.7562   61.4307   62.3506 C   0  0  0  0  0  0  0  0  0  0  0  0
  -36.9302   61.3062   65.9559 C   0  0  0  0  0  0  0  0  0  0  0  0
  -36.8365   62.6081   65.3356 O   0  0  0  0  0  0  0  0  0  0  0  0
  -35.5579   63.0786   64.4955 P   0  0  0  0  0  0  0  0  0  0  0  0
  -35.0118   61.8977   63.7928 O   0  0  0  0  0  0  0  0  0  0  0  0
  -35.9422   64.2678   63.6973 O   0  0  0  0  0  0  0  0  0  0  0  0
  -36.5952   64.0105   63.0278 H   0  0  0  0  0  0  0  0  0  0  0  0
  -34.4865   63.5429   65.5813 O   0  0  0  0  0  0  0  0  0  0  0  0
  -33.0814   63.5397   65.2559 C   0  0  0  0  0  0  0  0  0  0  0  0
  -31.2945   64.9189   66.0604 O   0  0  0  0  0  0  0  0  0  0  0  0
  -32.5585   64.9487   65.3909 C   0  0  0  0  0  0  0  0  0  0  0  0
  -31.3919   64.4713   66.9153 H   0  0  0  0  0  0  0  0  0  0  0  0
  -33.1981   64.9784   63.0654 O   0  0  0  0  0  0  0  0  0  0  0  0
  -32.4254   65.6430   64.0567 C   0  0  0  0  0  0  0  0  0  0  0  0
  -33.0999   65.4381   62.2169 H   0  0  0  0  0  0  0  0  0  0  0  0
  -39.2684   60.5588   66.1243 O   0  0  0  0  0  0  0  0  0  0  0  0
  -40.7342   61.0012   64.4762 O   0  0  0  0  0  0  0  0  0  0  0  0
  -40.4415   60.4097   65.4794 C   0  0  0  0  0  0  0  0  0  0  0  0
  -41.3271   59.4069   66.1515 C   0  0  0  0  0  0  0  0  0  0  0  0
  -42.5373   59.0630   65.2890 C   0  0  0  0  0  0  0  0  0  0  0  0
  -43.6802   58.4214   66.0583 C   0  0  0  0  0  0  0  0  0  0  0  0
  -45.0214   59.1152   65.8492 C   0  0  0  0  0  0  0  0  0  0  0  0
  -45.9227   58.4251   64.8422 C   0  0  0  0  0  0  0  0  0  0  0  0
  -47.3428   58.9927   64.7650 C   0  0  0  0  0  0  0  0  0  0  0  0
  -48.4474   57.9567   64.5453 C   0  0  0  0  0  0  0  0  0  0  0  0
  -49.7838   58.4475   65.0156 C   0  0  0  0  0  0  0  0  0  0  0  0
  -50.7275   58.9941   64.2739 C   0  0  0  0  0  0  0  0  0  0  0  0
  -50.6608   59.2380   62.7993 C   0  0  0  0  0  0  0  0  0  0  0  0
  -51.1384   58.0369   61.9882 C   0  0  0  0  0  0  0  0  0  0  0  0
  -50.0115   57.2529   61.3389 C   0  0  0  0  0  0  0  0  0  0  0  0
  -48.9808   58.1272   60.6457 C   0  0  0  0  0  0  0  0  0  0  0  0
  -48.1710   57.4166   59.5738 C   0  0  0  0  0  0  0  0  0  0  0  0
  -49.0123   56.9229   58.4068 C   0  0  0  0  0  0  0  0  0  0  0  0
  -48.2093   56.5344   57.1814 C   0  0  0  0  0  0  0  0  0  0  0  0
  -46.8266   57.1241   57.1812 C   0  0  0  0  0  0  0  0  0  0  0  0
 21 22  1  0  0  0
  4  5  2  0  0  0
 25 24  1  0  0  0
 25 26  2  0  0  0
 25 27  1  0  0  0
 25 29  1  0  0  0
 22 20  1  0  0  0
  3  5  1  0  0  0
  3  2  1  0  0  0
 20 19  1  0  0  0
 24 23  1  0  0  0
 19 18  1  0  0  0
 18 17  1  0  0  0
 27 28  1  0  0  0
 17 16  1  0  0  0
 29 30  1  0  0  0
 16 15  1  0  0  0
 34 35  1  0  0  0
 34 36  1  0  0  0
 15 14  1  0  0  0
 31 32  1  0  0  0
 31 33  1  0  0  0
 14 13  1  0  0  0
 37  1  1  0  0  0
 37 39  1  0  0  0
 13 12  1  0  0  0
 38 39  2  0  0  0
 12 11  1  0  0  0
 11 10  1  0  0  0
 10  9  1  0  0  0
  9  8  1  0  0  0
  8  7  1  0  0  0
  7  6  1  0  0  0
  6  5  1  0  0  0
  2  1  1  0  0  0
  1 23  1  0  0  0
 30 32  1  0  0  0
 32 35  1  0  0  0
 39 40  1  0  0  0
 40 41  1  0  0  0
 41 42  1  0  0  0
 42 43  1  0  0  0
 43 44  1  0  0  0
 44 45  1  0  0  0
 45 46  1  0  0  0
 46 47  1  0  0  0
 47 48  2  0  0  0
 48 49  1  0  0  0
 49 50  1  0  0  0
 50 51  1  0  0  0
 51 52  1  0  0  0
 52 53  1  0  0  0
 53 54  1  0  0  0
 54 55  1  0  0  0
 55 56  1  0  0  0
M  CHG 1  26  -1
M  END
> <minimizedAffinity>
-8.75080

> <CNNscore>
0.6668635011

> <CNNaffinity>
7.3568978310

> <CNN_VS>
4.9060468674

> <CNNaffinity_variance>
0.9228118062

$$$$
/media/chris/experiments/cd1a-new-docking/inputs/ligands/7sh4_ligand.pdb


 56 55  0  0  0  0  0  0  0  0999 V2000
  -37.7266   60.2903   65.3280 C   0  0  0  0  0  0  0  0  0  0  0  0
  -38.9529   59.5304   65.7480 C   0  0  0  0  0  0  0  0  0  0  0  0
  -39.9796   60.5415   65.8292 O   0  0  0  0  0  0  0  0  0  0  0  0
  -41.3820   61.1081   64.1824 O   0  0  0  0  0  0  0  0  0  0  0  0
  -41.0623   60.3653   65.0711 C   0  0  0  0  0  0  0  0  0  0  0  0
  -41.7439   59.0665   65.3922 C   0  0  0  0  0  0  0  0  0  0  0  0
  -42.4940   59.0692   66.7135 C   0  0  0  0  0  0  0  0  0  0  0  0
  -43.9693   58.7699   66.5506 C   0  0  0  0  0  0  0  0  0  0  0  0
  -44.5070   59.0426   65.1641 C   0  0  0  0  0  0  0  0  0  0  0  0
  -45.2604   57.8659   64.5778 C   0  0  0  0  0  0  0  0  0  0  0  0
  -46.2703   57.2732   65.5299 C   0  0  0  0  0  0  0  0  0  0  0  0
  -47.6063   57.9658   65.4766 C   0  0  0  0  0  0  0  0  0  0  0  0
  -48.1143   58.1828   64.0684 C   0  0  0  0  0  0  0  0  0  0  0  0
  -49.5604   58.6336   64.0308 C   0  0  0  0  0  0  0  0  0  0  0  0
  -50.0338   59.0780   62.6627 C   0  0  0  0  0  0  0  0  0  0  0  0
  -51.0848   58.1614   62.0468 C   0  0  0  0  0  0  0  0  0  0  0  0
  -50.5789   57.3452   60.8729 C   0  0  0  0  0  0  0  0  0  0  0  0
  -49.5593   58.0779   60.0252 C   0  0  0  0  0  0  0  0  0  0  0  0
  -48.3450   57.2332   59.6650 C   0  0  0  0  0  0  0  0  0  0  0  0
  -48.4299   56.6041   58.2859 C   0  0  0  0  0  0  0  0  0  0  0  0
  -46.3204   57.9412   57.9722 C   0  0  0  0  0  0  0  0  0  0  0  0
  -47.2689   56.9317   57.3661 C   0  0  0  0  0  0  0  0  0  0  0  0
  -37.1836   61.1489   66.4414 C   0  0  0  0  0  0  0  0  0  0  0  0
  -35.9079   61.6903   66.0314 O   0  0  0  0  0  0  0  0  0  0  0  0
  -35.3562   63.0997   66.5519 P   0  0  0  0  0  0  0  0  0  0  0  0
  -36.5113   64.0047   66.7341 O   0  0  0  0  0  0  0  0  0  0  0  0
  -34.4604   62.8468   67.7062 O   0  0  0  0  0  0  0  0  0  0  0  0
  -34.9791   62.4970   68.4474 H   0  0  0  0  0  0  0  0  0  0  0  0
  -34.4673   63.6722   65.3582 O   0  0  0  0  0  0  0  0  0  0  0  0
  -34.1327   65.0745   65.3161 C   0  0  0  0  0  0  0  0  0  0  0  0
  -32.3280   65.6110   66.7985 O   0  0  0  0  0  0  0  0  0  0  0  0
  -32.6368   65.2111   65.4601 C   0  0  0  0  0  0  0  0  0  0  0  0
  -32.8015   66.4309   67.0085 H   0  0  0  0  0  0  0  0  0  0  0  0
  -30.5431   64.2013   64.8159 O   0  0  0  0  0  0  0  0  0  0  0  0
  -31.9071   63.9348   65.1159 C   0  0  0  0  0  0  0  0  0  0  0  0
  -30.0918   63.3709   64.5978 H   0  0  0  0  0  0  0  0  0  0  0  0
  -38.0606   61.0871   64.1433 O   0  0  0  0  0  0  0  0  0  0  0  0
  -36.3018   60.7532   62.7812 O   0  0  0  0  0  0  0  0  0  0  0  0
  -37.4855   60.7235   62.9809 C   0  0  0  0  0  0  0  0  0  0  0  0
  -38.4951   60.2614   61.9764 C   0  0  0  0  0  0  0  0  0  0  0  0
  -38.8449   58.7896   62.1719 C   0  0  0  0  0  0  0  0  0  0  0  0
  -38.0835   57.8479   61.2537 C   0  0  0  0  0  0  0  0  0  0  0  0
  -37.2495   58.5662   60.1991 C   0  0  0  0  0  0  0  0  0  0  0  0
  -37.8245   58.4851   58.7972 C   0  0  0  0  0  0  0  0  0  0  0  0
  -36.8302   58.0264   57.7268 C   0  0  0  0  0  0  0  0  0  0  0  0
  -36.2655   56.6177   57.9229 C   0  0  0  0  0  0  0  0  0  0  0  0
  -34.7663   56.6075   57.9402 C   0  0  0  0  0  0  0  0  0  0  0  0
  -33.9926   56.3495   58.9767 C   0  0  0  0  0  0  0  0  0  0  0  0
  -34.4531   56.0096   60.3590 C   0  0  0  0  0  0  0  0  0  0  0  0
  -33.5413   56.5904   61.4359 C   0  0  0  0  0  0  0  0  0  0  0  0
  -33.8921   58.0149   61.8283 C   0  0  0  0  0  0  0  0  0  0  0  0
  -32.8240   58.6976   62.6652 C   0  0  0  0  0  0  0  0  0  0  0  0
  -31.8117   59.4983   61.8630 C   0  0  0  0  0  0  0  0  0  0  0  0
  -31.6892   60.9455   62.3148 C   0  0  0  0  0  0  0  0  0  0  0  0
  -30.3210   61.5556   62.0838 C   0  0  0  0  0  0  0  0  0  0  0  0
  -29.2301   60.5245   62.0056 C   0  0  0  0  0  0  0  0  0  0  0  0
 21 22  1  0  0  0
  4  5  2  0  0  0
 25 24  1  0  0  0
 25 26  2  0  0  0
 25 27  1  0  0  0
 25 29  1  0  0  0
 22 20  1  0  0  0
  3  5  1  0  0  0
  3  2  1  0  0  0
 20 19  1  0  0  0
 24 23  1  0  0  0
 19 18  1  0  0  0
 18 17  1  0  0  0
 27 28  1  0  0  0
 17 16  1  0  0  0
 29 30  1  0  0  0
 16 15  1  0  0  0
 34 35  1  0  0  0
 34 36  1  0  0  0
 15 14  1  0  0  0
 31 32  1  0  0  0
 31 33  1  0  0  0
 14 13  1  0  0  0
 37  1  1  0  0  0
 37 39  1  0  0  0
 13 12  1  0  0  0
 38 39  2  0  0  0
 12 11  1  0  0  0
 11 10  1  0  0  0
 10  9  1  0  0  0
  9  8  1  0  0  0
  8  7  1  0  0  0
  7  6  1  0  0  0
  6  5  1  0  0  0
  2  1  1  0  0  0
  1 23  1  0  0  0
 30 32  1  0  0  0
 32 35  1  0  0  0
 39 40  1  0  0  0
 40 41  1  0  0  0
 41 42  1  0  0  0
 42 43  1  0  0  0
 43 44  1  0  0  0
 44 45  1  0  0  0
 45 46  1  0  0  0
 46 47  1  0  0  0
 47 48  2  0  0  0
 48 49  1  0  0  0
 49 50  1  0  0  0
 50 51  1  0  0  0
 51 52  1  0  0  0
 52 53  1  0  0  0
 53 54  1  0  0  0
 54 55  1  0  0  0
 55 56  1  0  0  0
M  CHG 1  26  -1
M  END
> <minimizedAffinity>
-9.22793

> <CNNscore>
0.6058827639

> <CNNaffinity>
7.3244347572

> <CNN_VS>
4.4377489090

> <CNNaffinity_variance>
0.6932742000

$$$$
/media/chris/experiments/cd1a-new-docking/inputs/ligands/7sh4_ligand.pdb


 56 55  0  0  0  0  0  0  0  0999 V2000
  -39.6797   59.7325   65.1794 C   0  0  0  0  0  0  0  0  0  0  0  0
  -40.9362   60.5052   65.4653 C   0  0  0  0  0  0  0  0  0  0  0  0
  -41.6045   59.7230   66.4776 O   0  0  0  0  0  0  0  0  0  0  0  0
  -42.3084   57.6023   66.5597 O   0  0  0  0  0  0  0  0  0  0  0  0
  -42.3403   58.6934   66.0575 C   0  0  0  0  0  0  0  0  0  0  0  0
  -43.2898   59.1121   64.9722 C   0  0  0  0  0  0  0  0  0  0  0  0
  -44.7230   59.3002   65.4400 C   0  0  0  0  0  0  0  0  0  0  0  0
  -45.6508   58.2140   64.9379 C   0  0  0  0  0  0  0  0  0  0  0  0
  -46.6708   57.7524   65.9538 C   0  0  0  0  0  0  0  0  0  0  0  0
  -47.9260   57.1875   65.3201 C   0  0  0  0  0  0  0  0  0  0  0  0
  -49.1853   57.8860   65.7714 C   0  0  0  0  0  0  0  0  0  0  0  0
  -49.0730   59.3870   65.7293 C   0  0  0  0  0  0  0  0  0  0  0  0
  -49.5528   59.9887   64.4270 C   0  0  0  0  0  0  0  0  0  0  0  0
  -51.0108   59.6874   64.1451 C   0  0  0  0  0  0  0  0  0  0  0  0
  -51.2882   59.2545   62.7207 C   0  0  0  0  0  0  0  0  0  0  0  0
  -50.7507   57.8686   62.3823 C   0  0  0  0  0  0  0  0  0  0  0  0
  -49.5425   57.8832   61.4657 C   0  0  0  0  0  0  0  0  0  0  0  0
  -49.8930   58.1234   60.0115 C   0  0  0  0  0  0  0  0  0  0  0  0
  -49.3406   57.0644   59.0676 C   0  0  0  0  0  0  0  0  0  0  0  0
  -47.8302   56.9235   59.1296 C   0  0  0  0  0  0  0  0  0  0  0  0
  -45.8504   58.0576   58.0664 C   0  0  0  0  0  0  0  0  0  0  0  0
  -47.1085   57.2514   57.8361 C   0  0  0  0  0  0  0  0  0  0  0  0
  -38.4405   60.5262   65.5050 C   0  0  0  0  0  0  0  0  0  0  0  0
  -38.0898   61.3325   64.3582 O   0  0  0  0  0  0  0  0  0  0  0  0
  -36.6107   61.3761   63.7481 P   0  0  0  0  0  0  0  0  0  0  0  0
  -36.2147   59.9927   63.4079 O   0  0  0  0  0  0  0  0  0  0  0  0
  -36.5808   62.4079   62.6835 O   0  0  0  0  0  0  0  0  0  0  0  0
  -37.1432   62.1266   61.9449 H   0  0  0  0  0  0  0  0  0  0  0  0
  -35.6767   61.8753   64.9402 O   0  0  0  0  0  0  0  0  0  0  0  0
  -34.8754   63.0638   64.7799 C   0  0  0  0  0  0  0  0  0  0  0  0
  -36.6623   64.6437   65.0106 O   0  0  0  0  0  0  0  0  0  0  0  0
  -35.4698   64.1570   65.6335 C   0  0  0  0  0  0  0  0  0  0  0  0
  -36.4588   64.9398   64.1097 H   0  0  0  0  0  0  0  0  0  0  0  0
  -34.6504   63.0071   67.5891 O   0  0  0  0  0  0  0  0  0  0  0  0
  -35.7685   63.6913   67.0384 C   0  0  0  0  0  0  0  0  0  0  0  0
  -34.8611   62.7162   68.4901 H   0  0  0  0  0  0  0  0  0  0  0  0
  -39.7030   59.3173   63.7733 O   0  0  0  0  0  0  0  0  0  0  0  0
  -39.4212   57.1384   64.2557 O   0  0  0  0  0  0  0  0  0  0  0  0
  -39.2953   58.0630   63.5001 C   0  0  0  0  0  0  0  0  0  0  0  0
  -38.6843   57.9566   62.1373 C   0  0  0  0  0  0  0  0  0  0  0  0
  -39.0788   59.1362   61.2543 C   0  0  0  0  0  0  0  0  0  0  0  0
  -38.2125   59.2959   60.0159 C   0  0  0  0  0  0  0  0  0  0  0  0
  -37.3077   58.0991   59.7461 C   0  0  0  0  0  0  0  0  0  0  0  0
  -37.1180   57.7887   58.2729 C   0  0  0  0  0  0  0  0  0  0  0  0
  -36.4832   56.4250   57.9862 C   0  0  0  0  0  0  0  0  0  0  0  0
  -36.1115   55.6061   59.2243 C   0  0  0  0  0  0  0  0  0  0  0  0
  -34.6391   55.6427   59.5046 C   0  0  0  0  0  0  0  0  0  0  0  0
  -34.0540   56.1369   60.5784 C   0  0  0  0  0  0  0  0  0  0  0  0
  -34.7426   56.7662   61.7481 C   0  0  0  0  0  0  0  0  0  0  0  0
  -34.0623   58.0551   62.2000 C   0  0  0  0  0  0  0  0  0  0  0  0
  -32.6818   57.8395   62.7950 C   0  0  0  0  0  0  0  0  0  0  0  0
  -31.5859   58.6224   62.0926 C   0  0  0  0  0  0  0  0  0  0  0  0
  -31.8303   60.1206   62.0195 C   0  0  0  0  0  0  0  0  0  0  0  0
  -30.5634   60.9304   61.7902 C   0  0  0  0  0  0  0  0  0  0  0  0
  -30.7828   62.4296   61.7459 C   0  0  0  0  0  0  0  0  0  0  0  0
  -32.2023   62.8188   62.0507 C   0  0  0  0  0  0  0  0  0  0  0  0
 21 22  1  0  0  0
  4  5  2  0  0  0
 25 24  1  0  0  0
 25 26  2  0  0  0
 25 27  1  0  0  0
 25 29  1  0  0  0
 22 20  1  0  0  0
  3  5  1  0  0  0
  3  2  1  0  0  0
 20 19  1  0  0  0
 24 23  1  0  0  0
 19 18  1  0  0  0
 18 17  1  0  0  0
 27 28  1  0  0  0
 17 16  1  0  0  0
 29 30  1  0  0  0
 16 15  1  0  0  0
 34 35  1  0  0  0
 34 36  1  0  0  0
 15 14  1  0  0  0
 31 32  1  0  0  0
 31 33  1  0  0  0
 14 13  1  0  0  0
 37  1  1  0  0  0
 37 39  1  0  0  0
 13 12  1  0  0  0
 38 39  2  0  0  0
 12 11  1  0  0  0
 11 10  1  0  0  0
 10  9  1  0  0  0
  9  8  1  0  0  0
  8  7  1  0  0  0
  7  6  1  0  0  0
  6  5  1  0  0  0
  2  1  1  0  0  0
  1 23  1  0  0  0
 30 32  1  0  0  0
 32 35  1  0  0  0
 39 40  1  0  0  0
 40 41  1  0  0  0
 41 42  1  0  0  0
 42 43  1  0  0  0
 43 44  1  0  0  0
 44 45  1  0  0  0
 45 46  1  0  0  0
 46 47  1  0  0  0
 47 48  2  0  0  0
 48 49  1  0  0  0
 49 50  1  0  0  0
 50 51  1  0  0  0
 51 52  1  0  0  0
 52 53  1  0  0  0
 53 54  1  0  0  0
 54 55  1  0  0  0
 55 56  1  0  0  0
M  CHG 1  26  -1
M  END
> <minimizedAffinity>
-8.75234

> <CNNscore>
0.6020702124

> <CNNaffinity>
7.3766098022

> <CNN_VS>
4.4412369728

> <CNNaffinity_variance>
0.6031979322

$$$$
/media/chris/experiments/cd1a-new-docking/inputs/ligands/7sh4_ligand.pdb


 56 55  0  0  0  0  0  0  0  0999 V2000
  -38.9890   58.9906   63.9284 C   0  0  0  0  0  0  0  0  0  0  0  0
  -38.9990   58.2993   62.5944 C   0  0  0  0  0  0  0  0  0  0  0  0
  -39.2978   59.3548   61.6564 O   0  0  0  0  0  0  0  0  0  0  0  0
  -37.4112   60.5288   61.4073 O   0  0  0  0  0  0  0  0  0  0  0  0
  -38.2784   59.8374   60.9451 C   0  0  0  0  0  0  0  0  0  0  0  0
  -38.2947   59.3028   59.5420 C   0  0  0  0  0  0  0  0  0  0  0  0
  -37.5117   58.0136   59.3599 C   0  0  0  0  0  0  0  0  0  0  0  0
  -37.2515   57.6865   57.9046 C   0  0  0  0  0  0  0  0  0  0  0  0
  -36.1763   56.6462   57.6864 C   0  0  0  0  0  0  0  0  0  0  0  0
  -34.7799   57.1714   57.9514 C   0  0  0  0  0  0  0  0  0  0  0  0
  -33.8578   56.1344   58.5445 C   0  0  0  0  0  0  0  0  0  0  0  0
  -34.4817   55.3764   59.6863 C   0  0  0  0  0  0  0  0  0  0  0  0
  -34.6223   56.1995   60.9476 C   0  0  0  0  0  0  0  0  0  0  0  0
  -33.2891   56.6773   61.4864 C   0  0  0  0  0  0  0  0  0  0  0  0
  -33.2478   58.1560   61.8109 C   0  0  0  0  0  0  0  0  0  0  0  0
  -31.8981   58.6344   62.3338 C   0  0  0  0  0  0  0  0  0  0  0  0
  -31.5411   60.0478   61.9155 C   0  0  0  0  0  0  0  0  0  0  0  0
  -30.0720   60.3742   62.0896 C   0  0  0  0  0  0  0  0  0  0  0  0
  -29.7646   61.8633   62.0134 C   0  0  0  0  0  0  0  0  0  0  0  0
  -30.5541   62.6983   63.0057 C   0  0  0  0  0  0  0  0  0  0  0  0
  -32.6526   63.5870   61.9367 C   0  0  0  0  0  0  0  0  0  0  0  0
  -31.2512   63.9052   62.4067 C   0  0  0  0  0  0  0  0  0  0  0  0
  -37.7825   58.6167   64.7508 C   0  0  0  0  0  0  0  0  0  0  0  0
  -36.7906   59.6599   64.6226 O   0  0  0  0  0  0  0  0  0  0  0  0
  -36.9662   61.1091   65.2791 P   0  0  0  0  0  0  0  0  0  0  0  0
  -37.3210   62.0593   64.2032 O   0  0  0  0  0  0  0  0  0  0  0  0
  -37.8742   60.9809   66.4444 O   0  0  0  0  0  0  0  0  0  0  0  0
  -38.7624   60.7409   66.1372 H   0  0  0  0  0  0  0  0  0  0  0  0
  -35.5208   61.5031   65.8254 O   0  0  0  0  0  0  0  0  0  0  0  0
  -34.5833   62.1798   64.9632 C   0  0  0  0  0  0  0  0  0  0  0  0
  -35.3095   64.4303   64.5755 O   0  0  0  0  0  0  0  0  0  0  0  0
  -34.4786   63.6174   65.4095 C   0  0  0  0  0  0  0  0  0  0  0  0
  -35.0562   64.3062   63.6474 H   0  0  0  0  0  0  0  0  0  0  0  0
  -34.1129   62.9174   67.6887 O   0  0  0  0  0  0  0  0  0  0  0  0
  -34.8595   63.7985   66.8593 C   0  0  0  0  0  0  0  0  0  0  0  0
  -34.3711   63.0483   68.6144 H   0  0  0  0  0  0  0  0  0  0  0  0
  -40.2392   58.6696   64.6240 O   0  0  0  0  0  0  0  0  0  0  0  0
  -40.6409   60.8426   65.0444 O   0  0  0  0  0  0  0  0  0  0  0  0
  -40.8634   59.6818   65.2563 C   0  0  0  0  0  0  0  0  0  0  0  0
  -41.8787   59.1873   66.2394 C   0  0  0  0  0  0  0  0  0  0  0  0
  -42.3049   57.7557   65.9304 C   0  0  0  0  0  0  0  0  0  0  0  0
  -43.7888   57.4970   66.1328 C   0  0  0  0  0  0  0  0  0  0  0  0
  -44.5773   58.7422   66.5223 C   0  0  0  0  0  0  0  0  0  0  0  0
  -45.5049   59.2504   65.4342 C   0  0  0  0  0  0  0  0  0  0  0  0
  -46.9680   59.3960   65.8617 C   0  0  0  0  0  0  0  0  0  0  0  0
  -47.9986   59.0917   64.7722 C   0  0  0  0  0  0  0  0  0  0  0  0
  -49.1427   58.2725   65.2898 C   0  0  0  0  0  0  0  0  0  0  0  0
  -50.4270   58.5052   65.1002 C   0  0  0  0  0  0  0  0  0  0  0  0
  -51.0127   59.6414   64.3228 C   0  0  0  0  0  0  0  0  0  0  0  0
  -51.4289   59.2295   62.9136 C   0  0  0  0  0  0  0  0  0  0  0  0
  -50.2570   58.9642   61.9850 C   0  0  0  0  0  0  0  0  0  0  0  0
  -50.2384   57.5572   61.4131 C   0  0  0  0  0  0  0  0  0  0  0  0
  -49.0834   57.2777   60.4657 C   0  0  0  0  0  0  0  0  0  0  0  0
  -49.5016   57.2074   59.0051 C   0  0  0  0  0  0  0  0  0  0  0  0
  -48.3746   56.8652   58.0510 C   0  0  0  0  0  0  0  0  0  0  0  0
  -47.1382   57.6850   58.2937 C   0  0  0  0  0  0  0  0  0  0  0  0
 21 22  1  0  0  0
  4  5  2  0  0  0
 25 24  1  0  0  0
 25 26  2  0  0  0
 25 27  1  0  0  0
 25 29  1  0  0  0
 22 20  1  0  0  0
  3  5  1  0  0  0
  3  2  1  0  0  0
 20 19  1  0  0  0
 24 23  1  0  0  0
 19 18  1  0  0  0
 18 17  1  0  0  0
 27 28  1  0  0  0
 17 16  1  0  0  0
 29 30  1  0  0  0
 16 15  1  0  0  0
 34 35  1  0  0  0
 34 36  1  0  0  0
 15 14  1  0  0  0
 31 32  1  0  0  0
 31 33  1  0  0  0
 14 13  1  0  0  0
 37  1  1  0  0  0
 37 39  1  0  0  0
 13 12  1  0  0  0
 38 39  2  0  0  0
 12 11  1  0  0  0
 11 10  1  0  0  0
 10  9  1  0  0  0
  9  8  1  0  0  0
  8  7  1  0  0  0
  7  6  1  0  0  0
  6  5  1  0  0  0
  2  1  1  0  0  0
  1 23  1  0  0  0
 30 32  1  0  0  0
 32 35  1  0  0  0
 39 40  1  0  0  0
 40 41  1  0  0  0
 41 42  1  0  0  0
 42 43  1  0  0  0
 43 44  1  0  0  0
 44 45  1  0  0  0
 45 46  1  0  0  0
 46 47  1  0  0  0
 47 48  2  0  0  0
 48 49  1  0  0  0
 49 50  1  0  0  0
 50 51  1  0  0  0
 51 52  1  0  0  0
 52 53  1  0  0  0
 53 54  1  0  0  0
 54 55  1  0  0  0
 55 56  1  0  0  0
M  CHG 1  26  -1
M  END
> <minimizedAffinity>
-9.02698

> <CNNscore>
0.5985563993

> <CNNaffinity>
7.2910814285

> <CNN_VS>
4.3641233444

> <CNNaffinity_variance>
0.7979379892

$$$$
/media/chris/experiments/cd1a-new-docking/inputs/ligands/7sh4_ligand.pdb


 56 55  0  0  0  0  0  0  0  0999 V2000
  -38.3844   59.6567   62.4907 C   0  0  0  0  0  0  0  0  0  0  0  0
  -39.0163   59.0522   63.7126 C   0  0  0  0  0  0  0  0  0  0  0  0
  -40.4013   59.4476   63.6214 O   0  0  0  0  0  0  0  0  0  0  0  0
  -41.0694   60.8958   65.1887 O   0  0  0  0  0  0  0  0  0  0  0  0
  -41.0124   59.7746   64.7605 C   0  0  0  0  0  0  0  0  0  0  0  0
  -41.7157   58.5901   65.3583 C   0  0  0  0  0  0  0  0  0  0  0  0
  -42.5003   58.9061   66.6204 C   0  0  0  0  0  0  0  0  0  0  0  0
  -43.9800   59.0927   66.3593 C   0  0  0  0  0  0  0  0  0  0  0  0
  -44.4672   58.4587   65.0761 C   0  0  0  0  0  0  0  0  0  0  0  0
  -45.9740   58.5089   64.9241 C   0  0  0  0  0  0  0  0  0  0  0  0
  -46.6416   59.4230   65.9224 C   0  0  0  0  0  0  0  0  0  0  0  0
  -48.1307   59.5243   65.7233 C   0  0  0  0  0  0  0  0  0  0  0  0
  -48.8550   58.2130   65.9330 C   0  0  0  0  0  0  0  0  0  0  0  0
  -50.1429   58.1224   65.1398 C   0  0  0  0  0  0  0  0  0  0  0  0
  -50.7499   59.4653   64.7913 C   0  0  0  0  0  0  0  0  0  0  0  0
  -51.1939   59.5821   63.3375 C   0  0  0  0  0  0  0  0  0  0  0  0
  -50.3046   58.8379   62.3600 C   0  0  0  0  0  0  0  0  0  0  0  0
  -51.0379   57.7749   61.5680 C   0  0  0  0  0  0  0  0  0  0  0  0
  -50.1306   56.9544   60.6619 C   0  0  0  0  0  0  0  0  0  0  0  0
  -48.9101   57.7146   60.1747 C   0  0  0  0  0  0  0  0  0  0  0  0
  -46.7235   57.2643   59.0118 C   0  0  0  0  0  0  0  0  0  0  0  0
  -48.2266   57.1088   58.9634 C   0  0  0  0  0  0  0  0  0  0  0  0
  -37.6613   60.9414   62.8041 C   0  0  0  0  0  0  0  0  0  0  0  0
  -37.9039   61.2865   64.1863 O   0  0  0  0  0  0  0  0  0  0  0  0
  -36.7292   61.4265   65.2644 P   0  0  0  0  0  0  0  0  0  0  0  0
  -37.3479   61.5806   66.5985 O   0  0  0  0  0  0  0  0  0  0  0  0
  -35.7695   60.3170   65.0480 O   0  0  0  0  0  0  0  0  0  0  0  0
  -36.1982   59.4730   65.2598 H   0  0  0  0  0  0  0  0  0  0  0  0
  -35.9877   62.7921   64.9063 O   0  0  0  0  0  0  0  0  0  0  0  0
  -34.5467   62.8436   64.8731 C   0  0  0  0  0  0  0  0  0  0  0  0
  -34.0843   61.4971   62.9456 O   0  0  0  0  0  0  0  0  0  0  0  0
  -34.1038   62.8429   63.4306 C   0  0  0  0  0  0  0  0  0  0  0  0
  -33.5133   60.9568   63.5137 H   0  0  0  0  0  0  0  0  0  0  0  0
  -34.6425   63.5445   61.1866 O   0  0  0  0  0  0  0  0  0  0  0  0
  -34.9889   63.6991   62.5569 C   0  0  0  0  0  0  0  0  0  0  0  0
  -35.2209   64.1013   60.6422 H   0  0  0  0  0  0  0  0  0  0  0  0
  -39.4291   59.8555   61.4813 O   0  0  0  0  0  0  0  0  0  0  0  0
  -39.4596   60.3932   59.2972 O   0  0  0  0  0  0  0  0  0  0  0  0
  -39.0718   59.6936   60.1927 C   0  0  0  0  0  0  0  0  0  0  0  0
  -38.1210   58.5509   60.0140 C   0  0  0  0  0  0  0  0  0  0  0  0
  -37.2691   58.7234   58.7605 C   0  0  0  0  0  0  0  0  0  0  0  0
  -37.3296   57.5417   57.8067 C   0  0  0  0  0  0  0  0  0  0  0  0
  -36.3602   56.4203   58.1627 C   0  0  0  0  0  0  0  0  0  0  0  0
  -34.8983   56.8170   58.0731 C   0  0  0  0  0  0  0  0  0  0  0  0
  -34.0527   56.4087   59.2827 C   0  0  0  0  0  0  0  0  0  0  0  0
  -34.3559   57.1684   60.5760 C   0  0  0  0  0  0  0  0  0  0  0  0
  -33.3638   56.8612   61.6574 C   0  0  0  0  0  0  0  0  0  0  0  0
  -32.4146   57.6599   62.1052 C   0  0  0  0  0  0  0  0  0  0  0  0
  -32.1298   59.0480   61.6253 C   0  0  0  0  0  0  0  0  0  0  0  0
  -30.9461   59.6831   62.3492 C   0  0  0  0  0  0  0  0  0  0  0  0
  -30.1484   60.6448   61.4860 C   0  0  0  0  0  0  0  0  0  0  0  0
  -29.4628   61.7471   62.2748 C   0  0  0  0  0  0  0  0  0  0  0  0
  -30.4064   62.6269   63.0780 C   0  0  0  0  0  0  0  0  0  0  0  0
  -30.7055   63.9609   62.4114 C   0  0  0  0  0  0  0  0  0  0  0  0
  -29.5558   64.5215   61.5979 C   0  0  0  0  0  0  0  0  0  0  0  0
  -29.7556   65.9643   61.2263 C   0  0  0  0  0  0  0  0  0  0  0  0
 21 22  1  0  0  0
  4  5  2  0  0  0
 25 24  1  0  0  0
 25 26  2  0  0  0
 25 27  1  0  0  0
 25 29  1  0  0  0
 22 20  1  0  0  0
  3  5  1  0  0  0
  3  2  1  0  0  0
 20 19  1  0  0  0
 24 23  1  0  0  0
 19 18  1  0  0  0
 18 17  1  0  0  0
 27 28  1  0  0  0
 17 16  1  0  0  0
 29 30  1  0  0  0
 16 15  1  0  0  0
 34 35  1  0  0  0
 34 36  1  0  0  0
 15 14  1  0  0  0
 31 32  1  0  0  0
 31 33  1  0  0  0
 14 13  1  0  0  0
 37  1  1  0  0  0
 37 39  1  0  0  0
 13 12  1  0  0  0
 38 39  2  0  0  0
 12 11  1  0  0  0
 11 10  1  0  0  0
 10  9  1  0  0  0
  9  8  1  0  0  0
  8  7  1  0  0  0
  7  6  1  0  0  0
  6  5  1  0  0  0
  2  1  1  0  0  0
  1 23  1  0  0  0
 30 32  1  0  0  0
 32 35  1  0  0  0
 39 40  1  0  0  0
 40 41  1  0  0  0
 41 42  1  0  0  0
 42 43  1  0  0  0
 43 44  1  0  0  0
 44 45  1  0  0  0
 45 46  1  0  0  0
 46 47  1  0  0  0
 47 48  2  0  0  0
 48 49  1  0  0  0
 49 50  1  0  0  0
 50 51  1  0  0  0
 51 52  1  0  0  0
 52 53  1  0  0  0
 53 54  1  0  0  0
 54 55  1  0  0  0
 55 56  1  0  0  0
M  CHG 1  26  -1
M  END
> <minimizedAffinity>
-8.70609

> <CNNscore>
0.5857058167

> <CNNaffinity>
6.9838852882

> <CNN_VS>
4.0905022621

> <CNNaffinity_variance>
0.6361012459

$$$$
/media/chris/experiments/cd1a-new-docking/inputs/ligands/7sh4_ligand.pdb


 56 55  0  0  0  0  0  0  0  0999 V2000
  -40.4273   60.0217   64.8892 C   0  0  0  0  0  0  0  0  0  0  0  0
  -40.6654   60.4239   63.4612 C   0  0  0  0  0  0  0  0  0  0  0  0
  -39.9942   59.4021   62.6940 O   0  0  0  0  0  0  0  0  0  0  0  0
  -40.3234   60.4865   60.7664 O   0  0  0  0  0  0  0  0  0  0  0  0
  -39.7092   59.6899   61.4236 C   0  0  0  0  0  0  0  0  0  0  0  0
  -38.4596   58.9880   60.9755 C   0  0  0  0  0  0  0  0  0  0  0  0
  -38.1440   57.7236   61.7566 C   0  0  0  0  0  0  0  0  0  0  0  0
  -37.4028   56.6939   60.9301 C   0  0  0  0  0  0  0  0  0  0  0  0
  -37.0561   57.1546   59.5325 C   0  0  0  0  0  0  0  0  0  0  0  0
  -36.2355   56.1416   58.7602 C   0  0  0  0  0  0  0  0  0  0  0  0
  -35.3491   55.2978   59.6433 C   0  0  0  0  0  0  0  0  0  0  0  0
  -33.9700   55.8767   59.8177 C   0  0  0  0  0  0  0  0  0  0  0  0
  -33.6155   56.1589   61.2609 C   0  0  0  0  0  0  0  0  0  0  0  0
  -33.7303   57.6277   61.6154 C   0  0  0  0  0  0  0  0  0  0  0  0
  -32.6087   58.1408   62.4940 C   0  0  0  0  0  0  0  0  0  0  0  0
  -32.2166   59.5866   62.2108 C   0  0  0  0  0  0  0  0  0  0  0  0
  -30.7191   59.8167   62.1418 C   0  0  0  0  0  0  0  0  0  0  0  0
  -30.3425   61.1504   61.5299 C   0  0  0  0  0  0  0  0  0  0  0  0
  -29.9273   62.1966   62.5550 C   0  0  0  0  0  0  0  0  0  0  0  0
  -30.9318   63.3238   62.7139 C   0  0  0  0  0  0  0  0  0  0  0  0
  -31.6125   64.0376   65.0298 C   0  0  0  0  0  0  0  0  0  0  0  0
  -31.9176   63.1398   63.8522 C   0  0  0  0  0  0  0  0  0  0  0  0
  -38.9763   59.7137   65.1563 C   0  0  0  0  0  0  0  0  0  0  0  0
  -38.2045   60.9232   64.9830 O   0  0  0  0  0  0  0  0  0  0  0  0
  -36.8350   60.9672   64.1559 P   0  0  0  0  0  0  0  0  0  0  0  0
  -36.3196   59.5853   64.0495 O   0  0  0  0  0  0  0  0  0  0  0  0
  -37.0723   61.7367   62.9108 O   0  0  0  0  0  0  0  0  0  0  0  0
  -37.6877   61.2488   62.3415 H   0  0  0  0  0  0  0  0  0  0  0  0
  -35.8213   61.8010   65.0613 O   0  0  0  0  0  0  0  0  0  0  0  0
  -36.0946   61.9890   66.4650 C   0  0  0  0  0  0  0  0  0  0  0  0
  -34.2905   63.1321   67.5517 O   0  0  0  0  0  0  0  0  0  0  0  0
  -35.5396   63.3286   66.8825 C   0  0  0  0  0  0  0  0  0  0  0  0
  -34.4161   62.5282   68.3002 H   0  0  0  0  0  0  0  0  0  0  0  0
  -36.6233   64.6369   65.1701 O   0  0  0  0  0  0  0  0  0  0  0  0
  -35.3624   64.2673   65.7131 C   0  0  0  0  0  0  0  0  0  0  0  0
  -36.4890   65.2388   64.4214 H   0  0  0  0  0  0  0  0  0  0  0  0
  -41.2895   58.8760   65.1958 O   0  0  0  0  0  0  0  0  0  0  0  0
  -42.2970   59.3557   67.1489 O   0  0  0  0  0  0  0  0  0  0  0  0
  -42.3626   59.1107   65.9753 C   0  0  0  0  0  0  0  0  0  0  0  0
  -43.6425   59.0477   65.2009 C   0  0  0  0  0  0  0  0  0  0  0  0
  -44.8481   58.9050   66.1245 C   0  0  0  0  0  0  0  0  0  0  0  0
  -46.1571   59.3654   65.5047 C   0  0  0  0  0  0  0  0  0  0  0  0
  -46.8108   58.3173   64.6113 C   0  0  0  0  0  0  0  0  0  0  0  0
  -48.0005   57.6211   65.2458 C   0  0  0  0  0  0  0  0  0  0  0  0
  -49.0017   58.5614   65.9229 C   0  0  0  0  0  0  0  0  0  0  0  0
  -50.4675   58.3309   65.5488 C   0  0  0  0  0  0  0  0  0  0  0  0
  -51.0370   59.4751   64.7648 C   0  0  0  0  0  0  0  0  0  0  0  0
  -51.1977   59.5308   63.4570 C   0  0  0  0  0  0  0  0  0  0  0  0
  -50.8445   58.4562   62.4777 C   0  0  0  0  0  0  0  0  0  0  0  0
  -49.4274   58.6081   61.9325 C   0  0  0  0  0  0  0  0  0  0  0  0
  -49.3515   58.5803   60.4160 C   0  0  0  0  0  0  0  0  0  0  0  0
  -50.0846   57.4063   59.7902 C   0  0  0  0  0  0  0  0  0  0  0  0
  -49.2550   56.1389   59.6676 C   0  0  0  0  0  0  0  0  0  0  0  0
  -47.7918   56.4016   59.3458 C   0  0  0  0  0  0  0  0  0  0  0  0
  -47.5375   56.8362   57.9161 C   0  0  0  0  0  0  0  0  0  0  0  0
  -46.5374   57.9541   57.8174 C   0  0  0  0  0  0  0  0  0  0  0  0
 21 22  1  0  0  0
  4  5  2  0  0  0
 25 24  1  0  0  0
 25 26  2  0  0  0
 25 27  1  0  0  0
 25 29  1  0  0  0
 22 20  1  0  0  0
  3  5  1  0  0  0
  3  2  1  0  0  0
 20 19  1  0  0  0
 24 23  1  0  0  0
 19 18  1  0  0  0
 18 17  1  0  0  0
 27 28  1  0  0  0
 17 16  1  0  0  0
 29 30  1  0  0  0
 16 15  1  0  0  0
 34 35  1  0  0  0
 34 36  1  0  0  0
 15 14  1  0  0  0
 31 32  1  0  0  0
 31 33  1  0  0  0
 14 13  1  0  0  0
 37  1  1  0  0  0
 37 39  1  0  0  0
 13 12  1  0  0  0
 38 39  2  0  0  0
 12 11  1  0  0  0
 11 10  1  0  0  0
 10  9  1  0  0  0
  9  8  1  0  0  0
  8  7  1  0  0  0
  7  6  1  0  0  0
  6  5  1  0  0  0
  2  1  1  0  0  0
  1 23  1  0  0  0
 30 32  1  0  0  0
 32 35  1  0  0  0
 39 40  1  0  0  0
 40 41  1  0  0  0
 41 42  1  0  0  0
 42 43  1  0  0  0
 43 44  1  0  0  0
 44 45  1  0  0  0
 45 46  1  0  0  0
 46 47  1  0  0  0
 47 48  2  0  0  0
 48 49  1  0  0  0
 49 50  1  0  0  0
 50 51  1  0  0  0
 51 52  1  0  0  0
 52 53  1  0  0  0
 53 54  1  0  0  0
 54 55  1  0  0  0
 55 56  1  0  0  0
M  CHG 1  26  -1
M  END
> <minimizedAffinity>
-8.88378

> <CNNscore>
0.5430685878

> <CNNaffinity>
7.1216750145

> <CNN_VS>
3.8675580025

> <CNNaffinity_variance>
0.5828582644

$$$$
/media/chris/experiments/cd1a-new-docking/inputs/ligands/7sh4_ligand.pdb


 56 55  0  0  0  0  0  0  0  0999 V2000
  -38.0306   60.0852   61.0860 C   0  0  0  0  0  0  0  0  0  0  0  0
  -37.5911   58.6682   61.3239 C   0  0  0  0  0  0  0  0  0  0  0  0
  -36.2224   58.6455   60.8663 O   0  0  0  0  0  0  0  0  0  0  0  0
  -35.4633   56.9122   59.6751 O   0  0  0  0  0  0  0  0  0  0  0  0
  -35.6495   57.4488   60.7339 C   0  0  0  0  0  0  0  0  0  0  0  0
  -35.1632   56.9308   62.0567 C   0  0  0  0  0  0  0  0  0  0  0  0
  -34.4935   57.9813   62.9264 C   0  0  0  0  0  0  0  0  0  0  0  0
  -34.9807   57.9529   64.3597 C   0  0  0  0  0  0  0  0  0  0  0  0
  -36.3032   57.2455   64.5503 C   0  0  0  0  0  0  0  0  0  0  0  0
  -37.4503   58.1961   64.8269 C   0  0  0  0  0  0  0  0  0  0  0  0
  -38.7988   57.5186   64.8172 C   0  0  0  0  0  0  0  0  0  0  0  0
  -39.8624   58.3348   64.1316 C   0  0  0  0  0  0  0  0  0  0  0  0
  -40.2442   59.5847   64.8932 C   0  0  0  0  0  0  0  0  0  0  0  0
  -41.5727   60.1599   64.4458 C   0  0  0  0  0  0  0  0  0  0  0  0
  -42.7793   59.4199   64.9842 C   0  0  0  0  0  0  0  0  0  0  0  0
  -42.4575   58.4705   66.1329 C   0  0  0  0  0  0  0  0  0  0  0  0
  -43.5746   57.4982   66.4599 C   0  0  0  0  0  0  0  0  0  0  0  0
  -44.5757   57.3311   65.3353 C   0  0  0  0  0  0  0  0  0  0  0  0
  -45.9266   56.8003   65.7946 C   0  0  0  0  0  0  0  0  0  0  0  0
  -47.1016   57.6357   65.3185 C   0  0  0  0  0  0  0  0  0  0  0  0
  -47.7096   59.8982   66.2393 C   0  0  0  0  0  0  0  0  0  0  0  0
  -46.8403   59.1293   65.2702 C   0  0  0  0  0  0  0  0  0  0  0  0
  -37.8371   60.9502   62.3050 C   0  0  0  0  0  0  0  0  0  0  0  0
  -36.6439   61.7457   62.1263 O   0  0  0  0  0  0  0  0  0  0  0  0
  -36.0441   62.6807   63.2786 P   0  0  0  0  0  0  0  0  0  0  0  0
  -34.6461   62.2660   63.5237 O   0  0  0  0  0  0  0  0  0  0  0  0
  -36.3149   64.0926   62.9150 O   0  0  0  0  0  0  0  0  0  0  0  0
  -35.8081   64.3249   62.1212 H   0  0  0  0  0  0  0  0  0  0  0  0
  -36.8936   62.3397   64.5842 O   0  0  0  0  0  0  0  0  0  0  0  0
  -36.2521   62.3122   65.8757 C   0  0  0  0  0  0  0  0  0  0  0  0
  -36.9334   64.1949   67.1925 O   0  0  0  0  0  0  0  0  0  0  0  0
  -35.9345   63.7311   66.2794 C   0  0  0  0  0  0  0  0  0  0  0  0
  -37.8094   64.1078   66.7851 H   0  0  0  0  0  0  0  0  0  0  0  0
  -34.2206   62.6778   67.6103 O   0  0  0  0  0  0  0  0  0  0  0  0
  -34.5631   63.8596   66.8979 C   0  0  0  0  0  0  0  0  0  0  0  0
  -33.3381   62.7794   67.9997 H   0  0  0  0  0  0  0  0  0  0  0  0
  -39.4308   60.0674   60.6513 O   0  0  0  0  0  0  0  0  0  0  0  0
  -38.8182   59.3633   58.6046 O   0  0  0  0  0  0  0  0  0  0  0  0
  -39.6674   59.7351   59.3676 C   0  0  0  0  0  0  0  0  0  0  0  0
  -41.1160   59.8669   59.0124 C   0  0  0  0  0  0  0  0  0  0  0  0
  -41.4289   59.1906   57.6815 C   0  0  0  0  0  0  0  0  0  0  0  0
  -42.8268   59.4768   57.1583 C   0  0  0  0  0  0  0  0  0  0  0  0
  -43.7365   58.2536   57.1481 C   0  0  0  0  0  0  0  0  0  0  0  0
  -44.7007   58.1921   58.3182 C   0  0  0  0  0  0  0  0  0  0  0  0
  -46.1773   58.1047   57.9223 C   0  0  0  0  0  0  0  0  0  0  0  0
  -46.5713   56.8439   57.1497 C   0  0  0  0  0  0  0  0  0  0  0  0
  -48.0581   56.7049   57.0158 C   0  0  0  0  0  0  0  0  0  0  0  0
  -48.9018   56.3294   57.9575 C   0  0  0  0  0  0  0  0  0  0  0  0
  -48.5483   55.9634   59.3644 C   0  0  0  0  0  0  0  0  0  0  0  0
  -49.7243   56.1302   60.3224 C   0  0  0  0  0  0  0  0  0  0  0  0
  -50.3373   57.5194   60.2990 C   0  0  0  0  0  0  0  0  0  0  0  0
  -49.3574   58.6245   60.6535 C   0  0  0  0  0  0  0  0  0  0  0  0
  -49.8940   59.6499   61.6384 C   0  0  0  0  0  0  0  0  0  0  0  0
  -51.0574   59.1369   62.4731 C   0  0  0  0  0  0  0  0  0  0  0  0
  -50.9737   59.4951   63.9436 C   0  0  0  0  0  0  0  0  0  0  0  0
  -50.5458   58.3368   64.8008 C   0  0  0  0  0  0  0  0  0  0  0  0
 21 22  1  0  0  0
  4  5  2  0  0  0
 25 24  1  0  0  0
 25 26  2  0  0  0
 25 27  1  0  0  0
 25 29  1  0  0  0
 22 20  1  0  0  0
  3  5  1  0  0  0
  3  2  1  0  0  0
 20 19  1  0  0  0
 24 23  1  0  0  0
 19 18  1  0  0  0
 18 17  1  0  0  0
 27 28  1  0  0  0
 17 16  1  0  0  0
 29 30  1  0  0  0
 16 15  1  0  0  0
 34 35  1  0  0  0
 34 36  1  0  0  0
 15 14  1  0  0  0
 31 32  1  0  0  0
 31 33  1  0  0  0
 14 13  1  0  0  0
 37  1  1  0  0  0
 37 39  1  0  0  0
 13 12  1  0  0  0
 38 39  2  0  0  0
 12 11  1  0  0  0
 11 10  1  0  0  0
 10  9  1  0  0  0
  9  8  1  0  0  0
  8  7  1  0  0  0
  7  6  1  0  0  0
  6  5  1  0  0  0
  2  1  1  0  0  0
  1 23  1  0  0  0
 30 32  1  0  0  0
 32 35  1  0  0  0
 39 40  1  0  0  0
 40 41  1  0  0  0
 41 42  1  0  0  0
 42 43  1  0  0  0
 43 44  1  0  0  0
 44 45  1  0  0  0
 45 46  1  0  0  0
 46 47  1  0  0  0
 47 48  2  0  0  0
 48 49  1  0  0  0
 49 50  1  0  0  0
 50 51  1  0  0  0
 51 52  1  0  0  0
 52 53  1  0  0  0
 53 54  1  0  0  0
 54 55  1  0  0  0
 55 56  1  0  0  0
M  CHG 1  26  -1
M  END
> <minimizedAffinity>
-8.54616

> <CNNscore>
0.5149481893

> <CNNaffinity>
7.6879320145

> <CNN_VS>
3.9588866234

> <CNNaffinity_variance>
0.7517814636

$$$$
/media/chris/experiments/cd1a-new-docking/inputs/ligands/7sh4_ligand.pdb


 56 55  0  0  0  0  0  0  0  0999 V2000
  -35.0382   59.3209   63.2765 C   0  0  0  0  0  0  0  0  0  0  0  0
  -35.6679   59.5108   64.6275 C   0  0  0  0  0  0  0  0  0  0  0  0
  -36.9203   60.1678   64.3397 O   0  0  0  0  0  0  0  0  0  0  0  0
  -37.4504   61.8490   65.7154 O   0  0  0  0  0  0  0  0  0  0  0  0
  -37.5723   60.7040   65.3719 C   0  0  0  0  0  0  0  0  0  0  0  0
  -38.5568   59.7322   65.9558 C   0  0  0  0  0  0  0  0  0  0  0  0
  -38.6838   58.4339   65.1769 C   0  0  0  0  0  0  0  0  0  0  0  0
  -40.1056   58.1483   64.7415 C   0  0  0  0  0  0  0  0  0  0  0  0
  -40.7438   59.2616   63.9420 C   0  0  0  0  0  0  0  0  0  0  0  0
  -41.8994   59.9239   64.6644 C   0  0  0  0  0  0  0  0  0  0  0  0
  -42.0516   59.4598   66.0924 C   0  0  0  0  0  0  0  0  0  0  0  0
  -43.4564   59.0322   66.4256 C   0  0  0  0  0  0  0  0  0  0  0  0
  -44.3971   59.0868   65.2424 C   0  0  0  0  0  0  0  0  0  0  0  0
  -45.1668   57.7963   65.0465 C   0  0  0  0  0  0  0  0  0  0  0  0
  -45.2283   56.9201   66.2801 C   0  0  0  0  0  0  0  0  0  0  0  0
  -46.6465   56.6209   66.7531 C   0  0  0  0  0  0  0  0  0  0  0  0
  -47.6967   56.7400   65.6654 C   0  0  0  0  0  0  0  0  0  0  0  0
  -48.7788   57.7519   65.9817 C   0  0  0  0  0  0  0  0  0  0  0  0
  -49.3125   58.4783   64.7548 C   0  0  0  0  0  0  0  0  0  0  0  0
  -50.7123   59.0363   64.9401 C   0  0  0  0  0  0  0  0  0  0  0  0
  -52.1999   59.9731   63.1385 C   0  0  0  0  0  0  0  0  0  0  0  0
  -51.0380   60.2354   64.0697 C   0  0  0  0  0  0  0  0  0  0  0  0
  -33.9109   60.2920   63.0357 C   0  0  0  0  0  0  0  0  0  0  0  0
  -34.1163   61.4579   63.8646 O   0  0  0  0  0  0  0  0  0  0  0  0
  -34.5361   62.8828   63.2687 P   0  0  0  0  0  0  0  0  0  0  0  0
  -33.7530   63.1122   62.0356 O   0  0  0  0  0  0  0  0  0  0  0  0
  -36.0161   62.9333   63.1924 O   0  0  0  0  0  0  0  0  0  0  0  0
  -36.3281   62.2908   62.5361 H   0  0  0  0  0  0  0  0  0  0  0  0
  -34.0650   63.9505   64.3554 O   0  0  0  0  0  0  0  0  0  0  0  0
  -33.4656   63.5070   65.5900 C   0  0  0  0  0  0  0  0  0  0  0  0
  -33.9856   62.5446   67.7221 O   0  0  0  0  0  0  0  0  0  0  0  0
  -34.5657   63.0458   66.5142 C   0  0  0  0  0  0  0  0  0  0  0  0
  -33.3541   61.8398   67.5094 H   0  0  0  0  0  0  0  0  0  0  0  0
  -36.2854   63.8412   68.0068 O   0  0  0  0  0  0  0  0  0  0  0  0
  -35.5524   64.1450   66.8270 C   0  0  0  0  0  0  0  0  0  0  0  0
  -36.9130   64.5576   68.1910 H   0  0  0  0  0  0  0  0  0  0  0  0
  -36.0856   59.4434   62.2578 O   0  0  0  0  0  0  0  0  0  0  0  0
  -35.8190   57.3577   61.4587 O   0  0  0  0  0  0  0  0  0  0  0  0
  -36.5227   58.3024   61.6912 C   0  0  0  0  0  0  0  0  0  0  0  0
  -37.9915   58.3462   61.4037 C   0  0  0  0  0  0  0  0  0  0  0  0
  -38.3323   59.4446   60.4016 C   0  0  0  0  0  0  0  0  0  0  0  0
  -39.7775   59.9107   60.4658 C   0  0  0  0  0  0  0  0  0  0  0  0
  -40.3845   60.2052   59.0988 C   0  0  0  0  0  0  0  0  0  0  0  0
  -41.7295   59.5425   58.8653 C   0  0  0  0  0  0  0  0  0  0  0  0
  -42.0789   59.3132   57.3922 C   0  0  0  0  0  0  0  0  0  0  0  0
  -43.4377   58.6562   57.1396 C   0  0  0  0  0  0  0  0  0  0  0  0
  -44.1142   58.2494   58.4143 C   0  0  0  0  0  0  0  0  0  0  0  0
  -45.3925   57.9654   58.5714 C   0  0  0  0  0  0  0  0  0  0  0  0
  -46.4397   57.9888   57.5031 C   0  0  0  0  0  0  0  0  0  0  0  0
  -46.6653   56.6148   56.8787 C   0  0  0  0  0  0  0  0  0  0  0  0
  -47.9586   55.9508   57.3175 C   0  0  0  0  0  0  0  0  0  0  0  0
  -47.8802   55.3126   58.6937 C   0  0  0  0  0  0  0  0  0  0  0  0
  -48.9046   55.8329   59.6884 C   0  0  0  0  0  0  0  0  0  0  0  0
  -49.6196   57.0908   59.2194 C   0  0  0  0  0  0  0  0  0  0  0  0
  -50.3862   57.8137   60.3091 C   0  0  0  0  0  0  0  0  0  0  0  0
  -49.5524   58.8405   61.0233 C   0  0  0  0  0  0  0  0  0  0  0  0
 21 22  1  0  0  0
  4  5  2  0  0  0
 25 24  1  0  0  0
 25 26  2  0  0  0
 25 27  1  0  0  0
 25 29  1  0  0  0
 22 20  1  0  0  0
  3  5  1  0  0  0
  3  2  1  0  0  0
 20 19  1  0  0  0
 24 23  1  0  0  0
 19 18  1  0  0  0
 18 17  1  0  0  0
 27 28  1  0  0  0
 17 16  1  0  0  0
 29 30  1  0  0  0
 16 15  1  0  0  0
 34 35  1  0  0  0
 34 36  1  0  0  0
 15 14  1  0  0  0
 31 32  1  0  0  0
 31 33  1  0  0  0
 14 13  1  0  0  0
 37  1  1  0  0  0
 37 39  1  0  0  0
 13 12  1  0  0  0
 38 39  2  0  0  0
 12 11  1  0  0  0
 11 10  1  0  0  0
 10  9  1  0  0  0
  9  8  1  0  0  0
  8  7  1  0  0  0
  7  6  1  0  0  0
  6  5  1  0  0  0
  2  1  1  0  0  0
  1 23  1  0  0  0
 30 32  1  0  0  0
 32 35  1  0  0  0
 39 40  1  0  0  0
 40 41  1  0  0  0
 41 42  1  0  0  0
 42 43  1  0  0  0
 43 44  1  0  0  0
 44 45  1  0  0  0
 45 46  1  0  0  0
 46 47  1  0  0  0
 47 48  2  0  0  0
 48 49  1  0  0  0
 49 50  1  0  0  0
 50 51  1  0  0  0
 51 52  1  0  0  0
 52 53  1  0  0  0
 53 54  1  0  0  0
 54 55  1  0  0  0
 55 56  1  0  0  0
M  CHG 1  26  -1
M  END
> <minimizedAffinity>
-8.35904

> <CNNscore>
0.4869047105

> <CNNaffinity>
7.4966840744

> <CNN_VS>
3.6501708031

> <CNNaffinity_variance>
0.6715669632

$$$$
