/media/chris/experiments/cd1a-new-docking/inputs/ligands/7sh4_ligand.pdb


 56 55  0  0  0  0  0  0  0  0999 V2000
  -37.0284   60.1378   64.8485 C   0  0  0  0  0  0  0  0  0  0  0  0
  -38.4349   59.7145   65.1647 C   0  0  0  0  0  0  0  0  0  0  0  0
  -39.2459   60.8028   64.6738 O   0  0  0  0  0  0  0  0  0  0  0  0
  -41.3495   61.3738   64.1758 O   0  0  0  0  0  0  0  0  0  0  0  0
  -40.5683   60.6371   64.7147 C   0  0  0  0  0  0  0  0  0  0  0  0
  -40.9333   59.3557   65.4074 C   0  0  0  0  0  0  0  0  0  0  0  0
  -41.7168   59.5477   66.6949 C   0  0  0  0  0  0  0  0  0  0  0  0
  -43.0895   58.9105   66.6464 C   0  0  0  0  0  0  0  0  0  0  0  0
  -43.7220   58.9059   65.2732 C   0  0  0  0  0  0  0  0  0  0  0  0
  -45.1975   59.2493   65.2984 C   0  0  0  0  0  0  0  0  0  0  0  0
  -46.0734   58.1470   64.7549 C   0  0  0  0  0  0  0  0  0  0  0  0
  -47.5273   58.3238   65.1051 C   0  0  0  0  0  0  0  0  0  0  0  0
  -48.4483   58.2347   63.9085 C   0  0  0  0  0  0  0  0  0  0  0  0
  -48.8905   59.5947   63.4077 C   0  0  0  0  0  0  0  0  0  0  0  0
  -49.7695   59.5436   62.1756 C   0  0  0  0  0  0  0  0  0  0  0  0
  -51.0550   58.7474   62.3685 C   0  0  0  0  0  0  0  0  0  0  0  0
  -51.1770   57.5431   61.4546 C   0  0  0  0  0  0  0  0  0  0  0  0
  -49.8771   57.1727   60.7704 C   0  0  0  0  0  0  0  0  0  0  0  0
  -49.9353   57.2756   59.2527 C   0  0  0  0  0  0  0  0  0  0  0  0
  -48.5925   57.0621   58.5772 C   0  0  0  0  0  0  0  0  0  0  0  0
  -46.1487   57.6192   58.8081 C   0  0  0  0  0  0  0  0  0  0  0  0
  -47.3962   57.1289   59.5074 C   0  0  0  0  0  0  0  0  0  0  0  0
  -36.9526   61.5841   64.4310 C   0  0  0  0  0  0  0  0  0  0  0  0
  -36.0299   61.7013   63.3251 O   0  0  0  0  0  0  0  0  0  0  0  0
  -35.1991   63.0364   63.0264 P   0  0  0  0  0  0  0  0  0  0  0  0
  -33.8593   62.6427   62.5397 O   0  0  0  0  0  0  0  0  0  0  0  0
  -36.0344   63.9194   62.1772 O   0  0  0  0  0  0  0  0  0  0  0  0
  -36.1594   63.5080   61.3077 H   0  0  0  0  0  0  0  0  0  0  0  0
  -35.0179   63.7468   64.4424 O   0  0  0  0  0  0  0  0  0  0  0  0
  -34.0840   63.2131   65.4032 C   0  0  0  0  0  0  0  0  0  0  0  0
  -33.8995   62.4973   67.6827 O   0  0  0  0  0  0  0  0  0  0  0  0
  -34.8280   62.9354   66.6863 C   0  0  0  0  0  0  0  0  0  0  0  0
  -33.4148   61.7236   67.3550 H   0  0  0  0  0  0  0  0  0  0  0  0
  -36.9721   64.0274   66.8566 O   0  0  0  0  0  0  0  0  0  0  0  0
  -35.5922   64.1404   67.1800 C   0  0  0  0  0  0  0  0  0  0  0  0
  -37.4454   64.8093   67.1813 H   0  0  0  0  0  0  0  0  0  0  0  0
  -36.5003   59.2463   63.8110 O   0  0  0  0  0  0  0  0  0  0  0  0
  -36.4309   57.0681   64.3686 O   0  0  0  0  0  0  0  0  0  0  0  0
  -35.8799   58.1255   64.2270 C   0  0  0  0  0  0  0  0  0  0  0  0
  -34.4203   58.3512   64.4731 C   0  0  0  0  0  0  0  0  0  0  0  0
  -33.7773   59.1395   63.3365 C   0  0  0  0  0  0  0  0  0  0  0  0
  -32.4749   58.5408   62.8309 C   0  0  0  0  0  0  0  0  0  0  0  0
  -32.6612   57.2395   62.0590 C   0  0  0  0  0  0  0  0  0  0  0  0
  -33.8780   57.2286   61.1525 C   0  0  0  0  0  0  0  0  0  0  0  0
  -34.3463   55.8326   60.7321 C   0  0  0  0  0  0  0  0  0  0  0  0
  -34.0353   55.4498   59.2836 C   0  0  0  0  0  0  0  0  0  0  0  0
  -33.9831   56.6465   58.3818 C   0  0  0  0  0  0  0  0  0  0  0  0
  -35.0019   57.2112   57.7631 C   0  0  0  0  0  0  0  0  0  0  0  0
  -36.4306   56.7732   57.8344 C   0  0  0  0  0  0  0  0  0  0  0  0
  -37.3484   57.8659   58.3748 C   0  0  0  0  0  0  0  0  0  0  0  0
  -37.0332   58.2754   59.8029 C   0  0  0  0  0  0  0  0  0  0  0  0
  -37.7229   57.4174   60.8496 C   0  0  0  0  0  0  0  0  0  0  0  0
  -38.7340   58.1609   61.7066 C   0  0  0  0  0  0  0  0  0  0  0  0
  -38.7636   59.6591   61.4459 C   0  0  0  0  0  0  0  0  0  0  0  0
  -40.1360   60.2039   61.1031 C   0  0  0  0  0  0  0  0  0  0  0  0
  -40.3867   60.2583   59.6218 C   0  0  0  0  0  0  0  0  0  0  0  0
 21 22  1  0  0  0
  4  5  2  0  0  0
 25 24  1  0  0  0
 25 26  2  0  0  0
 25 27  1  0  0  0
 25 29  1  0  0  0
 22 20  1  0  0  0
  3  5  1  0  0  0
  3  2  1  0  0  0
 20 19  1  0  0  0
 24 23  1  0  0  0
 19 18  1  0  0  0
 18 17  1  0  0  0
 27 28  1  0  0  0
 17 16  1  0  0  0
 29 30  1  0  0  0
 16 15  1  0  0  0
 34 35  1  0  0  0
 34 36  1  0  0  0
 15 14  1  0  0  0
 31 32  1  0  0  0
 31 33  1  0  0  0
 14 13  1  0  0  0
 37  1  1  0  0  0
 37 39  1  0  0  0
 13 12  1  0  0  0
 38 39  2  0  0  0
 12 11  1  0  0  0
 11 10  1  0  0  0
 10  9  1  0  0  0
  9  8  1  0  0  0
  8  7  1  0  0  0
  7  6  1  0  0  0
  6  5  1  0  0  0
  2  1  1  0  0  0
  1 23  1  0  0  0
 30 32  1  0  0  0
 32 35  1  0  0  0
 39 40  1  0  0  0
 40 41  1  0  0  0
 41 42  1  0  0  0
 42 43  1  0  0  0
 43 44  1  0  0  0
 44 45  1  0  0  0
 45 46  1  0  0  0
 46 47  1  0  0  0
 47 48  2  0  0  0
 48 49  1  0  0  0
 49 50  1  0  0  0
 50 51  1  0  0  0
 51 52  1  0  0  0
 52 53  1  0  0  0
 53 54  1  0  0  0
 54 55  1  0  0  0
 55 56  1  0  0  0
M  CHG 1  26  -1
M  END
> <minimizedAffinity>
-9.05492

> <CNNscore>
0.6435220838

> <CNNaffinity>
7.7198991776

> <CNN_VS>
4.9679255486

> <CNNaffinity_variance>
0.9445449114

$$$$
/media/chris/experiments/cd1a-new-docking/inputs/ligands/7sh4_ligand.pdb


 56 55  0  0  0  0  0  0  0  0999 V2000
  -35.8568   60.2371   64.3518 C   0  0  0  0  0  0  0  0  0  0  0  0
  -37.0613   60.1707   65.2476 C   0  0  0  0  0  0  0  0  0  0  0  0
  -38.1295   59.7629   64.3669 O   0  0  0  0  0  0  0  0  0  0  0  0
  -38.3793   57.7532   65.3144 O   0  0  0  0  0  0  0  0  0  0  0  0
  -38.8427   58.6981   64.7350 C   0  0  0  0  0  0  0  0  0  0  0  0
  -40.3025   58.8957   64.4435 C   0  0  0  0  0  0  0  0  0  0  0  0
  -41.1472   59.1838   65.6731 C   0  0  0  0  0  0  0  0  0  0  0  0
  -42.2451   58.1623   65.8825 C   0  0  0  0  0  0  0  0  0  0  0  0
  -43.5558   58.7499   66.3545 C   0  0  0  0  0  0  0  0  0  0  0  0
  -44.5109   59.0581   65.2193 C   0  0  0  0  0  0  0  0  0  0  0  0
  -45.6046   58.0294   65.0671 C   0  0  0  0  0  0  0  0  0  0  0  0
  -46.6909   58.1680   66.1006 C   0  0  0  0  0  0  0  0  0  0  0  0
  -48.0313   57.6422   65.6371 C   0  0  0  0  0  0  0  0  0  0  0  0
  -49.1602   58.6237   65.8782 C   0  0  0  0  0  0  0  0  0  0  0  0
  -50.4569   58.2558   65.1880 C   0  0  0  0  0  0  0  0  0  0  0  0
  -50.9410   59.3006   64.1890 C   0  0  0  0  0  0  0  0  0  0  0  0
  -50.9939   58.8054   62.7564 C   0  0  0  0  0  0  0  0  0  0  0  0
  -50.0943   59.5825   61.8173 C   0  0  0  0  0  0  0  0  0  0  0  0
  -49.3253   58.7028   60.8415 C   0  0  0  0  0  0  0  0  0  0  0  0
  -50.2170   57.8222   59.9846 C   0  0  0  0  0  0  0  0  0  0  0  0
  -47.9884   56.8140   59.3911 C   0  0  0  0  0  0  0  0  0  0  0  0
  -49.4775   56.8106   59.1298 C   0  0  0  0  0  0  0  0  0  0  0  0
  -35.7509   61.5630   63.6430 C   0  0  0  0  0  0  0  0  0  0  0  0
  -34.3743   61.7760   63.2581 O   0  0  0  0  0  0  0  0  0  0  0  0
  -33.7289   63.2338   63.1164 P   0  0  0  0  0  0  0  0  0  0  0  0
  -32.3997   63.2110   63.7641 O   0  0  0  0  0  0  0  0  0  0  0  0
  -33.8213   63.6431   61.6942 O   0  0  0  0  0  0  0  0  0  0  0  0
  -33.2542   63.0698   61.1552 H   0  0  0  0  0  0  0  0  0  0  0  0
  -34.6728   64.1981   63.9660 O   0  0  0  0  0  0  0  0  0  0  0  0
  -34.2313   64.6958   65.2457 C   0  0  0  0  0  0  0  0  0  0  0  0
  -36.5492   64.2911   65.6994 O   0  0  0  0  0  0  0  0  0  0  0  0
  -35.2453   64.2934   66.2882 C   0  0  0  0  0  0  0  0  0  0  0  0
  -36.7320   65.1628   65.3152 H   0  0  0  0  0  0  0  0  0  0  0  0
  -36.0318   62.4954   67.6908 O   0  0  0  0  0  0  0  0  0  0  0  0
  -34.9439   62.9427   66.8920 C   0  0  0  0  0  0  0  0  0  0  0  0
  -35.8198   61.6279   68.0693 H   0  0  0  0  0  0  0  0  0  0  0  0
  -35.9242   59.1203   63.4042 O   0  0  0  0  0  0  0  0  0  0  0  0
  -35.3781   57.1316   64.3028 O   0  0  0  0  0  0  0  0  0  0  0  0
  -35.0956   58.0815   63.6248 C   0  0  0  0  0  0  0  0  0  0  0  0
  -33.7902   58.2442   62.9098 C   0  0  0  0  0  0  0  0  0  0  0  0
  -33.8785   57.7562   61.4674 C   0  0  0  0  0  0  0  0  0  0  0  0
  -33.6669   56.2595   61.3090 C   0  0  0  0  0  0  0  0  0  0  0  0
  -33.9000   55.7577   59.8884 C   0  0  0  0  0  0  0  0  0  0  0  0
  -34.1987   56.8576   58.8868 C   0  0  0  0  0  0  0  0  0  0  0  0
  -35.6084   56.8104   58.2907 C   0  0  0  0  0  0  0  0  0  0  0  0
  -36.6208   57.7592   58.9361 C   0  0  0  0  0  0  0  0  0  0  0  0
  -37.2923   57.1436   60.1269 C   0  0  0  0  0  0  0  0  0  0  0  0
  -38.0317   57.7671   61.0236 C   0  0  0  0  0  0  0  0  0  0  0  0
  -38.3576   59.2272   61.0378 C   0  0  0  0  0  0  0  0  0  0  0  0
  -38.7530   59.7490   59.6595 C   0  0  0  0  0  0  0  0  0  0  0  0
  -40.2389   60.0284   59.5169 C   0  0  0  0  0  0  0  0  0  0  0  0
  -40.8494   59.4503   58.2518 C   0  0  0  0  0  0  0  0  0  0  0  0
  -42.3643   59.5480   58.1822 C   0  0  0  0  0  0  0  0  0  0  0  0
  -42.9739   58.7181   57.0627 C   0  0  0  0  0  0  0  0  0  0  0  0
  -44.4009   58.2771   57.3215 C   0  0  0  0  0  0  0  0  0  0  0  0
  -44.6619   57.9730   58.7703 C   0  0  0  0  0  0  0  0  0  0  0  0
 21 22  1  0  0  0
  4  5  2  0  0  0
 25 24  1  0  0  0
 25 26  2  0  0  0
 25 27  1  0  0  0
 25 29  1  0  0  0
 22 20  1  0  0  0
  3  5  1  0  0  0
  3  2  1  0  0  0
 20 19  1  0  0  0
 24 23  1  0  0  0
 19 18  1  0  0  0
 18 17  1  0  0  0
 27 28  1  0  0  0
 17 16  1  0  0  0
 29 30  1  0  0  0
 16 15  1  0  0  0
 34 35  1  0  0  0
 34 36  1  0  0  0
 15 14  1  0  0  0
 31 32  1  0  0  0
 31 33  1  0  0  0
 14 13  1  0  0  0
 37  1  1  0  0  0
 37 39  1  0  0  0
 13 12  1  0  0  0
 38 39  2  0  0  0
 12 11  1  0  0  0
 11 10  1  0  0  0
 10  9  1  0  0  0
  9  8  1  0  0  0
  8  7  1  0  0  0
  7  6  1  0  0  0
  6  5  1  0  0  0
  2  1  1  0  0  0
  1 23  1  0  0  0
 30 32  1  0  0  0
 32 35  1  0  0  0
 39 40  1  0  0  0
 40 41  1  0  0  0
 41 42  1  0  0  0
 42 43  1  0  0  0
 43 44  1  0  0  0
 44 45  1  0  0  0
 45 46  1  0  0  0
 46 47  1  0  0  0
 47 48  2  0  0  0
 48 49  1  0  0  0
 49 50  1  0  0  0
 50 51  1  0  0  0
 51 52  1  0  0  0
 52 53  1  0  0  0
 53 54  1  0  0  0
 54 55  1  0  0  0
 55 56  1  0  0  0
M  CHG 1  26  -1
M  END
> <minimizedAffinity>
-7.83642

> <CNNscore>
0.6010757089

> <CNNaffinity>
7.7253236771

> <CNN_VS>
4.6435046196

> <CNNaffinity_variance>
0.7906954288

$$$$
/media/chris/experiments/cd1a-new-docking/inputs/ligands/7sh4_ligand.pdb


 56 55  0  0  0  0  0  0  0  0999 V2000
  -39.5370   60.7409   63.5331 C   0  0  0  0  0  0  0  0  0  0  0  0
  -40.2215   60.4995   62.2175 C   0  0  0  0  0  0  0  0  0  0  0  0
  -39.1386   60.4475   61.2648 O   0  0  0  0  0  0  0  0  0  0  0  0
  -40.2815   60.2465   59.3536 O   0  0  0  0  0  0  0  0  0  0  0  0
  -39.3991   59.8848   60.0843 C   0  0  0  0  0  0  0  0  0  0  0  0
  -38.3763   58.8392   59.7442 C   0  0  0  0  0  0  0  0  0  0  0  0
  -37.3599   58.5845   60.8443 C   0  0  0  0  0  0  0  0  0  0  0  0
  -37.5385   57.2346   61.5065 C   0  0  0  0  0  0  0  0  0  0  0  0
  -38.5320   57.2305   62.6462 C   0  0  0  0  0  0  0  0  0  0  0  0
  -37.8716   57.2799   64.0090 C   0  0  0  0  0  0  0  0  0  0  0  0
  -36.3658   57.2038   63.9428 C   0  0  0  0  0  0  0  0  0  0  0  0
  -35.6928   58.4845   64.3605 C   0  0  0  0  0  0  0  0  0  0  0  0
  -34.1862   58.4398   64.2347 C   0  0  0  0  0  0  0  0  0  0  0  0
  -33.6485   59.4751   63.2678 C   0  0  0  0  0  0  0  0  0  0  0  0
  -32.4367   59.0176   62.4833 C   0  0  0  0  0  0  0  0  0  0  0  0
  -32.5629   57.6056   61.9226 C   0  0  0  0  0  0  0  0  0  0  0  0
  -33.7282   57.4232   60.9692 C   0  0  0  0  0  0  0  0  0  0  0  0
  -34.3415   56.0390   61.0261 C   0  0  0  0  0  0  0  0  0  0  0  0
  -34.4360   55.3571   59.6684 C   0  0  0  0  0  0  0  0  0  0  0  0
  -35.8350   54.8776   59.3253 C   0  0  0  0  0  0  0  0  0  0  0  0
  -35.7490   56.8971   57.8253 C   0  0  0  0  0  0  0  0  0  0  0  0
  -36.6094   55.7923   58.3954 C   0  0  0  0  0  0  0  0  0  0  0  0
  -38.0448   60.8854   63.3769 C   0  0  0  0  0  0  0  0  0  0  0  0
  -37.6164   62.0733   64.0794 O   0  0  0  0  0  0  0  0  0  0  0  0
  -36.2759   62.8649   63.7077 P   0  0  0  0  0  0  0  0  0  0  0  0
  -35.7911   62.3584   62.4057 O   0  0  0  0  0  0  0  0  0  0  0  0
  -36.5417   64.3164   63.8532 O   0  0  0  0  0  0  0  0  0  0  0  0
  -37.1857   64.5958   63.1840 H   0  0  0  0  0  0  0  0  0  0  0  0
  -35.2155   62.4468   64.8228 O   0  0  0  0  0  0  0  0  0  0  0  0
  -35.6553   61.7752   66.0210 C   0  0  0  0  0  0  0  0  0  0  0  0
  -33.7109   62.4549   67.2456 O   0  0  0  0  0  0  0  0  0  0  0  0
  -35.1386   62.5422   67.2133 C   0  0  0  0  0  0  0  0  0  0  0  0
  -33.4442   61.5223   67.2552 H   0  0  0  0  0  0  0  0  0  0  0  0
  -36.9544   64.0956   66.8838 O   0  0  0  0  0  0  0  0  0  0  0  0
  -35.5718   63.9886   67.1981 C   0  0  0  0  0  0  0  0  0  0  0  0
  -37.2134   65.0303   66.8788 H   0  0  0  0  0  0  0  0  0  0  0  0
  -39.8826   59.6430   64.4415 O   0  0  0  0  0  0  0  0  0  0  0  0
  -40.6923   60.9184   66.1083 O   0  0  0  0  0  0  0  0  0  0  0  0
  -40.7442   59.9234   65.4381 C   0  0  0  0  0  0  0  0  0  0  0  0
  -41.7830   58.8570   65.5976 C   0  0  0  0  0  0  0  0  0  0  0  0
  -42.7217   59.1607   66.7609 C   0  0  0  0  0  0  0  0  0  0  0  0
  -43.9681   58.2915   66.7903 C   0  0  0  0  0  0  0  0  0  0  0  0
  -44.7597   58.3164   65.4877 C   0  0  0  0  0  0  0  0  0  0  0  0
  -45.9070   59.3094   65.4818 C   0  0  0  0  0  0  0  0  0  0  0  0
  -47.1078   58.9000   66.3394 C   0  0  0  0  0  0  0  0  0  0  0  0
  -48.3294   59.8150   66.2291 C   0  0  0  0  0  0  0  0  0  0  0  0
  -49.5783   59.0527   65.9016 C   0  0  0  0  0  0  0  0  0  0  0  0
  -50.2244   59.0565   64.7519 C   0  0  0  0  0  0  0  0  0  0  0  0
  -49.8420   59.8259   63.5271 C   0  0  0  0  0  0  0  0  0  0  0  0
  -50.6034   59.3641   62.2880 C   0  0  0  0  0  0  0  0  0  0  0  0
  -50.8093   57.8608   62.2242 C   0  0  0  0  0  0  0  0  0  0  0  0
  -51.0115   57.3323   60.8146 C   0  0  0  0  0  0  0  0  0  0  0  0
  -49.8267   56.5626   60.2548 C   0  0  0  0  0  0  0  0  0  0  0  0
  -49.3566   57.0744   58.9018 C   0  0  0  0  0  0  0  0  0  0  0  0
  -47.9580   56.6312   58.5208 C   0  0  0  0  0  0  0  0  0  0  0  0
  -46.8871   57.4511   59.1847 C   0  0  0  0  0  0  0  0  0  0  0  0
 21 22  1  0  0  0
  4  5  2  0  0  0
 25 24  1  0  0  0
 25 26  2  0  0  0
 25 27  1  0  0  0
 25 29  1  0  0  0
 22 20  1  0  0  0
  3  5  1  0  0  0
  3  2  1  0  0  0
 20 19  1  0  0  0
 24 23  1  0  0  0
 19 18  1  0  0  0
 18 17  1  0  0  0
 27 28  1  0  0  0
 17 16  1  0  0  0
 29 30  1  0  0  0
 16 15  1  0  0  0
 34 35  1  0  0  0
 34 36  1  0  0  0
 15 14  1  0  0  0
 31 32  1  0  0  0
 31 33  1  0  0  0
 14 13  1  0  0  0
 37  1  1  0  0  0
 37 39  1  0  0  0
 13 12  1  0  0  0
 38 39  2  0  0  0
 12 11  1  0  0  0
 11 10  1  0  0  0
 10  9  1  0  0  0
  9  8  1  0  0  0
  8  7  1  0  0  0
  7  6  1  0  0  0
  6  5  1  0  0  0
  2  1  1  0  0  0
  1 23  1  0  0  0
 30 32  1  0  0  0
 32 35  1  0  0  0
 39 40  1  0  0  0
 40 41  1  0  0  0
 41 42  1  0  0  0
 42 43  1  0  0  0
 43 44  1  0  0  0
 44 45  1  0  0  0
 45 46  1  0  0  0
 46 47  1  0  0  0
 47 48  2  0  0  0
 48 49  1  0  0  0
 49 50  1  0  0  0
 50 51  1  0  0  0
 51 52  1  0  0  0
 52 53  1  0  0  0
 53 54  1  0  0  0
 54 55  1  0  0  0
 55 56  1  0  0  0
M  CHG 1  26  -1
M  END
> <minimizedAffinity>
-8.94333

> <CNNscore>
0.5474833250

> <CNNaffinity>
7.6541075706

> <CNN_VS>
4.1904964447

> <CNNaffinity_variance>
0.9122185707

$$$$
/media/chris/experiments/cd1a-new-docking/inputs/ligands/7sh4_ligand.pdb


 56 55  0  0  0  0  0  0  0  0999 V2000
  -35.7746   60.8503   64.4435 C   0  0  0  0  0  0  0  0  0  0  0  0
  -36.8903   61.6978   63.9008 C   0  0  0  0  0  0  0  0  0  0  0  0
  -38.0874   61.0011   64.3066 O   0  0  0  0  0  0  0  0  0  0  0  0
  -37.6942   61.3848   66.4740 O   0  0  0  0  0  0  0  0  0  0  0  0
  -38.2245   60.7431   65.6076 C   0  0  0  0  0  0  0  0  0  0  0  0
  -39.2158   59.6394   65.8404 C   0  0  0  0  0  0  0  0  0  0  0  0
  -40.5156   59.8003   65.0703 C   0  0  0  0  0  0  0  0  0  0  0  0
  -41.7022   59.1951   65.7902 C   0  0  0  0  0  0  0  0  0  0  0  0
  -42.9908   59.2326   65.0003 C   0  0  0  0  0  0  0  0  0  0  0  0
  -44.2196   59.0117   65.8588 C   0  0  0  0  0  0  0  0  0  0  0  0
  -45.1106   57.9061   65.3475 C   0  0  0  0  0  0  0  0  0  0  0  0
  -46.4123   58.4122   64.7844 C   0  0  0  0  0  0  0  0  0  0  0  0
  -46.9776   59.5912   65.5449 C   0  0  0  0  0  0  0  0  0  0  0  0
  -48.2060   60.1807   64.8822 C   0  0  0  0  0  0  0  0  0  0  0  0
  -49.1622   59.1480   64.3230 C   0  0  0  0  0  0  0  0  0  0  0  0
  -50.4849   59.7313   63.8391 C   0  0  0  0  0  0  0  0  0  0  0  0
  -50.8467   59.3426   62.4184 C   0  0  0  0  0  0  0  0  0  0  0  0
  -50.9411   57.8451   62.2096 C   0  0  0  0  0  0  0  0  0  0  0  0
  -50.8569   57.4261   60.7485 C   0  0  0  0  0  0  0  0  0  0  0  0
  -49.5929   57.8987   60.0528 C   0  0  0  0  0  0  0  0  0  0  0  0
  -48.5294   55.7162   59.3884 C   0  0  0  0  0  0  0  0  0  0  0  0
  -49.1311   57.0173   58.9079 C   0  0  0  0  0  0  0  0  0  0  0  0
  -34.4859   61.6221   64.5671 C   0  0  0  0  0  0  0  0  0  0  0  0
  -33.8920   61.7488   63.2558 O   0  0  0  0  0  0  0  0  0  0  0  0
  -33.4365   63.1550   62.6420 P   0  0  0  0  0  0  0  0  0  0  0  0
  -32.4608   62.8893   61.5631 O   0  0  0  0  0  0  0  0  0  0  0  0
  -34.6559   63.9361   62.3233 O   0  0  0  0  0  0  0  0  0  0  0  0
  -35.1407   63.5000   61.6052 H   0  0  0  0  0  0  0  0  0  0  0  0
  -32.6704   63.9033   63.8235 O   0  0  0  0  0  0  0  0  0  0  0  0
  -32.3379   65.3009   63.6966 C   0  0  0  0  0  0  0  0  0  0  0  0
  -34.4799   65.8444   64.6233 O   0  0  0  0  0  0  0  0  0  0  0  0
  -33.0738   66.0644   64.7701 C   0  0  0  0  0  0  0  0  0  0  0  0
  -34.7549   66.0968   63.7280 H   0  0  0  0  0  0  0  0  0  0  0  0
  -31.3403   65.0748   66.1244 O   0  0  0  0  0  0  0  0  0  0  0  0
  -32.6281   65.6764   66.1596 C   0  0  0  0  0  0  0  0  0  0  0  0
  -31.0717   64.8329   67.0245 H   0  0  0  0  0  0  0  0  0  0  0  0
  -35.6225   59.6773   63.5770 O   0  0  0  0  0  0  0  0  0  0  0  0
  -34.6456   58.1207   64.8742 O   0  0  0  0  0  0  0  0  0  0  0  0
  -35.5601   58.4754   64.1816 C   0  0  0  0  0  0  0  0  0  0  0  0
  -36.7734   57.6437   63.9022 C   0  0  0  0  0  0  0  0  0  0  0  0
  -36.7793   57.1286   62.4666 C   0  0  0  0  0  0  0  0  0  0  0  0
  -38.1242   57.2588   61.7705 C   0  0  0  0  0  0  0  0  0  0  0  0
  -38.8147   58.5942   62.0232 C   0  0  0  0  0  0  0  0  0  0  0  0
  -39.1639   59.3572   60.7590 C   0  0  0  0  0  0  0  0  0  0  0  0
  -38.0106   59.4989   59.7617 C   0  0  0  0  0  0  0  0  0  0  0  0
  -38.0686   58.5534   58.5599 C   0  0  0  0  0  0  0  0  0  0  0  0
  -36.7136   58.3121   57.9652 C   0  0  0  0  0  0  0  0  0  0  0  0
  -36.0747   57.1600   57.9031 C   0  0  0  0  0  0  0  0  0  0  0  0
  -36.5733   55.8456   58.4150 C   0  0  0  0  0  0  0  0  0  0  0  0
  -35.7150   55.3002   59.5527 C   0  0  0  0  0  0  0  0  0  0  0  0
  -34.2673   55.7556   59.4962 C   0  0  0  0  0  0  0  0  0  0  0  0
  -33.9118   56.7897   60.5504 C   0  0  0  0  0  0  0  0  0  0  0  0
  -32.8690   56.3308   61.5561 C   0  0  0  0  0  0  0  0  0  0  0  0
  -32.4097   57.4332   62.4981 C   0  0  0  0  0  0  0  0  0  0  0  0
  -32.4574   58.8243   61.8979 C   0  0  0  0  0  0  0  0  0  0  0  0
  -31.1586   59.5665   62.0463 C   0  0  0  0  0  0  0  0  0  0  0  0
 21 22  1  0  0  0
  4  5  2  0  0  0
 25 24  1  0  0  0
 25 26  2  0  0  0
 25 27  1  0  0  0
 25 29  1  0  0  0
 22 20  1  0  0  0
  3  5  1  0  0  0
  3  2  1  0  0  0
 20 19  1  0  0  0
 24 23  1  0  0  0
 19 18  1  0  0  0
 18 17  1  0  0  0
 27 28  1  0  0  0
 17 16  1  0  0  0
 29 30  1  0  0  0
 16 15  1  0  0  0
 34 35  1  0  0  0
 34 36  1  0  0  0
 15 14  1  0  0  0
 31 32  1  0  0  0
 31 33  1  0  0  0
 14 13  1  0  0  0
 37  1  1  0  0  0
 37 39  1  0  0  0
 13 12  1  0  0  0
 38 39  2  0  0  0
 12 11  1  0  0  0
 11 10  1  0  0  0
 10  9  1  0  0  0
  9  8  1  0  0  0
  8  7  1  0  0  0
  7  6  1  0  0  0
  6  5  1  0  0  0
  2  1  1  0  0  0
  1 23  1  0  0  0
 30 32  1  0  0  0
 32 35  1  0  0  0
 39 40  1  0  0  0
 40 41  1  0  0  0
 41 42  1  0  0  0
 42 43  1  0  0  0
 43 44  1  0  0  0
 44 45  1  0  0  0
 45 46  1  0  0  0
 46 47  1  0  0  0
 47 48  2  0  0  0
 48 49  1  0  0  0
 49 50  1  0  0  0
 50 51  1  0  0  0
 51 52  1  0  0  0
 52 53  1  0  0  0
 53 54  1  0  0  0
 54 55  1  0  0  0
 55 56  1  0  0  0
M  CHG 1  26  -1
M  END
> <minimizedAffinity>
-8.81336

> <CNNscore>
0.4757281840

> <CNNaffinity>
7.0653991699

> <CNN_VS>
3.3612096310

> <CNNaffinity_variance>
1.3035757542

$$$$
/media/chris/experiments/cd1a-new-docking/inputs/ligands/7sh4_ligand.pdb


 56 55  0  0  0  0  0  0  0  0999 V2000
  -38.5062   61.0972   63.0721 C   0  0  0  0  0  0  0  0  0  0  0  0
  -38.0797   60.5492   61.7397 C   0  0  0  0  0  0  0  0  0  0  0  0
  -39.3223   60.2204   61.0833 O   0  0  0  0  0  0  0  0  0  0  0  0
  -40.1813   60.0842   59.0235 O   0  0  0  0  0  0  0  0  0  0  0  0
  -39.2615   59.9360   59.7820 C   0  0  0  0  0  0  0  0  0  0  0  0
  -37.8722   59.5328   59.3792 C   0  0  0  0  0  0  0  0  0  0  0  0
  -37.7982   58.1980   58.6574 C   0  0  0  0  0  0  0  0  0  0  0  0
  -36.6000   58.0946   57.7375 C   0  0  0  0  0  0  0  0  0  0  0  0
  -36.0302   56.6993   57.6172 C   0  0  0  0  0  0  0  0  0  0  0  0
  -36.5964   55.7369   58.6413 C   0  0  0  0  0  0  0  0  0  0  0  0
  -35.5490   55.1746   59.5710 C   0  0  0  0  0  0  0  0  0  0  0  0
  -34.1847   55.7730   59.3514 C   0  0  0  0  0  0  0  0  0  0  0  0
  -33.8962   56.9556   60.2492 C   0  0  0  0  0  0  0  0  0  0  0  0
  -33.6833   56.5548   61.6949 C   0  0  0  0  0  0  0  0  0  0  0  0
  -32.7624   57.4794   62.4633 C   0  0  0  0  0  0  0  0  0  0  0  0
  -33.4740   58.6675   63.1005 C   0  0  0  0  0  0  0  0  0  0  0  0
  -34.1060   58.3590   64.4442 C   0  0  0  0  0  0  0  0  0  0  0  0
  -35.6125   58.5179   64.4516 C   0  0  0  0  0  0  0  0  0  0  0  0
  -36.3652   57.2102   64.2500 C   0  0  0  0  0  0  0  0  0  0  0  0
  -37.8665   57.3382   64.4362 C   0  0  0  0  0  0  0  0  0  0  0  0
  -37.8167   56.8818   61.9614 C   0  0  0  0  0  0  0  0  0  0  0  0
  -38.6784   57.1987   63.1625 C   0  0  0  0  0  0  0  0  0  0  0  0
  -37.3316   61.5555   63.8980 C   0  0  0  0  0  0  0  0  0  0  0  0
  -36.2257   61.8443   63.0138 O   0  0  0  0  0  0  0  0  0  0  0  0
  -35.2952   63.1357   63.1818 P   0  0  0  0  0  0  0  0  0  0  0  0
  -34.4675   63.2654   61.9632 O   0  0  0  0  0  0  0  0  0  0  0  0
  -36.1552   64.2750   63.5833 O   0  0  0  0  0  0  0  0  0  0  0  0
  -36.7566   64.4983   62.8558 H   0  0  0  0  0  0  0  0  0  0  0  0
  -34.3243   62.8011   64.4016 O   0  0  0  0  0  0  0  0  0  0  0  0
  -34.0031   63.8214   65.3691 C   0  0  0  0  0  0  0  0  0  0  0  0
  -34.3918   64.3957   67.6628 O   0  0  0  0  0  0  0  0  0  0  0  0
  -34.3508   63.3013   66.7422 C   0  0  0  0  0  0  0  0  0  0  0  0
  -33.5439   64.8663   67.6435 H   0  0  0  0  0  0  0  0  0  0  0  0
  -36.2343   62.5735   68.0617 O   0  0  0  0  0  0  0  0  0  0  0  0
  -35.6641   62.5565   66.7593 C   0  0  0  0  0  0  0  0  0  0  0  0
  -37.0758   62.0910   68.0526 H   0  0  0  0  0  0  0  0  0  0  0  0
  -39.2874   60.0682   63.7657 O   0  0  0  0  0  0  0  0  0  0  0  0
  -41.1221   61.3404   64.0404 O   0  0  0  0  0  0  0  0  0  0  0  0
  -40.3828   60.4795   64.4328 C   0  0  0  0  0  0  0  0  0  0  0  0
  -40.5780   59.7232   65.7102 C   0  0  0  0  0  0  0  0  0  0  0  0
  -41.5018   58.5253   65.5150 C   0  0  0  0  0  0  0  0  0  0  0  0
  -42.7195   58.5313   66.4245 C   0  0  0  0  0  0  0  0  0  0  0  0
  -43.7848   57.5170   66.0238 C   0  0  0  0  0  0  0  0  0  0  0  0
  -44.7858   58.0411   65.0111 C   0  0  0  0  0  0  0  0  0  0  0  0
  -45.3828   59.4087   65.3550 C   0  0  0  0  0  0  0  0  0  0  0  0
  -46.9112   59.4779   65.3279 C   0  0  0  0  0  0  0  0  0  0  0  0
  -47.5146   58.3404   64.5598 C   0  0  0  0  0  0  0  0  0  0  0  0
  -48.4233   58.4274   63.6079 C   0  0  0  0  0  0  0  0  0  0  0  0
  -49.0436   59.6874   63.0923 C   0  0  0  0  0  0  0  0  0  0  0  0
  -50.0345   59.4282   61.9612 C   0  0  0  0  0  0  0  0  0  0  0  0
  -50.9465   58.2397   62.2104 C   0  0  0  0  0  0  0  0  0  0  0  0
  -51.0434   57.2876   61.0309 C   0  0  0  0  0  0  0  0  0  0  0  0
  -50.2072   57.6893   59.8271 C   0  0  0  0  0  0  0  0  0  0  0  0
  -49.0469   56.7448   59.5533 C   0  0  0  0  0  0  0  0  0  0  0  0
  -47.6810   57.3402   59.8319 C   0  0  0  0  0  0  0  0  0  0  0  0
  -46.8350   57.4585   58.5949 C   0  0  0  0  0  0  0  0  0  0  0  0
 21 22  1  0  0  0
  4  5  2  0  0  0
 25 24  1  0  0  0
 25 26  2  0  0  0
 25 27  1  0  0  0
 25 29  1  0  0  0
 22 20  1  0  0  0
  3  5  1  0  0  0
  3  2  1  0  0  0
 20 19  1  0  0  0
 24 23  1  0  0  0
 19 18  1  0  0  0
 18 17  1  0  0  0
 27 28  1  0  0  0
 17 16  1  0  0  0
 29 30  1  0  0  0
 16 15  1  0  0  0
 34 35  1  0  0  0
 34 36  1  0  0  0
 15 14  1  0  0  0
 31 32  1  0  0  0
 31 33  1  0  0  0
 14 13  1  0  0  0
 37  1  1  0  0  0
 37 39  1  0  0  0
 13 12  1  0  0  0
 38 39  2  0  0  0
 12 11  1  0  0  0
 11 10  1  0  0  0
 10  9  1  0  0  0
  9  8  1  0  0  0
  8  7  1  0  0  0
  7  6  1  0  0  0
  6  5  1  0  0  0
  2  1  1  0  0  0
  1 23  1  0  0  0
 30 32  1  0  0  0
 32 35  1  0  0  0
 39 40  1  0  0  0
 40 41  1  0  0  0
 41 42  1  0  0  0
 42 43  1  0  0  0
 43 44  1  0  0  0
 44 45  1  0  0  0
 45 46  1  0  0  0
 46 47  1  0  0  0
 47 48  2  0  0  0
 48 49  1  0  0  0
 49 50  1  0  0  0
 50 51  1  0  0  0
 51 52  1  0  0  0
 52 53  1  0  0  0
 53 54  1  0  0  0
 54 55  1  0  0  0
 55 56  1  0  0  0
M  CHG 1  26  -1
M  END
> <minimizedAffinity>
-9.08875

> <CNNscore>
0.4658480287

> <CNNaffinity>
7.5425696373

> <CNN_VS>
3.5136911869

> <CNNaffinity_variance>
1.0361053944

$$$$
/media/chris/experiments/cd1a-new-docking/inputs/ligands/7sh4_ligand.pdb


 56 55  0  0  0  0  0  0  0  0999 V2000
  -39.0538   59.7619   65.1160 C   0  0  0  0  0  0  0  0  0  0  0  0
  -39.9991   60.0520   66.2473 C   0  0  0  0  0  0  0  0  0  0  0  0
  -40.9035   58.9273   66.2439 O   0  0  0  0  0  0  0  0  0  0  0  0
  -42.5518   59.7973   67.4789 O   0  0  0  0  0  0  0  0  0  0  0  0
  -42.1841   59.1810   66.5153 C   0  0  0  0  0  0  0  0  0  0  0  0
  -43.0780   58.7087   65.4050 C   0  0  0  0  0  0  0  0  0  0  0  0
  -43.9765   57.5439   65.7847 C   0  0  0  0  0  0  0  0  0  0  0  0
  -45.3597   57.9861   66.2136 C   0  0  0  0  0  0  0  0  0  0  0  0
  -45.7988   59.3065   65.6223 C   0  0  0  0  0  0  0  0  0  0  0  0
  -47.2987   59.5133   65.6809 C   0  0  0  0  0  0  0  0  0  0  0  0
  -48.0484   58.7257   64.6343 C   0  0  0  0  0  0  0  0  0  0  0  0
  -49.3076   58.0924   65.1642 C   0  0  0  0  0  0  0  0  0  0  0  0
  -50.4576   59.0654   65.3008 C   0  0  0  0  0  0  0  0  0  0  0  0
  -50.8090   59.7437   63.9921 C   0  0  0  0  0  0  0  0  0  0  0  0
  -51.1778   58.7855   62.8790 C   0  0  0  0  0  0  0  0  0  0  0  0
  -50.2760   58.8877   61.6542 C   0  0  0  0  0  0  0  0  0  0  0  0
  -49.9943   57.5568   60.9836 C   0  0  0  0  0  0  0  0  0  0  0  0
  -49.4787   57.6943   59.5657 C   0  0  0  0  0  0  0  0  0  0  0  0
  -48.4690   56.6235   59.1769 C   0  0  0  0  0  0  0  0  0  0  0  0
  -48.3600   56.4066   57.6782 C   0  0  0  0  0  0  0  0  0  0  0  0
  -46.3264   57.8663   57.9420 C   0  0  0  0  0  0  0  0  0  0  0  0
  -47.0562   56.8771   57.0619 C   0  0  0  0  0  0  0  0  0  0  0  0
  -38.1143   60.9110   64.8543 C   0  0  0  0  0  0  0  0  0  0  0  0
  -37.6398   61.4214   66.1204 O   0  0  0  0  0  0  0  0  0  0  0  0
  -36.3704   62.3883   66.2449 P   0  0  0  0  0  0  0  0  0  0  0  0
  -36.6854   63.6506   65.5419 O   0  0  0  0  0  0  0  0  0  0  0  0
  -35.9740   62.4478   67.6725 O   0  0  0  0  0  0  0  0  0  0  0  0
  -36.6704   62.8894   68.1833 H   0  0  0  0  0  0  0  0  0  0  0  0
  -35.2023   61.6575   65.4422 O   0  0  0  0  0  0  0  0  0  0  0  0
  -34.0772   62.4169   64.9547 C   0  0  0  0  0  0  0  0  0  0  0  0
  -35.2370   61.6441   63.0053 O   0  0  0  0  0  0  0  0  0  0  0  0
  -34.0648   62.3347   63.4481 C   0  0  0  0  0  0  0  0  0  0  0  0
  -35.2775   60.7721   63.4282 H   0  0  0  0  0  0  0  0  0  0  0  0
  -34.3518   64.7142   63.7208 O   0  0  0  0  0  0  0  0  0  0  0  0
  -33.9856   63.6956   62.7988 C   0  0  0  0  0  0  0  0  0  0  0  0
  -34.2948   65.5795   63.2862 H   0  0  0  0  0  0  0  0  0  0  0  0
  -39.8450   59.4279   63.9276 O   0  0  0  0  0  0  0  0  0  0  0  0
  -41.0550   61.3079   63.6792 O   0  0  0  0  0  0  0  0  0  0  0  0
  -40.3442   60.4576   63.2172 C   0  0  0  0  0  0  0  0  0  0  0  0
  -39.8925   60.4251   61.7900 C   0  0  0  0  0  0  0  0  0  0  0  0
  -39.0577   59.1829   61.4962 C   0  0  0  0  0  0  0  0  0  0  0  0
  -38.3425   59.2237   60.1557 C   0  0  0  0  0  0  0  0  0  0  0  0
  -37.1573   58.2689   60.0677 C   0  0  0  0  0  0  0  0  0  0  0  0
  -37.2817   57.2308   58.9681 C   0  0  0  0  0  0  0  0  0  0  0  0
  -36.3612   57.4626   57.7664 C   0  0  0  0  0  0  0  0  0  0  0  0
  -34.8816   57.6540   58.1065 C   0  0  0  0  0  0  0  0  0  0  0  0
  -34.1600   56.3470   58.2442 C   0  0  0  0  0  0  0  0  0  0  0  0
  -33.8757   55.7192   59.3687 C   0  0  0  0  0  0  0  0  0  0  0  0
  -34.2179   56.1830   60.7493 C   0  0  0  0  0  0  0  0  0  0  0  0
  -32.9793   56.5242   61.5728 C   0  0  0  0  0  0  0  0  0  0  0  0
  -32.6011   57.9942   61.5241 C   0  0  0  0  0  0  0  0  0  0  0  0
  -33.0688   58.7846   62.7340 C   0  0  0  0  0  0  0  0  0  0  0  0
  -33.3313   57.9437   63.9724 C   0  0  0  0  0  0  0  0  0  0  0  0
  -34.5691   58.3731   64.7449 C   0  0  0  0  0  0  0  0  0  0  0  0
  -35.8265   58.4658   63.9033 C   0  0  0  0  0  0  0  0  0  0  0  0
  -36.4293   57.1206   63.6084 C   0  0  0  0  0  0  0  0  0  0  0  0
 21 22  1  0  0  0
  4  5  2  0  0  0
 25 24  1  0  0  0
 25 26  2  0  0  0
 25 27  1  0  0  0
 25 29  1  0  0  0
 22 20  1  0  0  0
  3  5  1  0  0  0
  3  2  1  0  0  0
 20 19  1  0  0  0
 24 23  1  0  0  0
 19 18  1  0  0  0
 18 17  1  0  0  0
 27 28  1  0  0  0
 17 16  1  0  0  0
 29 30  1  0  0  0
 16 15  1  0  0  0
 34 35  1  0  0  0
 34 36  1  0  0  0
 15 14  1  0  0  0
 31 32  1  0  0  0
 31 33  1  0  0  0
 14 13  1  0  0  0
 37  1  1  0  0  0
 37 39  1  0  0  0
 13 12  1  0  0  0
 38 39  2  0  0  0
 12 11  1  0  0  0
 11 10  1  0  0  0
 10  9  1  0  0  0
  9  8  1  0  0  0
  8  7  1  0  0  0
  7  6  1  0  0  0
  6  5  1  0  0  0
  2  1  1  0  0  0
  1 23  1  0  0  0
 30 32  1  0  0  0
 32 35  1  0  0  0
 39 40  1  0  0  0
 40 41  1  0  0  0
 41 42  1  0  0  0
 42 43  1  0  0  0
 43 44  1  0  0  0
 44 45  1  0  0  0
 45 46  1  0  0  0
 46 47  1  0  0  0
 47 48  2  0  0  0
 48 49  1  0  0  0
 49 50  1  0  0  0
 50 51  1  0  0  0
 51 52  1  0  0  0
 52 53  1  0  0  0
 53 54  1  0  0  0
 54 55  1  0  0  0
 55 56  1  0  0  0
M  CHG 1  26  -1
M  END
> <minimizedAffinity>
-8.33491

> <CNNscore>
0.4233367145

> <CNNaffinity>
7.3364615440

> <CNN_VS>
3.1057934761

> <CNNaffinity_variance>
0.8428651690

$$$$
/media/chris/experiments/cd1a-new-docking/inputs/ligands/7sh4_ligand.pdb


 56 55  0  0  0  0  0  0  0  0999 V2000
  -37.5623   60.8608   65.4096 C   0  0  0  0  0  0  0  0  0  0  0  0
  -38.5546   59.9785   66.1129 C   0  0  0  0  0  0  0  0  0  0  0  0
  -39.8344   60.5543   65.7755 O   0  0  0  0  0  0  0  0  0  0  0  0
  -40.6581   59.2310   64.1726 O   0  0  0  0  0  0  0  0  0  0  0  0
  -40.7496   59.7327   65.2604 C   0  0  0  0  0  0  0  0  0  0  0  0
  -41.8278   59.4267   66.2598 C   0  0  0  0  0  0  0  0  0  0  0  0
  -42.9974   58.6421   65.6899 C   0  0  0  0  0  0  0  0  0  0  0  0
  -44.3167   59.0011   66.3405 C   0  0  0  0  0  0  0  0  0  0  0  0
  -45.5332   58.5589   65.5592 C   0  0  0  0  0  0  0  0  0  0  0  0
  -46.8163   58.6439   66.3606 C   0  0  0  0  0  0  0  0  0  0  0  0
  -48.0422   58.8335   65.5011 C   0  0  0  0  0  0  0  0  0  0  0  0
  -48.1086   60.1959   64.8630 C   0  0  0  0  0  0  0  0  0  0  0  0
  -48.9919   60.2418   63.6360 C   0  0  0  0  0  0  0  0  0  0  0  0
  -50.4255   59.8502   63.9317 C   0  0  0  0  0  0  0  0  0  0  0  0
  -50.8788   58.5878   63.2288 C   0  0  0  0  0  0  0  0  0  0  0  0
  -50.6955   58.6254   61.7159 C   0  0  0  0  0  0  0  0  0  0  0  0
  -50.9949   57.3083   61.0260 C   0  0  0  0  0  0  0  0  0  0  0  0
  -49.8227   56.7620   60.2369 C   0  0  0  0  0  0  0  0  0  0  0  0
  -48.8474   57.8344   59.7717 C   0  0  0  0  0  0  0  0  0  0  0  0
  -47.6233   57.2778   59.0669 C   0  0  0  0  0  0  0  0  0  0  0  0
  -47.5891   56.5877   56.6465 C   0  0  0  0  0  0  0  0  0  0  0  0
  -47.9136   56.1767   58.0648 C   0  0  0  0  0  0  0  0  0  0  0  0
  -36.5261   60.0625   64.6607 C   0  0  0  0  0  0  0  0  0  0  0  0
  -37.0212   59.7894   63.3307 O   0  0  0  0  0  0  0  0  0  0  0  0
  -36.9917   58.3286   62.6772 P   0  0  0  0  0  0  0  0  0  0  0  0
  -35.9173   57.5543   63.3351 O   0  0  0  0  0  0  0  0  0  0  0  0
  -38.3721   57.7877   62.6937 O   0  0  0  0  0  0  0  0  0  0  0  0
  -38.6509   57.6409   63.6111 H   0  0  0  0  0  0  0  0  0  0  0  0
  -36.5725   58.5552   61.1554 O   0  0  0  0  0  0  0  0  0  0  0  0
  -37.3649   57.9815   60.0957 C   0  0  0  0  0  0  0  0  0  0  0  0
  -38.6299   58.5529   58.1423 O   0  0  0  0  0  0  0  0  0  0  0  0
  -37.9201   59.1050   59.2552 C   0  0  0  0  0  0  0  0  0  0  0  0
  -38.0412   57.9660   57.6424 H   0  0  0  0  0  0  0  0  0  0  0  0
  -39.7692   60.6527   59.1924 O   0  0  0  0  0  0  0  0  0  0  0  0
  -38.8223   60.0223   60.0454 C   0  0  0  0  0  0  0  0  0  0  0  0
  -40.3386   61.2368   59.7172 H   0  0  0  0  0  0  0  0  0  0  0  0
  -36.9488   61.7482   66.4025 O   0  0  0  0  0  0  0  0  0  0  0  0
  -36.5608   63.5554   65.1205 O   0  0  0  0  0  0  0  0  0  0  0  0
  -36.1867   62.7550   65.9336 C   0  0  0  0  0  0  0  0  0  0  0  0
  -34.8269   62.7674   66.5600 C   0  0  0  0  0  0  0  0  0  0  0  0
  -34.0984   64.0796   66.2883 C   0  0  0  0  0  0  0  0  0  0  0  0
  -32.6805   63.9018   65.7705 C   0  0  0  0  0  0  0  0  0  0  0  0
  -32.0529   65.1923   65.2561 C   0  0  0  0  0  0  0  0  0  0  0  0
  -32.4996   65.5815   63.8591 C   0  0  0  0  0  0  0  0  0  0  0  0
  -31.4893   65.2587   62.7545 C   0  0  0  0  0  0  0  0  0  0  0  0
  -31.9815   64.2782   61.6877 C   0  0  0  0  0  0  0  0  0  0  0  0
  -32.8059   63.1720   62.2746 C   0  0  0  0  0  0  0  0  0  0  0  0
  -32.4209   61.9276   62.4815 C   0  0  0  0  0  0  0  0  0  0  0  0
  -31.0722   61.3582   62.1731 C   0  0  0  0  0  0  0  0  0  0  0  0
  -31.0560   59.8336   62.2341 C   0  0  0  0  0  0  0  0  0  0  0  0
  -32.4273   59.2177   62.4498 C   0  0  0  0  0  0  0  0  0  0  0  0
  -32.5144   57.7608   62.0290 C   0  0  0  0  0  0  0  0  0  0  0  0
  -33.3992   57.5064   60.8199 C   0  0  0  0  0  0  0  0  0  0  0  0
  -33.9490   56.0896   60.7590 C   0  0  0  0  0  0  0  0  0  0  0  0
  -34.3938   55.6537   59.3770 C   0  0  0  0  0  0  0  0  0  0  0  0
  -34.2338   56.7363   58.3463 C   0  0  0  0  0  0  0  0  0  0  0  0
 21 22  1  0  0  0
  4  5  2  0  0  0
 25 24  1  0  0  0
 25 26  2  0  0  0
 25 27  1  0  0  0
 25 29  1  0  0  0
 22 20  1  0  0  0
  3  5  1  0  0  0
  3  2  1  0  0  0
 20 19  1  0  0  0
 24 23  1  0  0  0
 19 18  1  0  0  0
 18 17  1  0  0  0
 27 28  1  0  0  0
 17 16  1  0  0  0
 29 30  1  0  0  0
 16 15  1  0  0  0
 34 35  1  0  0  0
 34 36  1  0  0  0
 15 14  1  0  0  0
 31 32  1  0  0  0
 31 33  1  0  0  0
 14 13  1  0  0  0
 37  1  1  0  0  0
 37 39  1  0  0  0
 13 12  1  0  0  0
 38 39  2  0  0  0
 12 11  1  0  0  0
 11 10  1  0  0  0
 10  9  1  0  0  0
  9  8  1  0  0  0
  8  7  1  0  0  0
  7  6  1  0  0  0
  6  5  1  0  0  0
  2  1  1  0  0  0
  1 23  1  0  0  0
 30 32  1  0  0  0
 32 35  1  0  0  0
 39 40  1  0  0  0
 40 41  1  0  0  0
 41 42  1  0  0  0
 42 43  1  0  0  0
 43 44  1  0  0  0
 44 45  1  0  0  0
 45 46  1  0  0  0
 46 47  1  0  0  0
 47 48  2  0  0  0
 48 49  1  0  0  0
 49 50  1  0  0  0
 50 51  1  0  0  0
 51 52  1  0  0  0
 52 53  1  0  0  0
 53 54  1  0  0  0
 54 55  1  0  0  0
 55 56  1  0  0  0
M  CHG 1  26  -1
M  END
> <minimizedAffinity>
-8.65945

> <CNNscore>
0.4226560593

> <CNNaffinity>
6.9130873680

> <CNN_VS>
2.9218583107

> <CNNaffinity_variance>
0.5696467161

$$$$
/media/chris/experiments/cd1a-new-docking/inputs/ligands/7sh4_ligand.pdb


 56 55  0  0  0  0  0  0  0  0999 V2000
  -40.2220   60.0196   65.6251 C   0  0  0  0  0  0  0  0  0  0  0  0
  -40.7130   60.5612   64.3123 C   0  0  0  0  0  0  0  0  0  0  0  0
  -40.0288   59.7597   63.3261 O   0  0  0  0  0  0  0  0  0  0  0  0
  -38.3864   60.8991   62.3244 O   0  0  0  0  0  0  0  0  0  0  0  0
  -39.4817   60.4062   62.2962 C   0  0  0  0  0  0  0  0  0  0  0  0
  -40.3558   60.3241   61.0779 C   0  0  0  0  0  0  0  0  0  0  0  0
  -39.5905   60.3030   59.7655 C   0  0  0  0  0  0  0  0  0  0  0  0
  -38.8612   58.9966   59.5331 C   0  0  0  0  0  0  0  0  0  0  0  0
  -37.3562   59.1292   59.4757 C   0  0  0  0  0  0  0  0  0  0  0  0
  -36.7678   58.6488   58.1646 C   0  0  0  0  0  0  0  0  0  0  0  0
  -37.3482   57.3360   57.6985 C   0  0  0  0  0  0  0  0  0  0  0  0
  -36.4013   56.1785   57.8741 C   0  0  0  0  0  0  0  0  0  0  0  0
  -36.4617   55.5570   59.2518 C   0  0  0  0  0  0  0  0  0  0  0  0
  -35.0988   55.1393   59.7658 C   0  0  0  0  0  0  0  0  0  0  0  0
  -33.9935   56.1286   59.4607 C   0  0  0  0  0  0  0  0  0  0  0  0
  -33.9156   57.2886   60.4468 C   0  0  0  0  0  0  0  0  0  0  0  0
  -33.5013   56.8800   61.8473 C   0  0  0  0  0  0  0  0  0  0  0  0
  -33.6508   57.9902   62.8673 C   0  0  0  0  0  0  0  0  0  0  0  0
  -35.0529   58.5801   62.9261 C   0  0  0  0  0  0  0  0  0  0  0  0
  -36.1028   57.6032   63.4243 C   0  0  0  0  0  0  0  0  0  0  0  0
  -38.5061   57.0494   62.9209 C   0  0  0  0  0  0  0  0  0  0  0  0
  -37.1004   57.1531   62.3740 C   0  0  0  0  0  0  0  0  0  0  0  0
  -38.7441   59.7252   65.5989 C   0  0  0  0  0  0  0  0  0  0  0  0
  -38.0500   60.7635   66.3260 O   0  0  0  0  0  0  0  0  0  0  0  0
  -36.8048   61.5643   65.7177 P   0  0  0  0  0  0  0  0  0  0  0  0
  -35.6376   60.6564   65.7069 O   0  0  0  0  0  0  0  0  0  0  0  0
  -37.2349   62.1869   64.4426 O   0  0  0  0  0  0  0  0  0  0  0  0
  -37.4228   61.4931   63.7913 H   0  0  0  0  0  0  0  0  0  0  0  0
  -36.5066   62.7352   66.7584 O   0  0  0  0  0  0  0  0  0  0  0  0
  -35.8492   63.9412   66.3186 C   0  0  0  0  0  0  0  0  0  0  0  0
  -34.2268   62.8392   67.6954 O   0  0  0  0  0  0  0  0  0  0  0  0
  -34.3925   63.8563   66.7029 C   0  0  0  0  0  0  0  0  0  0  0  0
  -34.8039   63.0284   68.4517 H   0  0  0  0  0  0  0  0  0  0  0  0
  -34.2738   63.2066   64.3829 O   0  0  0  0  0  0  0  0  0  0  0  0
  -33.5005   63.5773   65.5170 C   0  0  0  0  0  0  0  0  0  0  0  0
  -33.6843   63.0317   63.6327 H   0  0  0  0  0  0  0  0  0  0  0  0
  -41.0064   58.8252   65.9539 O   0  0  0  0  0  0  0  0  0  0  0  0
  -42.5229   59.6763   67.3809 O   0  0  0  0  0  0  0  0  0  0  0  0
  -42.2588   59.0233   66.4085 C   0  0  0  0  0  0  0  0  0  0  0  0
  -43.2809   58.3485   65.5473 C   0  0  0  0  0  0  0  0  0  0  0  0
  -43.9290   57.1705   66.2678 C   0  0  0  0  0  0  0  0  0  0  0  0
  -45.4357   57.2961   66.4229 C   0  0  0  0  0  0  0  0  0  0  0  0
  -46.0472   58.3980   65.5650 C   0  0  0  0  0  0  0  0  0  0  0  0
  -47.2872   57.9699   64.8025 C   0  0  0  0  0  0  0  0  0  0  0  0
  -48.5093   57.6880   65.6810 C   0  0  0  0  0  0  0  0  0  0  0  0
  -49.7188   58.5892   65.4233 C   0  0  0  0  0  0  0  0  0  0  0  0
  -49.4576   59.5879   64.3360 C   0  0  0  0  0  0  0  0  0  0  0  0
  -50.0748   59.6651   63.1729 C   0  0  0  0  0  0  0  0  0  0  0  0
  -51.1720   58.7676   62.6947 C   0  0  0  0  0  0  0  0  0  0  0  0
  -50.6768   57.7212   61.7005 C   0  0  0  0  0  0  0  0  0  0  0  0
  -49.8886   58.3065   60.5418 C   0  0  0  0  0  0  0  0  0  0  0  0
  -49.7132   57.3470   59.3774 C   0  0  0  0  0  0  0  0  0  0  0  0
  -48.4285   56.5363   59.4176 C   0  0  0  0  0  0  0  0  0  0  0  0
  -47.1715   57.3928   59.4186 C   0  0  0  0  0  0  0  0  0  0  0  0
  -46.6776   57.7744   58.0373 C   0  0  0  0  0  0  0  0  0  0  0  0
  -45.2261   58.1651   58.0262 C   0  0  0  0  0  0  0  0  0  0  0  0
 21 22  1  0  0  0
  4  5  2  0  0  0
 25 24  1  0  0  0
 25 26  2  0  0  0
 25 27  1  0  0  0
 25 29  1  0  0  0
 22 20  1  0  0  0
  3  5  1  0  0  0
  3  2  1  0  0  0
 20 19  1  0  0  0
 24 23  1  0  0  0
 19 18  1  0  0  0
 18 17  1  0  0  0
 27 28  1  0  0  0
 17 16  1  0  0  0
 29 30  1  0  0  0
 16 15  1  0  0  0
 34 35  1  0  0  0
 34 36  1  0  0  0
 15 14  1  0  0  0
 31 32  1  0  0  0
 31 33  1  0  0  0
 14 13  1  0  0  0
 37  1  1  0  0  0
 37 39  1  0  0  0
 13 12  1  0  0  0
 38 39  2  0  0  0
 12 11  1  0  0  0
 11 10  1  0  0  0
 10  9  1  0  0  0
  9  8  1  0  0  0
  8  7  1  0  0  0
  7  6  1  0  0  0
  6  5  1  0  0  0
  2  1  1  0  0  0
  1 23  1  0  0  0
 30 32  1  0  0  0
 32 35  1  0  0  0
 39 40  1  0  0  0
 40 41  1  0  0  0
 41 42  1  0  0  0
 42 43  1  0  0  0
 43 44  1  0  0  0
 44 45  1  0  0  0
 45 46  1  0  0  0
 46 47  1  0  0  0
 47 48  2  0  0  0
 48 49  1  0  0  0
 49 50  1  0  0  0
 50 51  1  0  0  0
 51 52  1  0  0  0
 52 53  1  0  0  0
 53 54  1  0  0  0
 54 55  1  0  0  0
 55 56  1  0  0  0
M  CHG 1  26  -1
M  END
> <minimizedAffinity>
-8.64131

> <CNNscore>
0.4087092578

> <CNNaffinity>
7.5086059570

> <CNN_VS>
3.0688366890

> <CNNaffinity_variance>
0.7902873158

$$$$
/media/chris/experiments/cd1a-new-docking/inputs/ligands/7sh4_ligand.pdb


 56 55  0  0  0  0  0  0  0  0999 V2000
  -39.0640   58.5774   63.8026 C   0  0  0  0  0  0  0  0  0  0  0  0
  -37.9021   59.2437   64.4836 C   0  0  0  0  0  0  0  0  0  0  0  0
  -37.7027   60.4566   63.7271 O   0  0  0  0  0  0  0  0  0  0  0  0
  -36.1088   61.7686   62.8686 O   0  0  0  0  0  0  0  0  0  0  0  0
  -36.4545   60.9182   63.6436 C   0  0  0  0  0  0  0  0  0  0  0  0
  -35.5857   60.3304   64.7181 C   0  0  0  0  0  0  0  0  0  0  0  0
  -35.0378   61.3514   65.7008 C   0  0  0  0  0  0  0  0  0  0  0  0
  -36.1281   62.1346   66.4012 C   0  0  0  0  0  0  0  0  0  0  0  0
  -35.9255   63.6328   66.3801 C   0  0  0  0  0  0  0  0  0  0  0  0
  -34.5088   64.0449   66.7249 C   0  0  0  0  0  0  0  0  0  0  0  0
  -33.8540   64.8777   65.6500 C   0  0  0  0  0  0  0  0  0  0  0  0
  -32.3585   64.7080   65.6032 C   0  0  0  0  0  0  0  0  0  0  0  0
  -31.8957   63.7570   64.5218 C   0  0  0  0  0  0  0  0  0  0  0  0
  -32.9192   63.5829   63.4181 C   0  0  0  0  0  0  0  0  0  0  0  0
  -32.6241   62.4333   62.4775 C   0  0  0  0  0  0  0  0  0  0  0  0
  -31.2011   61.8977   62.5867 C   0  0  0  0  0  0  0  0  0  0  0  0
  -31.0366   60.4776   62.0802 C   0  0  0  0  0  0  0  0  0  0  0  0
  -32.2665   59.6179   62.2887 C   0  0  0  0  0  0  0  0  0  0  0  0
  -31.9714   58.1246   62.3063 C   0  0  0  0  0  0  0  0  0  0  0  0
  -33.0980   57.2759   61.7446 C   0  0  0  0  0  0  0  0  0  0  0  0
  -35.2778   57.1877   63.0001 C   0  0  0  0  0  0  0  0  0  0  0  0
  -34.4837   57.8705   61.9097 C   0  0  0  0  0  0  0  0  0  0  0  0
  -38.7056   58.0848   62.4240 C   0  0  0  0  0  0  0  0  0  0  0  0
  -39.2116   59.0233   61.4486 O   0  0  0  0  0  0  0  0  0  0  0  0
  -38.3518   59.5163   60.1918 P   0  0  0  0  0  0  0  0  0  0  0  0
  -39.2813   59.7570   59.0671 O   0  0  0  0  0  0  0  0  0  0  0  0
  -37.4733   60.6237   60.6395 O   0  0  0  0  0  0  0  0  0  0  0  0
  -38.0167   61.3899   60.8813 H   0  0  0  0  0  0  0  0  0  0  0  0
  -37.4225   58.2797   59.8046 O   0  0  0  0  0  0  0  0  0  0  0  0
  -36.9220   58.1468   58.4585 C   0  0  0  0  0  0  0  0  0  0  0  0
  -36.8681   55.9929   57.4095 O   0  0  0  0  0  0  0  0  0  0  0  0
  -36.1908   56.8313   58.3505 C   0  0  0  0  0  0  0  0  0  0  0  0
  -37.7938   55.8866   57.6791 H   0  0  0  0  0  0  0  0  0  0  0  0
  -33.9050   56.1441   58.6993 O   0  0  0  0  0  0  0  0  0  0  0  0
  -34.7468   57.0077   57.9461 C   0  0  0  0  0  0  0  0  0  0  0  0
  -32.9832   56.2718   58.4258 H   0  0  0  0  0  0  0  0  0  0  0  0
  -40.1824   59.5248   63.7655 O   0  0  0  0  0  0  0  0  0  0  0  0
  -40.9753   60.7886   65.4491 O   0  0  0  0  0  0  0  0  0  0  0  0
  -40.8561   59.7196   64.9155 C   0  0  0  0  0  0  0  0  0  0  0  0
  -41.4527   58.4494   65.4376 C   0  0  0  0  0  0  0  0  0  0  0  0
  -42.8988   58.6513   65.8787 C   0  0  0  0  0  0  0  0  0  0  0  0
  -43.6815   57.3579   66.0362 C   0  0  0  0  0  0  0  0  0  0  0  0
  -44.9615   57.3153   65.2091 C   0  0  0  0  0  0  0  0  0  0  0  0
  -45.7053   58.6367   65.1549 C   0  0  0  0  0  0  0  0  0  0  0  0
  -47.1408   58.5816   65.6850 C   0  0  0  0  0  0  0  0  0  0  0  0
  -47.8435   59.9356   65.8051 C   0  0  0  0  0  0  0  0  0  0  0  0
  -48.1678   60.5245   64.4649 C   0  0  0  0  0  0  0  0  0  0  0  0
  -49.2920   60.3768   63.7912 C   0  0  0  0  0  0  0  0  0  0  0  0
  -50.4855   59.5875   64.2278 C   0  0  0  0  0  0  0  0  0  0  0  0
  -50.7843   58.4186   63.2935 C   0  0  0  0  0  0  0  0  0  0  0  0
  -50.2342   58.6042   61.8902 C   0  0  0  0  0  0  0  0  0  0  0  0
  -50.3368   57.3596   61.0255 C   0  0  0  0  0  0  0  0  0  0  0  0
  -50.0565   57.5929   59.5502 C   0  0  0  0  0  0  0  0  0  0  0  0
  -48.9308   56.7286   59.0034 C   0  0  0  0  0  0  0  0  0  0  0  0
  -47.7283   57.5103   58.5129 C   0  0  0  0  0  0  0  0  0  0  0  0
  -47.0677   56.8742   57.3217 C   0  0  0  0  0  0  0  0  0  0  0  0
 21 22  1  0  0  0
  4  5  2  0  0  0
 25 24  1  0  0  0
 25 26  2  0  0  0
 25 27  1  0  0  0
 25 29  1  0  0  0
 22 20  1  0  0  0
  3  5  1  0  0  0
  3  2  1  0  0  0
 20 19  1  0  0  0
 24 23  1  0  0  0
 19 18  1  0  0  0
 18 17  1  0  0  0
 27 28  1  0  0  0
 17 16  1  0  0  0
 29 30  1  0  0  0
 16 15  1  0  0  0
 34 35  1  0  0  0
 34 36  1  0  0  0
 15 14  1  0  0  0
 31 32  1  0  0  0
 31 33  1  0  0  0
 14 13  1  0  0  0
 37  1  1  0  0  0
 37 39  1  0  0  0
 13 12  1  0  0  0
 38 39  2  0  0  0
 12 11  1  0  0  0
 11 10  1  0  0  0
 10  9  1  0  0  0
  9  8  1  0  0  0
  8  7  1  0  0  0
  7  6  1  0  0  0
  6  5  1  0  0  0
  2  1  1  0  0  0
  1 23  1  0  0  0
 30 32  1  0  0  0
 32 35  1  0  0  0
 39 40  1  0  0  0
 40 41  1  0  0  0
 41 42  1  0  0  0
 42 43  1  0  0  0
 43 44  1  0  0  0
 44 45  1  0  0  0
 45 46  1  0  0  0
 46 47  1  0  0  0
 47 48  2  0  0  0
 48 49  1  0  0  0
 49 50  1  0  0  0
 50 51  1  0  0  0
 51 52  1  0  0  0
 52 53  1  0  0  0
 53 54  1  0  0  0
 54 55  1  0  0  0
 55 56  1  0  0  0
M  CHG 1  26  -1
M  END
> <minimizedAffinity>
-8.36193

> <CNNscore>
0.4048987031

> <CNNaffinity>
7.2087402344

> <CNN_VS>
2.9188096523

> <CNNaffinity_variance>
0.6340276599

$$$$
