/media/chris/experiments/cd1a-new-docking/inputs/ligands/7sh4_ligand.pdb


 56 55  0  0  0  0  0  0  0  0999 V2000
  -38.0449   59.7921   61.9603 C   0  0  0  0  0  0  0  0  0  0  0  0
  -39.4468   60.2603   62.2307 C   0  0  0  0  0  0  0  0  0  0  0  0
  -39.9094   59.3879   63.2833 O   0  0  0  0  0  0  0  0  0  0  0  0
  -41.1641   61.0342   64.1284 O   0  0  0  0  0  0  0  0  0  0  0  0
  -40.7100   59.9245   64.2046 C   0  0  0  0  0  0  0  0  0  0  0  0
  -41.0617   58.9235   65.2673 C   0  0  0  0  0  0  0  0  0  0  0  0
  -42.0006   59.4571   66.3359 C   0  0  0  0  0  0  0  0  0  0  0  0
  -43.2975   58.6801   66.4180 C   0  0  0  0  0  0  0  0  0  0  0  0
  -44.3569   59.1384   65.4414 C   0  0  0  0  0  0  0  0  0  0  0  0
  -45.7394   58.6177   65.7781 C   0  0  0  0  0  0  0  0  0  0  0  0
  -46.8423   59.5810   65.4128 C   0  0  0  0  0  0  0  0  0  0  0  0
  -48.0609   59.4388   66.2859 C   0  0  0  0  0  0  0  0  0  0  0  0
  -49.1305   58.5544   65.6844 C   0  0  0  0  0  0  0  0  0  0  0  0
  -50.3602   59.3304   65.2579 C   0  0  0  0  0  0  0  0  0  0  0  0
  -50.6249   59.2982   63.7672 C   0  0  0  0  0  0  0  0  0  0  0  0
  -50.4473   57.9203   63.1396 C   0  0  0  0  0  0  0  0  0  0  0  0
  -50.9336   57.8288   61.7061 C   0  0  0  0  0  0  0  0  0  0  0  0
  -49.9211   58.3249   60.6941 C   0  0  0  0  0  0  0  0  0  0  0  0
  -49.8986   57.5142   59.4058 C   0  0  0  0  0  0  0  0  0  0  0  0
  -48.5374   57.4786   58.7339 C   0  0  0  0  0  0  0  0  0  0  0  0
  -47.1197   56.5634   56.8662 C   0  0  0  0  0  0  0  0  0  0  0  0
  -48.3693   56.3834   57.6979 C   0  0  0  0  0  0  0  0  0  0  0  0
  -37.0345   60.5010   62.8255 C   0  0  0  0  0  0  0  0  0  0  0  0
  -36.9713   61.8882   62.4253 O   0  0  0  0  0  0  0  0  0  0  0  0
  -35.9520   62.9342   63.0802 P   0  0  0  0  0  0  0  0  0  0  0  0
  -35.0102   63.3754   62.0289 O   0  0  0  0  0  0  0  0  0  0  0  0
  -36.7432   63.9588   63.8034 O   0  0  0  0  0  0  0  0  0  0  0  0
  -37.2556   64.4807   63.1662 H   0  0  0  0  0  0  0  0  0  0  0  0
  -35.1268   62.1003   64.1602 O   0  0  0  0  0  0  0  0  0  0  0  0
  -34.3788   62.7871   65.1843 C   0  0  0  0  0  0  0  0  0  0  0  0
  -33.9240   62.7719   67.5370 O   0  0  0  0  0  0  0  0  0  0  0  0
  -34.7564   62.2016   66.5228 C   0  0  0  0  0  0  0  0  0  0  0  0
  -32.9923   62.6235   67.3120 H   0  0  0  0  0  0  0  0  0  0  0  0
  -36.3735   63.5987   67.6415 O   0  0  0  0  0  0  0  0  0  0  0  0
  -36.2120   62.4237   66.8574 C   0  0  0  0  0  0  0  0  0  0  0  0
  -37.3134   63.7243   67.8460 H   0  0  0  0  0  0  0  0  0  0  0  0
  -37.7627   59.9796   60.5337 O   0  0  0  0  0  0  0  0  0  0  0  0
  -38.1525   58.8494   58.6282 O   0  0  0  0  0  0  0  0  0  0  0  0
  -37.7580   58.8758   59.7621 C   0  0  0  0  0  0  0  0  0  0  0  0
  -37.1861   57.6926   60.4797 C   0  0  0  0  0  0  0  0  0  0  0  0
  -36.8678   56.5543   59.5155 C   0  0  0  0  0  0  0  0  0  0  0  0
  -35.5528   55.8499   59.8062 C   0  0  0  0  0  0  0  0  0  0  0  0
  -34.3794   56.8040   59.9980 C   0  0  0  0  0  0  0  0  0  0  0  0
  -33.6459   56.6230   61.3139 C   0  0  0  0  0  0  0  0  0  0  0  0
  -34.1130   57.5541   62.4364 C   0  0  0  0  0  0  0  0  0  0  0  0
  -33.1612   58.7062   62.7658 C   0  0  0  0  0  0  0  0  0  0  0  0
  -32.0504   58.8247   61.7657 C   0  0  0  0  0  0  0  0  0  0  0  0
  -31.1357   59.7735   61.7137 C   0  0  0  0  0  0  0  0  0  0  0  0
  -31.0147   60.9352   62.6486 C   0  0  0  0  0  0  0  0  0  0  0  0
  -31.7974   62.1536   62.1677 C   0  0  0  0  0  0  0  0  0  0  0  0
  -31.0525   63.4651   62.3446 C   0  0  0  0  0  0  0  0  0  0  0  0
  -31.8832   64.6894   62.0004 C   0  0  0  0  0  0  0  0  0  0  0  0
  -31.5596   65.9227   62.8272 C   0  0  0  0  0  0  0  0  0  0  0  0
  -32.5139   66.1386   63.9918 C   0  0  0  0  0  0  0  0  0  0  0  0
  -32.0461   65.5324   65.3000 C   0  0  0  0  0  0  0  0  0  0  0  0
  -32.8626   65.9882   66.4770 C   0  0  0  0  0  0  0  0  0  0  0  0
 21 22  1  0  0  0
  4  5  2  0  0  0
 25 24  1  0  0  0
 25 26  2  0  0  0
 25 27  1  0  0  0
 25 29  1  0  0  0
 22 20  1  0  0  0
  3  5  1  0  0  0
  3  2  1  0  0  0
 20 19  1  0  0  0
 24 23  1  0  0  0
 19 18  1  0  0  0
 18 17  1  0  0  0
 27 28  1  0  0  0
 17 16  1  0  0  0
 29 30  1  0  0  0
 16 15  1  0  0  0
 34 35  1  0  0  0
 34 36  1  0  0  0
 15 14  1  0  0  0
 31 32  1  0  0  0
 31 33  1  0  0  0
 14 13  1  0  0  0
 37  1  1  0  0  0
 37 39  1  0  0  0
 13 12  1  0  0  0
 38 39  2  0  0  0
 12 11  1  0  0  0
 11 10  1  0  0  0
 10  9  1  0  0  0
  9  8  1  0  0  0
  8  7  1  0  0  0
  7  6  1  0  0  0
  6  5  1  0  0  0
  2  1  1  0  0  0
  1 23  1  0  0  0
 30 32  1  0  0  0
 32 35  1  0  0  0
 39 40  1  0  0  0
 40 41  1  0  0  0
 41 42  1  0  0  0
 42 43  1  0  0  0
 43 44  1  0  0  0
 44 45  1  0  0  0
 45 46  1  0  0  0
 46 47  1  0  0  0
 47 48  2  0  0  0
 48 49  1  0  0  0
 49 50  1  0  0  0
 50 51  1  0  0  0
 51 52  1  0  0  0
 52 53  1  0  0  0
 53 54  1  0  0  0
 54 55  1  0  0  0
 55 56  1  0  0  0
M  CHG 1  26  -1
M  END
> <minimizedAffinity>
-8.57123

> <CNNscore>
0.7480400801

> <CNNaffinity>
7.2256865501

> <CNN_VS>
5.4051032066

> <CNNaffinity_variance>
0.3625923991

$$$$
/media/chris/experiments/cd1a-new-docking/inputs/ligands/7sh4_ligand.pdb


 56 55  0  0  0  0  0  0  0  0999 V2000
  -39.4764   59.0634   65.3115 C   0  0  0  0  0  0  0  0  0  0  0  0
  -40.7898   59.5828   65.8244 C   0  0  0  0  0  0  0  0  0  0  0  0
  -41.6782   58.4502   65.7195 O   0  0  0  0  0  0  0  0  0  0  0  0
  -42.6906   59.0402   67.6237 O   0  0  0  0  0  0  0  0  0  0  0  0
  -42.5385   58.2624   66.7207 C   0  0  0  0  0  0  0  0  0  0  0  0
  -43.3664   57.0291   66.5005 C   0  0  0  0  0  0  0  0  0  0  0  0
  -44.4849   57.2053   65.4875 C   0  0  0  0  0  0  0  0  0  0  0  0
  -45.3740   58.3913   65.7962 C   0  0  0  0  0  0  0  0  0  0  0  0
  -46.5060   58.5890   64.8137 C   0  0  0  0  0  0  0  0  0  0  0  0
  -47.5373   59.5916   65.2905 C   0  0  0  0  0  0  0  0  0  0  0  0
  -48.6321   58.9682   66.1213 C   0  0  0  0  0  0  0  0  0  0  0  0
  -50.0069   59.1990   65.5519 C   0  0  0  0  0  0  0  0  0  0  0  0
  -50.3827   58.2102   64.4707 C   0  0  0  0  0  0  0  0  0  0  0  0
  -50.4464   58.8429   63.0953 C   0  0  0  0  0  0  0  0  0  0  0  0
  -49.4747   58.2499   62.0967 C   0  0  0  0  0  0  0  0  0  0  0  0
  -49.7055   58.7130   60.6628 C   0  0  0  0  0  0  0  0  0  0  0  0
  -50.0339   57.5901   59.6978 C   0  0  0  0  0  0  0  0  0  0  0  0
  -49.4346   56.2575   60.0984 C   0  0  0  0  0  0  0  0  0  0  0  0
  -48.3295   55.7806   59.1664 C   0  0  0  0  0  0  0  0  0  0  0  0
  -48.2321   56.5811   57.8798 C   0  0  0  0  0  0  0  0  0  0  0  0
  -46.1768   57.5251   58.9846 C   0  0  0  0  0  0  0  0  0  0  0  0
  -46.9162   57.3096   57.6835 C   0  0  0  0  0  0  0  0  0  0  0  0
  -38.3056   59.8199   65.8847 C   0  0  0  0  0  0  0  0  0  0  0  0
  -37.1695   59.6529   65.0075 O   0  0  0  0  0  0  0  0  0  0  0  0
  -36.4522   60.8814   64.2737 P   0  0  0  0  0  0  0  0  0  0  0  0
  -36.0159   60.4247   62.9366 O   0  0  0  0  0  0  0  0  0  0  0  0
  -37.3465   62.0605   64.3670 O   0  0  0  0  0  0  0  0  0  0  0  0
  -38.1497   61.8990   63.8477 H   0  0  0  0  0  0  0  0  0  0  0  0
  -35.1476   61.1865   65.1384 O   0  0  0  0  0  0  0  0  0  0  0  0
  -34.5239   62.4851   65.0697 C   0  0  0  0  0  0  0  0  0  0  0  0
  -33.1732   63.9198   66.4334 O   0  0  0  0  0  0  0  0  0  0  0  0
  -34.2138   62.9388   66.4750 C   0  0  0  0  0  0  0  0  0  0  0  0
  -32.3996   63.5515   65.9788 H   0  0  0  0  0  0  0  0  0  0  0  0
  -36.1785   62.4526   67.7873 O   0  0  0  0  0  0  0  0  0  0  0  0
  -35.4272   63.4959   67.1802 C   0  0  0  0  0  0  0  0  0  0  0  0
  -36.9525   62.8294   68.2344 H   0  0  0  0  0  0  0  0  0  0  0  0
  -39.4962   59.1250   63.8467 O   0  0  0  0  0  0  0  0  0  0  0  0
  -40.2033   61.2601   63.8076 O   0  0  0  0  0  0  0  0  0  0  0  0
  -40.1188   60.1807   63.2883 C   0  0  0  0  0  0  0  0  0  0  0  0
  -40.6754   59.8531   61.9374 C   0  0  0  0  0  0  0  0  0  0  0  0
  -40.1744   60.8266   60.8754 C   0  0  0  0  0  0  0  0  0  0  0  0
  -39.6892   60.1534   59.6021 C   0  0  0  0  0  0  0  0  0  0  0  0
  -38.5421   59.1752   59.8286 C   0  0  0  0  0  0  0  0  0  0  0  0
  -37.9166   58.6511   58.5493 C   0  0  0  0  0  0  0  0  0  0  0  0
  -36.7586   57.6718   58.7616 C   0  0  0  0  0  0  0  0  0  0  0  0
  -36.9204   56.7186   59.9478 C   0  0  0  0  0  0  0  0  0  0  0  0
  -36.1730   55.4345   59.7465 C   0  0  0  0  0  0  0  0  0  0  0  0
  -34.8641   55.2738   59.7669 C   0  0  0  0  0  0  0  0  0  0  0  0
  -33.8466   56.3460   59.9981 C   0  0  0  0  0  0  0  0  0  0  0  0
  -33.3876   56.4094   61.4519 C   0  0  0  0  0  0  0  0  0  0  0  0
  -34.0930   57.4785   62.2677 C   0  0  0  0  0  0  0  0  0  0  0  0
  -33.2843   58.7540   62.4309 C   0  0  0  0  0  0  0  0  0  0  0  0
  -31.7804   58.5641   62.3231 C   0  0  0  0  0  0  0  0  0  0  0  0
  -31.0544   59.7810   61.7703 C   0  0  0  0  0  0  0  0  0  0  0  0
  -31.5275   61.1017   62.3446 C   0  0  0  0  0  0  0  0  0  0  0  0
  -30.9413   62.2888   61.6327 C   0  0  0  0  0  0  0  0  0  0  0  0
 21 22  1  0  0  0
  4  5  2  0  0  0
 25 24  1  0  0  0
 25 26  2  0  0  0
 25 27  1  0  0  0
 25 29  1  0  0  0
 22 20  1  0  0  0
  3  5  1  0  0  0
  3  2  1  0  0  0
 20 19  1  0  0  0
 24 23  1  0  0  0
 19 18  1  0  0  0
 18 17  1  0  0  0
 27 28  1  0  0  0
 17 16  1  0  0  0
 29 30  1  0  0  0
 16 15  1  0  0  0
 34 35  1  0  0  0
 34 36  1  0  0  0
 15 14  1  0  0  0
 31 32  1  0  0  0
 31 33  1  0  0  0
 14 13  1  0  0  0
 37  1  1  0  0  0
 37 39  1  0  0  0
 13 12  1  0  0  0
 38 39  2  0  0  0
 12 11  1  0  0  0
 11 10  1  0  0  0
 10  9  1  0  0  0
  9  8  1  0  0  0
  8  7  1  0  0  0
  7  6  1  0  0  0
  6  5  1  0  0  0
  2  1  1  0  0  0
  1 23  1  0  0  0
 30 32  1  0  0  0
 32 35  1  0  0  0
 39 40  1  0  0  0
 40 41  1  0  0  0
 41 42  1  0  0  0
 42 43  1  0  0  0
 43 44  1  0  0  0
 44 45  1  0  0  0
 45 46  1  0  0  0
 46 47  1  0  0  0
 47 48  2  0  0  0
 48 49  1  0  0  0
 49 50  1  0  0  0
 50 51  1  0  0  0
 51 52  1  0  0  0
 52 53  1  0  0  0
 53 54  1  0  0  0
 54 55  1  0  0  0
 55 56  1  0  0  0
M  CHG 1  26  -1
M  END
> <minimizedAffinity>
-8.54540

> <CNNscore>
0.7034683228

> <CNNaffinity>
7.6883344650

> <CNN_VS>
5.4084997177

> <CNNaffinity_variance>
0.4761955142

$$$$
/media/chris/experiments/cd1a-new-docking/inputs/ligands/7sh4_ligand.pdb


 56 55  0  0  0  0  0  0  0  0999 V2000
  -39.4395   60.5691   63.7411 C   0  0  0  0  0  0  0  0  0  0  0  0
  -40.1040   60.1221   62.4696 C   0  0  0  0  0  0  0  0  0  0  0  0
  -39.4085   60.8521   61.4369 O   0  0  0  0  0  0  0  0  0  0  0  0
  -40.2706   60.4687   59.4099 O   0  0  0  0  0  0  0  0  0  0  0  0
  -39.3960   60.3108   60.2184 C   0  0  0  0  0  0  0  0  0  0  0  0
  -38.1025   59.5947   59.9559 C   0  0  0  0  0  0  0  0  0  0  0  0
  -38.0780   58.8159   58.6516 C   0  0  0  0  0  0  0  0  0  0  0  0
  -36.8120   58.0040   58.4773 C   0  0  0  0  0  0  0  0  0  0  0  0
  -36.9233   56.8949   57.4557 C   0  0  0  0  0  0  0  0  0  0  0  0
  -36.6062   55.5279   58.0271 C   0  0  0  0  0  0  0  0  0  0  0  0
  -36.3684   55.5474   59.5173 C   0  0  0  0  0  0  0  0  0  0  0  0
  -35.0324   54.9725   59.9076 C   0  0  0  0  0  0  0  0  0  0  0  0
  -33.8595   55.7386   59.3372 C   0  0  0  0  0  0  0  0  0  0  0  0
  -33.5314   56.9852   60.1339 C   0  0  0  0  0  0  0  0  0  0  0  0
  -33.4275   56.7547   61.6270 C   0  0  0  0  0  0  0  0  0  0  0  0
  -32.4331   57.6755   62.3248 C   0  0  0  0  0  0  0  0  0  0  0  0
  -33.0805   58.8033   63.1052 C   0  0  0  0  0  0  0  0  0  0  0  0
  -34.5942   58.7390   63.1123 C   0  0  0  0  0  0  0  0  0  0  0  0
  -35.1710   58.0781   64.3564 C   0  0  0  0  0  0  0  0  0  0  0  0
  -36.4764   57.3444   64.1049 C   0  0  0  0  0  0  0  0  0  0  0  0
  -38.4069   57.0652   62.5140 C   0  0  0  0  0  0  0  0  0  0  0  0
  -36.9240   57.3239   62.6557 C   0  0  0  0  0  0  0  0  0  0  0  0
  -37.9511   60.7371   63.5733 C   0  0  0  0  0  0  0  0  0  0  0  0
  -37.5541   61.9906   64.1730 O   0  0  0  0  0  0  0  0  0  0  0  0
  -36.2073   62.7563   63.7708 P   0  0  0  0  0  0  0  0  0  0  0  0
  -35.5288   61.9681   62.7196 O   0  0  0  0  0  0  0  0  0  0  0  0
  -36.5472   64.1724   63.4916 O   0  0  0  0  0  0  0  0  0  0  0  0
  -37.1038   64.2209   62.6987 H   0  0  0  0  0  0  0  0  0  0  0  0
  -35.2945   62.7202   65.0779 O   0  0  0  0  0  0  0  0  0  0  0  0
  -35.7425   63.3632   66.2887 C   0  0  0  0  0  0  0  0  0  0  0  0
  -34.2555   64.4271   67.8376 O   0  0  0  0  0  0  0  0  0  0  0  0
  -34.8590   64.5589   66.5472 C   0  0  0  0  0  0  0  0  0  0  0  0
  -34.9474   64.3198   68.5088 H   0  0  0  0  0  0  0  0  0  0  0  0
  -34.1909   65.6977   64.5285 O   0  0  0  0  0  0  0  0  0  0  0  0
  -33.7951   64.7270   65.4890 C   0  0  0  0  0  0  0  0  0  0  0  0
  -33.4959   65.7916   63.8583 H   0  0  0  0  0  0  0  0  0  0  0  0
  -39.7599   59.6006   64.7943 O   0  0  0  0  0  0  0  0  0  0  0  0
  -40.6845   60.9671   66.3235 O   0  0  0  0  0  0  0  0  0  0  0  0
  -40.7115   59.9538   65.6796 C   0  0  0  0  0  0  0  0  0  0  0  0
  -41.8137   58.9429   65.7510 C   0  0  0  0  0  0  0  0  0  0  0  0
  -42.6742   59.1412   66.9948 C   0  0  0  0  0  0  0  0  0  0  0  0
  -44.0737   58.5608   66.8749 C   0  0  0  0  0  0  0  0  0  0  0  0
  -44.5508   58.4120   65.4347 C   0  0  0  0  0  0  0  0  0  0  0  0
  -45.8634   59.1155   65.1438 C   0  0  0  0  0  0  0  0  0  0  0  0
  -46.8082   59.2222   66.3442 C   0  0  0  0  0  0  0  0  0  0  0  0
  -48.2519   59.6003   66.0056 C   0  0  0  0  0  0  0  0  0  0  0  0
  -48.3516   60.3425   64.7067 C   0  0  0  0  0  0  0  0  0  0  0  0
  -49.3631   60.3164   63.8606 C   0  0  0  0  0  0  0  0  0  0  0  0
  -50.6298   59.5372   64.0230 C   0  0  0  0  0  0  0  0  0  0  0  0
  -51.1764   59.0302   62.6916 C   0  0  0  0  0  0  0  0  0  0  0  0
  -50.3151   57.9577   62.0479 C   0  0  0  0  0  0  0  0  0  0  0  0
  -50.9600   57.3018   60.8391 C   0  0  0  0  0  0  0  0  0  0  0  0
  -50.2262   57.5361   59.5292 C   0  0  0  0  0  0  0  0  0  0  0  0
  -48.9803   56.6780   59.3711 C   0  0  0  0  0  0  0  0  0  0  0  0
  -48.0392   57.1432   58.2776 C   0  0  0  0  0  0  0  0  0  0  0  0
  -48.0020   56.2046   57.1041 C   0  0  0  0  0  0  0  0  0  0  0  0
 21 22  1  0  0  0
  4  5  2  0  0  0
 25 24  1  0  0  0
 25 26  2  0  0  0
 25 27  1  0  0  0
 25 29  1  0  0  0
 22 20  1  0  0  0
  3  5  1  0  0  0
  3  2  1  0  0  0
 20 19  1  0  0  0
 24 23  1  0  0  0
 19 18  1  0  0  0
 18 17  1  0  0  0
 27 28  1  0  0  0
 17 16  1  0  0  0
 29 30  1  0  0  0
 16 15  1  0  0  0
 34 35  1  0  0  0
 34 36  1  0  0  0
 15 14  1  0  0  0
 31 32  1  0  0  0
 31 33  1  0  0  0
 14 13  1  0  0  0
 37  1  1  0  0  0
 37 39  1  0  0  0
 13 12  1  0  0  0
 38 39  2  0  0  0
 12 11  1  0  0  0
 11 10  1  0  0  0
 10  9  1  0  0  0
  9  8  1  0  0  0
  8  7  1  0  0  0
  7  6  1  0  0  0
  6  5  1  0  0  0
  2  1  1  0  0  0
  1 23  1  0  0  0
 30 32  1  0  0  0
 32 35  1  0  0  0
 39 40  1  0  0  0
 40 41  1  0  0  0
 41 42  1  0  0  0
 42 43  1  0  0  0
 43 44  1  0  0  0
 44 45  1  0  0  0
 45 46  1  0  0  0
 46 47  1  0  0  0
 47 48  2  0  0  0
 48 49  1  0  0  0
 49 50  1  0  0  0
 50 51  1  0  0  0
 51 52  1  0  0  0
 52 53  1  0  0  0
 53 54  1  0  0  0
 54 55  1  0  0  0
 55 56  1  0  0  0
M  CHG 1  26  -1
M  END
> <minimizedAffinity>
-8.88061

> <CNNscore>
0.6467375159

> <CNNaffinity>
7.6323676109

> <CNN_VS>
4.9361386299

> <CNNaffinity_variance>
0.3981567025

$$$$
/media/chris/experiments/cd1a-new-docking/inputs/ligands/7sh4_ligand.pdb


 56 55  0  0  0  0  0  0  0  0999 V2000
  -37.4932   60.5700   65.2521 C   0  0  0  0  0  0  0  0  0  0  0  0
  -38.6792   59.9387   65.9249 C   0  0  0  0  0  0  0  0  0  0  0  0
  -39.7906   60.7672   65.5231 O   0  0  0  0  0  0  0  0  0  0  0  0
  -41.5758   60.6069   64.1865 O   0  0  0  0  0  0  0  0  0  0  0  0
  -40.8640   60.1437   65.0364 C   0  0  0  0  0  0  0  0  0  0  0  0
  -40.9849   58.7552   65.5953 C   0  0  0  0  0  0  0  0  0  0  0  0
  -42.2235   58.5350   66.4472 C   0  0  0  0  0  0  0  0  0  0  0  0
  -42.9269   57.2315   66.1330 C   0  0  0  0  0  0  0  0  0  0  0  0
  -44.3475   57.3970   65.6426 C   0  0  0  0  0  0  0  0  0  0  0  0
  -44.8256   58.8343   65.6831 C   0  0  0  0  0  0  0  0  0  0  0  0
  -46.2655   58.9936   65.2601 C   0  0  0  0  0  0  0  0  0  0  0  0
  -47.0514   57.7125   65.3535 C   0  0  0  0  0  0  0  0  0  0  0  0
  -48.5440   57.9121   65.2110 C   0  0  0  0  0  0  0  0  0  0  0  0
  -48.9734   58.1084   63.7711 C   0  0  0  0  0  0  0  0  0  0  0  0
  -50.4342   58.4720   63.6061 C   0  0  0  0  0  0  0  0  0  0  0  0
  -50.8402   58.7517   62.1636 C   0  0  0  0  0  0  0  0  0  0  0  0
  -51.0512   57.5028   61.3295 C   0  0  0  0  0  0  0  0  0  0  0  0
  -50.0884   57.3864   60.1656 C   0  0  0  0  0  0  0  0  0  0  0  0
  -49.3975   56.0327   60.0781 C   0  0  0  0  0  0  0  0  0  0  0  0
  -48.1025   56.0615   59.2860 C   0  0  0  0  0  0  0  0  0  0  0  0
  -46.7760   57.8370   58.0928 C   0  0  0  0  0  0  0  0  0  0  0  0
  -47.3042   57.3442   59.4210 C   0  0  0  0  0  0  0  0  0  0  0  0
  -36.5857   61.2620   66.2366 C   0  0  0  0  0  0  0  0  0  0  0  0
  -36.9669   62.6534   66.3218 O   0  0  0  0  0  0  0  0  0  0  0  0
  -35.9132   63.8510   66.1888 P   0  0  0  0  0  0  0  0  0  0  0  0
  -36.5317   64.9163   65.3706 O   0  0  0  0  0  0  0  0  0  0  0  0
  -35.4250   64.1892   67.5474 O   0  0  0  0  0  0  0  0  0  0  0  0
  -36.1535   64.5595   68.0699 H   0  0  0  0  0  0  0  0  0  0  0  0
  -34.6891   63.2470   65.3646 O   0  0  0  0  0  0  0  0  0  0  0  0
  -33.3366   63.6043   65.7156 C   0  0  0  0  0  0  0  0  0  0  0  0
  -33.8359   64.9650   63.8073 O   0  0  0  0  0  0  0  0  0  0  0  0
  -32.9440   64.8229   64.9169 C   0  0  0  0  0  0  0  0  0  0  0  0
  -33.8273   64.1515   63.2792 H   0  0  0  0  0  0  0  0  0  0  0  0
  -32.1833   65.8987   66.9373 O   0  0  0  0  0  0  0  0  0  0  0  0
  -32.9449   66.0817   65.7507 C   0  0  0  0  0  0  0  0  0  0  0  0
  -32.1957   66.7166   67.4588 H   0  0  0  0  0  0  0  0  0  0  0  0
  -37.9833   61.4943   64.2248 O   0  0  0  0  0  0  0  0  0  0  0  0
  -36.5395   62.3850   62.7475 O   0  0  0  0  0  0  0  0  0  0  0  0
  -37.3131   61.5202   63.0569 C   0  0  0  0  0  0  0  0  0  0  0  0
  -37.6334   60.3346   62.2004 C   0  0  0  0  0  0  0  0  0  0  0  0
  -39.0867   60.3558   61.7375 C   0  0  0  0  0  0  0  0  0  0  0  0
  -39.3076   59.7274   60.3714 C   0  0  0  0  0  0  0  0  0  0  0  0
  -38.0223   59.5304   59.5758 C   0  0  0  0  0  0  0  0  0  0  0  0
  -37.6249   58.0771   59.3955 C   0  0  0  0  0  0  0  0  0  0  0  0
  -37.1430   57.7189   57.9868 C   0  0  0  0  0  0  0  0  0  0  0  0
  -36.2899   56.4521   57.8924 C   0  0  0  0  0  0  0  0  0  0  0  0
  -34.8220   56.7558   57.9272 C   0  0  0  0  0  0  0  0  0  0  0  0
  -34.0007   56.5574   58.9400 C   0  0  0  0  0  0  0  0  0  0  0  0
  -34.3651   55.9831   60.2725 C   0  0  0  0  0  0  0  0  0  0  0  0
  -33.4243   56.4437   61.3821 C   0  0  0  0  0  0  0  0  0  0  0  0
  -33.2386   57.9499   61.4376 C   0  0  0  0  0  0  0  0  0  0  0  0
  -32.8283   58.4637   62.8069 C   0  0  0  0  0  0  0  0  0  0  0  0
  -33.5957   57.8496   63.9658 C   0  0  0  0  0  0  0  0  0  0  0  0
  -35.0404   58.3177   64.0514 C   0  0  0  0  0  0  0  0  0  0  0  0
  -36.0493   57.1970   64.2062 C   0  0  0  0  0  0  0  0  0  0  0  0
  -37.1656   57.2768   63.2026 C   0  0  0  0  0  0  0  0  0  0  0  0
 21 22  1  0  0  0
  4  5  2  0  0  0
 25 24  1  0  0  0
 25 26  2  0  0  0
 25 27  1  0  0  0
 25 29  1  0  0  0
 22 20  1  0  0  0
  3  5  1  0  0  0
  3  2  1  0  0  0
 20 19  1  0  0  0
 24 23  1  0  0  0
 19 18  1  0  0  0
 18 17  1  0  0  0
 27 28  1  0  0  0
 17 16  1  0  0  0
 29 30  1  0  0  0
 16 15  1  0  0  0
 34 35  1  0  0  0
 34 36  1  0  0  0
 15 14  1  0  0  0
 31 32  1  0  0  0
 31 33  1  0  0  0
 14 13  1  0  0  0
 37  1  1  0  0  0
 37 39  1  0  0  0
 13 12  1  0  0  0
 38 39  2  0  0  0
 12 11  1  0  0  0
 11 10  1  0  0  0
 10  9  1  0  0  0
  9  8  1  0  0  0
  8  7  1  0  0  0
  7  6  1  0  0  0
  6  5  1  0  0  0
  2  1  1  0  0  0
  1 23  1  0  0  0
 30 32  1  0  0  0
 32 35  1  0  0  0
 39 40  1  0  0  0
 40 41  1  0  0  0
 41 42  1  0  0  0
 42 43  1  0  0  0
 43 44  1  0  0  0
 44 45  1  0  0  0
 45 46  1  0  0  0
 46 47  1  0  0  0
 47 48  2  0  0  0
 48 49  1  0  0  0
 49 50  1  0  0  0
 50 51  1  0  0  0
 51 52  1  0  0  0
 52 53  1  0  0  0
 53 54  1  0  0  0
 54 55  1  0  0  0
 55 56  1  0  0  0
M  CHG 1  26  -1
M  END
> <minimizedAffinity>
-9.14918

> <CNNscore>
0.5606185198

> <CNNaffinity>
7.5102372169

> <CNN_VS>
4.2103781700

> <CNNaffinity_variance>
0.9451632500

$$$$
/media/chris/experiments/cd1a-new-docking/inputs/ligands/7sh4_ligand.pdb


 56 55  0  0  0  0  0  0  0  0999 V2000
  -38.7405   60.4629   62.5771 C   0  0  0  0  0  0  0  0  0  0  0  0
  -39.2075   60.8545   63.9505 C   0  0  0  0  0  0  0  0  0  0  0  0
  -40.2063   59.8646   64.2753 O   0  0  0  0  0  0  0  0  0  0  0  0
  -40.8047   60.9386   66.1428 O   0  0  0  0  0  0  0  0  0  0  0  0
  -41.0541   60.1623   65.2603 C   0  0  0  0  0  0  0  0  0  0  0  0
  -42.3861   59.5023   65.0478 C   0  0  0  0  0  0  0  0  0  0  0  0
  -43.0766   59.0711   66.3306 C   0  0  0  0  0  0  0  0  0  0  0  0
  -44.4567   58.4971   66.0891 C   0  0  0  0  0  0  0  0  0  0  0  0
  -45.3812   59.4110   65.3172 C   0  0  0  0  0  0  0  0  0  0  0  0
  -46.7640   59.5105   65.9288 C   0  0  0  0  0  0  0  0  0  0  0  0
  -47.8663   59.1324   64.9700 C   0  0  0  0  0  0  0  0  0  0  0  0
  -49.0919   58.5987   65.6632 C   0  0  0  0  0  0  0  0  0  0  0  0
  -50.2429   58.3240   64.7211 C   0  0  0  0  0  0  0  0  0  0  0  0
  -50.6373   59.5407   63.9084 C   0  0  0  0  0  0  0  0  0  0  0  0
  -50.9160   59.2455   62.4495 C   0  0  0  0  0  0  0  0  0  0  0  0
  -50.9284   57.7586   62.1133 C   0  0  0  0  0  0  0  0  0  0  0  0
  -50.8617   57.4623   60.6274 C   0  0  0  0  0  0  0  0  0  0  0  0
  -49.6034   56.7251   60.2165 C   0  0  0  0  0  0  0  0  0  0  0  0
  -48.3451   57.5789   60.2880 C   0  0  0  0  0  0  0  0  0  0  0  0
  -47.5533   57.6040   58.9927 C   0  0  0  0  0  0  0  0  0  0  0  0
  -47.8116   56.4876   56.7515 C   0  0  0  0  0  0  0  0  0  0  0  0
  -47.5467   56.2943   58.2274 C   0  0  0  0  0  0  0  0  0  0  0  0
  -37.4703   61.1741   62.1868 C   0  0  0  0  0  0  0  0  0  0  0  0
  -36.9552   61.8736   63.3417 O   0  0  0  0  0  0  0  0  0  0  0  0
  -35.9595   63.1216   63.2271 P   0  0  0  0  0  0  0  0  0  0  0  0
  -35.5751   63.2718   61.8071 O   0  0  0  0  0  0  0  0  0  0  0  0
  -36.5819   64.2740   63.9223 O   0  0  0  0  0  0  0  0  0  0  0  0
  -37.3782   64.5497   63.4418 H   0  0  0  0  0  0  0  0  0  0  0  0
  -34.6579   62.7001   64.0462 O   0  0  0  0  0  0  0  0  0  0  0  0
  -34.3921   63.2934   65.3337 C   0  0  0  0  0  0  0  0  0  0  0  0
  -33.9543   62.6304   67.5944 O   0  0  0  0  0  0  0  0  0  0  0  0
  -34.6411   62.2527   66.3976 C   0  0  0  0  0  0  0  0  0  0  0  0
  -33.0115   62.7517   67.4016 H   0  0  0  0  0  0  0  0  0  0  0  0
  -36.3864   62.2427   68.0626 O   0  0  0  0  0  0  0  0  0  0  0  0
  -36.1118   62.0593   66.6797 C   0  0  0  0  0  0  0  0  0  0  0  0
  -37.3343   62.1147   68.2238 H   0  0  0  0  0  0  0  0  0  0  0  0
  -39.8249   60.7304   61.6271 O   0  0  0  0  0  0  0  0  0  0  0  0
  -40.5241   60.2966   59.5335 O   0  0  0  0  0  0  0  0  0  0  0  0
  -39.7818   60.0753   60.4511 C   0  0  0  0  0  0  0  0  0  0  0  0
  -38.6881   59.0532   60.4186 C   0  0  0  0  0  0  0  0  0  0  0  0
  -37.7214   59.3056   59.2659 C   0  0  0  0  0  0  0  0  0  0  0  0
  -37.7151   58.2076   58.2152 C   0  0  0  0  0  0  0  0  0  0  0  0
  -36.3470   57.9754   57.5841 C   0  0  0  0  0  0  0  0  0  0  0  0
  -35.7554   56.6095   57.8786 C   0  0  0  0  0  0  0  0  0  0  0  0
  -36.5606   55.7679   58.8728 C   0  0  0  0  0  0  0  0  0  0  0  0
  -36.1708   55.9448   60.3420 C   0  0  0  0  0  0  0  0  0  0  0  0
  -34.7697   55.4853   60.6139 C   0  0  0  0  0  0  0  0  0  0  0  0
  -33.7239   56.2505   60.8599 C   0  0  0  0  0  0  0  0  0  0  0  0
  -33.7187   57.7453   60.9207 C   0  0  0  0  0  0  0  0  0  0  0  0
  -32.5343   58.2918   61.7124 C   0  0  0  0  0  0  0  0  0  0  0  0
  -32.8350   58.5122   63.1846 C   0  0  0  0  0  0  0  0  0  0  0  0
  -34.0602   59.3747   63.4343 C   0  0  0  0  0  0  0  0  0  0  0  0
  -35.0190   58.8203   64.4748 C   0  0  0  0  0  0  0  0  0  0  0  0
  -35.5193   57.4205   64.1524 C   0  0  0  0  0  0  0  0  0  0  0  0
  -36.9881   57.3545   63.7833 C   0  0  0  0  0  0  0  0  0  0  0  0
  -37.8943   57.5256   64.9704 C   0  0  0  0  0  0  0  0  0  0  0  0
 21 22  1  0  0  0
  4  5  2  0  0  0
 25 24  1  0  0  0
 25 26  2  0  0  0
 25 27  1  0  0  0
 25 29  1  0  0  0
 22 20  1  0  0  0
  3  5  1  0  0  0
  3  2  1  0  0  0
 20 19  1  0  0  0
 24 23  1  0  0  0
 19 18  1  0  0  0
 18 17  1  0  0  0
 27 28  1  0  0  0
 17 16  1  0  0  0
 29 30  1  0  0  0
 16 15  1  0  0  0
 34 35  1  0  0  0
 34 36  1  0  0  0
 15 14  1  0  0  0
 31 32  1  0  0  0
 31 33  1  0  0  0
 14 13  1  0  0  0
 37  1  1  0  0  0
 37 39  1  0  0  0
 13 12  1  0  0  0
 38 39  2  0  0  0
 12 11  1  0  0  0
 11 10  1  0  0  0
 10  9  1  0  0  0
  9  8  1  0  0  0
  8  7  1  0  0  0
  7  6  1  0  0  0
  6  5  1  0  0  0
  2  1  1  0  0  0
  1 23  1  0  0  0
 30 32  1  0  0  0
 32 35  1  0  0  0
 39 40  1  0  0  0
 40 41  1  0  0  0
 41 42  1  0  0  0
 42 43  1  0  0  0
 43 44  1  0  0  0
 44 45  1  0  0  0
 45 46  1  0  0  0
 46 47  1  0  0  0
 47 48  2  0  0  0
 48 49  1  0  0  0
 49 50  1  0  0  0
 50 51  1  0  0  0
 51 52  1  0  0  0
 52 53  1  0  0  0
 53 54  1  0  0  0
 54 55  1  0  0  0
 55 56  1  0  0  0
M  CHG 1  26  -1
M  END
> <minimizedAffinity>
-8.88813

> <CNNscore>
0.5214619637

> <CNNaffinity>
7.5015945435

> <CNN_VS>
3.9117963314

> <CNNaffinity_variance>
0.8402276039

$$$$
/media/chris/experiments/cd1a-new-docking/inputs/ligands/7sh4_ligand.pdb


 56 55  0  0  0  0  0  0  0  0999 V2000
  -39.0406   61.1146   62.9214 C   0  0  0  0  0  0  0  0  0  0  0  0
  -39.5052   60.0753   61.9408 C   0  0  0  0  0  0  0  0  0  0  0  0
  -38.4115   59.9637   61.0057 O   0  0  0  0  0  0  0  0  0  0  0  0
  -39.6631   60.4634   59.2216 O   0  0  0  0  0  0  0  0  0  0  0  0
  -38.7274   59.8914   59.7123 C   0  0  0  0  0  0  0  0  0  0  0  0
  -37.6975   59.1135   58.9449 C   0  0  0  0  0  0  0  0  0  0  0  0
  -37.1327   57.9207   59.6976 C   0  0  0  0  0  0  0  0  0  0  0  0
  -36.7274   56.7867   58.7799 C   0  0  0  0  0  0  0  0  0  0  0  0
  -35.5453   57.1014   57.8914 C   0  0  0  0  0  0  0  0  0  0  0  0
  -34.2147   56.7617   58.5317 C   0  0  0  0  0  0  0  0  0  0  0  0
  -34.3010   55.6145   59.5085 C   0  0  0  0  0  0  0  0  0  0  0  0
  -33.8591   55.9902   60.8981 C   0  0  0  0  0  0  0  0  0  0  0  0
  -33.5739   57.4670   61.0586 C   0  0  0  0  0  0  0  0  0  0  0  0
  -32.5638   57.7526   62.1515 C   0  0  0  0  0  0  0  0  0  0  0  0
  -32.7969   59.0582   62.8825 C   0  0  0  0  0  0  0  0  0  0  0  0
  -34.1741   59.1660   63.5271 C   0  0  0  0  0  0  0  0  0  0  0  0
  -34.4857   58.0494   64.5050 C   0  0  0  0  0  0  0  0  0  0  0  0
  -35.6189   57.1515   64.0523 C   0  0  0  0  0  0  0  0  0  0  0  0
  -36.6767   57.8724   63.2283 C   0  0  0  0  0  0  0  0  0  0  0  0
  -38.0082   57.1443   63.1779 C   0  0  0  0  0  0  0  0  0  0  0  0
  -38.2647   58.2745   65.4124 C   0  0  0  0  0  0  0  0  0  0  0  0
  -38.8770   57.3245   64.4082 C   0  0  0  0  0  0  0  0  0  0  0  0
  -37.5432   61.2852   62.8986 C   0  0  0  0  0  0  0  0  0  0  0  0
  -37.1336   61.9610   64.1085 O   0  0  0  0  0  0  0  0  0  0  0  0
  -36.1132   63.1942   64.1102 P   0  0  0  0  0  0  0  0  0  0  0  0
  -36.2101   63.8705   62.7988 O   0  0  0  0  0  0  0  0  0  0  0  0
  -36.3503   63.9877   65.3402 O   0  0  0  0  0  0  0  0  0  0  0  0
  -37.2292   64.3959   65.2972 H   0  0  0  0  0  0  0  0  0  0  0  0
  -34.6624   62.5418   64.2203 O   0  0  0  0  0  0  0  0  0  0  0  0
  -33.4925   63.3287   63.9169 C   0  0  0  0  0  0  0  0  0  0  0  0
  -33.5923   63.3453   61.5227 O   0  0  0  0  0  0  0  0  0  0  0  0
  -32.8832   62.8027   62.6405 C   0  0  0  0  0  0  0  0  0  0  0  0
  -34.5352   63.1328   61.6038 H   0  0  0  0  0  0  0  0  0  0  0  0
  -30.9678   62.9909   61.1865 O   0  0  0  0  0  0  0  0  0  0  0  0
  -31.4121   63.1246   62.5305 C   0  0  0  0  0  0  0  0  0  0  0  0
  -30.0222   63.2013   61.1360 H   0  0  0  0  0  0  0  0  0  0  0  0
  -39.5227   60.7396   64.2544 O   0  0  0  0  0  0  0  0  0  0  0  0
  -41.5638   61.5782   63.8173 O   0  0  0  0  0  0  0  0  0  0  0  0
  -40.8366   60.9075   64.4980 C   0  0  0  0  0  0  0  0  0  0  0  0
  -41.2848   60.1443   65.7058 C   0  0  0  0  0  0  0  0  0  0  0  0
  -42.2154   58.9964   65.3280 C   0  0  0  0  0  0  0  0  0  0  0  0
  -43.6386   59.1646   65.8343 C   0  0  0  0  0  0  0  0  0  0  0  0
  -44.6912   58.5780   64.9007 C   0  0  0  0  0  0  0  0  0  0  0  0
  -45.1365   57.1767   65.2757 C   0  0  0  0  0  0  0  0  0  0  0  0
  -46.6100   57.0629   65.6768 C   0  0  0  0  0  0  0  0  0  0  0  0
  -47.5406   58.0973   65.0397 C   0  0  0  0  0  0  0  0  0  0  0  0
  -48.5184   58.6610   66.0266 C   0  0  0  0  0  0  0  0  0  0  0  0
  -49.8209   58.7863   65.8607 C   0  0  0  0  0  0  0  0  0  0  0  0
  -50.5984   58.3879   64.6462 C   0  0  0  0  0  0  0  0  0  0  0  0
  -50.8903   59.5708   63.7276 C   0  0  0  0  0  0  0  0  0  0  0  0
  -50.7454   59.2463   62.2512 C   0  0  0  0  0  0  0  0  0  0  0  0
  -51.1720   57.8332   61.8927 C   0  0  0  0  0  0  0  0  0  0  0  0
  -50.6870   57.3545   60.5344 C   0  0  0  0  0  0  0  0  0  0  0  0
  -49.1825   57.4805   60.3496 C   0  0  0  0  0  0  0  0  0  0  0  0
  -48.5752   56.4210   59.4516 C   0  0  0  0  0  0  0  0  0  0  0  0
  -48.0820   56.9786   58.1456 C   0  0  0  0  0  0  0  0  0  0  0  0
 21 22  1  0  0  0
  4  5  2  0  0  0
 25 24  1  0  0  0
 25 26  2  0  0  0
 25 27  1  0  0  0
 25 29  1  0  0  0
 22 20  1  0  0  0
  3  5  1  0  0  0
  3  2  1  0  0  0
 20 19  1  0  0  0
 24 23  1  0  0  0
 19 18  1  0  0  0
 18 17  1  0  0  0
 27 28  1  0  0  0
 17 16  1  0  0  0
 29 30  1  0  0  0
 16 15  1  0  0  0
 34 35  1  0  0  0
 34 36  1  0  0  0
 15 14  1  0  0  0
 31 32  1  0  0  0
 31 33  1  0  0  0
 14 13  1  0  0  0
 37  1  1  0  0  0
 37 39  1  0  0  0
 13 12  1  0  0  0
 38 39  2  0  0  0
 12 11  1  0  0  0
 11 10  1  0  0  0
 10  9  1  0  0  0
  9  8  1  0  0  0
  8  7  1  0  0  0
  7  6  1  0  0  0
  6  5  1  0  0  0
  2  1  1  0  0  0
  1 23  1  0  0  0
 30 32  1  0  0  0
 32 35  1  0  0  0
 39 40  1  0  0  0
 40 41  1  0  0  0
 41 42  1  0  0  0
 42 43  1  0  0  0
 43 44  1  0  0  0
 44 45  1  0  0  0
 45 46  1  0  0  0
 46 47  1  0  0  0
 47 48  2  0  0  0
 48 49  1  0  0  0
 49 50  1  0  0  0
 50 51  1  0  0  0
 51 52  1  0  0  0
 52 53  1  0  0  0
 53 54  1  0  0  0
 54 55  1  0  0  0
 55 56  1  0  0  0
M  CHG 1  26  -1
M  END
> <minimizedAffinity>
-8.55339

> <CNNscore>
0.4695045054

> <CNNaffinity>
7.3327713013

> <CNN_VS>
3.4427690506

> <CNNaffinity_variance>
0.9475668073

$$$$
/media/chris/experiments/cd1a-new-docking/inputs/ligands/7sh4_ligand.pdb


 56 55  0  0  0  0  0  0  0  0999 V2000
  -37.3226   60.0519   64.9598 C   0  0  0  0  0  0  0  0  0  0  0  0
  -38.4386   60.9364   64.4804 C   0  0  0  0  0  0  0  0  0  0  0  0
  -39.5883   60.4832   65.2261 O   0  0  0  0  0  0  0  0  0  0  0  0
  -41.1725   61.5821   64.0939 O   0  0  0  0  0  0  0  0  0  0  0  0
  -40.7747   60.5808   64.6255 C   0  0  0  0  0  0  0  0  0  0  0  0
  -41.4782   59.2544   64.5950 C   0  0  0  0  0  0  0  0  0  0  0  0
  -41.8230   58.7032   65.9681 C   0  0  0  0  0  0  0  0  0  0  0  0
  -43.2083   59.1036   66.4297 C   0  0  0  0  0  0  0  0  0  0  0  0
  -44.2338   59.1752   65.3211 C   0  0  0  0  0  0  0  0  0  0  0  0
  -44.8434   57.8283   64.9888 C   0  0  0  0  0  0  0  0  0  0  0  0
  -45.0336   56.9474   66.1993 C   0  0  0  0  0  0  0  0  0  0  0  0
  -46.3905   57.1036   66.8333 C   0  0  0  0  0  0  0  0  0  0  0  0
  -47.4966   57.3496   65.8313 C   0  0  0  0  0  0  0  0  0  0  0  0
  -48.2643   58.6263   66.1085 C   0  0  0  0  0  0  0  0  0  0  0  0
  -49.3018   58.9639   65.0584 C   0  0  0  0  0  0  0  0  0  0  0  0
  -48.9849   58.4032   63.6767 C   0  0  0  0  0  0  0  0  0  0  0  0
  -49.8264   58.9965   62.5631 C   0  0  0  0  0  0  0  0  0  0  0  0
  -51.0051   58.1288   62.1716 C   0  0  0  0  0  0  0  0  0  0  0  0
  -50.7194   57.2061   60.9950 C   0  0  0  0  0  0  0  0  0  0  0  0
  -49.9357   57.8713   59.8775 C   0  0  0  0  0  0  0  0  0  0  0  0
  -47.7655   57.4326   58.6801 C   0  0  0  0  0  0  0  0  0  0  0  0
  -49.1509   56.9170   58.9975 C   0  0  0  0  0  0  0  0  0  0  0  0
  -36.0391   60.8169   65.1578 C   0  0  0  0  0  0  0  0  0  0  0  0
  -36.3395   62.2302   65.1846 O   0  0  0  0  0  0  0  0  0  0  0  0
  -35.8450   63.1999   66.3582 P   0  0  0  0  0  0  0  0  0  0  0  0
  -37.0100   63.9792   66.8297 O   0  0  0  0  0  0  0  0  0  0  0  0
  -35.0872   62.3872   67.3399 O   0  0  0  0  0  0  0  0  0  0  0  0
  -35.6880   61.7619   67.7744 H   0  0  0  0  0  0  0  0  0  0  0  0
  -34.8241   64.2119   65.6680 O   0  0  0  0  0  0  0  0  0  0  0  0
  -33.6506   63.7079   64.9980 C   0  0  0  0  0  0  0  0  0  0  0  0
  -31.5517   64.7034   64.4096 O   0  0  0  0  0  0  0  0  0  0  0  0
  -32.4510   64.4744   65.4985 C   0  0  0  0  0  0  0  0  0  0  0  0
  -31.3125   63.8554   64.0040 H   0  0  0  0  0  0  0  0  0  0  0  0
  -33.2953   65.5767   67.4710 O   0  0  0  0  0  0  0  0  0  0  0  0
  -32.8342   65.7854   66.1423 C   0  0  0  0  0  0  0  0  0  0  0  0
  -33.5363   66.4287   67.8672 H   0  0  0  0  0  0  0  0  0  0  0  0
  -37.1573   58.9560   63.9999 O   0  0  0  0  0  0  0  0  0  0  0  0
  -37.7975   57.1774   65.2194 O   0  0  0  0  0  0  0  0  0  0  0  0
  -37.8757   57.8382   64.2198 C   0  0  0  0  0  0  0  0  0  0  0  0
  -38.7950   57.5291   63.0790 C   0  0  0  0  0  0  0  0  0  0  0  0
  -38.2514   58.0706   61.7607 C   0  0  0  0  0  0  0  0  0  0  0  0
  -39.0614   59.2211   61.1861 C   0  0  0  0  0  0  0  0  0  0  0  0
  -38.7745   59.4934   59.7139 C   0  0  0  0  0  0  0  0  0  0  0  0
  -37.4461   58.9407   59.2318 C   0  0  0  0  0  0  0  0  0  0  0  0
  -37.5525   57.9553   58.0644 C   0  0  0  0  0  0  0  0  0  0  0  0
  -36.5189   56.8269   58.0679 C   0  0  0  0  0  0  0  0  0  0  0  0
  -35.1288   57.3334   57.8248 C   0  0  0  0  0  0  0  0  0  0  0  0
  -34.0093   56.8161   58.2924 C   0  0  0  0  0  0  0  0  0  0  0  0
  -33.8930   55.6078   59.1669 C   0  0  0  0  0  0  0  0  0  0  0  0
  -33.6260   55.9681   60.6255 C   0  0  0  0  0  0  0  0  0  0  0  0
  -34.8515   56.4824   61.3603 C   0  0  0  0  0  0  0  0  0  0  0  0
  -34.6840   57.8854   61.9178 C   0  0  0  0  0  0  0  0  0  0  0  0
  -33.9373   57.9528   63.2397 C   0  0  0  0  0  0  0  0  0  0  0  0
  -32.5000   58.4303   63.0997 C   0  0  0  0  0  0  0  0  0  0  0  0
  -32.2503   59.3049   61.8871 C   0  0  0  0  0  0  0  0  0  0  0  0
  -30.9331   60.0264   61.9517 C   0  0  0  0  0  0  0  0  0  0  0  0
 21 22  1  0  0  0
  4  5  2  0  0  0
 25 24  1  0  0  0
 25 26  2  0  0  0
 25 27  1  0  0  0
 25 29  1  0  0  0
 22 20  1  0  0  0
  3  5  1  0  0  0
  3  2  1  0  0  0
 20 19  1  0  0  0
 24 23  1  0  0  0
 19 18  1  0  0  0
 18 17  1  0  0  0
 27 28  1  0  0  0
 17 16  1  0  0  0
 29 30  1  0  0  0
 16 15  1  0  0  0
 34 35  1  0  0  0
 34 36  1  0  0  0
 15 14  1  0  0  0
 31 32  1  0  0  0
 31 33  1  0  0  0
 14 13  1  0  0  0
 37  1  1  0  0  0
 37 39  1  0  0  0
 13 12  1  0  0  0
 38 39  2  0  0  0
 12 11  1  0  0  0
 11 10  1  0  0  0
 10  9  1  0  0  0
  9  8  1  0  0  0
  8  7  1  0  0  0
  7  6  1  0  0  0
  6  5  1  0  0  0
  2  1  1  0  0  0
  1 23  1  0  0  0
 30 32  1  0  0  0
 32 35  1  0  0  0
 39 40  1  0  0  0
 40 41  1  0  0  0
 41 42  1  0  0  0
 42 43  1  0  0  0
 43 44  1  0  0  0
 44 45  1  0  0  0
 45 46  1  0  0  0
 46 47  1  0  0  0
 47 48  2  0  0  0
 48 49  1  0  0  0
 49 50  1  0  0  0
 50 51  1  0  0  0
 51 52  1  0  0  0
 52 53  1  0  0  0
 53 54  1  0  0  0
 54 55  1  0  0  0
 55 56  1  0  0  0
M  CHG 1  26  -1
M  END
> <minimizedAffinity>
-8.64941

> <CNNscore>
0.4671152532

> <CNNaffinity>
7.4002952576

> <CNN_VS>
3.4567906857

> <CNNaffinity_variance>
0.8432481885

$$$$
/media/chris/experiments/cd1a-new-docking/inputs/ligands/7sh4_ligand.pdb


 56 55  0  0  0  0  0  0  0  0999 V2000
  -36.6178   60.9472   65.8403 C   0  0  0  0  0  0  0  0  0  0  0  0
  -37.8810   61.2419   65.0819 C   0  0  0  0  0  0  0  0  0  0  0  0
  -38.9290   60.7548   65.9466 O   0  0  0  0  0  0  0  0  0  0  0  0
  -38.8896   58.5595   65.5248 O   0  0  0  0  0  0  0  0  0  0  0  0
  -39.4945   59.5936   65.6156 C   0  0  0  0  0  0  0  0  0  0  0  0
  -40.9853   59.7298   65.4987 C   0  0  0  0  0  0  0  0  0  0  0  0
  -41.7520   59.2139   66.7047 C   0  0  0  0  0  0  0  0  0  0  0  0
  -43.2530   59.2776   66.5164 C   0  0  0  0  0  0  0  0  0  0  0  0
  -43.7663   58.4606   65.3524 C   0  0  0  0  0  0  0  0  0  0  0  0
  -45.2200   58.7386   65.0275 C   0  0  0  0  0  0  0  0  0  0  0  0
  -46.0743   58.9434   66.2546 C   0  0  0  0  0  0  0  0  0  0  0  0
  -47.5431   59.0446   65.9389 C   0  0  0  0  0  0  0  0  0  0  0  0
  -48.0303   57.9661   64.9967 C   0  0  0  0  0  0  0  0  0  0  0  0
  -49.3779   58.2893   64.3838 C   0  0  0  0  0  0  0  0  0  0  0  0
  -49.3694   58.3527   62.8708 C   0  0  0  0  0  0  0  0  0  0  0  0
  -50.6698   57.8850   62.2273 C   0  0  0  0  0  0  0  0  0  0  0  0
  -50.4745   57.0904   60.9504 C   0  0  0  0  0  0  0  0  0  0  0  0
  -49.9647   57.9255   59.7937 C   0  0  0  0  0  0  0  0  0  0  0  0
  -48.6399   57.4366   59.2253 C   0  0  0  0  0  0  0  0  0  0  0  0
  -48.4847   55.9265   59.2587 C   0  0  0  0  0  0  0  0  0  0  0  0
  -47.5105   55.9794   56.9383 C   0  0  0  0  0  0  0  0  0  0  0  0
  -47.4257   55.3764   58.3222 C   0  0  0  0  0  0  0  0  0  0  0  0
  -36.2970   62.0231   66.8458 C   0  0  0  0  0  0  0  0  0  0  0  0
  -34.9146   62.4126   66.6853 O   0  0  0  0  0  0  0  0  0  0  0  0
  -34.4712   63.9066   66.3201 P   0  0  0  0  0  0  0  0  0  0  0  0
  -35.5010   64.4854   65.4306 O   0  0  0  0  0  0  0  0  0  0  0  0
  -34.1421   64.6119   67.5822 O   0  0  0  0  0  0  0  0  0  0  0  0
  -34.9471   64.7171   68.1131 H   0  0  0  0  0  0  0  0  0  0  0  0
  -33.1252   63.7540   65.4789 O   0  0  0  0  0  0  0  0  0  0  0  0
  -33.0849   64.1737   64.0996 C   0  0  0  0  0  0  0  0  0  0  0  0
  -34.6744   62.9201   62.8175 O   0  0  0  0  0  0  0  0  0  0  0  0
  -33.3043   62.9623   63.2271 C   0  0  0  0  0  0  0  0  0  0  0  0
  -35.2465   62.9269   63.6008 H   0  0  0  0  0  0  0  0  0  0  0  0
  -32.1453   64.2774   61.5702 O   0  0  0  0  0  0  0  0  0  0  0  0
  -32.3987   62.9523   62.0190 C   0  0  0  0  0  0  0  0  0  0  0  0
  -31.5629   64.2504   60.7949 H   0  0  0  0  0  0  0  0  0  0  0  0
  -35.5302   60.7679   64.8733 O   0  0  0  0  0  0  0  0  0  0  0  0
  -35.9818   60.3260   62.7144 O   0  0  0  0  0  0  0  0  0  0  0  0
  -35.7673   59.9460   63.8331 C   0  0  0  0  0  0  0  0  0  0  0  0
  -35.7132   58.5044   64.2341 C   0  0  0  0  0  0  0  0  0  0  0  0
  -34.3015   57.9411   64.1054 C   0  0  0  0  0  0  0  0  0  0  0  0
  -33.4456   58.6536   63.0711 C   0  0  0  0  0  0  0  0  0  0  0  0
  -32.4029   57.7536   62.4179 C   0  0  0  0  0  0  0  0  0  0  0  0
  -32.9881   56.5513   61.7005 C   0  0  0  0  0  0  0  0  0  0  0  0
  -33.8611   56.8948   60.4902 C   0  0  0  0  0  0  0  0  0  0  0  0
  -34.1080   55.7407   59.5162 C   0  0  0  0  0  0  0  0  0  0  0  0
  -35.5127   55.2229   59.5986 C   0  0  0  0  0  0  0  0  0  0  0  0
  -36.5082   55.5141   58.7839 C   0  0  0  0  0  0  0  0  0  0  0  0
  -36.4420   56.4262   57.5999 C   0  0  0  0  0  0  0  0  0  0  0  0
  -36.4266   57.8988   57.9994 C   0  0  0  0  0  0  0  0  0  0  0  0
  -37.6704   58.3394   58.7511 C   0  0  0  0  0  0  0  0  0  0  0  0
  -37.4198   58.6472   60.2174 C   0  0  0  0  0  0  0  0  0  0  0  0
  -38.1029   57.6962   61.1861 C   0  0  0  0  0  0  0  0  0  0  0  0
  -39.0058   58.3983   62.1887 C   0  0  0  0  0  0  0  0  0  0  0  0
  -39.1153   59.8964   61.9848 C   0  0  0  0  0  0  0  0  0  0  0  0
  -40.5248   60.3454   61.7176 C   0  0  0  0  0  0  0  0  0  0  0  0
 21 22  1  0  0  0
  4  5  2  0  0  0
 25 24  1  0  0  0
 25 26  2  0  0  0
 25 27  1  0  0  0
 25 29  1  0  0  0
 22 20  1  0  0  0
  3  5  1  0  0  0
  3  2  1  0  0  0
 20 19  1  0  0  0
 24 23  1  0  0  0
 19 18  1  0  0  0
 18 17  1  0  0  0
 27 28  1  0  0  0
 17 16  1  0  0  0
 29 30  1  0  0  0
 16 15  1  0  0  0
 34 35  1  0  0  0
 34 36  1  0  0  0
 15 14  1  0  0  0
 31 32  1  0  0  0
 31 33  1  0  0  0
 14 13  1  0  0  0
 37  1  1  0  0  0
 37 39  1  0  0  0
 13 12  1  0  0  0
 38 39  2  0  0  0
 12 11  1  0  0  0
 11 10  1  0  0  0
 10  9  1  0  0  0
  9  8  1  0  0  0
  8  7  1  0  0  0
  7  6  1  0  0  0
  6  5  1  0  0  0
  2  1  1  0  0  0
  1 23  1  0  0  0
 30 32  1  0  0  0
 32 35  1  0  0  0
 39 40  1  0  0  0
 40 41  1  0  0  0
 41 42  1  0  0  0
 42 43  1  0  0  0
 43 44  1  0  0  0
 44 45  1  0  0  0
 45 46  1  0  0  0
 46 47  1  0  0  0
 47 48  2  0  0  0
 48 49  1  0  0  0
 49 50  1  0  0  0
 50 51  1  0  0  0
 51 52  1  0  0  0
 52 53  1  0  0  0
 53 54  1  0  0  0
 54 55  1  0  0  0
 55 56  1  0  0  0
M  CHG 1  26  -1
M  END
> <minimizedAffinity>
-8.52299

> <CNNscore>
0.4635213912

> <CNNaffinity>
7.2889051437

> <CNN_VS>
3.3785634041

> <CNNaffinity_variance>
0.7295609713

$$$$
/media/chris/experiments/cd1a-new-docking/inputs/ligands/7sh4_ligand.pdb


 56 55  0  0  0  0  0  0  0  0999 V2000
  -38.3172   60.4981   63.0677 C   0  0  0  0  0  0  0  0  0  0  0  0
  -39.7297   60.8533   63.4369 C   0  0  0  0  0  0  0  0  0  0  0  0
  -40.2216   59.6752   64.1100 O   0  0  0  0  0  0  0  0  0  0  0  0
  -40.5437   60.8318   65.9961 O   0  0  0  0  0  0  0  0  0  0  0  0
  -40.7166   59.8425   65.3367 C   0  0  0  0  0  0  0  0  0  0  0  0
  -41.6093   58.6983   65.7224 C   0  0  0  0  0  0  0  0  0  0  0  0
  -42.7043   59.0703   66.7077 C   0  0  0  0  0  0  0  0  0  0  0  0
  -44.0361   58.4330   66.3722 C   0  0  0  0  0  0  0  0  0  0  0  0
  -44.8941   59.2493   65.4324 C   0  0  0  0  0  0  0  0  0  0  0  0
  -46.3073   58.7174   65.3058 C   0  0  0  0  0  0  0  0  0  0  0  0
  -47.3528   59.8057   65.2932 C   0  0  0  0  0  0  0  0  0  0  0  0
  -48.5779   59.4540   66.0949 C   0  0  0  0  0  0  0  0  0  0  0  0
  -49.5644   58.5930   65.3374 C   0  0  0  0  0  0  0  0  0  0  0  0
  -50.6588   59.4034   64.6728 C   0  0  0  0  0  0  0  0  0  0  0  0
  -50.8762   59.0674   63.2123 C   0  0  0  0  0  0  0  0  0  0  0  0
  -49.8167   58.1392   62.6294 C   0  0  0  0  0  0  0  0  0  0  0  0
  -50.2838   57.3544   61.4186 C   0  0  0  0  0  0  0  0  0  0  0  0
  -49.9280   58.0122   60.1010 C   0  0  0  0  0  0  0  0  0  0  0  0
  -49.2572   57.0707   59.1106 C   0  0  0  0  0  0  0  0  0  0  0  0
  -47.7453   57.2058   59.0722 C   0  0  0  0  0  0  0  0  0  0  0  0
  -47.6643   56.6802   56.6119 C   0  0  0  0  0  0  0  0  0  0  0  0
  -47.0647   56.4116   57.9736 C   0  0  0  0  0  0  0  0  0  0  0  0
  -37.3108   61.1767   63.9612 C   0  0  0  0  0  0  0  0  0  0  0  0
  -36.1840   61.5950   63.1587 O   0  0  0  0  0  0  0  0  0  0  0  0
  -35.5231   63.0476   63.2819 P   0  0  0  0  0  0  0  0  0  0  0  0
  -34.8459   63.3525   62.0032 O   0  0  0  0  0  0  0  0  0  0  0  0
  -36.5581   63.9848   63.7811 O   0  0  0  0  0  0  0  0  0  0  0  0
  -37.2522   64.0864   63.1112 H   0  0  0  0  0  0  0  0  0  0  0  0
  -34.4039   62.9082   64.4092 O   0  0  0  0  0  0  0  0  0  0  0  0
  -33.0086   62.9983   64.0557 C   0  0  0  0  0  0  0  0  0  0  0  0
  -31.4029   64.1669   65.3968 O   0  0  0  0  0  0  0  0  0  0  0  0
  -32.4942   64.3489   64.4897 C   0  0  0  0  0  0  0  0  0  0  0  0
  -31.6906   63.6176   66.1427 H   0  0  0  0  0  0  0  0  0  0  0  0
  -32.5148   66.5411   63.4837 O   0  0  0  0  0  0  0  0  0  0  0  0
  -32.0636   65.2027   63.3211 C   0  0  0  0  0  0  0  0  0  0  0  0
  -32.2290   67.0732   62.7246 H   0  0  0  0  0  0  0  0  0  0  0  0
  -38.1084   60.8418   61.6577 O   0  0  0  0  0  0  0  0  0  0  0  0
  -39.5075   60.7478   59.8987 O   0  0  0  0  0  0  0  0  0  0  0  0
  -38.8687   60.1960   60.7528 C   0  0  0  0  0  0  0  0  0  0  0  0
  -38.8073   58.7102   60.9272 C   0  0  0  0  0  0  0  0  0  0  0  0
  -37.6132   58.1100   60.1919 C   0  0  0  0  0  0  0  0  0  0  0  0
  -37.7605   58.1041   58.6792 C   0  0  0  0  0  0  0  0  0  0  0  0
  -36.4292   58.0762   57.9371 C   0  0  0  0  0  0  0  0  0  0  0  0
  -35.9655   56.6831   57.5538 C   0  0  0  0  0  0  0  0  0  0  0  0
  -36.7084   55.5473   58.2631 C   0  0  0  0  0  0  0  0  0  0  0  0
  -35.9239   54.8517   59.3777 C   0  0  0  0  0  0  0  0  0  0  0  0
  -34.4432   55.0277   59.2209 C   0  0  0  0  0  0  0  0  0  0  0  0
  -33.6980   55.9622   59.7787 C   0  0  0  0  0  0  0  0  0  0  0  0
  -34.1780   57.0466   60.6907 C   0  0  0  0  0  0  0  0  0  0  0  0
  -34.7723   56.4986   61.9848 C   0  0  0  0  0  0  0  0  0  0  0  0
  -35.6689   57.4866   62.7101 C   0  0  0  0  0  0  0  0  0  0  0  0
  -35.3235   57.6589   64.1792 C   0  0  0  0  0  0  0  0  0  0  0  0
  -33.9667   58.2931   64.4368 C   0  0  0  0  0  0  0  0  0  0  0  0
  -33.5295   59.2539   63.3418 C   0  0  0  0  0  0  0  0  0  0  0  0
  -32.1971   58.9086   62.7067 C   0  0  0  0  0  0  0  0  0  0  0  0
  -31.5217   60.1004   62.0876 C   0  0  0  0  0  0  0  0  0  0  0  0
 21 22  1  0  0  0
  4  5  2  0  0  0
 25 24  1  0  0  0
 25 26  2  0  0  0
 25 27  1  0  0  0
 25 29  1  0  0  0
 22 20  1  0  0  0
  3  5  1  0  0  0
  3  2  1  0  0  0
 20 19  1  0  0  0
 24 23  1  0  0  0
 19 18  1  0  0  0
 18 17  1  0  0  0
 27 28  1  0  0  0
 17 16  1  0  0  0
 29 30  1  0  0  0
 16 15  1  0  0  0
 34 35  1  0  0  0
 34 36  1  0  0  0
 15 14  1  0  0  0
 31 32  1  0  0  0
 31 33  1  0  0  0
 14 13  1  0  0  0
 37  1  1  0  0  0
 37 39  1  0  0  0
 13 12  1  0  0  0
 38 39  2  0  0  0
 12 11  1  0  0  0
 11 10  1  0  0  0
 10  9  1  0  0  0
  9  8  1  0  0  0
  8  7  1  0  0  0
  7  6  1  0  0  0
  6  5  1  0  0  0
  2  1  1  0  0  0
  1 23  1  0  0  0
 30 32  1  0  0  0
 32 35  1  0  0  0
 39 40  1  0  0  0
 40 41  1  0  0  0
 41 42  1  0  0  0
 42 43  1  0  0  0
 43 44  1  0  0  0
 44 45  1  0  0  0
 45 46  1  0  0  0
 46 47  1  0  0  0
 47 48  2  0  0  0
 48 49  1  0  0  0
 49 50  1  0  0  0
 50 51  1  0  0  0
 51 52  1  0  0  0
 52 53  1  0  0  0
 53 54  1  0  0  0
 54 55  1  0  0  0
 55 56  1  0  0  0
M  CHG 1  26  -1
M  END
> <minimizedAffinity>
-8.22414

> <CNNscore>
0.4620561898

> <CNNaffinity>
7.1794128418

> <CNN_VS>
3.3172922134

> <CNNaffinity_variance>
0.6946610808

$$$$
