/media/chris/experiments/cd1a-new-docking/inputs/ligands/7sh4_ligand.pdb


 56 55  0  0  0  0  0  0  0  0999 V2000
  -38.8809   59.7031   64.8827 C   0  0  0  0  0  0  0  0  0  0  0  0
  -40.0390   58.8541   65.3252 C   0  0  0  0  0  0  0  0  0  0  0  0
  -40.7123   59.6673   66.3093 O   0  0  0  0  0  0  0  0  0  0  0  0
  -42.5589   59.8109   67.5619 O   0  0  0  0  0  0  0  0  0  0  0  0
  -41.9113   59.2515   66.7184 C   0  0  0  0  0  0  0  0  0  0  0  0
  -42.3872   58.0828   65.9045 C   0  0  0  0  0  0  0  0  0  0  0  0
  -43.8542   57.7426   66.1058 C   0  0  0  0  0  0  0  0  0  0  0  0
  -44.7473   58.3463   65.0427 C   0  0  0  0  0  0  0  0  0  0  0  0
  -45.8764   59.1908   65.5888 C   0  0  0  0  0  0  0  0  0  0  0  0
  -47.2299   58.8077   65.0254 C   0  0  0  0  0  0  0  0  0  0  0  0
  -47.9807   57.8303   65.8962 C   0  0  0  0  0  0  0  0  0  0  0  0
  -49.4633   57.8257   65.6323 C   0  0  0  0  0  0  0  0  0  0  0  0
  -49.9873   59.1515   65.1267 C   0  0  0  0  0  0  0  0  0  0  0  0
  -50.7826   59.0158   63.8440 C   0  0  0  0  0  0  0  0  0  0  0  0
  -49.9542   59.1615   62.5848 C   0  0  0  0  0  0  0  0  0  0  0  0
  -49.9192   57.9055   61.7216 C   0  0  0  0  0  0  0  0  0  0  0  0
  -49.7975   58.1823   60.2354 C   0  0  0  0  0  0  0  0  0  0  0  0
  -49.0215   57.1182   59.4866 C   0  0  0  0  0  0  0  0  0  0  0  0
  -47.5276   57.3980   59.4023 C   0  0  0  0  0  0  0  0  0  0  0  0
  -47.0080   57.5016   57.9795 C   0  0  0  0  0  0  0  0  0  0  0  0
  -47.4086   55.2162   57.0036 C   0  0  0  0  0  0  0  0  0  0  0  0
  -47.7775   56.6817   56.9614 C   0  0  0  0  0  0  0  0  0  0  0  0
  -38.1070   60.2582   66.0509 C   0  0  0  0  0  0  0  0  0  0  0  0
  -37.7157   61.6157   65.7468 O   0  0  0  0  0  0  0  0  0  0  0  0
  -36.3638   61.9751   64.9690 P   0  0  0  0  0  0  0  0  0  0  0  0
  -35.2712   61.1674   65.5527 O   0  0  0  0  0  0  0  0  0  0  0  0
  -36.6271   61.8713   63.5135 O   0  0  0  0  0  0  0  0  0  0  0  0
  -36.8051   60.9463   63.2822 H   0  0  0  0  0  0  0  0  0  0  0  0
  -36.0766   63.5068   65.3069 O   0  0  0  0  0  0  0  0  0  0  0  0
  -36.0980   63.9600   66.6759 C   0  0  0  0  0  0  0  0  0  0  0  0
  -34.2343   62.9277   67.7730 O   0  0  0  0  0  0  0  0  0  0  0  0
  -34.6734   64.1343   67.1418 C   0  0  0  0  0  0  0  0  0  0  0  0
  -34.8405   62.7020   68.4958 H   0  0  0  0  0  0  0  0  0  0  0  0
  -33.0075   63.3633   65.5769 O   0  0  0  0  0  0  0  0  0  0  0  0
  -33.7403   64.5011   66.0129 C   0  0  0  0  0  0  0  0  0  0  0  0
  -32.4147   63.6184   64.8528 H   0  0  0  0  0  0  0  0  0  0  0  0
  -39.3945   60.7695   64.0174 O   0  0  0  0  0  0  0  0  0  0  0  0
  -41.4698   60.3513   63.2570 O   0  0  0  0  0  0  0  0  0  0  0  0
  -40.2851   60.4130   63.0720 C   0  0  0  0  0  0  0  0  0  0  0  0
  -39.6238   60.1213   61.7606 C   0  0  0  0  0  0  0  0  0  0  0  0
  -38.3198   59.3531   61.9510 C   0  0  0  0  0  0  0  0  0  0  0  0
  -38.3904   57.9003   61.5098 C   0  0  0  0  0  0  0  0  0  0  0  0
  -37.4583   57.5692   60.3499 C   0  0  0  0  0  0  0  0  0  0  0  0
  -37.5770   58.5191   59.1727 C   0  0  0  0  0  0  0  0  0  0  0  0
  -37.2756   57.8865   57.8111 C   0  0  0  0  0  0  0  0  0  0  0  0
  -36.4452   56.6021   57.8589 C   0  0  0  0  0  0  0  0  0  0  0  0
  -34.9723   56.8819   57.8698 C   0  0  0  0  0  0  0  0  0  0  0  0
  -34.0871   56.4078   58.7248 C   0  0  0  0  0  0  0  0  0  0  0  0
  -34.3704   55.4851   59.8680 C   0  0  0  0  0  0  0  0  0  0  0  0
  -34.0214   56.1059   61.2176 C   0  0  0  0  0  0  0  0  0  0  0  0
  -33.2037   57.3810   61.1088 C   0  0  0  0  0  0  0  0  0  0  0  0
  -32.7548   57.9338   62.4504 C   0  0  0  0  0  0  0  0  0  0  0  0
  -33.5245   59.1585   62.9163 C   0  0  0  0  0  0  0  0  0  0  0  0
  -34.9538   58.8517   63.3366 C   0  0  0  0  0  0  0  0  0  0  0  0
  -35.0707   57.8026   64.4246 C   0  0  0  0  0  0  0  0  0  0  0  0
  -36.3840   57.0721   64.3892 C   0  0  0  0  0  0  0  0  0  0  0  0
 21 22  1  0  0  0
  4  5  2  0  0  0
 25 24  1  0  0  0
 25 26  2  0  0  0
 25 27  1  0  0  0
 25 29  1  0  0  0
 22 20  1  0  0  0
  3  5  1  0  0  0
  3  2  1  0  0  0
 20 19  1  0  0  0
 24 23  1  0  0  0
 19 18  1  0  0  0
 18 17  1  0  0  0
 27 28  1  0  0  0
 17 16  1  0  0  0
 29 30  1  0  0  0
 16 15  1  0  0  0
 34 35  1  0  0  0
 34 36  1  0  0  0
 15 14  1  0  0  0
 31 32  1  0  0  0
 31 33  1  0  0  0
 14 13  1  0  0  0
 37  1  1  0  0  0
 37 39  1  0  0  0
 13 12  1  0  0  0
 38 39  2  0  0  0
 12 11  1  0  0  0
 11 10  1  0  0  0
 10  9  1  0  0  0
  9  8  1  0  0  0
  8  7  1  0  0  0
  7  6  1  0  0  0
  6  5  1  0  0  0
  2  1  1  0  0  0
  1 23  1  0  0  0
 30 32  1  0  0  0
 32 35  1  0  0  0
 39 40  1  0  0  0
 40 41  1  0  0  0
 41 42  1  0  0  0
 42 43  1  0  0  0
 43 44  1  0  0  0
 44 45  1  0  0  0
 45 46  1  0  0  0
 46 47  1  0  0  0
 47 48  2  0  0  0
 48 49  1  0  0  0
 49 50  1  0  0  0
 50 51  1  0  0  0
 51 52  1  0  0  0
 52 53  1  0  0  0
 53 54  1  0  0  0
 54 55  1  0  0  0
 55 56  1  0  0  0
M  CHG 1  26  -1
M  END
> <minimizedAffinity>
-8.85337

> <CNNscore>
0.5759597421

> <CNNaffinity>
7.4480829239

> <CNN_VS>
4.2897958755

> <CNNaffinity_variance>
0.8118767738

$$$$
/media/chris/experiments/cd1a-new-docking/inputs/ligands/7sh4_ligand.pdb


 56 55  0  0  0  0  0  0  0  0999 V2000
  -35.2715   59.6961   63.9008 C   0  0  0  0  0  0  0  0  0  0  0  0
  -34.6917   58.3282   64.1254 C   0  0  0  0  0  0  0  0  0  0  0  0
  -35.5716   57.4510   63.3909 O   0  0  0  0  0  0  0  0  0  0  0  0
  -34.1058   56.9359   61.7829 O   0  0  0  0  0  0  0  0  0  0  0  0
  -35.2313   57.1691   62.1329 C   0  0  0  0  0  0  0  0  0  0  0  0
  -36.4441   57.0600   61.2542 C   0  0  0  0  0  0  0  0  0  0  0  0
  -37.7617   57.0729   62.0108 C   0  0  0  0  0  0  0  0  0  0  0  0
  -38.6856   58.1845   61.5602 C   0  0  0  0  0  0  0  0  0  0  0  0
  -38.3349   58.7731   60.2123 C   0  0  0  0  0  0  0  0  0  0  0  0
  -38.8621   60.1813   60.0245 C   0  0  0  0  0  0  0  0  0  0  0  0
  -40.3439   60.2282   59.7430 C   0  0  0  0  0  0  0  0  0  0  0  0
  -40.7260   59.5033   58.4795 C   0  0  0  0  0  0  0  0  0  0  0  0
  -42.1856   59.6608   58.1151 C   0  0  0  0  0  0  0  0  0  0  0  0
  -42.5741   58.8535   56.8929 C   0  0  0  0  0  0  0  0  0  0  0  0
  -43.8256   58.0206   57.0746 C   0  0  0  0  0  0  0  0  0  0  0  0
  -44.5592   58.2885   58.3839 C   0  0  0  0  0  0  0  0  0  0  0  0
  -46.0005   57.8164   58.3904 C   0  0  0  0  0  0  0  0  0  0  0  0
  -46.5132   57.4288   57.0185 C   0  0  0  0  0  0  0  0  0  0  0  0
  -47.6840   56.4566   57.0568 C   0  0  0  0  0  0  0  0  0  0  0  0
  -47.5686   55.4091   58.1497 C   0  0  0  0  0  0  0  0  0  0  0  0
  -49.4001   56.7880   59.1889 C   0  0  0  0  0  0  0  0  0  0  0  0
  -48.3575   55.7155   59.4086 C   0  0  0  0  0  0  0  0  0  0  0  0
  -34.2127   60.7687   63.9120 C   0  0  0  0  0  0  0  0  0  0  0  0
  -34.5959   61.8103   62.9865 O   0  0  0  0  0  0  0  0  0  0  0  0
  -33.8206   63.2067   62.8827 P   0  0  0  0  0  0  0  0  0  0  0  0
  -32.5606   63.0888   63.6476 O   0  0  0  0  0  0  0  0  0  0  0  0
  -33.7524   63.5915   61.4524 O   0  0  0  0  0  0  0  0  0  0  0  0
  -33.1898   62.9620   60.9747 H   0  0  0  0  0  0  0  0  0  0  0  0
  -34.7519   64.2634   63.6304 O   0  0  0  0  0  0  0  0  0  0  0  0
  -34.6688   64.4121   65.0625 C   0  0  0  0  0  0  0  0  0  0  0  0
  -36.6915   63.1561   64.7902 O   0  0  0  0  0  0  0  0  0  0  0  0
  -36.0147   64.0733   65.6549 C   0  0  0  0  0  0  0  0  0  0  0  0
  -36.7583   63.5391   63.9015 H   0  0  0  0  0  0  0  0  0  0  0  0
  -36.3382   62.1397   67.0603 O   0  0  0  0  0  0  0  0  0  0  0  0
  -35.9016   63.4928   67.0441 C   0  0  0  0  0  0  0  0  0  0  0  0
  -36.2582   61.7849   67.9595 H   0  0  0  0  0  0  0  0  0  0  0  0
  -36.2965   59.9361   64.9215 O   0  0  0  0  0  0  0  0  0  0  0  0
  -37.7605   60.7744   63.4334 O   0  0  0  0  0  0  0  0  0  0  0  0
  -37.5337   60.2402   64.4846 C   0  0  0  0  0  0  0  0  0  0  0  0
  -38.5912   59.8165   65.4565 C   0  0  0  0  0  0  0  0  0  0  0  0
  -39.0296   58.3761   65.2124 C   0  0  0  0  0  0  0  0  0  0  0  0
  -40.5375   58.1883   65.1783 C   0  0  0  0  0  0  0  0  0  0  0  0
  -41.3069   59.3035   65.8768 C   0  0  0  0  0  0  0  0  0  0  0  0
  -42.6426   58.8668   66.4491 C   0  0  0  0  0  0  0  0  0  0  0  0
  -42.8859   57.3553   66.4162 C   0  0  0  0  0  0  0  0  0  0  0  0
  -44.3537   56.9336   66.3199 C   0  0  0  0  0  0  0  0  0  0  0  0
  -44.9467   57.2540   64.9806 C   0  0  0  0  0  0  0  0  0  0  0  0
  -45.8181   58.2072   64.7131 C   0  0  0  0  0  0  0  0  0  0  0  0
  -46.3986   59.1739   65.6964 C   0  0  0  0  0  0  0  0  0  0  0  0
  -47.5642   58.5778   66.4804 C   0  0  0  0  0  0  0  0  0  0  0  0
  -48.7552   58.2073   65.6141 C   0  0  0  0  0  0  0  0  0  0  0  0
  -49.9350   59.1523   65.7630 C   0  0  0  0  0  0  0  0  0  0  0  0
  -50.8306   59.2393   64.5384 C   0  0  0  0  0  0  0  0  0  0  0  0
  -50.5174   58.1894   63.4833 C   0  0  0  0  0  0  0  0  0  0  0  0
  -50.7492   58.6513   62.0581 C   0  0  0  0  0  0  0  0  0  0  0  0
  -49.7489   59.6804   61.6105 C   0  0  0  0  0  0  0  0  0  0  0  0
 21 22  1  0  0  0
  4  5  2  0  0  0
 25 24  1  0  0  0
 25 26  2  0  0  0
 25 27  1  0  0  0
 25 29  1  0  0  0
 22 20  1  0  0  0
  3  5  1  0  0  0
  3  2  1  0  0  0
 20 19  1  0  0  0
 24 23  1  0  0  0
 19 18  1  0  0  0
 18 17  1  0  0  0
 27 28  1  0  0  0
 17 16  1  0  0  0
 29 30  1  0  0  0
 16 15  1  0  0  0
 34 35  1  0  0  0
 34 36  1  0  0  0
 15 14  1  0  0  0
 31 32  1  0  0  0
 31 33  1  0  0  0
 14 13  1  0  0  0
 37  1  1  0  0  0
 37 39  1  0  0  0
 13 12  1  0  0  0
 38 39  2  0  0  0
 12 11  1  0  0  0
 11 10  1  0  0  0
 10  9  1  0  0  0
  9  8  1  0  0  0
  8  7  1  0  0  0
  7  6  1  0  0  0
  6  5  1  0  0  0
  2  1  1  0  0  0
  1 23  1  0  0  0
 30 32  1  0  0  0
 32 35  1  0  0  0
 39 40  1  0  0  0
 40 41  1  0  0  0
 41 42  1  0  0  0
 42 43  1  0  0  0
 43 44  1  0  0  0
 44 45  1  0  0  0
 45 46  1  0  0  0
 46 47  1  0  0  0
 47 48  2  0  0  0
 48 49  1  0  0  0
 49 50  1  0  0  0
 50 51  1  0  0  0
 51 52  1  0  0  0
 52 53  1  0  0  0
 53 54  1  0  0  0
 54 55  1  0  0  0
 55 56  1  0  0  0
M  CHG 1  26  -1
M  END
> <minimizedAffinity>
-8.17433

> <CNNscore>
0.5556541085

> <CNNaffinity>
7.5847139359

> <CNN_VS>
4.2144775391

> <CNNaffinity_variance>
0.8668943644

$$$$
/media/chris/experiments/cd1a-new-docking/inputs/ligands/7sh4_ligand.pdb


 56 55  0  0  0  0  0  0  0  0999 V2000
  -38.4827   59.9899   65.0831 C   0  0  0  0  0  0  0  0  0  0  0  0
  -38.1517   58.7118   65.8002 C   0  0  0  0  0  0  0  0  0  0  0  0
  -37.9607   57.7543   64.7373 O   0  0  0  0  0  0  0  0  0  0  0  0
  -35.7253   57.8023   64.7161 O   0  0  0  0  0  0  0  0  0  0  0  0
  -36.7734   57.7542   64.1305 C   0  0  0  0  0  0  0  0  0  0  0  0
  -36.9214   57.5605   62.6488 C   0  0  0  0  0  0  0  0  0  0  0  0
  -38.3432   57.2678   62.2002 C   0  0  0  0  0  0  0  0  0  0  0  0
  -39.0841   58.5100   61.7525 C   0  0  0  0  0  0  0  0  0  0  0  0
  -38.1862   59.6783   61.4135 C   0  0  0  0  0  0  0  0  0  0  0  0
  -38.3320   60.1418   59.9782 C   0  0  0  0  0  0  0  0  0  0  0  0
  -38.3846   59.0034   58.9889 C   0  0  0  0  0  0  0  0  0  0  0  0
  -37.0603   58.3055   58.8240 C   0  0  0  0  0  0  0  0  0  0  0  0
  -36.9941   57.4264   57.5949 C   0  0  0  0  0  0  0  0  0  0  0  0
  -36.5146   56.0226   57.9045 C   0  0  0  0  0  0  0  0  0  0  0  0
  -36.5089   55.6830   59.3802 C   0  0  0  0  0  0  0  0  0  0  0  0
  -35.2158   55.0318   59.8575 C   0  0  0  0  0  0  0  0  0  0  0  0
  -33.9725   55.8550   59.5805 C   0  0  0  0  0  0  0  0  0  0  0  0
  -33.8885   57.1174   60.4138 C   0  0  0  0  0  0  0  0  0  0  0  0
  -33.1551   56.9292   61.7345 C   0  0  0  0  0  0  0  0  0  0  0  0
  -32.9304   58.2241   62.4947 C   0  0  0  0  0  0  0  0  0  0  0  0
  -31.7930   60.4376   62.1164 C   0  0  0  0  0  0  0  0  0  0  0  0
  -31.6312   58.9352   62.1671 C   0  0  0  0  0  0  0  0  0  0  0  0
  -37.4530   61.0620   65.3323 C   0  0  0  0  0  0  0  0  0  0  0  0
  -37.3603   61.8998   64.1584 O   0  0  0  0  0  0  0  0  0  0  0  0
  -35.9648   62.2851   63.4758 P   0  0  0  0  0  0  0  0  0  0  0  0
  -35.1714   61.0463   63.3249 O   0  0  0  0  0  0  0  0  0  0  0  0
  -36.2501   63.0996   62.2700 O   0  0  0  0  0  0  0  0  0  0  0  0
  -36.7038   62.5523   61.6100 H   0  0  0  0  0  0  0  0  0  0  0  0
  -35.2211   63.2188   64.5330 O   0  0  0  0  0  0  0  0  0  0  0  0
  -35.9811   64.1366   65.3454 C   0  0  0  0  0  0  0  0  0  0  0  0
  -36.3670   63.7645   67.6811 O   0  0  0  0  0  0  0  0  0  0  0  0
  -35.3766   64.1612   66.7278 C   0  0  0  0  0  0  0  0  0  0  0  0
  -37.1426   64.3414   67.6004 H   0  0  0  0  0  0  0  0  0  0  0  0
  -34.5449   61.9137   67.0034 O   0  0  0  0  0  0  0  0  0  0  0  0
  -34.1608   63.2729   66.8394 C   0  0  0  0  0  0  0  0  0  0  0  0
  -33.7518   61.3597   67.0731 H   0  0  0  0  0  0  0  0  0  0  0  0
  -39.8221   60.4185   65.4981 O   0  0  0  0  0  0  0  0  0  0  0  0
  -40.8634   61.2184   63.6717 O   0  0  0  0  0  0  0  0  0  0  0  0
  -40.7849   60.4103   64.5563 C   0  0  0  0  0  0  0  0  0  0  0  0
  -41.7326   59.2646   64.7335 C   0  0  0  0  0  0  0  0  0  0  0  0
  -41.9142   58.9123   66.2064 C   0  0  0  0  0  0  0  0  0  0  0  0
  -43.3482   59.0304   66.6961 C   0  0  0  0  0  0  0  0  0  0  0  0
  -44.3798   58.5418   65.6857 C   0  0  0  0  0  0  0  0  0  0  0  0
  -45.5818   59.4562   65.5399 C   0  0  0  0  0  0  0  0  0  0  0  0
  -46.8318   58.9894   66.2912 C   0  0  0  0  0  0  0  0  0  0  0  0
  -48.0704   59.8685   66.1047 C   0  0  0  0  0  0  0  0  0  0  0  0
  -48.1850   60.3932   64.7049 C   0  0  0  0  0  0  0  0  0  0  0  0
  -49.2092   60.2403   63.8882 C   0  0  0  0  0  0  0  0  0  0  0  0
  -50.4783   59.5083   64.1913 C   0  0  0  0  0  0  0  0  0  0  0  0
  -51.1244   58.9203   62.9401 C   0  0  0  0  0  0  0  0  0  0  0  0
  -50.2175   57.9740   62.1731 C   0  0  0  0  0  0  0  0  0  0  0  0
  -50.8850   57.3308   60.9699 C   0  0  0  0  0  0  0  0  0  0  0  0
  -50.1938   57.6053   59.6447 C   0  0  0  0  0  0  0  0  0  0  0  0
  -48.6849   57.7524   59.7678 C   0  0  0  0  0  0  0  0  0  0  0  0
  -47.8963   56.9393   58.7603 C   0  0  0  0  0  0  0  0  0  0  0  0
  -47.9885   55.4594   59.0077 C   0  0  0  0  0  0  0  0  0  0  0  0
 21 22  1  0  0  0
  4  5  2  0  0  0
 25 24  1  0  0  0
 25 26  2  0  0  0
 25 27  1  0  0  0
 25 29  1  0  0  0
 22 20  1  0  0  0
  3  5  1  0  0  0
  3  2  1  0  0  0
 20 19  1  0  0  0
 24 23  1  0  0  0
 19 18  1  0  0  0
 18 17  1  0  0  0
 27 28  1  0  0  0
 17 16  1  0  0  0
 29 30  1  0  0  0
 16 15  1  0  0  0
 34 35  1  0  0  0
 34 36  1  0  0  0
 15 14  1  0  0  0
 31 32  1  0  0  0
 31 33  1  0  0  0
 14 13  1  0  0  0
 37  1  1  0  0  0
 37 39  1  0  0  0
 13 12  1  0  0  0
 38 39  2  0  0  0
 12 11  1  0  0  0
 11 10  1  0  0  0
 10  9  1  0  0  0
  9  8  1  0  0  0
  8  7  1  0  0  0
  7  6  1  0  0  0
  6  5  1  0  0  0
  2  1  1  0  0  0
  1 23  1  0  0  0
 30 32  1  0  0  0
 32 35  1  0  0  0
 39 40  1  0  0  0
 40 41  1  0  0  0
 41 42  1  0  0  0
 42 43  1  0  0  0
 43 44  1  0  0  0
 44 45  1  0  0  0
 45 46  1  0  0  0
 46 47  1  0  0  0
 47 48  2  0  0  0
 48 49  1  0  0  0
 49 50  1  0  0  0
 50 51  1  0  0  0
 51 52  1  0  0  0
 52 53  1  0  0  0
 53 54  1  0  0  0
 54 55  1  0  0  0
 55 56  1  0  0  0
M  CHG 1  26  -1
M  END
> <minimizedAffinity>
-8.81851

> <CNNscore>
0.5170512795

> <CNNaffinity>
7.4713683128

> <CNN_VS>
3.8630805016

> <CNNaffinity_variance>
0.6965817809

$$$$
/media/chris/experiments/cd1a-new-docking/inputs/ligands/7sh4_ligand.pdb


 56 55  0  0  0  0  0  0  0  0999 V2000
  -38.9378   60.0676   65.4135 C   0  0  0  0  0  0  0  0  0  0  0  0
  -39.1193   58.5775   65.4783 C   0  0  0  0  0  0  0  0  0  0  0  0
  -37.8680   58.0516   64.9875 O   0  0  0  0  0  0  0  0  0  0  0  0
  -38.8429   57.4733   63.0601 O   0  0  0  0  0  0  0  0  0  0  0  0
  -37.8578   57.5830   63.7392 C   0  0  0  0  0  0  0  0  0  0  0  0
  -36.4549   57.3358   63.2640 C   0  0  0  0  0  0  0  0  0  0  0  0
  -35.3889   57.5961   64.3148 C   0  0  0  0  0  0  0  0  0  0  0  0
  -34.8307   59.0020   64.2480 C   0  0  0  0  0  0  0  0  0  0  0  0
  -33.8656   59.2314   63.1069 C   0  0  0  0  0  0  0  0  0  0  0  0
  -32.8072   58.1524   62.9989 C   0  0  0  0  0  0  0  0  0  0  0  0
  -32.6722   57.5902   61.6050 C   0  0  0  0  0  0  0  0  0  0  0  0
  -33.5408   56.3824   61.3710 C   0  0  0  0  0  0  0  0  0  0  0  0
  -33.9480   56.2069   59.9249 C   0  0  0  0  0  0  0  0  0  0  0  0
  -34.9812   55.1147   59.7362 C   0  0  0  0  0  0  0  0  0  0  0  0
  -36.3663   55.6257   59.3990 C   0  0  0  0  0  0  0  0  0  0  0  0
  -36.4539   56.3202   58.0447 C   0  0  0  0  0  0  0  0  0  0  0  0
  -37.1648   57.6593   58.0837 C   0  0  0  0  0  0  0  0  0  0  0  0
  -37.4015   58.1745   59.4887 C   0  0  0  0  0  0  0  0  0  0  0  0
  -37.9798   59.5819   59.5333 C   0  0  0  0  0  0  0  0  0  0  0  0
  -38.3334   60.0496   60.9338 C   0  0  0  0  0  0  0  0  0  0  0  0
  -40.5943   60.3472   59.8681 C   0  0  0  0  0  0  0  0  0  0  0  0
  -39.8091   60.3181   61.1598 C   0  0  0  0  0  0  0  0  0  0  0  0
  -37.7606   60.5307   66.2329 C   0  0  0  0  0  0  0  0  0  0  0  0
  -37.3644   61.8436   65.7772 O   0  0  0  0  0  0  0  0  0  0  0  0
  -36.3219   62.7603   66.5739 P   0  0  0  0  0  0  0  0  0  0  0  0
  -36.7248   64.1721   66.3965 O   0  0  0  0  0  0  0  0  0  0  0  0
  -36.1934   62.2238   67.9503 O   0  0  0  0  0  0  0  0  0  0  0  0
  -37.0330   62.3394   68.4221 H   0  0  0  0  0  0  0  0  0  0  0  0
  -34.9248   62.5517   65.8343 O   0  0  0  0  0  0  0  0  0  0  0  0
  -34.7899   62.8885   64.4384 C   0  0  0  0  0  0  0  0  0  0  0  0
  -34.6542   65.2810   64.4545 O   0  0  0  0  0  0  0  0  0  0  0  0
  -33.8788   64.0858   64.3237 C   0  0  0  0  0  0  0  0  0  0  0  0
  -35.3609   65.2822   63.7900 H   0  0  0  0  0  0  0  0  0  0  0  0
  -33.1568   64.7876   66.5157 O   0  0  0  0  0  0  0  0  0  0  0  0
  -32.7729   64.0671   65.3515 C   0  0  0  0  0  0  0  0  0  0  0  0
  -32.4348   64.7643   67.1631 H   0  0  0  0  0  0  0  0  0  0  0  0
  -40.1849   60.7038   65.8495 O   0  0  0  0  0  0  0  0  0  0  0  0
  -41.6646   60.1281   64.2561 O   0  0  0  0  0  0  0  0  0  0  0  0
  -41.3350   60.1575   65.4103 C   0  0  0  0  0  0  0  0  0  0  0  0
  -42.1426   59.5763   66.5293 C   0  0  0  0  0  0  0  0  0  0  0  0
  -43.0633   58.4650   66.0353 C   0  0  0  0  0  0  0  0  0  0  0  0
  -44.4997   58.5961   66.5147 C   0  0  0  0  0  0  0  0  0  0  0  0
  -45.3111   57.3141   66.3672 C   0  0  0  0  0  0  0  0  0  0  0  0
  -46.6266   57.4975   65.6337 C   0  0  0  0  0  0  0  0  0  0  0  0
  -46.7097   58.7683   64.7832 C   0  0  0  0  0  0  0  0  0  0  0  0
  -47.8487   59.7229   65.1477 C   0  0  0  0  0  0  0  0  0  0  0  0
  -48.9981   59.0099   65.7944 C   0  0  0  0  0  0  0  0  0  0  0  0
  -50.2014   58.8315   65.2846 C   0  0  0  0  0  0  0  0  0  0  0  0
  -50.6718   59.3052   63.9457 C   0  0  0  0  0  0  0  0  0  0  0  0
  -50.7356   58.1783   62.9187 C   0  0  0  0  0  0  0  0  0  0  0  0
  -49.4462   57.9911   62.1385 C   0  0  0  0  0  0  0  0  0  0  0  0
  -49.4794   58.6049   60.7495 C   0  0  0  0  0  0  0  0  0  0  0  0
  -49.9965   57.6767   59.6631 C   0  0  0  0  0  0  0  0  0  0  0  0
  -48.8917   57.0434   58.8313 C   0  0  0  0  0  0  0  0  0  0  0  0
  -47.5073   57.5922   59.1146 C   0  0  0  0  0  0  0  0  0  0  0  0
  -46.6758   57.7426   57.8713 C   0  0  0  0  0  0  0  0  0  0  0  0
 21 22  1  0  0  0
  4  5  2  0  0  0
 25 24  1  0  0  0
 25 26  2  0  0  0
 25 27  1  0  0  0
 25 29  1  0  0  0
 22 20  1  0  0  0
  3  5  1  0  0  0
  3  2  1  0  0  0
 20 19  1  0  0  0
 24 23  1  0  0  0
 19 18  1  0  0  0
 18 17  1  0  0  0
 27 28  1  0  0  0
 17 16  1  0  0  0
 29 30  1  0  0  0
 16 15  1  0  0  0
 34 35  1  0  0  0
 34 36  1  0  0  0
 15 14  1  0  0  0
 31 32  1  0  0  0
 31 33  1  0  0  0
 14 13  1  0  0  0
 37  1  1  0  0  0
 37 39  1  0  0  0
 13 12  1  0  0  0
 38 39  2  0  0  0
 12 11  1  0  0  0
 11 10  1  0  0  0
 10  9  1  0  0  0
  9  8  1  0  0  0
  8  7  1  0  0  0
  7  6  1  0  0  0
  6  5  1  0  0  0
  2  1  1  0  0  0
  1 23  1  0  0  0
 30 32  1  0  0  0
 32 35  1  0  0  0
 39 40  1  0  0  0
 40 41  1  0  0  0
 41 42  1  0  0  0
 42 43  1  0  0  0
 43 44  1  0  0  0
 44 45  1  0  0  0
 45 46  1  0  0  0
 46 47  1  0  0  0
 47 48  2  0  0  0
 48 49  1  0  0  0
 49 50  1  0  0  0
 50 51  1  0  0  0
 51 52  1  0  0  0
 52 53  1  0  0  0
 53 54  1  0  0  0
 54 55  1  0  0  0
 55 56  1  0  0  0
M  CHG 1  26  -1
M  END
> <minimizedAffinity>
-8.88653

> <CNNscore>
0.5106062293

> <CNNaffinity>
7.5433540344

> <CNN_VS>
3.8516836166

> <CNNaffinity_variance>
1.1818939447

$$$$
/media/chris/experiments/cd1a-new-docking/inputs/ligands/7sh4_ligand.pdb


 56 55  0  0  0  0  0  0  0  0999 V2000
  -37.3606   61.0047   64.8895 C   0  0  0  0  0  0  0  0  0  0  0  0
  -38.1574   60.3494   65.9819 C   0  0  0  0  0  0  0  0  0  0  0  0
  -39.2702   59.7461   65.2886 O   0  0  0  0  0  0  0  0  0  0  0  0
  -40.8541   60.9518   66.3071 O   0  0  0  0  0  0  0  0  0  0  0  0
  -40.4797   59.9178   65.8232 C   0  0  0  0  0  0  0  0  0  0  0  0
  -41.3377   58.7013   65.6259 C   0  0  0  0  0  0  0  0  0  0  0  0
  -42.6638   58.7506   66.3659 C   0  0  0  0  0  0  0  0  0  0  0  0
  -43.6174   57.6568   65.9338 C   0  0  0  0  0  0  0  0  0  0  0  0
  -44.8655   58.1600   65.2447 C   0  0  0  0  0  0  0  0  0  0  0  0
  -46.1333   57.8549   66.0165 C   0  0  0  0  0  0  0  0  0  0  0  0
  -46.8271   59.0920   66.5321 C   0  0  0  0  0  0  0  0  0  0  0  0
  -48.0413   59.4658   65.7235 C   0  0  0  0  0  0  0  0  0  0  0  0
  -48.9811   58.3058   65.4803 C   0  0  0  0  0  0  0  0  0  0  0  0
  -50.2094   58.7040   64.6874 C   0  0  0  0  0  0  0  0  0  0  0  0
  -49.9430   59.7363   63.6120 C   0  0  0  0  0  0  0  0  0  0  0  0
  -50.0774   59.1962   62.1928 C   0  0  0  0  0  0  0  0  0  0  0  0
  -50.9962   57.9953   62.0749 C   0  0  0  0  0  0  0  0  0  0  0  0
  -50.8933   57.2876   60.7392 C   0  0  0  0  0  0  0  0  0  0  0  0
  -49.4982   56.7608   60.4336 C   0  0  0  0  0  0  0  0  0  0  0  0
  -48.8692   57.3856   59.2011 C   0  0  0  0  0  0  0  0  0  0  0  0
  -46.7965   57.6236   57.7928 C   0  0  0  0  0  0  0  0  0  0  0  0
  -47.3534   57.3394   59.1693 C   0  0  0  0  0  0  0  0  0  0  0  0
  -36.5495   62.1679   65.4001 C   0  0  0  0  0  0  0  0  0  0  0  0
  -35.2838   62.1940   64.7033 O   0  0  0  0  0  0  0  0  0  0  0  0
  -34.7715   63.4692   63.8827 P   0  0  0  0  0  0  0  0  0  0  0  0
  -33.4599   63.1340   63.2877 O   0  0  0  0  0  0  0  0  0  0  0  0
  -35.8673   63.9129   62.9877 O   0  0  0  0  0  0  0  0  0  0  0  0
  -36.0282   63.2348   62.3130 H   0  0  0  0  0  0  0  0  0  0  0  0
  -34.5388   64.6082   64.9742 O   0  0  0  0  0  0  0  0  0  0  0  0
  -33.5948   64.3999   66.0444 C   0  0  0  0  0  0  0  0  0  0  0  0
  -31.3402   64.6685   65.2781 O   0  0  0  0  0  0  0  0  0  0  0  0
  -32.4473   65.3625   65.8607 C   0  0  0  0  0  0  0  0  0  0  0  0
  -31.1068   63.9082   65.8334 H   0  0  0  0  0  0  0  0  0  0  0  0
  -32.7429   66.2239   63.6270 O   0  0  0  0  0  0  0  0  0  0  0  0
  -32.8245   66.5505   65.0085 C   0  0  0  0  0  0  0  0  0  0  0  0
  -32.9883   66.9980   63.0967 H   0  0  0  0  0  0  0  0  0  0  0  0
  -38.2840   61.4134   63.8264 O   0  0  0  0  0  0  0  0  0  0  0  0
  -36.8613   61.1093   62.1106 O   0  0  0  0  0  0  0  0  0  0  0  0
  -37.9691   61.0458   62.5695 C   0  0  0  0  0  0  0  0  0  0  0  0
  -39.1599   60.5324   61.8207 C   0  0  0  0  0  0  0  0  0  0  0  0
  -39.3979   59.0513   62.0973 C   0  0  0  0  0  0  0  0  0  0  0  0
  -38.3584   58.1334   61.4753 C   0  0  0  0  0  0  0  0  0  0  0  0
  -37.9084   57.0073   62.3990 C   0  0  0  0  0  0  0  0  0  0  0  0
  -37.3929   57.4821   63.7448 C   0  0  0  0  0  0  0  0  0  0  0  0
  -35.9635   57.0401   64.0711 C   0  0  0  0  0  0  0  0  0  0  0  0
  -35.0469   58.1424   64.6064 C   0  0  0  0  0  0  0  0  0  0  0  0
  -34.5752   59.0618   63.5200 C   0  0  0  0  0  0  0  0  0  0  0  0
  -33.5118   58.8986   62.7571 C   0  0  0  0  0  0  0  0  0  0  0  0
  -32.5500   57.7542   62.8165 C   0  0  0  0  0  0  0  0  0  0  0  0
  -32.5902   56.8938   61.5568 C   0  0  0  0  0  0  0  0  0  0  0  0
  -33.8056   55.9868   61.4769 C   0  0  0  0  0  0  0  0  0  0  0  0
  -34.7335   56.3112   60.3188 C   0  0  0  0  0  0  0  0  0  0  0  0
  -34.0374   56.4568   58.9759 C   0  0  0  0  0  0  0  0  0  0  0  0
  -34.9627   56.9205   57.8613 C   0  0  0  0  0  0  0  0  0  0  0  0
  -36.4381   56.8134   58.1927 C   0  0  0  0  0  0  0  0  0  0  0  0
  -37.1519   58.1332   58.1011 C   0  0  0  0  0  0  0  0  0  0  0  0
 21 22  1  0  0  0
  4  5  2  0  0  0
 25 24  1  0  0  0
 25 26  2  0  0  0
 25 27  1  0  0  0
 25 29  1  0  0  0
 22 20  1  0  0  0
  3  5  1  0  0  0
  3  2  1  0  0  0
 20 19  1  0  0  0
 24 23  1  0  0  0
 19 18  1  0  0  0
 18 17  1  0  0  0
 27 28  1  0  0  0
 17 16  1  0  0  0
 29 30  1  0  0  0
 16 15  1  0  0  0
 34 35  1  0  0  0
 34 36  1  0  0  0
 15 14  1  0  0  0
 31 32  1  0  0  0
 31 33  1  0  0  0
 14 13  1  0  0  0
 37  1  1  0  0  0
 37 39  1  0  0  0
 13 12  1  0  0  0
 38 39  2  0  0  0
 12 11  1  0  0  0
 11 10  1  0  0  0
 10  9  1  0  0  0
  9  8  1  0  0  0
  8  7  1  0  0  0
  7  6  1  0  0  0
  6  5  1  0  0  0
  2  1  1  0  0  0
  1 23  1  0  0  0
 30 32  1  0  0  0
 32 35  1  0  0  0
 39 40  1  0  0  0
 40 41  1  0  0  0
 41 42  1  0  0  0
 42 43  1  0  0  0
 43 44  1  0  0  0
 44 45  1  0  0  0
 45 46  1  0  0  0
 46 47  1  0  0  0
 47 48  2  0  0  0
 48 49  1  0  0  0
 49 50  1  0  0  0
 50 51  1  0  0  0
 51 52  1  0  0  0
 52 53  1  0  0  0
 53 54  1  0  0  0
 54 55  1  0  0  0
 55 56  1  0  0  0
M  CHG 1  26  -1
M  END
> <minimizedAffinity>
-8.68649

> <CNNscore>
0.4598535597

> <CNNaffinity>
7.2607116699

> <CNN_VS>
3.3388640881

> <CNNaffinity_variance>
0.9389182925

$$$$
/media/chris/experiments/cd1a-new-docking/inputs/ligands/7sh4_ligand.pdb


 56 55  0  0  0  0  0  0  0  0999 V2000
  -36.7989   60.8178   64.9542 C   0  0  0  0  0  0  0  0  0  0  0  0
  -38.2543   60.8201   64.5804 C   0  0  0  0  0  0  0  0  0  0  0  0
  -38.8934   60.1073   65.6605 O   0  0  0  0  0  0  0  0  0  0  0  0
  -39.5185   58.0510   65.0434 O   0  0  0  0  0  0  0  0  0  0  0  0
  -39.7965   59.1855   65.3249 C   0  0  0  0  0  0  0  0  0  0  0  0
  -41.1935   59.7172   65.4684 C   0  0  0  0  0  0  0  0  0  0  0  0
  -41.9889   59.0763   66.5932 C   0  0  0  0  0  0  0  0  0  0  0  0
  -43.4810   59.0872   66.3363 C   0  0  0  0  0  0  0  0  0  0  0  0
  -43.9803   57.9053   65.5365 C   0  0  0  0  0  0  0  0  0  0  0  0
  -45.3232   58.1570   64.8813 C   0  0  0  0  0  0  0  0  0  0  0  0
  -46.0125   59.3966   65.3965 C   0  0  0  0  0  0  0  0  0  0  0  0
  -47.2160   59.0898   66.2481 C   0  0  0  0  0  0  0  0  0  0  0  0
  -48.1408   58.0631   65.6329 C   0  0  0  0  0  0  0  0  0  0  0  0
  -49.6041   58.3748   65.8732 C   0  0  0  0  0  0  0  0  0  0  0  0
  -50.4369   58.4436   64.6103 C   0  0  0  0  0  0  0  0  0  0  0  0
  -49.6207   58.3347   63.3275 C   0  0  0  0  0  0  0  0  0  0  0  0
  -50.3890   58.7087   62.0745 C   0  0  0  0  0  0  0  0  0  0  0  0
  -50.9108   57.5105   61.3081 C   0  0  0  0  0  0  0  0  0  0  0  0
  -50.4338   57.4551   59.8636 C   0  0  0  0  0  0  0  0  0  0  0  0
  -49.1377   56.6858   59.6806 C   0  0  0  0  0  0  0  0  0  0  0  0
  -47.0836   56.5472   58.2323 C   0  0  0  0  0  0  0  0  0  0  0  0
  -48.0368   57.4553   58.9757 C   0  0  0  0  0  0  0  0  0  0  0  0
  -36.5624   61.4255   66.3131 C   0  0  0  0  0  0  0  0  0  0  0  0
  -35.5931   62.4895   66.1844 O   0  0  0  0  0  0  0  0  0  0  0  0
  -35.8962   63.9973   66.6279 P   0  0  0  0  0  0  0  0  0  0  0  0
  -36.5513   64.6850   65.4945 O   0  0  0  0  0  0  0  0  0  0  0  0
  -36.5907   63.9624   67.9376 O   0  0  0  0  0  0  0  0  0  0  0  0
  -37.4655   63.5576   67.8290 H   0  0  0  0  0  0  0  0  0  0  0  0
  -34.4666   64.6679   66.8493 O   0  0  0  0  0  0  0  0  0  0  0  0
  -33.3219   64.1852   66.1166 C   0  0  0  0  0  0  0  0  0  0  0  0
  -31.0535   64.8078   65.6589 O   0  0  0  0  0  0  0  0  0  0  0  0
  -32.3567   65.3306   65.9334 C   0  0  0  0  0  0  0  0  0  0  0  0
  -30.7900   64.2055   66.3721 H   0  0  0  0  0  0  0  0  0  0  0  0
  -34.0879   65.9452   64.3701 O   0  0  0  0  0  0  0  0  0  0  0  0
  -32.7833   66.2713   64.8321 C   0  0  0  0  0  0  0  0  0  0  0  0
  -34.3439   66.5593   63.6643 H   0  0  0  0  0  0  0  0  0  0  0  0
  -36.0526   61.5236   63.9080 O   0  0  0  0  0  0  0  0  0  0  0  0
  -34.2891   60.1408   64.1042 O   0  0  0  0  0  0  0  0  0  0  0  0
  -34.7579   61.1878   63.7494 C   0  0  0  0  0  0  0  0  0  0  0  0
  -33.9791   62.2666   63.0625 C   0  0  0  0  0  0  0  0  0  0  0  0
  -32.5823   62.4128   63.6576 C   0  0  0  0  0  0  0  0  0  0  0  0
  -31.5131   62.7730   62.6392 C   0  0  0  0  0  0  0  0  0  0  0  0
  -31.3032   61.7051   61.5718 C   0  0  0  0  0  0  0  0  0  0  0  0
  -30.9526   60.3376   62.1280 C   0  0  0  0  0  0  0  0  0  0  0  0
  -31.6557   59.1682   61.4330 C   0  0  0  0  0  0  0  0  0  0  0  0
  -32.5657   58.3281   62.3316 C   0  0  0  0  0  0  0  0  0  0  0  0
  -33.3598   57.3242   61.5508 C   0  0  0  0  0  0  0  0  0  0  0  0
  -34.5187   56.7972   61.8951 C   0  0  0  0  0  0  0  0  0  0  0  0
  -35.2876   57.0946   63.1435 C   0  0  0  0  0  0  0  0  0  0  0  0
  -36.5528   57.9027   62.8696 C   0  0  0  0  0  0  0  0  0  0  0  0
  -37.6583   57.0986   62.2083 C   0  0  0  0  0  0  0  0  0  0  0  0
  -38.4224   57.8707   61.1466 C   0  0  0  0  0  0  0  0  0  0  0  0
  -37.6113   58.9471   60.4447 C   0  0  0  0  0  0  0  0  0  0  0  0
  -37.3013   58.6209   58.9917 C   0  0  0  0  0  0  0  0  0  0  0  0
  -36.2677   57.5275   58.8066 C   0  0  0  0  0  0  0  0  0  0  0  0
  -36.6707   56.5160   57.7702 C   0  0  0  0  0  0  0  0  0  0  0  0
 21 22  1  0  0  0
  4  5  2  0  0  0
 25 24  1  0  0  0
 25 26  2  0  0  0
 25 27  1  0  0  0
 25 29  1  0  0  0
 22 20  1  0  0  0
  3  5  1  0  0  0
  3  2  1  0  0  0
 20 19  1  0  0  0
 24 23  1  0  0  0
 19 18  1  0  0  0
 18 17  1  0  0  0
 27 28  1  0  0  0
 17 16  1  0  0  0
 29 30  1  0  0  0
 16 15  1  0  0  0
 34 35  1  0  0  0
 34 36  1  0  0  0
 15 14  1  0  0  0
 31 32  1  0  0  0
 31 33  1  0  0  0
 14 13  1  0  0  0
 37  1  1  0  0  0
 37 39  1  0  0  0
 13 12  1  0  0  0
 38 39  2  0  0  0
 12 11  1  0  0  0
 11 10  1  0  0  0
 10  9  1  0  0  0
  9  8  1  0  0  0
  8  7  1  0  0  0
  7  6  1  0  0  0
  6  5  1  0  0  0
  2  1  1  0  0  0
  1 23  1  0  0  0
 30 32  1  0  0  0
 32 35  1  0  0  0
 39 40  1  0  0  0
 40 41  1  0  0  0
 41 42  1  0  0  0
 42 43  1  0  0  0
 43 44  1  0  0  0
 44 45  1  0  0  0
 45 46  1  0  0  0
 46 47  1  0  0  0
 47 48  2  0  0  0
 48 49  1  0  0  0
 49 50  1  0  0  0
 50 51  1  0  0  0
 51 52  1  0  0  0
 52 53  1  0  0  0
 53 54  1  0  0  0
 54 55  1  0  0  0
 55 56  1  0  0  0
M  CHG 1  26  -1
M  END
> <minimizedAffinity>
-8.23291

> <CNNscore>
0.4308178127

> <CNNaffinity>
7.1015992165

> <CNN_VS>
3.0594954491

> <CNNaffinity_variance>
0.7225189805

$$$$
/media/chris/experiments/cd1a-new-docking/inputs/ligands/7sh4_ligand.pdb


 56 55  0  0  0  0  0  0  0  0999 V2000
  -37.1979   60.1483   65.4059 C   0  0  0  0  0  0  0  0  0  0  0  0
  -38.5639   60.7699   65.3338 C   0  0  0  0  0  0  0  0  0  0  0  0
  -39.4566   59.6941   65.6927 O   0  0  0  0  0  0  0  0  0  0  0  0
  -41.0496   61.1248   66.3372 O   0  0  0  0  0  0  0  0  0  0  0  0
  -40.7142   60.0255   65.9870 C   0  0  0  0  0  0  0  0  0  0  0  0
  -41.6551   58.8901   65.7029 C   0  0  0  0  0  0  0  0  0  0  0  0
  -42.7118   58.6771   66.7736 C   0  0  0  0  0  0  0  0  0  0  0  0
  -43.8583   57.8082   66.3012 C   0  0  0  0  0  0  0  0  0  0  0  0
  -44.6121   58.3681   65.1162 C   0  0  0  0  0  0  0  0  0  0  0  0
  -45.6378   59.4134   65.5055 C   0  0  0  0  0  0  0  0  0  0  0  0
  -46.9433   58.8189   65.9742 C   0  0  0  0  0  0  0  0  0  0  0  0
  -47.4727   57.7569   65.0471 C   0  0  0  0  0  0  0  0  0  0  0  0
  -48.7838   58.1310   64.3922 C   0  0  0  0  0  0  0  0  0  0  0  0
  -48.6097   59.1175   63.2553 C   0  0  0  0  0  0  0  0  0  0  0  0
  -49.7760   59.1606   62.2903 C   0  0  0  0  0  0  0  0  0  0  0  0
  -50.6852   57.9395   62.3680 C   0  0  0  0  0  0  0  0  0  0  0  0
  -50.9231   57.2622   61.0319 C   0  0  0  0  0  0  0  0  0  0  0  0
  -50.2163   57.9430   59.8777 C   0  0  0  0  0  0  0  0  0  0  0  0
  -49.2253   57.0431   59.1528 C   0  0  0  0  0  0  0  0  0  0  0  0
  -47.8385   57.6472   59.0226 C   0  0  0  0  0  0  0  0  0  0  0  0
  -47.7926   56.4898   56.7878 C   0  0  0  0  0  0  0  0  0  0  0  0
  -46.9750   57.0272   57.9405 C   0  0  0  0  0  0  0  0  0  0  0  0
  -36.1105   61.1841   65.5336 C   0  0  0  0  0  0  0  0  0  0  0  0
  -36.7149   62.4549   65.8625 O   0  0  0  0  0  0  0  0  0  0  0  0
  -35.8602   63.7889   66.0900 P   0  0  0  0  0  0  0  0  0  0  0  0
  -36.5995   64.9157   65.4812 O   0  0  0  0  0  0  0  0  0  0  0  0
  -35.4994   63.8666   67.5261 O   0  0  0  0  0  0  0  0  0  0  0  0
  -36.3024   63.9961   68.0547 H   0  0  0  0  0  0  0  0  0  0  0  0
  -34.5165   63.5766   65.2581 O   0  0  0  0  0  0  0  0  0  0  0  0
  -33.2459   63.9431   65.8337 C   0  0  0  0  0  0  0  0  0  0  0  0
  -33.9570   65.8391   64.5522 O   0  0  0  0  0  0  0  0  0  0  0  0
  -32.8864   65.3269   65.3513 C   0  0  0  0  0  0  0  0  0  0  0  0
  -34.1403   65.2240   63.8248 H   0  0  0  0  0  0  0  0  0  0  0  0
  -33.2090   65.8283   67.6886 O   0  0  0  0  0  0  0  0  0  0  0  0
  -32.5874   66.2728   66.4896 C   0  0  0  0  0  0  0  0  0  0  0  0
  -33.0058   66.4476   68.4070 H   0  0  0  0  0  0  0  0  0  0  0  0
  -37.0096   59.3089   64.2185 O   0  0  0  0  0  0  0  0  0  0  0  0
  -37.7299   57.2205   64.6428 O   0  0  0  0  0  0  0  0  0  0  0  0
  -36.8339   57.9896   64.4251 C   0  0  0  0  0  0  0  0  0  0  0  0
  -35.3924   57.5949   64.3326 C   0  0  0  0  0  0  0  0  0  0  0  0
  -34.6193   58.5178   63.3960 C   0  0  0  0  0  0  0  0  0  0  0  0
  -33.1208   58.2646   63.3797 C   0  0  0  0  0  0  0  0  0  0  0  0
  -32.6299   57.5913   62.1032 C   0  0  0  0  0  0  0  0  0  0  0  0
  -33.6991   57.4347   61.0380 C   0  0  0  0  0  0  0  0  0  0  0  0
  -34.0087   55.9848   60.6548 C   0  0  0  0  0  0  0  0  0  0  0  0
  -33.6299   55.5937   59.2247 C   0  0  0  0  0  0  0  0  0  0  0  0
  -33.8218   56.7254   58.2601 C   0  0  0  0  0  0  0  0  0  0  0  0
  -34.9483   57.0738   57.6693 C   0  0  0  0  0  0  0  0  0  0  0  0
  -36.2775   56.4091   57.8411 C   0  0  0  0  0  0  0  0  0  0  0  0
  -37.3094   57.3291   58.4872 C   0  0  0  0  0  0  0  0  0  0  0  0
  -37.3341   57.2475   60.0035 C   0  0  0  0  0  0  0  0  0  0  0  0
  -37.3879   58.6032   60.6863 C   0  0  0  0  0  0  0  0  0  0  0  0
  -38.0864   59.6865   59.8812 C   0  0  0  0  0  0  0  0  0  0  0  0
  -39.4652   60.0436   60.4149 C   0  0  0  0  0  0  0  0  0  0  0  0
  -39.5748   60.0109   61.9265 C   0  0  0  0  0  0  0  0  0  0  0  0
  -40.8724   60.5809   62.4278 C   0  0  0  0  0  0  0  0  0  0  0  0
 21 22  1  0  0  0
  4  5  2  0  0  0
 25 24  1  0  0  0
 25 26  2  0  0  0
 25 27  1  0  0  0
 25 29  1  0  0  0
 22 20  1  0  0  0
  3  5  1  0  0  0
  3  2  1  0  0  0
 20 19  1  0  0  0
 24 23  1  0  0  0
 19 18  1  0  0  0
 18 17  1  0  0  0
 27 28  1  0  0  0
 17 16  1  0  0  0
 29 30  1  0  0  0
 16 15  1  0  0  0
 34 35  1  0  0  0
 34 36  1  0  0  0
 15 14  1  0  0  0
 31 32  1  0  0  0
 31 33  1  0  0  0
 14 13  1  0  0  0
 37  1  1  0  0  0
 37 39  1  0  0  0
 13 12  1  0  0  0
 38 39  2  0  0  0
 12 11  1  0  0  0
 11 10  1  0  0  0
 10  9  1  0  0  0
  9  8  1  0  0  0
  8  7  1  0  0  0
  7  6  1  0  0  0
  6  5  1  0  0  0
  2  1  1  0  0  0
  1 23  1  0  0  0
 30 32  1  0  0  0
 32 35  1  0  0  0
 39 40  1  0  0  0
 40 41  1  0  0  0
 41 42  1  0  0  0
 42 43  1  0  0  0
 43 44  1  0  0  0
 44 45  1  0  0  0
 45 46  1  0  0  0
 46 47  1  0  0  0
 47 48  2  0  0  0
 48 49  1  0  0  0
 49 50  1  0  0  0
 50 51  1  0  0  0
 51 52  1  0  0  0
 52 53  1  0  0  0
 53 54  1  0  0  0
 54 55  1  0  0  0
 55 56  1  0  0  0
M  CHG 1  26  -1
M  END
> <minimizedAffinity>
-8.72327

> <CNNscore>
0.4177523255

> <CNNaffinity>
7.3805174828

> <CNN_VS>
3.0832283497

> <CNNaffinity_variance>
0.7853249907

$$$$
/media/chris/experiments/cd1a-new-docking/inputs/ligands/7sh4_ligand.pdb


 56 55  0  0  0  0  0  0  0  0999 V2000
  -37.3560   60.8323   65.2408 C   0  0  0  0  0  0  0  0  0  0  0  0
  -38.3817   60.0137   65.9725 C   0  0  0  0  0  0  0  0  0  0  0  0
  -39.4962   59.9513   65.0575 O   0  0  0  0  0  0  0  0  0  0  0  0
  -40.9623   61.1078   66.2874 O   0  0  0  0  0  0  0  0  0  0  0  0
  -40.7076   60.1826   65.5645 C   0  0  0  0  0  0  0  0  0  0  0  0
  -41.7189   59.2182   65.0150 C   0  0  0  0  0  0  0  0  0  0  0  0
  -42.8245   58.8548   65.9918 C   0  0  0  0  0  0  0  0  0  0  0  0
  -44.2087   59.0688   65.4167 C   0  0  0  0  0  0  0  0  0  0  0  0
  -45.0276   57.8045   65.2868 C   0  0  0  0  0  0  0  0  0  0  0  0
  -46.4262   58.0549   64.7602 C   0  0  0  0  0  0  0  0  0  0  0  0
  -47.3178   58.7588   65.7536 C   0  0  0  0  0  0  0  0  0  0  0  0
  -48.7041   58.1740   65.8176 C   0  0  0  0  0  0  0  0  0  0  0  0
  -49.7874   59.1528   65.4220 C   0  0  0  0  0  0  0  0  0  0  0  0
  -50.7997   58.5514   64.4683 C   0  0  0  0  0  0  0  0  0  0  0  0
  -50.7292   59.1068   63.0612 C   0  0  0  0  0  0  0  0  0  0  0  0
  -50.5298   58.0427   61.9881 C   0  0  0  0  0  0  0  0  0  0  0  0
  -49.1316   58.0136   61.4013 C   0  0  0  0  0  0  0  0  0  0  0  0
  -49.1153   57.9507   59.8877 C   0  0  0  0  0  0  0  0  0  0  0  0
  -48.0567   57.0111   59.3273 C   0  0  0  0  0  0  0  0  0  0  0  0
  -47.3069   57.5814   58.1366 C   0  0  0  0  0  0  0  0  0  0  0  0
  -47.6679   55.2967   57.1438 C   0  0  0  0  0  0  0  0  0  0  0  0
  -46.8191   56.5478   57.1392 C   0  0  0  0  0  0  0  0  0  0  0  0
  -36.2552   59.9782   64.6658 C   0  0  0  0  0  0  0  0  0  0  0  0
  -36.6645   59.5073   63.3624 O   0  0  0  0  0  0  0  0  0  0  0  0
  -36.9329   57.9620   63.0433 P   0  0  0  0  0  0  0  0  0  0  0  0
  -35.9004   57.1646   63.7396 O   0  0  0  0  0  0  0  0  0  0  0  0
  -38.3612   57.6749   63.3198 O   0  0  0  0  0  0  0  0  0  0  0  0
  -38.5303   57.7625   64.2709 H   0  0  0  0  0  0  0  0  0  0  0  0
  -36.6971   57.8076   61.4738 O   0  0  0  0  0  0  0  0  0  0  0  0
  -37.8253   57.7325   60.5785 C   0  0  0  0  0  0  0  0  0  0  0  0
  -38.4751   58.6249   58.4515 O   0  0  0  0  0  0  0  0  0  0  0  0
  -37.7924   58.9365   59.6696 C   0  0  0  0  0  0  0  0  0  0  0  0
  -38.0741   57.8391   58.0481 H   0  0  0  0  0  0  0  0  0  0  0  0
  -37.4277   60.8784   61.0535 O   0  0  0  0  0  0  0  0  0  0  0  0
  -38.4042   60.1585   60.3118 C   0  0  0  0  0  0  0  0  0  0  0  0
  -37.8390   61.6583   61.4577 H   0  0  0  0  0  0  0  0  0  0  0  0
  -36.8308   61.8448   66.1621 O   0  0  0  0  0  0  0  0  0  0  0  0
  -36.5385   63.6084   64.7967 O   0  0  0  0  0  0  0  0  0  0  0  0
  -36.1121   62.8477   65.6219 C   0  0  0  0  0  0  0  0  0  0  0  0
  -34.7265   62.9113   66.1862 C   0  0  0  0  0  0  0  0  0  0  0  0
  -34.3608   64.3299   66.6111 C   0  0  0  0  0  0  0  0  0  0  0  0
  -33.5960   65.1115   65.5555 C   0  0  0  0  0  0  0  0  0  0  0  0
  -32.0920   64.8643   65.5841 C   0  0  0  0  0  0  0  0  0  0  0  0
  -31.5435   64.2494   64.3101 C   0  0  0  0  0  0  0  0  0  0  0  0
  -32.2075   64.7500   63.0242 C   0  0  0  0  0  0  0  0  0  0  0  0
  -32.7757   63.6572   62.1162 C   0  0  0  0  0  0  0  0  0  0  0  0
  -33.2593   62.4707   62.8950 C   0  0  0  0  0  0  0  0  0  0  0  0
  -32.7305   61.2624   62.8983 C   0  0  0  0  0  0  0  0  0  0  0  0
  -31.5298   60.8223   62.1219 C   0  0  0  0  0  0  0  0  0  0  0  0
  -31.3170   59.3125   62.1848 C   0  0  0  0  0  0  0  0  0  0  0  0
  -32.5818   58.5312   62.4949 C   0  0  0  0  0  0  0  0  0  0  0  0
  -33.2620   57.9583   61.2635 C   0  0  0  0  0  0  0  0  0  0  0  0
  -33.3657   56.4422   61.2493 C   0  0  0  0  0  0  0  0  0  0  0  0
  -34.0726   55.8951   60.0187 C   0  0  0  0  0  0  0  0  0  0  0  0
  -34.4631   56.9518   59.0044 C   0  0  0  0  0  0  0  0  0  0  0  0
  -33.7593   56.7815   57.6870 C   0  0  0  0  0  0  0  0  0  0  0  0
 21 22  1  0  0  0
  4  5  2  0  0  0
 25 24  1  0  0  0
 25 26  2  0  0  0
 25 27  1  0  0  0
 25 29  1  0  0  0
 22 20  1  0  0  0
  3  5  1  0  0  0
  3  2  1  0  0  0
 20 19  1  0  0  0
 24 23  1  0  0  0
 19 18  1  0  0  0
 18 17  1  0  0  0
 27 28  1  0  0  0
 17 16  1  0  0  0
 29 30  1  0  0  0
 16 15  1  0  0  0
 34 35  1  0  0  0
 34 36  1  0  0  0
 15 14  1  0  0  0
 31 32  1  0  0  0
 31 33  1  0  0  0
 14 13  1  0  0  0
 37  1  1  0  0  0
 37 39  1  0  0  0
 13 12  1  0  0  0
 38 39  2  0  0  0
 12 11  1  0  0  0
 11 10  1  0  0  0
 10  9  1  0  0  0
  9  8  1  0  0  0
  8  7  1  0  0  0
  7  6  1  0  0  0
  6  5  1  0  0  0
  2  1  1  0  0  0
  1 23  1  0  0  0
 30 32  1  0  0  0
 32 35  1  0  0  0
 39 40  1  0  0  0
 40 41  1  0  0  0
 41 42  1  0  0  0
 42 43  1  0  0  0
 43 44  1  0  0  0
 44 45  1  0  0  0
 45 46  1  0  0  0
 46 47  1  0  0  0
 47 48  2  0  0  0
 48 49  1  0  0  0
 49 50  1  0  0  0
 50 51  1  0  0  0
 51 52  1  0  0  0
 52 53  1  0  0  0
 53 54  1  0  0  0
 54 55  1  0  0  0
 55 56  1  0  0  0
M  CHG 1  26  -1
M  END
> <minimizedAffinity>
-8.43722

> <CNNscore>
0.4174412489

> <CNNaffinity>
6.8782987595

> <CNN_VS>
2.8712856770

> <CNNaffinity_variance>
0.7109037638

$$$$
/media/chris/experiments/cd1a-new-docking/inputs/ligands/7sh4_ligand.pdb


 56 55  0  0  0  0  0  0  0  0999 V2000
  -38.5934   60.8217   64.5511 C   0  0  0  0  0  0  0  0  0  0  0  0
  -38.3321   60.8204   63.0715 C   0  0  0  0  0  0  0  0  0  0  0  0
  -39.6197   60.5259   62.4897 O   0  0  0  0  0  0  0  0  0  0  0  0
  -40.6562   60.3547   60.5159 O   0  0  0  0  0  0  0  0  0  0  0  0
  -39.6526   60.3073   61.1747 C   0  0  0  0  0  0  0  0  0  0  0  0
  -38.2692   60.1228   60.6206 C   0  0  0  0  0  0  0  0  0  0  0  0
  -38.2128   59.2711   59.3635 C   0  0  0  0  0  0  0  0  0  0  0  0
  -37.0076   58.3553   59.3295 C   0  0  0  0  0  0  0  0  0  0  0  0
  -36.6642   57.8346   57.9522 C   0  0  0  0  0  0  0  0  0  0  0  0
  -36.4668   56.3326   57.9179 C   0  0  0  0  0  0  0  0  0  0  0  0
  -36.4715   55.7015   59.2887 C   0  0  0  0  0  0  0  0  0  0  0  0
  -35.1797   55.0013   59.6185 C   0  0  0  0  0  0  0  0  0  0  0  0
  -34.0346   55.9512   59.8913 C   0  0  0  0  0  0  0  0  0  0  0  0
  -33.9423   56.3532   61.3494 C   0  0  0  0  0  0  0  0  0  0  0  0
  -32.5822   56.8765   61.7613 C   0  0  0  0  0  0  0  0  0  0  0  0
  -32.6156   57.7799   62.9888 C   0  0  0  0  0  0  0  0  0  0  0  0
  -33.6824   58.8565   62.9328 C   0  0  0  0  0  0  0  0  0  0  0  0
  -34.5679   58.8910   64.1617 C   0  0  0  0  0  0  0  0  0  0  0  0
  -35.2013   57.5476   64.4953 C   0  0  0  0  0  0  0  0  0  0  0  0
  -36.6995   57.5052   64.2530 C   0  0  0  0  0  0  0  0  0  0  0  0
  -38.5900   57.1066   62.6396 C   0  0  0  0  0  0  0  0  0  0  0  0
  -37.1031   57.3266   62.8017 C   0  0  0  0  0  0  0  0  0  0  0  0
  -37.3219   60.6967   65.3507 C   0  0  0  0  0  0  0  0  0  0  0  0
  -37.2393   61.8088   66.2699 O   0  0  0  0  0  0  0  0  0  0  0  0
  -36.1926   63.0064   66.0907 P   0  0  0  0  0  0  0  0  0  0  0  0
  -36.5370   63.7337   64.8501 O   0  0  0  0  0  0  0  0  0  0  0  0
  -36.1321   63.7612   67.3655 O   0  0  0  0  0  0  0  0  0  0  0  0
  -36.9830   64.1998   67.5222 H   0  0  0  0  0  0  0  0  0  0  0  0
  -34.7789   62.3023   65.8707 O   0  0  0  0  0  0  0  0  0  0  0  0
  -33.5826   62.9018   66.4089 C   0  0  0  0  0  0  0  0  0  0  0  0
  -31.7168   64.2821   65.8120 O   0  0  0  0  0  0  0  0  0  0  0  0
  -32.9803   63.7939   65.3513 C   0  0  0  0  0  0  0  0  0  0  0  0
  -31.8355   64.7348   66.6616 H   0  0  0  0  0  0  0  0  0  0  0  0
  -33.9700   63.2569   63.2181 O   0  0  0  0  0  0  0  0  0  0  0  0
  -32.8142   63.0855   64.0283 C   0  0  0  0  0  0  0  0  0  0  0  0
  -33.8445   62.7956   62.3741 H   0  0  0  0  0  0  0  0  0  0  0  0
  -39.5329   59.7377   64.8548 O   0  0  0  0  0  0  0  0  0  0  0  0
  -40.7503   61.0572   66.2101 O   0  0  0  0  0  0  0  0  0  0  0  0
  -40.6457   60.0677   65.5380 C   0  0  0  0  0  0  0  0  0  0  0  0
  -41.7403   59.0644   65.3447 C   0  0  0  0  0  0  0  0  0  0  0  0
  -42.6217   58.9530   66.5846 C   0  0  0  0  0  0  0  0  0  0  0  0
  -43.9969   58.3657   66.3124 C   0  0  0  0  0  0  0  0  0  0  0  0
  -44.8139   59.1673   65.3056 C   0  0  0  0  0  0  0  0  0  0  0  0
  -46.3103   59.1263   65.5533 C   0  0  0  0  0  0  0  0  0  0  0  0
  -47.1296   58.5293   64.4055 C   0  0  0  0  0  0  0  0  0  0  0  0
  -48.3049   57.6478   64.8337 C   0  0  0  0  0  0  0  0  0  0  0  0
  -49.5480   58.4472   65.0857 C   0  0  0  0  0  0  0  0  0  0  0  0
  -50.5084   58.7037   64.2189 C   0  0  0  0  0  0  0  0  0  0  0  0
  -50.5580   58.2461   62.7954 C   0  0  0  0  0  0  0  0  0  0  0  0
  -49.9097   59.2440   61.8401 C   0  0  0  0  0  0  0  0  0  0  0  0
  -49.6621   58.6846   60.4501 C   0  0  0  0  0  0  0  0  0  0  0  0
  -50.1870   57.2721   60.2589 C   0  0  0  0  0  0  0  0  0  0  0  0
  -49.1173   56.2404   59.9415 C   0  0  0  0  0  0  0  0  0  0  0  0
  -47.8229   56.8495   59.4247 C   0  0  0  0  0  0  0  0  0  0  0  0
  -47.6651   56.7895   57.9182 C   0  0  0  0  0  0  0  0  0  0  0  0
  -47.8571   55.4037   57.3683 C   0  0  0  0  0  0  0  0  0  0  0  0
 21 22  1  0  0  0
  4  5  2  0  0  0
 25 24  1  0  0  0
 25 26  2  0  0  0
 25 27  1  0  0  0
 25 29  1  0  0  0
 22 20  1  0  0  0
  3  5  1  0  0  0
  3  2  1  0  0  0
 20 19  1  0  0  0
 24 23  1  0  0  0
 19 18  1  0  0  0
 18 17  1  0  0  0
 27 28  1  0  0  0
 17 16  1  0  0  0
 29 30  1  0  0  0
 16 15  1  0  0  0
 34 35  1  0  0  0
 34 36  1  0  0  0
 15 14  1  0  0  0
 31 32  1  0  0  0
 31 33  1  0  0  0
 14 13  1  0  0  0
 37  1  1  0  0  0
 37 39  1  0  0  0
 13 12  1  0  0  0
 38 39  2  0  0  0
 12 11  1  0  0  0
 11 10  1  0  0  0
 10  9  1  0  0  0
  9  8  1  0  0  0
  8  7  1  0  0  0
  7  6  1  0  0  0
  6  5  1  0  0  0
  2  1  1  0  0  0
  1 23  1  0  0  0
 30 32  1  0  0  0
 32 35  1  0  0  0
 39 40  1  0  0  0
 40 41  1  0  0  0
 41 42  1  0  0  0
 42 43  1  0  0  0
 43 44  1  0  0  0
 44 45  1  0  0  0
 45 46  1  0  0  0
 46 47  1  0  0  0
 47 48  2  0  0  0
 48 49  1  0  0  0
 49 50  1  0  0  0
 50 51  1  0  0  0
 51 52  1  0  0  0
 52 53  1  0  0  0
 53 54  1  0  0  0
 54 55  1  0  0  0
 55 56  1  0  0  0
M  CHG 1  26  -1
M  END
> <minimizedAffinity>
-8.71986

> <CNNscore>
0.4079927504

> <CNNaffinity>
7.4102659225

> <CNN_VS>
3.0233347416

> <CNNaffinity_variance>
0.7204254866

$$$$
