/media/chris/experiments/cd1a-new-docking/inputs/ligands/7sh4_ligand.pdb


 56 55  0  0  0  0  0  0  0  0999 V2000
  -38.1553   60.5242   64.2898 C   0  0  0  0  0  0  0  0  0  0  0  0
  -38.9878   60.4871   65.5400 C   0  0  0  0  0  0  0  0  0  0  0  0
  -39.1458   59.0786   65.8127 O   0  0  0  0  0  0  0  0  0  0  0  0
  -40.2231   57.3943   64.8119 O   0  0  0  0  0  0  0  0  0  0  0  0
  -40.2314   58.4851   65.3156 C   0  0  0  0  0  0  0  0  0  0  0  0
  -41.4648   59.2991   65.5819 C   0  0  0  0  0  0  0  0  0  0  0  0
  -42.2195   58.8902   66.8355 C   0  0  0  0  0  0  0  0  0  0  0  0
  -43.5403   58.2155   66.5308 C   0  0  0  0  0  0  0  0  0  0  0  0
  -44.1738   58.6535   65.2298 C   0  0  0  0  0  0  0  0  0  0  0  0
  -45.5808   59.1878   65.4052 C   0  0  0  0  0  0  0  0  0  0  0  0
  -46.6469   58.1920   65.0187 C   0  0  0  0  0  0  0  0  0  0  0  0
  -47.9947   58.5145   65.6079 C   0  0  0  0  0  0  0  0  0  0  0  0
  -49.1231   58.4368   64.6035 C   0  0  0  0  0  0  0  0  0  0  0  0
  -48.6301   58.3976   63.1712 C   0  0  0  0  0  0  0  0  0  0  0  0
  -49.6200   58.9404   62.1619 C   0  0  0  0  0  0  0  0  0  0  0  0
  -50.7829   57.9983   61.8716 C   0  0  0  0  0  0  0  0  0  0  0  0
  -50.5063   57.0017   60.7623 C   0  0  0  0  0  0  0  0  0  0  0  0
  -50.3151   57.6487   59.4058 C   0  0  0  0  0  0  0  0  0  0  0  0
  -49.1605   57.0607   58.6066 C   0  0  0  0  0  0  0  0  0  0  0  0
  -47.8177   57.6953   58.9219 C   0  0  0  0  0  0  0  0  0  0  0  0
  -45.4469   58.0733   58.1655 C   0  0  0  0  0  0  0  0  0  0  0  0
  -46.6584   57.1716   58.0956 C   0  0  0  0  0  0  0  0  0  0  0  0
  -36.8181   61.1806   64.5192 C   0  0  0  0  0  0  0  0  0  0  0  0
  -36.8726   62.5349   64.0179 O   0  0  0  0  0  0  0  0  0  0  0  0
  -35.6024   63.2791   63.3898 P   0  0  0  0  0  0  0  0  0  0  0  0
  -34.5214   62.2831   63.2287 O   0  0  0  0  0  0  0  0  0  0  0  0
  -36.0545   64.0385   62.1991 O   0  0  0  0  0  0  0  0  0  0  0  0
  -36.3419   63.4188   61.5103 H   0  0  0  0  0  0  0  0  0  0  0  0
  -35.1399   64.3312   64.4953 O   0  0  0  0  0  0  0  0  0  0  0  0
  -34.1373   63.9649   65.4651 C   0  0  0  0  0  0  0  0  0  0  0  0
  -33.7848   62.5552   67.3707 O   0  0  0  0  0  0  0  0  0  0  0  0
  -34.7951   63.1326   66.5382 C   0  0  0  0  0  0  0  0  0  0  0  0
  -33.1686   62.0433   66.8236 H   0  0  0  0  0  0  0  0  0  0  0  0
  -37.0026   64.0922   66.6944 O   0  0  0  0  0  0  0  0  0  0  0  0
  -35.7639   63.9338   67.3743 C   0  0  0  0  0  0  0  0  0  0  0  0
  -37.6107   64.6086   67.2463 H   0  0  0  0  0  0  0  0  0  0  0  0
  -38.9225   61.2089   63.2446 O   0  0  0  0  0  0  0  0  0  0  0  0
  -40.9803   60.6508   62.5275 O   0  0  0  0  0  0  0  0  0  0  0  0
  -39.7945   60.4629   62.5393 C   0  0  0  0  0  0  0  0  0  0  0  0
  -39.1074   59.3853   61.7592 C   0  0  0  0  0  0  0  0  0  0  0  0
  -38.3204   59.9602   60.5858 C   0  0  0  0  0  0  0  0  0  0  0  0
  -38.5660   59.2428   59.2684 C   0  0  0  0  0  0  0  0  0  0  0  0
  -37.2861   58.8163   58.5586 C   0  0  0  0  0  0  0  0  0  0  0  0
  -37.3214   57.3972   58.0226 C   0  0  0  0  0  0  0  0  0  0  0  0
  -35.9455   56.7949   57.7245 C   0  0  0  0  0  0  0  0  0  0  0  0
  -35.1778   56.2870   58.9469 C   0  0  0  0  0  0  0  0  0  0  0  0
  -36.0875   55.9857   60.1000 C   0  0  0  0  0  0  0  0  0  0  0  0
  -36.1885   56.6700   61.2230 C   0  0  0  0  0  0  0  0  0  0  0  0
  -35.4125   57.8979   61.5812 C   0  0  0  0  0  0  0  0  0  0  0  0
  -35.2870   58.0879   63.0900 C   0  0  0  0  0  0  0  0  0  0  0  0
  -33.8862   58.4604   63.5430 C   0  0  0  0  0  0  0  0  0  0  0  0
  -32.7892   57.6893   62.8293 C   0  0  0  0  0  0  0  0  0  0  0  0
  -31.6844   58.5572   62.2498 C   0  0  0  0  0  0  0  0  0  0  0  0
  -32.0423   60.0345   62.1919 C   0  0  0  0  0  0  0  0  0  0  0  0
  -30.9285   60.9247   61.6774 C   0  0  0  0  0  0  0  0  0  0  0  0
  -31.1019   62.3632   62.0780 C   0  0  0  0  0  0  0  0  0  0  0  0
 21 22  1  0  0  0
  4  5  2  0  0  0
 25 24  1  0  0  0
 25 26  2  0  0  0
 25 27  1  0  0  0
 25 29  1  0  0  0
 22 20  1  0  0  0
  3  5  1  0  0  0
  3  2  1  0  0  0
 20 19  1  0  0  0
 24 23  1  0  0  0
 19 18  1  0  0  0
 18 17  1  0  0  0
 27 28  1  0  0  0
 17 16  1  0  0  0
 29 30  1  0  0  0
 16 15  1  0  0  0
 34 35  1  0  0  0
 34 36  1  0  0  0
 15 14  1  0  0  0
 31 32  1  0  0  0
 31 33  1  0  0  0
 14 13  1  0  0  0
 37  1  1  0  0  0
 37 39  1  0  0  0
 13 12  1  0  0  0
 38 39  2  0  0  0
 12 11  1  0  0  0
 11 10  1  0  0  0
 10  9  1  0  0  0
  9  8  1  0  0  0
  8  7  1  0  0  0
  7  6  1  0  0  0
  6  5  1  0  0  0
  2  1  1  0  0  0
  1 23  1  0  0  0
 30 32  1  0  0  0
 32 35  1  0  0  0
 39 40  1  0  0  0
 40 41  1  0  0  0
 41 42  1  0  0  0
 42 43  1  0  0  0
 43 44  1  0  0  0
 44 45  1  0  0  0
 45 46  1  0  0  0
 46 47  1  0  0  0
 47 48  2  0  0  0
 48 49  1  0  0  0
 49 50  1  0  0  0
 50 51  1  0  0  0
 51 52  1  0  0  0
 52 53  1  0  0  0
 53 54  1  0  0  0
 54 55  1  0  0  0
 55 56  1  0  0  0
M  CHG 1  26  -1
M  END
> <minimizedAffinity>
-8.48929

> <CNNscore>
0.6732157469

> <CNNaffinity>
7.6847333908

> <CNN_VS>
5.1734833717

> <CNNaffinity_variance>
0.7654892802

$$$$
/media/chris/experiments/cd1a-new-docking/inputs/ligands/7sh4_ligand.pdb


 56 55  0  0  0  0  0  0  0  0999 V2000
  -38.0800   59.7737   61.8978 C   0  0  0  0  0  0  0  0  0  0  0  0
  -39.4941   59.5568   61.4385 C   0  0  0  0  0  0  0  0  0  0  0  0
  -39.6111   60.3878   60.2642 O   0  0  0  0  0  0  0  0  0  0  0  0
  -38.9972   59.2011   58.4715 O   0  0  0  0  0  0  0  0  0  0  0  0
  -39.8446   59.7684   59.1067 C   0  0  0  0  0  0  0  0  0  0  0  0
  -41.3096   59.7690   58.7769 C   0  0  0  0  0  0  0  0  0  0  0  0
  -41.6525   59.0685   57.4731 C   0  0  0  0  0  0  0  0  0  0  0  0
  -43.1330   59.1081   57.1581 C   0  0  0  0  0  0  0  0  0  0  0  0
  -43.9914   58.3136   58.1160 C   0  0  0  0  0  0  0  0  0  0  0  0
  -45.4436   58.2400   57.6900 C   0  0  0  0  0  0  0  0  0  0  0  0
  -46.3323   57.5861   58.7197 C   0  0  0  0  0  0  0  0  0  0  0  0
  -47.4689   56.8101   58.1084 C   0  0  0  0  0  0  0  0  0  0  0  0
  -48.8254   57.2074   58.6472 C   0  0  0  0  0  0  0  0  0  0  0  0
  -48.9259   57.0525   60.1513 C   0  0  0  0  0  0  0  0  0  0  0  0
  -50.2840   56.5896   60.6354 C   0  0  0  0  0  0  0  0  0  0  0  0
  -51.0552   57.6501   61.4130 C   0  0  0  0  0  0  0  0  0  0  0  0
  -50.3741   58.0917   62.6941 C   0  0  0  0  0  0  0  0  0  0  0  0
  -51.0375   59.2868   63.3475 C   0  0  0  0  0  0  0  0  0  0  0  0
  -50.7620   59.3971   64.8406 C   0  0  0  0  0  0  0  0  0  0  0  0
  -50.2564   58.1074   65.4622 C   0  0  0  0  0  0  0  0  0  0  0  0
  -48.3449   59.5774   66.1840 C   0  0  0  0  0  0  0  0  0  0  0  0
  -48.8245   58.1612   65.9597 C   0  0  0  0  0  0  0  0  0  0  0  0
  -37.7414   61.2376   62.0161 C   0  0  0  0  0  0  0  0  0  0  0  0
  -36.8270   61.4157   63.1210 O   0  0  0  0  0  0  0  0  0  0  0  0
  -35.7130   62.5646   63.1484 P   0  0  0  0  0  0  0  0  0  0  0  0
  -34.4229   61.9428   63.5164 O   0  0  0  0  0  0  0  0  0  0  0  0
  -35.8012   63.3235   61.8776 O   0  0  0  0  0  0  0  0  0  0  0  0
  -35.5439   62.7491   61.1395 H   0  0  0  0  0  0  0  0  0  0  0  0
  -36.1429   63.5415   64.3333 O   0  0  0  0  0  0  0  0  0  0  0  0
  -36.5139   62.9989   65.6170 C   0  0  0  0  0  0  0  0  0  0  0  0
  -36.4498   63.5489   67.9485 O   0  0  0  0  0  0  0  0  0  0  0  0
  -35.8147   63.7962   66.6906 C   0  0  0  0  0  0  0  0  0  0  0  0
  -37.3945   63.7585   67.8805 H   0  0  0  0  0  0  0  0  0  0  0  0
  -34.1235   62.0771   66.6364 O   0  0  0  0  0  0  0  0  0  0  0  0
  -34.3421   63.4748   66.7783 C   0  0  0  0  0  0  0  0  0  0  0  0
  -33.1734   61.8907   66.6954 H   0  0  0  0  0  0  0  0  0  0  0  0
  -37.1814   59.0834   60.9671 O   0  0  0  0  0  0  0  0  0  0  0  0
  -37.9993   57.0835   61.5929 O   0  0  0  0  0  0  0  0  0  0  0  0
  -37.3284   57.7495   60.8526 C   0  0  0  0  0  0  0  0  0  0  0  0
  -36.5717   57.2006   59.6830 C   0  0  0  0  0  0  0  0  0  0  0  0
  -36.0053   55.8166   59.9835 C   0  0  0  0  0  0  0  0  0  0  0  0
  -34.5094   55.8079   60.2525 C   0  0  0  0  0  0  0  0  0  0  0  0
  -33.9876   57.1151   60.8380 C   0  0  0  0  0  0  0  0  0  0  0  0
  -33.9950   57.1583   62.3547 C   0  0  0  0  0  0  0  0  0  0  0  0
  -34.3979   58.5099   62.9512 C   0  0  0  0  0  0  0  0  0  0  0  0
  -35.1204   58.4383   64.2981 C   0  0  0  0  0  0  0  0  0  0  0  0
  -36.0394   57.2567   64.3840 C   0  0  0  0  0  0  0  0  0  0  0  0
  -37.2943   57.2630   64.7900 C   0  0  0  0  0  0  0  0  0  0  0  0
  -38.0669   58.4585   65.2507 C   0  0  0  0  0  0  0  0  0  0  0  0
  -39.5576   58.3408   64.9468 C   0  0  0  0  0  0  0  0  0  0  0  0
  -40.3311   59.6263   65.1828 C   0  0  0  0  0  0  0  0  0  0  0  0
  -41.7542   59.5877   64.6531 C   0  0  0  0  0  0  0  0  0  0  0  0
  -42.8077   59.2687   65.7010 C   0  0  0  0  0  0  0  0  0  0  0  0
  -44.1756   58.9621   65.1107 C   0  0  0  0  0  0  0  0  0  0  0  0
  -44.6911   57.5716   65.4245 C   0  0  0  0  0  0  0  0  0  0  0  0
  -43.6121   56.6495   65.9197 C   0  0  0  0  0  0  0  0  0  0  0  0
 21 22  1  0  0  0
  4  5  2  0  0  0
 25 24  1  0  0  0
 25 26  2  0  0  0
 25 27  1  0  0  0
 25 29  1  0  0  0
 22 20  1  0  0  0
  3  5  1  0  0  0
  3  2  1  0  0  0
 20 19  1  0  0  0
 24 23  1  0  0  0
 19 18  1  0  0  0
 18 17  1  0  0  0
 27 28  1  0  0  0
 17 16  1  0  0  0
 29 30  1  0  0  0
 16 15  1  0  0  0
 34 35  1  0  0  0
 34 36  1  0  0  0
 15 14  1  0  0  0
 31 32  1  0  0  0
 31 33  1  0  0  0
 14 13  1  0  0  0
 37  1  1  0  0  0
 37 39  1  0  0  0
 13 12  1  0  0  0
 38 39  2  0  0  0
 12 11  1  0  0  0
 11 10  1  0  0  0
 10  9  1  0  0  0
  9  8  1  0  0  0
  8  7  1  0  0  0
  7  6  1  0  0  0
  6  5  1  0  0  0
  2  1  1  0  0  0
  1 23  1  0  0  0
 30 32  1  0  0  0
 32 35  1  0  0  0
 39 40  1  0  0  0
 40 41  1  0  0  0
 41 42  1  0  0  0
 42 43  1  0  0  0
 43 44  1  0  0  0
 44 45  1  0  0  0
 45 46  1  0  0  0
 46 47  1  0  0  0
 47 48  2  0  0  0
 48 49  1  0  0  0
 49 50  1  0  0  0
 50 51  1  0  0  0
 51 52  1  0  0  0
 52 53  1  0  0  0
 53 54  1  0  0  0
 54 55  1  0  0  0
 55 56  1  0  0  0
M  CHG 1  26  -1
M  END
> <minimizedAffinity>
-8.29263

> <CNNscore>
0.6142471433

> <CNNaffinity>
7.8060503006

> <CNN_VS>
4.7948441505

> <CNNaffinity_variance>
0.4861694276

$$$$
/media/chris/experiments/cd1a-new-docking/inputs/ligands/7sh4_ligand.pdb


 56 55  0  0  0  0  0  0  0  0999 V2000
  -35.1828   60.7151   63.6455 C   0  0  0  0  0  0  0  0  0  0  0  0
  -34.1722   59.6742   63.2548 C   0  0  0  0  0  0  0  0  0  0  0  0
  -34.7236   58.4426   63.7668 O   0  0  0  0  0  0  0  0  0  0  0  0
  -36.0685   56.8190   63.0223 O   0  0  0  0  0  0  0  0  0  0  0  0
  -35.1184   57.5384   62.8698 C   0  0  0  0  0  0  0  0  0  0  0  0
  -34.3031   57.6301   61.6122 C   0  0  0  0  0  0  0  0  0  0  0  0
  -33.8359   56.2874   61.0762 C   0  0  0  0  0  0  0  0  0  0  0  0
  -34.3735   55.9893   59.6924 C   0  0  0  0  0  0  0  0  0  0  0  0
  -35.8592   56.2253   59.5412 C   0  0  0  0  0  0  0  0  0  0  0  0
  -36.2383   56.7659   58.1774 C   0  0  0  0  0  0  0  0  0  0  0  0
  -37.1362   57.9769   58.2471 C   0  0  0  0  0  0  0  0  0  0  0  0
  -37.6841   58.2244   59.6278 C   0  0  0  0  0  0  0  0  0  0  0  0
  -38.1193   59.6555   59.8533 C   0  0  0  0  0  0  0  0  0  0  0  0
  -39.5632   59.7647   60.2999 C   0  0  0  0  0  0  0  0  0  0  0  0
  -40.4794   60.4040   59.2777 C   0  0  0  0  0  0  0  0  0  0  0  0
  -41.6417   59.5147   58.8506 C   0  0  0  0  0  0  0  0  0  0  0  0
  -41.8300   59.4263   57.3483 C   0  0  0  0  0  0  0  0  0  0  0  0
  -43.0718   58.6597   56.9413 C   0  0  0  0  0  0  0  0  0  0  0  0
  -44.0167   58.3698   58.0991 C   0  0  0  0  0  0  0  0  0  0  0  0
  -45.4821   58.3681   57.7018 C   0  0  0  0  0  0  0  0  0  0  0  0
  -47.4534   56.8181   57.4843 C   0  0  0  0  0  0  0  0  0  0  0  0
  -46.3182   57.2898   58.3645 C   0  0  0  0  0  0  0  0  0  0  0  0
  -35.4043   60.7579   65.1358 C   0  0  0  0  0  0  0  0  0  0  0  0
  -34.3119   61.4793   65.7479 O   0  0  0  0  0  0  0  0  0  0  0  0
  -34.4922   62.9219   66.4175 P   0  0  0  0  0  0  0  0  0  0  0  0
  -35.8065   63.4580   66.0032 O   0  0  0  0  0  0  0  0  0  0  0  0
  -34.1974   62.7987   67.8655 O   0  0  0  0  0  0  0  0  0  0  0  0
  -34.8736   62.2456   68.2872 H   0  0  0  0  0  0  0  0  0  0  0  0
  -33.3608   63.8356   65.7632 O   0  0  0  0  0  0  0  0  0  0  0  0
  -32.6695   63.3902   64.5784 C   0  0  0  0  0  0  0  0  0  0  0  0
  -34.1796   65.0615   63.7602 O   0  0  0  0  0  0  0  0  0  0  0  0
  -33.3995   63.9268   63.3716 C   0  0  0  0  0  0  0  0  0  0  0  0
  -34.7789   64.8104   64.4804 H   0  0  0  0  0  0  0  0  0  0  0  0
  -31.9377   63.1352   61.6238 O   0  0  0  0  0  0  0  0  0  0  0  0
  -32.4598   64.2999   62.2503 C   0  0  0  0  0  0  0  0  0  0  0  0
  -31.3373   63.3949   60.9075 H   0  0  0  0  0  0  0  0  0  0  0  0
  -36.4281   60.4445   62.9204 O   0  0  0  0  0  0  0  0  0  0  0  0
  -38.0181   61.6926   63.9075 O   0  0  0  0  0  0  0  0  0  0  0  0
  -37.5793   60.6188   63.5977 C   0  0  0  0  0  0  0  0  0  0  0  0
  -38.2538   59.3169   63.9010 C   0  0  0  0  0  0  0  0  0  0  0  0
  -39.4982   59.5189   64.7596 C   0  0  0  0  0  0  0  0  0  0  0  0
  -40.7988   59.5029   63.9732 C   0  0  0  0  0  0  0  0  0  0  0  0
  -42.0401   59.6568   64.8447 C   0  0  0  0  0  0  0  0  0  0  0  0
  -42.2389   58.5289   65.8401 C   0  0  0  0  0  0  0  0  0  0  0  0
  -43.6793   58.3603   66.3318 C   0  0  0  0  0  0  0  0  0  0  0  0
  -44.7293   59.1625   65.5602 C   0  0  0  0  0  0  0  0  0  0  0  0
  -45.5727   58.2894   64.6801 C   0  0  0  0  0  0  0  0  0  0  0  0
  -46.8897   58.2796   64.6105 C   0  0  0  0  0  0  0  0  0  0  0  0
  -47.8218   59.1442   65.3992 C   0  0  0  0  0  0  0  0  0  0  0  0
  -48.1347   60.4596   64.6918 C   0  0  0  0  0  0  0  0  0  0  0  0
  -49.0913   60.3098   63.5218 C   0  0  0  0  0  0  0  0  0  0  0  0
  -50.4499   59.7539   63.9121 C   0  0  0  0  0  0  0  0  0  0  0  0
  -51.1179   58.9119   62.8377 C   0  0  0  0  0  0  0  0  0  0  0  0
  -50.1360   58.2999   61.8503 C   0  0  0  0  0  0  0  0  0  0  0  0
  -50.7529   57.2866   60.9067 C   0  0  0  0  0  0  0  0  0  0  0  0
  -50.3466   57.5022   59.4755 C   0  0  0  0  0  0  0  0  0  0  0  0
 21 22  1  0  0  0
  4  5  2  0  0  0
 25 24  1  0  0  0
 25 26  2  0  0  0
 25 27  1  0  0  0
 25 29  1  0  0  0
 22 20  1  0  0  0
  3  5  1  0  0  0
  3  2  1  0  0  0
 20 19  1  0  0  0
 24 23  1  0  0  0
 19 18  1  0  0  0
 18 17  1  0  0  0
 27 28  1  0  0  0
 17 16  1  0  0  0
 29 30  1  0  0  0
 16 15  1  0  0  0
 34 35  1  0  0  0
 34 36  1  0  0  0
 15 14  1  0  0  0
 31 32  1  0  0  0
 31 33  1  0  0  0
 14 13  1  0  0  0
 37  1  1  0  0  0
 37 39  1  0  0  0
 13 12  1  0  0  0
 38 39  2  0  0  0
 12 11  1  0  0  0
 11 10  1  0  0  0
 10  9  1  0  0  0
  9  8  1  0  0  0
  8  7  1  0  0  0
  7  6  1  0  0  0
  6  5  1  0  0  0
  2  1  1  0  0  0
  1 23  1  0  0  0
 30 32  1  0  0  0
 32 35  1  0  0  0
 39 40  1  0  0  0
 40 41  1  0  0  0
 41 42  1  0  0  0
 42 43  1  0  0  0
 43 44  1  0  0  0
 44 45  1  0  0  0
 45 46  1  0  0  0
 46 47  1  0  0  0
 47 48  2  0  0  0
 48 49  1  0  0  0
 49 50  1  0  0  0
 50 51  1  0  0  0
 51 52  1  0  0  0
 52 53  1  0  0  0
 53 54  1  0  0  0
 54 55  1  0  0  0
 55 56  1  0  0  0
M  CHG 1  26  -1
M  END
> <minimizedAffinity>
-7.96904

> <CNNscore>
0.5955941677

> <CNNaffinity>
7.6478471756

> <CNN_VS>
4.5550131798

> <CNNaffinity_variance>
0.5769315958

$$$$
/media/chris/experiments/cd1a-new-docking/inputs/ligands/7sh4_ligand.pdb


 56 55  0  0  0  0  0  0  0  0999 V2000
  -38.3830   60.4599   62.2145 C   0  0  0  0  0  0  0  0  0  0  0  0
  -39.8490   60.7372   62.3923 C   0  0  0  0  0  0  0  0  0  0  0  0
  -40.2853   59.7250   63.3241 O   0  0  0  0  0  0  0  0  0  0  0  0
  -41.2732   61.2846   64.5853 O   0  0  0  0  0  0  0  0  0  0  0  0
  -41.0330   60.1310   64.3507 C   0  0  0  0  0  0  0  0  0  0  0  0
  -41.6267   58.9633   65.0847 C   0  0  0  0  0  0  0  0  0  0  0  0
  -42.3371   59.3371   66.3746 C   0  0  0  0  0  0  0  0  0  0  0  0
  -43.8009   58.9499   66.3713 C   0  0  0  0  0  0  0  0  0  0  0  0
  -44.3849   58.7478   64.9915 C   0  0  0  0  0  0  0  0  0  0  0  0
  -45.8561   58.3863   65.0170 C   0  0  0  0  0  0  0  0  0  0  0  0
  -46.7086   59.4159   65.7176 C   0  0  0  0  0  0  0  0  0  0  0  0
  -48.0376   59.6360   65.0443 C   0  0  0  0  0  0  0  0  0  0  0  0
  -49.2104   59.1183   65.8472 C   0  0  0  0  0  0  0  0  0  0  0  0
  -50.2545   58.4374   64.9855 C   0  0  0  0  0  0  0  0  0  0  0  0
  -50.8938   59.3454   63.9560 C   0  0  0  0  0  0  0  0  0  0  0  0
  -51.1494   58.6704   62.6132 C   0  0  0  0  0  0  0  0  0  0  0  0
  -49.9413   57.9498   62.0461 C   0  0  0  0  0  0  0  0  0  0  0  0
  -49.8370   58.0450   60.5377 C   0  0  0  0  0  0  0  0  0  0  0  0
  -49.4127   56.7433   59.8720 C   0  0  0  0  0  0  0  0  0  0  0  0
  -48.9807   56.9127   58.4264 C   0  0  0  0  0  0  0  0  0  0  0  0
  -46.7013   57.9496   58.1711 C   0  0  0  0  0  0  0  0  0  0  0  0
  -47.5052   56.6691   58.1721 C   0  0  0  0  0  0  0  0  0  0  0  0
  -37.5361   61.2511   63.1782 C   0  0  0  0  0  0  0  0  0  0  0  0
  -36.4864   61.9142   62.4388 O   0  0  0  0  0  0  0  0  0  0  0  0
  -35.5984   63.0919   63.0604 P   0  0  0  0  0  0  0  0  0  0  0  0
  -34.5741   63.4686   62.0626 O   0  0  0  0  0  0  0  0  0  0  0  0
  -36.5144   64.1401   63.5714 O   0  0  0  0  0  0  0  0  0  0  0  0
  -36.9822   64.5512   62.8278 H   0  0  0  0  0  0  0  0  0  0  0  0
  -34.8509   62.4425   64.3104 O   0  0  0  0  0  0  0  0  0  0  0  0
  -34.3561   63.2841   65.3719 C   0  0  0  0  0  0  0  0  0  0  0  0
  -33.9013   62.4075   67.5554 O   0  0  0  0  0  0  0  0  0  0  0  0
  -34.9539   62.8091   66.6735 C   0  0  0  0  0  0  0  0  0  0  0  0
  -33.3578   61.7304   67.1229 H   0  0  0  0  0  0  0  0  0  0  0  0
  -36.9619   64.1393   66.5434 O   0  0  0  0  0  0  0  0  0  0  0  0
  -35.8109   63.8639   67.3313 C   0  0  0  0  0  0  0  0  0  0  0  0
  -37.4989   64.8180   66.9816 H   0  0  0  0  0  0  0  0  0  0  0  0
  -38.0254   60.7429   60.8209 O   0  0  0  0  0  0  0  0  0  0  0  0
  -39.5573   60.3791   59.2143 O   0  0  0  0  0  0  0  0  0  0  0  0
  -38.6279   59.9995   59.8730 C   0  0  0  0  0  0  0  0  0  0  0  0
  -37.9893   58.6532   59.7266 C   0  0  0  0  0  0  0  0  0  0  0  0
  -37.8209   58.2711   58.2595 C   0  0  0  0  0  0  0  0  0  0  0  0
  -36.3923   57.9246   57.8729 C   0  0  0  0  0  0  0  0  0  0  0  0
  -36.1551   56.4297   57.6921 C   0  0  0  0  0  0  0  0  0  0  0  0
  -36.4552   55.6034   58.9289 C   0  0  0  0  0  0  0  0  0  0  0  0
  -35.2359   55.3033   59.8053 C   0  0  0  0  0  0  0  0  0  0  0  0
  -34.5420   56.5312   60.3988 C   0  0  0  0  0  0  0  0  0  0  0  0
  -33.4663   56.1561   61.3735 C   0  0  0  0  0  0  0  0  0  0  0  0
  -32.6203   56.9759   61.9666 C   0  0  0  0  0  0  0  0  0  0  0  0
  -32.5590   58.4603   61.7901 C   0  0  0  0  0  0  0  0  0  0  0  0
  -33.0989   59.2136   63.0023 C   0  0  0  0  0  0  0  0  0  0  0  0
  -34.6015   59.0839   63.1809 C   0  0  0  0  0  0  0  0  0  0  0  0
  -35.0041   58.3607   64.4545 C   0  0  0  0  0  0  0  0  0  0  0  0
  -35.9829   57.2169   64.2466 C   0  0  0  0  0  0  0  0  0  0  0  0
  -37.4006   57.5449   64.6897 C   0  0  0  0  0  0  0  0  0  0  0  0
  -38.4694   57.1726   63.6814 C   0  0  0  0  0  0  0  0  0  0  0  0
  -37.9178   56.9689   62.2978 C   0  0  0  0  0  0  0  0  0  0  0  0
 21 22  1  0  0  0
  4  5  2  0  0  0
 25 24  1  0  0  0
 25 26  2  0  0  0
 25 27  1  0  0  0
 25 29  1  0  0  0
 22 20  1  0  0  0
  3  5  1  0  0  0
  3  2  1  0  0  0
 20 19  1  0  0  0
 24 23  1  0  0  0
 19 18  1  0  0  0
 18 17  1  0  0  0
 27 28  1  0  0  0
 17 16  1  0  0  0
 29 30  1  0  0  0
 16 15  1  0  0  0
 34 35  1  0  0  0
 34 36  1  0  0  0
 15 14  1  0  0  0
 31 32  1  0  0  0
 31 33  1  0  0  0
 14 13  1  0  0  0
 37  1  1  0  0  0
 37 39  1  0  0  0
 13 12  1  0  0  0
 38 39  2  0  0  0
 12 11  1  0  0  0
 11 10  1  0  0  0
 10  9  1  0  0  0
  9  8  1  0  0  0
  8  7  1  0  0  0
  7  6  1  0  0  0
  6  5  1  0  0  0
  2  1  1  0  0  0
  1 23  1  0  0  0
 30 32  1  0  0  0
 32 35  1  0  0  0
 39 40  1  0  0  0
 40 41  1  0  0  0
 41 42  1  0  0  0
 42 43  1  0  0  0
 43 44  1  0  0  0
 44 45  1  0  0  0
 45 46  1  0  0  0
 46 47  1  0  0  0
 47 48  2  0  0  0
 48 49  1  0  0  0
 49 50  1  0  0  0
 50 51  1  0  0  0
 51 52  1  0  0  0
 52 53  1  0  0  0
 53 54  1  0  0  0
 54 55  1  0  0  0
 55 56  1  0  0  0
M  CHG 1  26  -1
M  END
> <minimizedAffinity>
-9.19640

> <CNNscore>
0.5644578934

> <CNNaffinity>
7.5985245705

> <CNN_VS>
4.2890472412

> <CNNaffinity_variance>
1.0571494102

$$$$
/media/chris/experiments/cd1a-new-docking/inputs/ligands/7sh4_ligand.pdb


 56 55  0  0  0  0  0  0  0  0999 V2000
  -34.9266   59.5231   63.3786 C   0  0  0  0  0  0  0  0  0  0  0  0
  -34.5375   58.1299   62.9721 C   0  0  0  0  0  0  0  0  0  0  0  0
  -34.6176   58.1513   61.5312 O   0  0  0  0  0  0  0  0  0  0  0  0
  -33.6353   56.3357   60.6723 O   0  0  0  0  0  0  0  0  0  0  0  0
  -34.6266   56.9719   60.9091 C   0  0  0  0  0  0  0  0  0  0  0  0
  -36.0304   56.4986   60.6639 C   0  0  0  0  0  0  0  0  0  0  0  0
  -36.5157   56.7071   59.2394 C   0  0  0  0  0  0  0  0  0  0  0  0
  -37.3216   57.9784   59.0747 C   0  0  0  0  0  0  0  0  0  0  0  0
  -38.0452   58.4194   60.3267 C   0  0  0  0  0  0  0  0  0  0  0  0
  -38.4558   59.8775   60.2923 C   0  0  0  0  0  0  0  0  0  0  0  0
  -39.9522   60.0730   60.2772 C   0  0  0  0  0  0  0  0  0  0  0  0
  -40.5132   60.2144   58.8869 C   0  0  0  0  0  0  0  0  0  0  0  0
  -41.7976   59.4435   58.6765 C   0  0  0  0  0  0  0  0  0  0  0  0
  -42.1535   59.2877   57.2118 C   0  0  0  0  0  0  0  0  0  0  0  0
  -43.4781   58.5955   56.9681 C   0  0  0  0  0  0  0  0  0  0  0  0
  -44.2289   58.2348   58.2449 C   0  0  0  0  0  0  0  0  0  0  0  0
  -45.7286   58.1034   58.0615 C   0  0  0  0  0  0  0  0  0  0  0  0
  -46.4429   57.5878   59.2941 C   0  0  0  0  0  0  0  0  0  0  0  0
  -47.9428   57.4124   59.1016 C   0  0  0  0  0  0  0  0  0  0  0  0
  -48.3948   55.9634   59.1379 C   0  0  0  0  0  0  0  0  0  0  0  0
  -47.6087   55.1531   56.8881 C   0  0  0  0  0  0  0  0  0  0  0  0
  -47.4957   54.9990   58.3878 C   0  0  0  0  0  0  0  0  0  0  0  0
  -33.7579   60.4737   63.3321 C   0  0  0  0  0  0  0  0  0  0  0  0
  -34.2567   61.8147   63.1287 O   0  0  0  0  0  0  0  0  0  0  0  0
  -33.3056   63.0467   62.7553 P   0  0  0  0  0  0  0  0  0  0  0  0
  -31.9031   62.6112   62.9280 O   0  0  0  0  0  0  0  0  0  0  0  0
  -33.7304   63.5745   61.4364 O   0  0  0  0  0  0  0  0  0  0  0  0
  -33.5542   62.9113   60.7507 H   0  0  0  0  0  0  0  0  0  0  0  0
  -33.6114   64.1637   63.8516 O   0  0  0  0  0  0  0  0  0  0  0  0
  -33.7702   63.7915   65.2359 C   0  0  0  0  0  0  0  0  0  0  0  0
  -36.1077   63.5469   64.7677 O   0  0  0  0  0  0  0  0  0  0  0  0
  -35.1716   64.1486   65.6669 C   0  0  0  0  0  0  0  0  0  0  0  0
  -35.9109   63.8280   63.8603 H   0  0  0  0  0  0  0  0  0  0  0  0
  -34.4457   62.8537   67.5680 O   0  0  0  0  0  0  0  0  0  0  0  0
  -35.4632   63.7215   67.0853 C   0  0  0  0  0  0  0  0  0  0  0  0
  -34.6504   62.5906   68.4790 H   0  0  0  0  0  0  0  0  0  0  0  0
  -35.5237   59.4639   64.7164 O   0  0  0  0  0  0  0  0  0  0  0  0
  -36.9722   60.8343   65.7576 O   0  0  0  0  0  0  0  0  0  0  0  0
  -36.7222   60.0572   64.8770 C   0  0  0  0  0  0  0  0  0  0  0  0
  -37.6973   59.6468   63.8176 C   0  0  0  0  0  0  0  0  0  0  0  0
  -38.2940   58.2736   64.1090 C   0  0  0  0  0  0  0  0  0  0  0  0
  -39.8131   58.2596   64.1589 C   0  0  0  0  0  0  0  0  0  0  0  0
  -40.4451   59.6167   63.8711 C   0  0  0  0  0  0  0  0  0  0  0  0
  -41.5581   59.9949   64.8306 C   0  0  0  0  0  0  0  0  0  0  0  0
  -41.8349   58.9596   65.9244 C   0  0  0  0  0  0  0  0  0  0  0  0
  -43.2927   58.8672   66.3802 C   0  0  0  0  0  0  0  0  0  0  0  0
  -44.0686   57.8565   65.5901 C   0  0  0  0  0  0  0  0  0  0  0  0
  -45.2838   58.0049   65.0994 C   0  0  0  0  0  0  0  0  0  0  0  0
  -46.1455   59.2212   65.2288 C   0  0  0  0  0  0  0  0  0  0  0  0
  -46.9871   59.2057   66.5015 C   0  0  0  0  0  0  0  0  0  0  0  0
  -48.4438   59.5698   66.2733 C   0  0  0  0  0  0  0  0  0  0  0  0
  -48.8336   59.6348   64.8067 C   0  0  0  0  0  0  0  0  0  0  0  0
  -49.8194   58.5640   64.3692 C   0  0  0  0  0  0  0  0  0  0  0  0
  -49.4434   57.8951   63.0558 C   0  0  0  0  0  0  0  0  0  0  0  0
  -50.1460   58.4695   61.8417 C   0  0  0  0  0  0  0  0  0  0  0  0
  -51.0538   57.4763   61.1713 C   0  0  0  0  0  0  0  0  0  0  0  0
 21 22  1  0  0  0
  4  5  2  0  0  0
 25 24  1  0  0  0
 25 26  2  0  0  0
 25 27  1  0  0  0
 25 29  1  0  0  0
 22 20  1  0  0  0
  3  5  1  0  0  0
  3  2  1  0  0  0
 20 19  1  0  0  0
 24 23  1  0  0  0
 19 18  1  0  0  0
 18 17  1  0  0  0
 27 28  1  0  0  0
 17 16  1  0  0  0
 29 30  1  0  0  0
 16 15  1  0  0  0
 34 35  1  0  0  0
 34 36  1  0  0  0
 15 14  1  0  0  0
 31 32  1  0  0  0
 31 33  1  0  0  0
 14 13  1  0  0  0
 37  1  1  0  0  0
 37 39  1  0  0  0
 13 12  1  0  0  0
 38 39  2  0  0  0
 12 11  1  0  0  0
 11 10  1  0  0  0
 10  9  1  0  0  0
  9  8  1  0  0  0
  8  7  1  0  0  0
  7  6  1  0  0  0
  6  5  1  0  0  0
  2  1  1  0  0  0
  1 23  1  0  0  0
 30 32  1  0  0  0
 32 35  1  0  0  0
 39 40  1  0  0  0
 40 41  1  0  0  0
 41 42  1  0  0  0
 42 43  1  0  0  0
 43 44  1  0  0  0
 44 45  1  0  0  0
 45 46  1  0  0  0
 46 47  1  0  0  0
 47 48  2  0  0  0
 48 49  1  0  0  0
 49 50  1  0  0  0
 50 51  1  0  0  0
 51 52  1  0  0  0
 52 53  1  0  0  0
 53 54  1  0  0  0
 54 55  1  0  0  0
 55 56  1  0  0  0
M  CHG 1  26  -1
M  END
> <minimizedAffinity>
-7.94179

> <CNNscore>
0.5507420301

> <CNNaffinity>
7.6133894920

> <CNN_VS>
4.1930136681

> <CNNaffinity_variance>
0.7399376631

$$$$
/media/chris/experiments/cd1a-new-docking/inputs/ligands/7sh4_ligand.pdb


 56 55  0  0  0  0  0  0  0  0999 V2000
  -38.5147   60.1113   65.0930 C   0  0  0  0  0  0  0  0  0  0  0  0
  -38.1908   58.6880   65.4492 C   0  0  0  0  0  0  0  0  0  0  0  0
  -37.7476   58.1086   64.2038 O   0  0  0  0  0  0  0  0  0  0  0  0
  -36.0752   56.6663   64.5528 O   0  0  0  0  0  0  0  0  0  0  0  0
  -36.4735   57.7209   64.1374 C   0  0  0  0  0  0  0  0  0  0  0  0
  -35.6442   58.7114   63.3719 C   0  0  0  0  0  0  0  0  0  0  0  0
  -34.1995   58.7994   63.8336 C   0  0  0  0  0  0  0  0  0  0  0  0
  -33.2927   59.4389   62.8033 C   0  0  0  0  0  0  0  0  0  0  0  0
  -32.1152   58.5818   62.3975 C   0  0  0  0  0  0  0  0  0  0  0  0
  -32.5114   57.1680   62.0234 C   0  0  0  0  0  0  0  0  0  0  0  0
  -33.4662   57.1077   60.8563 C   0  0  0  0  0  0  0  0  0  0  0  0
  -34.5520   56.0799   61.0367 C   0  0  0  0  0  0  0  0  0  0  0  0
  -34.7511   55.1978   59.8241 C   0  0  0  0  0  0  0  0  0  0  0  0
  -36.2121   55.0211   59.4625 C   0  0  0  0  0  0  0  0  0  0  0  0
  -36.6288   55.7485   58.2015 C   0  0  0  0  0  0  0  0  0  0  0  0
  -35.6581   56.8427   57.7720 C   0  0  0  0  0  0  0  0  0  0  0  0
  -36.2297   58.2445   57.8646 C   0  0  0  0  0  0  0  0  0  0  0  0
  -37.5279   58.3150   58.6423 C   0  0  0  0  0  0  0  0  0  0  0  0
  -37.3409   58.6673   60.1114 C   0  0  0  0  0  0  0  0  0  0  0  0
  -38.6448   58.7718   60.8821 C   0  0  0  0  0  0  0  0  0  0  0  0
  -40.2864   60.5643   61.5364 C   0  0  0  0  0  0  0  0  0  0  0  0
  -39.5829   59.8610   60.3979 C   0  0  0  0  0  0  0  0  0  0  0  0
  -37.3522   61.0368   65.3457 C   0  0  0  0  0  0  0  0  0  0  0  0
  -37.4735   62.1842   64.4757 O   0  0  0  0  0  0  0  0  0  0  0  0
  -36.2259   62.8215   63.7014 P   0  0  0  0  0  0  0  0  0  0  0  0
  -35.8925   61.9371   62.5642 O   0  0  0  0  0  0  0  0  0  0  0  0
  -36.5306   64.2470   63.4297 O   0  0  0  0  0  0  0  0  0  0  0  0
  -37.2666   64.3062   62.8007 H   0  0  0  0  0  0  0  0  0  0  0  0
  -35.0142   62.7681   64.7367 O   0  0  0  0  0  0  0  0  0  0  0  0
  -34.5575   63.9777   65.3756 C   0  0  0  0  0  0  0  0  0  0  0  0
  -33.8547   64.7896   67.5179 O   0  0  0  0  0  0  0  0  0  0  0  0
  -34.6459   63.7890   66.8701 C   0  0  0  0  0  0  0  0  0  0  0  0
  -32.9437   64.7456   67.1874 H   0  0  0  0  0  0  0  0  0  0  0  0
  -36.3587   62.7106   68.1823 O   0  0  0  0  0  0  0  0  0  0  0  0
  -36.0684   63.8432   67.3733 C   0  0  0  0  0  0  0  0  0  0  0  0
  -37.2752   62.7633   68.4956 H   0  0  0  0  0  0  0  0  0  0  0  0
  -39.7040   60.5169   65.8486 O   0  0  0  0  0  0  0  0  0  0  0  0
  -41.3225   61.3731   64.5418 O   0  0  0  0  0  0  0  0  0  0  0  0
  -40.8841   60.4703   65.2010 C   0  0  0  0  0  0  0  0  0  0  0  0
  -41.5734   59.1541   65.3861 C   0  0  0  0  0  0  0  0  0  0  0  0
  -42.4050   59.1338   66.6647 C   0  0  0  0  0  0  0  0  0  0  0  0
  -43.8246   58.6272   66.4686 C   0  0  0  0  0  0  0  0  0  0  0  0
  -44.5505   59.2843   65.3001 C   0  0  0  0  0  0  0  0  0  0  0  0
  -45.8894   58.6509   64.9708 C   0  0  0  0  0  0  0  0  0  0  0  0
  -47.0015   58.9523   65.9793 C   0  0  0  0  0  0  0  0  0  0  0  0
  -48.3920   58.4494   65.5856 C   0  0  0  0  0  0  0  0  0  0  0  0
  -49.2959   59.5660   65.1565 C   0  0  0  0  0  0  0  0  0  0  0  0
  -49.7394   59.7953   63.9356 C   0  0  0  0  0  0  0  0  0  0  0  0
  -49.4319   58.9825   62.7178 C   0  0  0  0  0  0  0  0  0  0  0  0
  -50.4237   57.8409   62.5140 C   0  0  0  0  0  0  0  0  0  0  0  0
  -50.7100   57.5356   61.0541 C   0  0  0  0  0  0  0  0  0  0  0  0
  -49.7726   58.2399   60.0885 C   0  0  0  0  0  0  0  0  0  0  0  0
  -49.0630   57.3157   59.1128 C   0  0  0  0  0  0  0  0  0  0  0  0
  -47.5855   57.6344   58.9421 C   0  0  0  0  0  0  0  0  0  0  0  0
  -46.9435   56.9805   57.7347 C   0  0  0  0  0  0  0  0  0  0  0  0
  -47.9531   56.4550   56.7526 C   0  0  0  0  0  0  0  0  0  0  0  0
 21 22  1  0  0  0
  4  5  2  0  0  0
 25 24  1  0  0  0
 25 26  2  0  0  0
 25 27  1  0  0  0
 25 29  1  0  0  0
 22 20  1  0  0  0
  3  5  1  0  0  0
  3  2  1  0  0  0
 20 19  1  0  0  0
 24 23  1  0  0  0
 19 18  1  0  0  0
 18 17  1  0  0  0
 27 28  1  0  0  0
 17 16  1  0  0  0
 29 30  1  0  0  0
 16 15  1  0  0  0
 34 35  1  0  0  0
 34 36  1  0  0  0
 15 14  1  0  0  0
 31 32  1  0  0  0
 31 33  1  0  0  0
 14 13  1  0  0  0
 37  1  1  0  0  0
 37 39  1  0  0  0
 13 12  1  0  0  0
 38 39  2  0  0  0
 12 11  1  0  0  0
 11 10  1  0  0  0
 10  9  1  0  0  0
  9  8  1  0  0  0
  8  7  1  0  0  0
  7  6  1  0  0  0
  6  5  1  0  0  0
  2  1  1  0  0  0
  1 23  1  0  0  0
 30 32  1  0  0  0
 32 35  1  0  0  0
 39 40  1  0  0  0
 40 41  1  0  0  0
 41 42  1  0  0  0
 42 43  1  0  0  0
 43 44  1  0  0  0
 44 45  1  0  0  0
 45 46  1  0  0  0
 46 47  1  0  0  0
 47 48  2  0  0  0
 48 49  1  0  0  0
 49 50  1  0  0  0
 50 51  1  0  0  0
 51 52  1  0  0  0
 52 53  1  0  0  0
 53 54  1  0  0  0
 54 55  1  0  0  0
 55 56  1  0  0  0
M  CHG 1  26  -1
M  END
> <minimizedAffinity>
-8.51594

> <CNNscore>
0.5493841767

> <CNNaffinity>
7.7859816551

> <CNN_VS>
4.2774949074

> <CNNaffinity_variance>
0.5984482765

$$$$
/media/chris/experiments/cd1a-new-docking/inputs/ligands/7sh4_ligand.pdb


 56 55  0  0  0  0  0  0  0  0999 V2000
  -37.9546   60.1908   63.8403 C   0  0  0  0  0  0  0  0  0  0  0  0
  -38.5802   59.3502   64.9171 C   0  0  0  0  0  0  0  0  0  0  0  0
  -39.1122   60.3155   65.8489 O   0  0  0  0  0  0  0  0  0  0  0  0
  -41.0759   61.2217   66.4162 O   0  0  0  0  0  0  0  0  0  0  0  0
  -40.4239   60.2688   66.0842 C   0  0  0  0  0  0  0  0  0  0  0  0
  -40.9853   58.9145   65.7596 C   0  0  0  0  0  0  0  0  0  0  0  0
  -42.4537   58.9286   65.3698 C   0  0  0  0  0  0  0  0  0  0  0  0
  -43.3564   58.4034   66.4661 C   0  0  0  0  0  0  0  0  0  0  0  0
  -43.8178   56.9786   66.2590 C   0  0  0  0  0  0  0  0  0  0  0  0
  -45.2316   56.8849   65.7221 C   0  0  0  0  0  0  0  0  0  0  0  0
  -45.8457   58.2316   65.4276 C   0  0  0  0  0  0  0  0  0  0  0  0
  -47.1170   58.1360   64.6260 C   0  0  0  0  0  0  0  0  0  0  0  0
  -48.2894   57.6053   65.4209 C   0  0  0  0  0  0  0  0  0  0  0  0
  -49.3102   58.6774   65.7448 C   0  0  0  0  0  0  0  0  0  0  0  0
  -50.6721   58.4407   65.1264 C   0  0  0  0  0  0  0  0  0  0  0  0
  -51.0720   59.4911   64.0964 C   0  0  0  0  0  0  0  0  0  0  0  0
  -51.0970   58.9769   62.6698 C   0  0  0  0  0  0  0  0  0  0  0  0
  -49.7169   58.7825   62.0757 C   0  0  0  0  0  0  0  0  0  0  0  0
  -49.6981   58.8107   60.5538 C   0  0  0  0  0  0  0  0  0  0  0  0
  -50.1860   57.5223   59.9160 C   0  0  0  0  0  0  0  0  0  0  0  0
  -48.3468   55.9511   59.2199 C   0  0  0  0  0  0  0  0  0  0  0  0
  -49.3259   57.0135   58.7747 C   0  0  0  0  0  0  0  0  0  0  0  0
  -36.7750   60.9782   64.3503 C   0  0  0  0  0  0  0  0  0  0  0  0
  -36.7288   62.2468   63.6597 O   0  0  0  0  0  0  0  0  0  0  0  0
  -35.3570   62.9851   63.2924 P   0  0  0  0  0  0  0  0  0  0  0  0
  -34.3362   61.9489   63.0267 O   0  0  0  0  0  0  0  0  0  0  0  0
  -35.6414   63.9911   62.2409 O   0  0  0  0  0  0  0  0  0  0  0  0
  -35.9038   63.5392   61.4236 H   0  0  0  0  0  0  0  0  0  0  0  0
  -34.9306   63.7665   64.6155 O   0  0  0  0  0  0  0  0  0  0  0  0
  -35.9396   64.2372   65.5322 C   0  0  0  0  0  0  0  0  0  0  0  0
  -36.6388   64.0201   67.8140 O   0  0  0  0  0  0  0  0  0  0  0  0
  -35.5232   63.8601   66.9327 C   0  0  0  0  0  0  0  0  0  0  0  0
  -36.9711   64.9295   67.7532 H   0  0  0  0  0  0  0  0  0  0  0  0
  -33.5776   62.4353   66.8776 O   0  0  0  0  0  0  0  0  0  0  0  0
  -34.9928   62.4489   67.0145 C   0  0  0  0  0  0  0  0  0  0  0  0
  -33.2561   61.5218   66.9327 H   0  0  0  0  0  0  0  0  0  0  0  0
  -38.9883   61.0663   63.2791 O   0  0  0  0  0  0  0  0  0  0  0  0
  -41.1281   60.7008   62.6891 O   0  0  0  0  0  0  0  0  0  0  0  0
  -39.9564   60.4785   62.5500 C   0  0  0  0  0  0  0  0  0  0  0  0
  -39.3964   59.5308   61.5350 C   0  0  0  0  0  0  0  0  0  0  0  0
  -39.3002   60.1796   60.1579 C   0  0  0  0  0  0  0  0  0  0  0  0
  -38.9196   59.2145   59.0471 C   0  0  0  0  0  0  0  0  0  0  0  0
  -37.5047   58.6622   59.1775 C   0  0  0  0  0  0  0  0  0  0  0  0
  -36.8823   58.2425   57.8588 C   0  0  0  0  0  0  0  0  0  0  0  0
  -36.0402   56.9655   57.9301 C   0  0  0  0  0  0  0  0  0  0  0  0
  -36.7875   55.7182   58.4069 C   0  0  0  0  0  0  0  0  0  0  0  0
  -36.0296   54.9764   59.4668 C   0  0  0  0  0  0  0  0  0  0  0  0
  -34.7492   55.1056   59.7557 C   0  0  0  0  0  0  0  0  0  0  0  0
  -33.7811   56.0263   59.0823 C   0  0  0  0  0  0  0  0  0  0  0  0
  -33.1242   56.9966   60.0598 C   0  0  0  0  0  0  0  0  0  0  0  0
  -33.2490   56.5751   61.5135 C   0  0  0  0  0  0  0  0  0  0  0  0
  -32.5264   57.4975   62.4801 C   0  0  0  0  0  0  0  0  0  0  0  0
  -33.3698   57.9634   63.6553 C   0  0  0  0  0  0  0  0  0  0  0  0
  -34.7846   58.3629   63.2647 C   0  0  0  0  0  0  0  0  0  0  0  0
  -35.8367   57.3205   63.5871 C   0  0  0  0  0  0  0  0  0  0  0  0
  -36.7447   57.0317   62.4243 C   0  0  0  0  0  0  0  0  0  0  0  0
 21 22  1  0  0  0
  4  5  2  0  0  0
 25 24  1  0  0  0
 25 26  2  0  0  0
 25 27  1  0  0  0
 25 29  1  0  0  0
 22 20  1  0  0  0
  3  5  1  0  0  0
  3  2  1  0  0  0
 20 19  1  0  0  0
 24 23  1  0  0  0
 19 18  1  0  0  0
 18 17  1  0  0  0
 27 28  1  0  0  0
 17 16  1  0  0  0
 29 30  1  0  0  0
 16 15  1  0  0  0
 34 35  1  0  0  0
 34 36  1  0  0  0
 15 14  1  0  0  0
 31 32  1  0  0  0
 31 33  1  0  0  0
 14 13  1  0  0  0
 37  1  1  0  0  0
 37 39  1  0  0  0
 13 12  1  0  0  0
 38 39  2  0  0  0
 12 11  1  0  0  0
 11 10  1  0  0  0
 10  9  1  0  0  0
  9  8  1  0  0  0
  8  7  1  0  0  0
  7  6  1  0  0  0
  6  5  1  0  0  0
  2  1  1  0  0  0
  1 23  1  0  0  0
 30 32  1  0  0  0
 32 35  1  0  0  0
 39 40  1  0  0  0
 40 41  1  0  0  0
 41 42  1  0  0  0
 42 43  1  0  0  0
 43 44  1  0  0  0
 44 45  1  0  0  0
 45 46  1  0  0  0
 46 47  1  0  0  0
 47 48  2  0  0  0
 48 49  1  0  0  0
 49 50  1  0  0  0
 50 51  1  0  0  0
 51 52  1  0  0  0
 52 53  1  0  0  0
 53 54  1  0  0  0
 54 55  1  0  0  0
 55 56  1  0  0  0
M  CHG 1  26  -1
M  END
> <minimizedAffinity>
-8.23353

> <CNNscore>
0.5232710242

> <CNNaffinity>
7.6687636375

> <CNN_VS>
4.0128417015

> <CNNaffinity_variance>
0.5241340399

$$$$
/media/chris/experiments/cd1a-new-docking/inputs/ligands/7sh4_ligand.pdb


 56 55  0  0  0  0  0  0  0  0999 V2000
  -38.3508   60.5364   64.0135 C   0  0  0  0  0  0  0  0  0  0  0  0
  -37.4999   60.1544   65.1915 C   0  0  0  0  0  0  0  0  0  0  0  0
  -38.1217   58.9539   65.6967 O   0  0  0  0  0  0  0  0  0  0  0  0
  -39.0417   57.2723   64.5456 O   0  0  0  0  0  0  0  0  0  0  0  0
  -38.0699   57.8729   64.9177 C   0  0  0  0  0  0  0  0  0  0  0  0
  -36.6634   57.5907   64.4741 C   0  0  0  0  0  0  0  0  0  0  0  0
  -36.5616   56.9675   63.0923 C   0  0  0  0  0  0  0  0  0  0  0  0
  -36.8057   57.9652   61.9797 C   0  0  0  0  0  0  0  0  0  0  0  0
  -38.0773   57.7230   61.1986 C   0  0  0  0  0  0  0  0  0  0  0  0
  -38.6872   58.9961   60.6482 C   0  0  0  0  0  0  0  0  0  0  0  0
  -38.0742   59.4308   59.3394 C   0  0  0  0  0  0  0  0  0  0  0  0
  -37.8754   58.2911   58.3755 C   0  0  0  0  0  0  0  0  0  0  0  0
  -36.4382   58.1206   57.9356 C   0  0  0  0  0  0  0  0  0  0  0  0
  -36.0715   56.6722   57.6824 C   0  0  0  0  0  0  0  0  0  0  0  0
  -36.5274   55.7205   58.7684 C   0  0  0  0  0  0  0  0  0  0  0  0
  -35.4039   55.2458   59.6831 C   0  0  0  0  0  0  0  0  0  0  0  0
  -34.0420   55.8128   59.3313 C   0  0  0  0  0  0  0  0  0  0  0  0
  -33.5988   56.9305   60.2532 C   0  0  0  0  0  0  0  0  0  0  0  0
  -33.3233   56.4727   61.6787 C   0  0  0  0  0  0  0  0  0  0  0  0
  -32.4336   57.4224   62.4607 C   0  0  0  0  0  0  0  0  0  0  0  0
  -31.6710   59.7456   61.8631 C   0  0  0  0  0  0  0  0  0  0  0  0
  -32.8156   58.8862   62.3501 C   0  0  0  0  0  0  0  0  0  0  0  0
  -37.6800   61.5659   63.1406 C   0  0  0  0  0  0  0  0  0  0  0  0
  -37.0038   62.5232   63.9861 O   0  0  0  0  0  0  0  0  0  0  0  0
  -35.7467   63.3816   63.4915 P   0  0  0  0  0  0  0  0  0  0  0  0
  -34.5263   62.5773   63.7156 O   0  0  0  0  0  0  0  0  0  0  0  0
  -36.0339   63.8740   62.1226 O   0  0  0  0  0  0  0  0  0  0  0  0
  -36.0746   63.1225   61.5106 H   0  0  0  0  0  0  0  0  0  0  0  0
  -35.6884   64.6440   64.4641 O   0  0  0  0  0  0  0  0  0  0  0  0
  -34.7572   64.6640   65.5651 C   0  0  0  0  0  0  0  0  0  0  0  0
  -36.8582   64.2924   66.6561 O   0  0  0  0  0  0  0  0  0  0  0  0
  -35.4466   64.0967   66.7817 C   0  0  0  0  0  0  0  0  0  0  0  0
  -37.0435   65.2356   66.5253 H   0  0  0  0  0  0  0  0  0  0  0  0
  -33.9051   62.4689   67.6719 O   0  0  0  0  0  0  0  0  0  0  0  0
  -35.1397   62.6326   66.9859 C   0  0  0  0  0  0  0  0  0  0  0  0
  -33.7256   61.5234   67.7936 H   0  0  0  0  0  0  0  0  0  0  0  0
  -39.6450   61.0107   64.5134 O   0  0  0  0  0  0  0  0  0  0  0  0
  -41.0205   60.2317   62.9130 O   0  0  0  0  0  0  0  0  0  0  0  0
  -40.7429   60.3663   64.0734 C   0  0  0  0  0  0  0  0  0  0  0  0
  -41.5639   59.8232   65.2016 C   0  0  0  0  0  0  0  0  0  0  0  0
  -42.9926   59.5235   64.7592 C   0  0  0  0  0  0  0  0  0  0  0  0
  -43.8689   58.9432   65.8573 C   0  0  0  0  0  0  0  0  0  0  0  0
  -45.3156   58.7229   65.4302 C   0  0  0  0  0  0  0  0  0  0  0  0
  -45.9909   57.5520   66.1198 C   0  0  0  0  0  0  0  0  0  0  0  0
  -47.4382   57.3054   65.6846 C   0  0  0  0  0  0  0  0  0  0  0  0
  -48.4118   58.4478   65.9825 C   0  0  0  0  0  0  0  0  0  0  0  0
  -49.8220   58.0994   65.6110 C   0  0  0  0  0  0  0  0  0  0  0  0
  -50.5307   58.6249   64.6306 C   0  0  0  0  0  0  0  0  0  0  0  0
  -50.0713   59.6835   63.6784 C   0  0  0  0  0  0  0  0  0  0  0  0
  -50.1403   59.2279   62.2238 C   0  0  0  0  0  0  0  0  0  0  0  0
  -51.0628   58.0425   61.9995 C   0  0  0  0  0  0  0  0  0  0  0  0
  -50.6180   57.1286   60.8707 C   0  0  0  0  0  0  0  0  0  0  0  0
  -49.8153   57.8193   59.7805 C   0  0  0  0  0  0  0  0  0  0  0  0
  -48.3667   57.3606   59.7123 C   0  0  0  0  0  0  0  0  0  0  0  0
  -47.8588   57.1110   58.3061 C   0  0  0  0  0  0  0  0  0  0  0  0
  -46.6540   57.9436   57.9667 C   0  0  0  0  0  0  0  0  0  0  0  0
 21 22  1  0  0  0
  4  5  2  0  0  0
 25 24  1  0  0  0
 25 26  2  0  0  0
 25 27  1  0  0  0
 25 29  1  0  0  0
 22 20  1  0  0  0
  3  5  1  0  0  0
  3  2  1  0  0  0
 20 19  1  0  0  0
 24 23  1  0  0  0
 19 18  1  0  0  0
 18 17  1  0  0  0
 27 28  1  0  0  0
 17 16  1  0  0  0
 29 30  1  0  0  0
 16 15  1  0  0  0
 34 35  1  0  0  0
 34 36  1  0  0  0
 15 14  1  0  0  0
 31 32  1  0  0  0
 31 33  1  0  0  0
 14 13  1  0  0  0
 37  1  1  0  0  0
 37 39  1  0  0  0
 13 12  1  0  0  0
 38 39  2  0  0  0
 12 11  1  0  0  0
 11 10  1  0  0  0
 10  9  1  0  0  0
  9  8  1  0  0  0
  8  7  1  0  0  0
  7  6  1  0  0  0
  6  5  1  0  0  0
  2  1  1  0  0  0
  1 23  1  0  0  0
 30 32  1  0  0  0
 32 35  1  0  0  0
 39 40  1  0  0  0
 40 41  1  0  0  0
 41 42  1  0  0  0
 42 43  1  0  0  0
 43 44  1  0  0  0
 44 45  1  0  0  0
 45 46  1  0  0  0
 46 47  1  0  0  0
 47 48  2  0  0  0
 48 49  1  0  0  0
 49 50  1  0  0  0
 50 51  1  0  0  0
 51 52  1  0  0  0
 52 53  1  0  0  0
 53 54  1  0  0  0
 54 55  1  0  0  0
 55 56  1  0  0  0
M  CHG 1  26  -1
M  END
> <minimizedAffinity>
-8.92012

> <CNNscore>
0.4993270040

> <CNNaffinity>
7.4907355309

> <CNN_VS>
3.7403266430

> <CNNaffinity_variance>
0.7008489370

$$$$
/media/chris/experiments/cd1a-new-docking/inputs/ligands/7sh4_ligand.pdb


 56 55  0  0  0  0  0  0  0  0999 V2000
  -37.0309   60.0970   65.1202 C   0  0  0  0  0  0  0  0  0  0  0  0
  -38.2493   60.9247   64.8233 C   0  0  0  0  0  0  0  0  0  0  0  0
  -39.2581   60.3904   65.7065 O   0  0  0  0  0  0  0  0  0  0  0  0
  -40.9857   61.0807   64.4663 O   0  0  0  0  0  0  0  0  0  0  0  0
  -40.4936   60.2819   65.2168 C   0  0  0  0  0  0  0  0  0  0  0  0
  -41.1267   58.9827   65.6245 C   0  0  0  0  0  0  0  0  0  0  0  0
  -42.5258   59.1273   66.1987 C   0  0  0  0  0  0  0  0  0  0  0  0
  -43.6098   58.8777   65.1715 C   0  0  0  0  0  0  0  0  0  0  0  0
  -44.6818   57.9126   65.6245 C   0  0  0  0  0  0  0  0  0  0  0  0
  -46.0658   58.2923   65.1387 C   0  0  0  0  0  0  0  0  0  0  0  0
  -46.4694   59.6928   65.5304 C   0  0  0  0  0  0  0  0  0  0  0  0
  -47.9393   59.8188   65.8323 C   0  0  0  0  0  0  0  0  0  0  0  0
  -48.6333   58.4859   66.0044 C   0  0  0  0  0  0  0  0  0  0  0  0
  -50.0425   58.4834   65.4471 C   0  0  0  0  0  0  0  0  0  0  0  0
  -50.1687   59.1300   64.0836 C   0  0  0  0  0  0  0  0  0  0  0  0
  -50.8117   58.2317   63.0329 C   0  0  0  0  0  0  0  0  0  0  0  0
  -50.2365   58.4033   61.6402 C   0  0  0  0  0  0  0  0  0  0  0  0
  -50.5653   57.2556   60.7075 C   0  0  0  0  0  0  0  0  0  0  0  0
  -49.3654   56.7441   59.9226 C   0  0  0  0  0  0  0  0  0  0  0  0
  -48.3993   57.8391   59.5070 C   0  0  0  0  0  0  0  0  0  0  0  0
  -46.3872   57.7771   57.9960 C   0  0  0  0  0  0  0  0  0  0  0  0
  -46.9612   57.3868   59.3391 C   0  0  0  0  0  0  0  0  0  0  0  0
  -35.8046   60.9485   65.3270 C   0  0  0  0  0  0  0  0  0  0  0  0
  -35.9342   61.6538   66.5816 O   0  0  0  0  0  0  0  0  0  0  0  0
  -35.5987   63.2108   66.7402 P   0  0  0  0  0  0  0  0  0  0  0  0
  -36.8591   63.9224   67.0424 O   0  0  0  0  0  0  0  0  0  0  0  0
  -34.4616   63.3443   67.6825 O   0  0  0  0  0  0  0  0  0  0  0  0
  -34.7403   63.0615   68.5676 H   0  0  0  0  0  0  0  0  0  0  0  0
  -35.1005   63.6841   65.3011 O   0  0  0  0  0  0  0  0  0  0  0  0
  -34.3529   64.9097   65.1637 C   0  0  0  0  0  0  0  0  0  0  0  0
  -32.1639   64.1763   65.8064 O   0  0  0  0  0  0  0  0  0  0  0  0
  -32.9628   64.5681   64.6861 C   0  0  0  0  0  0  0  0  0  0  0  0
  -32.1694   64.8834   66.4705 H   0  0  0  0  0  0  0  0  0  0  0  0
  -33.6715   63.8965   62.4804 O   0  0  0  0  0  0  0  0  0  0  0  0
  -32.9655   63.4780   63.6415 C   0  0  0  0  0  0  0  0  0  0  0  0
  -33.6623   63.1841   61.8220 H   0  0  0  0  0  0  0  0  0  0  0  0
  -36.8465   59.1383   64.0263 O   0  0  0  0  0  0  0  0  0  0  0  0
  -36.2533   57.1114   64.8010 O   0  0  0  0  0  0  0  0  0  0  0  0
  -37.0702   57.8402   64.3078 C   0  0  0  0  0  0  0  0  0  0  0  0
  -38.4622   57.4209   63.9498 C   0  0  0  0  0  0  0  0  0  0  0  0
  -38.7295   57.5871   62.4573 C   0  0  0  0  0  0  0  0  0  0  0  0
  -38.4052   58.9728   61.9235 C   0  0  0  0  0  0  0  0  0  0  0  0
  -39.5894   59.6608   61.2539 C   0  0  0  0  0  0  0  0  0  0  0  0
  -39.4229   59.8591   59.7588 C   0  0  0  0  0  0  0  0  0  0  0  0
  -38.0150   59.5692   59.2310 C   0  0  0  0  0  0  0  0  0  0  0  0
  -37.8890   58.3123   58.3673 C   0  0  0  0  0  0  0  0  0  0  0  0
  -36.4714   58.0495   57.9559 C   0  0  0  0  0  0  0  0  0  0  0  0
  -35.8124   56.9140   58.0825 C   0  0  0  0  0  0  0  0  0  0  0  0
  -36.3464   55.6438   58.6653 C   0  0  0  0  0  0  0  0  0  0  0  0
  -35.3978   55.0296   59.6907 C   0  0  0  0  0  0  0  0  0  0  0  0
  -34.0774   55.7688   59.8189 C   0  0  0  0  0  0  0  0  0  0  0  0
  -33.7397   56.1715   61.2440 C   0  0  0  0  0  0  0  0  0  0  0  0
  -34.5615   57.3311   61.7822 C   0  0  0  0  0  0  0  0  0  0  0  0
  -33.7166   58.5047   62.2537 C   0  0  0  0  0  0  0  0  0  0  0  0
  -32.3097   58.5246   61.6897 C   0  0  0  0  0  0  0  0  0  0  0  0
  -31.5014   59.6915   62.1845 C   0  0  0  0  0  0  0  0  0  0  0  0
 21 22  1  0  0  0
  4  5  2  0  0  0
 25 24  1  0  0  0
 25 26  2  0  0  0
 25 27  1  0  0  0
 25 29  1  0  0  0
 22 20  1  0  0  0
  3  5  1  0  0  0
  3  2  1  0  0  0
 20 19  1  0  0  0
 24 23  1  0  0  0
 19 18  1  0  0  0
 18 17  1  0  0  0
 27 28  1  0  0  0
 17 16  1  0  0  0
 29 30  1  0  0  0
 16 15  1  0  0  0
 34 35  1  0  0  0
 34 36  1  0  0  0
 15 14  1  0  0  0
 31 32  1  0  0  0
 31 33  1  0  0  0
 14 13  1  0  0  0
 37  1  1  0  0  0
 37 39  1  0  0  0
 13 12  1  0  0  0
 38 39  2  0  0  0
 12 11  1  0  0  0
 11 10  1  0  0  0
 10  9  1  0  0  0
  9  8  1  0  0  0
  8  7  1  0  0  0
  7  6  1  0  0  0
  6  5  1  0  0  0
  2  1  1  0  0  0
  1 23  1  0  0  0
 30 32  1  0  0  0
 32 35  1  0  0  0
 39 40  1  0  0  0
 40 41  1  0  0  0
 41 42  1  0  0  0
 42 43  1  0  0  0
 43 44  1  0  0  0
 44 45  1  0  0  0
 45 46  1  0  0  0
 46 47  1  0  0  0
 47 48  2  0  0  0
 48 49  1  0  0  0
 49 50  1  0  0  0
 50 51  1  0  0  0
 51 52  1  0  0  0
 52 53  1  0  0  0
 53 54  1  0  0  0
 54 55  1  0  0  0
 55 56  1  0  0  0
M  CHG 1  26  -1
M  END
> <minimizedAffinity>
-8.82633

> <CNNscore>
0.4965912700

> <CNNaffinity>
7.4618186951

> <CNN_VS>
3.7054741383

> <CNNaffinity_variance>
0.6967903376

$$$$
