/media/chris/experiments/cd1a-new-docking/inputs/ligands/7sh4_ligand.pdb


 56 55  0  0  0  0  0  0  0  0999 V2000
  -37.7683   58.9563   60.4010 C   0  0  0  0  0  0  0  0  0  0  0  0
  -38.5063   59.0225   59.0938 C   0  0  0  0  0  0  0  0  0  0  0  0
  -39.2730   60.2418   59.1871 O   0  0  0  0  0  0  0  0  0  0  0  0
  -41.1196   60.4636   60.4280 O   0  0  0  0  0  0  0  0  0  0  0  0
  -40.5814   60.1171   59.4112 C   0  0  0  0  0  0  0  0  0  0  0  0
  -41.2951   59.6105   58.1910 C   0  0  0  0  0  0  0  0  0  0  0  0
  -42.7338   59.1920   58.4426 C   0  0  0  0  0  0  0  0  0  0  0  0
  -43.4165   58.6627   57.1990 C   0  0  0  0  0  0  0  0  0  0  0  0
  -44.7162   57.9384   57.4666 C   0  0  0  0  0  0  0  0  0  0  0  0
  -45.0294   57.8075   58.9434 C   0  0  0  0  0  0  0  0  0  0  0  0
  -46.4762   57.4766   59.2167 C   0  0  0  0  0  0  0  0  0  0  0  0
  -47.2260   57.0512   57.9820 C   0  0  0  0  0  0  0  0  0  0  0  0
  -48.7150   56.9044   58.2046 C   0  0  0  0  0  0  0  0  0  0  0  0
  -49.1895   57.5981   59.4654 C   0  0  0  0  0  0  0  0  0  0  0  0
  -49.9503   56.6986   60.4168 C   0  0  0  0  0  0  0  0  0  0  0  0
  -51.0149   57.4241   61.2320 C   0  0  0  0  0  0  0  0  0  0  0  0
  -50.5505   58.7449   61.8151 C   0  0  0  0  0  0  0  0  0  0  0  0
  -51.1486   59.0464   63.1740 C   0  0  0  0  0  0  0  0  0  0  0  0
  -50.4905   58.2810   64.3137 C   0  0  0  0  0  0  0  0  0  0  0  0
  -50.2439   59.1261   65.5507 C   0  0  0  0  0  0  0  0  0  0  0  0
  -48.0469   60.1191   64.8274 C   0  0  0  0  0  0  0  0  0  0  0  0
  -48.7815   59.3382   65.8933 C   0  0  0  0  0  0  0  0  0  0  0  0
  -37.7544   60.2855   61.1113 C   0  0  0  0  0  0  0  0  0  0  0  0
  -36.8909   60.1870   62.2658 O   0  0  0  0  0  0  0  0  0  0  0  0
  -36.7373   61.3660   63.3374 P   0  0  0  0  0  0  0  0  0  0  0  0
  -36.3127   62.5862   62.6180 O   0  0  0  0  0  0  0  0  0  0  0  0
  -37.9756   61.4138   64.1516 O   0  0  0  0  0  0  0  0  0  0  0  0
  -38.7202   61.6853   63.5922 H   0  0  0  0  0  0  0  0  0  0  0  0
  -35.5409   60.9169   64.2911 O   0  0  0  0  0  0  0  0  0  0  0  0
  -35.7405   60.8540   65.7181 C   0  0  0  0  0  0  0  0  0  0  0  0
  -36.2875   62.2658   67.5755 O   0  0  0  0  0  0  0  0  0  0  0  0
  -35.7147   62.2603   66.2645 C   0  0  0  0  0  0  0  0  0  0  0  0
  -37.1827   61.8939   67.5388 H   0  0  0  0  0  0  0  0  0  0  0  0
  -34.1154   63.5781   67.4990 O   0  0  0  0  0  0  0  0  0  0  0  0
  -34.3195   62.8366   66.3031 C   0  0  0  0  0  0  0  0  0  0  0  0
  -33.2152   63.9397   67.5054 H   0  0  0  0  0  0  0  0  0  0  0  0
  -36.4108   58.4673   60.1403 O   0  0  0  0  0  0  0  0  0  0  0  0
  -36.0269   57.6316   58.0874 O   0  0  0  0  0  0  0  0  0  0  0  0
  -36.2832   57.4659   59.2486 C   0  0  0  0  0  0  0  0  0  0  0  0
  -36.4807   56.1234   59.8816 C   0  0  0  0  0  0  0  0  0  0  0  0
  -35.2249   55.2644   59.7733 C   0  0  0  0  0  0  0  0  0  0  0  0
  -33.9306   56.0380   59.9639 C   0  0  0  0  0  0  0  0  0  0  0  0
  -33.5223   56.1933   61.4243 C   0  0  0  0  0  0  0  0  0  0  0  0
  -33.5386   57.6271   61.9205 C   0  0  0  0  0  0  0  0  0  0  0  0
  -34.3104   57.8403   63.2259 C   0  0  0  0  0  0  0  0  0  0  0  0
  -35.7157   57.2357   63.2581 C   0  0  0  0  0  0  0  0  0  0  0  0
  -36.3145   57.2714   64.6323 C   0  0  0  0  0  0  0  0  0  0  0  0
  -37.5771   57.5024   64.9352 C   0  0  0  0  0  0  0  0  0  0  0  0
  -38.6818   57.7771   63.9642 C   0  0  0  0  0  0  0  0  0  0  0  0
  -40.0422   57.8890   64.6464 C   0  0  0  0  0  0  0  0  0  0  0  0
  -40.4505   59.3174   64.9612 C   0  0  0  0  0  0  0  0  0  0  0  0
  -41.9494   59.5013   65.1245 C   0  0  0  0  0  0  0  0  0  0  0  0
  -42.4489   59.3612   66.5529 C   0  0  0  0  0  0  0  0  0  0  0  0
  -43.7375   58.5612   66.6683 C   0  0  0  0  0  0  0  0  0  0  0  0
  -44.2502   58.0146   65.3507 C   0  0  0  0  0  0  0  0  0  0  0  0
  -45.5610   57.2923   65.4916 C   0  0  0  0  0  0  0  0  0  0  0  0
 21 22  1  0  0  0
  4  5  2  0  0  0
 25 24  1  0  0  0
 25 26  2  0  0  0
 25 27  1  0  0  0
 25 29  1  0  0  0
 22 20  1  0  0  0
  3  5  1  0  0  0
  3  2  1  0  0  0
 20 19  1  0  0  0
 24 23  1  0  0  0
 19 18  1  0  0  0
 18 17  1  0  0  0
 27 28  1  0  0  0
 17 16  1  0  0  0
 29 30  1  0  0  0
 16 15  1  0  0  0
 34 35  1  0  0  0
 34 36  1  0  0  0
 15 14  1  0  0  0
 31 32  1  0  0  0
 31 33  1  0  0  0
 14 13  1  0  0  0
 37  1  1  0  0  0
 37 39  1  0  0  0
 13 12  1  0  0  0
 38 39  2  0  0  0
 12 11  1  0  0  0
 11 10  1  0  0  0
 10  9  1  0  0  0
  9  8  1  0  0  0
  8  7  1  0  0  0
  7  6  1  0  0  0
  6  5  1  0  0  0
  2  1  1  0  0  0
  1 23  1  0  0  0
 30 32  1  0  0  0
 32 35  1  0  0  0
 39 40  1  0  0  0
 40 41  1  0  0  0
 41 42  1  0  0  0
 42 43  1  0  0  0
 43 44  1  0  0  0
 44 45  1  0  0  0
 45 46  1  0  0  0
 46 47  1  0  0  0
 47 48  2  0  0  0
 48 49  1  0  0  0
 49 50  1  0  0  0
 50 51  1  0  0  0
 51 52  1  0  0  0
 52 53  1  0  0  0
 53 54  1  0  0  0
 54 55  1  0  0  0
 55 56  1  0  0  0
M  CHG 1  26  -1
M  END
> <minimizedAffinity>
-8.20043

> <CNNscore>
0.5645118356

> <CNNaffinity>
7.5814256668

> <CNN_VS>
4.2798047066

> <CNNaffinity_variance>
0.6934733987

$$$$
/media/chris/experiments/cd1a-new-docking/inputs/ligands/7sh4_ligand.pdb


 56 55  0  0  0  0  0  0  0  0999 V2000
  -38.8785   60.9160   63.1420 C   0  0  0  0  0  0  0  0  0  0  0  0
  -38.8361   60.5634   61.6820 C   0  0  0  0  0  0  0  0  0  0  0  0
  -39.0429   59.1351   61.6616 O   0  0  0  0  0  0  0  0  0  0  0  0
  -37.9955   57.2813   60.9793 O   0  0  0  0  0  0  0  0  0  0  0  0
  -38.3030   58.4297   60.8056 C   0  0  0  0  0  0  0  0  0  0  0  0
  -38.0196   59.2156   59.5578 C   0  0  0  0  0  0  0  0  0  0  0  0
  -37.8290   58.3611   58.3161 C   0  0  0  0  0  0  0  0  0  0  0  0
  -36.3812   58.2730   57.8816 C   0  0  0  0  0  0  0  0  0  0  0  0
  -35.8235   56.8679   57.8661 C   0  0  0  0  0  0  0  0  0  0  0  0
  -34.3087   56.8306   57.8618 C   0  0  0  0  0  0  0  0  0  0  0  0
  -33.7337   55.9286   58.9264 C   0  0  0  0  0  0  0  0  0  0  0  0
  -34.7429   55.5357   59.9728 C   0  0  0  0  0  0  0  0  0  0  0  0
  -34.4917   56.1768   61.3196 C   0  0  0  0  0  0  0  0  0  0  0  0
  -33.0342   56.5297   61.5372 C   0  0  0  0  0  0  0  0  0  0  0  0
  -32.7494   58.0169   61.5214 C   0  0  0  0  0  0  0  0  0  0  0  0
  -32.7333   58.6558   62.9055 C   0  0  0  0  0  0  0  0  0  0  0  0
  -34.0613   59.2588   63.3213 C   0  0  0  0  0  0  0  0  0  0  0  0
  -34.5474   58.7716   64.6709 C   0  0  0  0  0  0  0  0  0  0  0  0
  -35.2871   57.4423   64.6096 C   0  0  0  0  0  0  0  0  0  0  0  0
  -36.6712   57.5449   63.9941 C   0  0  0  0  0  0  0  0  0  0  0  0
  -39.0860   56.9761   64.4193 C   0  0  0  0  0  0  0  0  0  0  0  0
  -37.8117   57.5516   64.9942 C   0  0  0  0  0  0  0  0  0  0  0  0
  -37.4984   61.0843   63.7240 C   0  0  0  0  0  0  0  0  0  0  0  0
  -36.6654   61.7625   62.7573 O   0  0  0  0  0  0  0  0  0  0  0  0
  -35.7472   63.0186   63.1329 P   0  0  0  0  0  0  0  0  0  0  0  0
  -34.9278   63.3570   61.9494 O   0  0  0  0  0  0  0  0  0  0  0  0
  -36.6165   64.0663   63.7207 O   0  0  0  0  0  0  0  0  0  0  0  0
  -37.2243   64.4001   63.0424 H   0  0  0  0  0  0  0  0  0  0  0  0
  -34.7661   62.4976   64.2768 O   0  0  0  0  0  0  0  0  0  0  0  0
  -34.3538   63.3875   65.3343 C   0  0  0  0  0  0  0  0  0  0  0  0
  -33.8390   62.4684   67.4867 O   0  0  0  0  0  0  0  0  0  0  0  0
  -34.9163   62.8720   66.6362 C   0  0  0  0  0  0  0  0  0  0  0  0
  -33.2933   61.8111   67.0273 H   0  0  0  0  0  0  0  0  0  0  0  0
  -36.9652   64.1443   66.5957 O   0  0  0  0  0  0  0  0  0  0  0  0
  -35.7771   63.8962   67.3362 C   0  0  0  0  0  0  0  0  0  0  0  0
  -37.5041   64.8036   67.0604 H   0  0  0  0  0  0  0  0  0  0  0  0
  -39.6402   59.8792   63.8453 O   0  0  0  0  0  0  0  0  0  0  0  0
  -40.0329   60.8395   65.8412 O   0  0  0  0  0  0  0  0  0  0  0  0
  -40.4340   60.2840   64.8552 C   0  0  0  0  0  0  0  0  0  0  0  0
  -41.8756   59.9756   64.5931 C   0  0  0  0  0  0  0  0  0  0  0  0
  -42.5550   59.3898   65.8268 C   0  0  0  0  0  0  0  0  0  0  0  0
  -42.1538   57.9552   66.1287 C   0  0  0  0  0  0  0  0  0  0  0  0
  -43.3123   56.9679   66.0470 C   0  0  0  0  0  0  0  0  0  0  0  0
  -44.6817   57.6212   66.0583 C   0  0  0  0  0  0  0  0  0  0  0  0
  -45.4625   57.4859   64.7479 C   0  0  0  0  0  0  0  0  0  0  0  0
  -46.6025   58.4895   64.5622 C   0  0  0  0  0  0  0  0  0  0  0  0
  -47.9214   57.9358   65.0118 C   0  0  0  0  0  0  0  0  0  0  0  0
  -49.0490   57.9339   64.3278 C   0  0  0  0  0  0  0  0  0  0  0  0
  -49.2473   58.4859   62.9514 C   0  0  0  0  0  0  0  0  0  0  0  0
  -50.5466   58.0041   62.3124 C   0  0  0  0  0  0  0  0  0  0  0  0
  -50.3954   57.5954   60.8576 C   0  0  0  0  0  0  0  0  0  0  0  0
  -49.0514   57.9681   60.2561 C   0  0  0  0  0  0  0  0  0  0  0  0
  -48.4958   56.9482   59.2759 C   0  0  0  0  0  0  0  0  0  0  0  0
  -47.2251   57.4087   58.5780 C   0  0  0  0  0  0  0  0  0  0  0  0
  -47.0484   56.8542   57.1783 C   0  0  0  0  0  0  0  0  0  0  0  0
  -47.5047   55.4271   57.0565 C   0  0  0  0  0  0  0  0  0  0  0  0
 21 22  1  0  0  0
  4  5  2  0  0  0
 25 24  1  0  0  0
 25 26  2  0  0  0
 25 27  1  0  0  0
 25 29  1  0  0  0
 22 20  1  0  0  0
  3  5  1  0  0  0
  3  2  1  0  0  0
 20 19  1  0  0  0
 24 23  1  0  0  0
 19 18  1  0  0  0
 18 17  1  0  0  0
 27 28  1  0  0  0
 17 16  1  0  0  0
 29 30  1  0  0  0
 16 15  1  0  0  0
 34 35  1  0  0  0
 34 36  1  0  0  0
 15 14  1  0  0  0
 31 32  1  0  0  0
 31 33  1  0  0  0
 14 13  1  0  0  0
 37  1  1  0  0  0
 37 39  1  0  0  0
 13 12  1  0  0  0
 38 39  2  0  0  0
 12 11  1  0  0  0
 11 10  1  0  0  0
 10  9  1  0  0  0
  9  8  1  0  0  0
  8  7  1  0  0  0
  7  6  1  0  0  0
  6  5  1  0  0  0
  2  1  1  0  0  0
  1 23  1  0  0  0
 30 32  1  0  0  0
 32 35  1  0  0  0
 39 40  1  0  0  0
 40 41  1  0  0  0
 41 42  1  0  0  0
 42 43  1  0  0  0
 43 44  1  0  0  0
 44 45  1  0  0  0
 45 46  1  0  0  0
 46 47  1  0  0  0
 47 48  2  0  0  0
 48 49  1  0  0  0
 49 50  1  0  0  0
 50 51  1  0  0  0
 51 52  1  0  0  0
 52 53  1  0  0  0
 53 54  1  0  0  0
 54 55  1  0  0  0
 55 56  1  0  0  0
M  CHG 1  26  -1
M  END
> <minimizedAffinity>
-8.76929

> <CNNscore>
0.5474408865

> <CNNaffinity>
7.6131033897

> <CNN_VS>
4.1677241325

> <CNNaffinity_variance>
0.7522364855

$$$$
/media/chris/experiments/cd1a-new-docking/inputs/ligands/7sh4_ligand.pdb


 56 55  0  0  0  0  0  0  0  0999 V2000
  -38.7200   60.1385   65.4323 C   0  0  0  0  0  0  0  0  0  0  0  0
  -38.8547   58.6476   65.3034 C   0  0  0  0  0  0  0  0  0  0  0  0
  -37.5352   58.2099   64.9157 O   0  0  0  0  0  0  0  0  0  0  0  0
  -38.3842   57.1848   63.1191 O   0  0  0  0  0  0  0  0  0  0  0  0
  -37.4379   57.5158   63.7814 C   0  0  0  0  0  0  0  0  0  0  0  0
  -36.0024   57.3189   63.3872 C   0  0  0  0  0  0  0  0  0  0  0  0
  -35.0059   57.9915   64.3161 C   0  0  0  0  0  0  0  0  0  0  0  0
  -33.9694   58.8072   63.5724 C   0  0  0  0  0  0  0  0  0  0  0  0
  -32.6990   58.0521   63.2539 C   0  0  0  0  0  0  0  0  0  0  0  0
  -32.3419   58.0858   61.7816 C   0  0  0  0  0  0  0  0  0  0  0  0
  -33.4574   57.6000   60.8887 C   0  0  0  0  0  0  0  0  0  0  0  0
  -33.5277   56.0985   60.7988 C   0  0  0  0  0  0  0  0  0  0  0  0
  -33.9482   55.5979   59.4347 C   0  0  0  0  0  0  0  0  0  0  0  0
  -33.9546   56.6918   58.3861 C   0  0  0  0  0  0  0  0  0  0  0  0
  -35.3396   57.1307   57.9592 C   0  0  0  0  0  0  0  0  0  0  0  0
  -36.4610   56.2646   58.5219 C   0  0  0  0  0  0  0  0  0  0  0  0
  -37.0013   56.7457   59.8549 C   0  0  0  0  0  0  0  0  0  0  0  0
  -37.1082   58.2538   59.9521 C   0  0  0  0  0  0  0  0  0  0  0  0
  -38.1989   58.8463   59.0706 C   0  0  0  0  0  0  0  0  0  0  0  0
  -38.9163   60.0262   59.7017 C   0  0  0  0  0  0  0  0  0  0  0  0
  -40.1104   59.9521   61.9163 C   0  0  0  0  0  0  0  0  0  0  0  0
  -38.7838   60.1167   61.2101 C   0  0  0  0  0  0  0  0  0  0  0  0
  -37.3953   60.5377   66.0304 C   0  0  0  0  0  0  0  0  0  0  0  0
  -37.0814   61.8839   65.6091 O   0  0  0  0  0  0  0  0  0  0  0  0
  -36.1900   62.8820   66.4872 P   0  0  0  0  0  0  0  0  0  0  0  0
  -36.7348   64.2469   66.3237 O   0  0  0  0  0  0  0  0  0  0  0  0
  -36.0775   62.3189   67.8543 O   0  0  0  0  0  0  0  0  0  0  0  0
  -36.9490   62.3281   68.2804 H   0  0  0  0  0  0  0  0  0  0  0  0
  -34.7406   62.8490   65.8231 O   0  0  0  0  0  0  0  0  0  0  0  0
  -34.5819   62.4085   64.4590 C   0  0  0  0  0  0  0  0  0  0  0  0
  -35.9133   64.0849   63.3822 O   0  0  0  0  0  0  0  0  0  0  0  0
  -34.5712   63.6239   63.5647 C   0  0  0  0  0  0  0  0  0  0  0  0
  -36.4576   63.3639   63.0290 H   0  0  0  0  0  0  0  0  0  0  0  0
  -34.5069   65.7126   64.7694 O   0  0  0  0  0  0  0  0  0  0  0  0
  -33.7090   64.7348   64.1147 C   0  0  0  0  0  0  0  0  0  0  0  0
  -33.9362   66.4167   65.1153 H   0  0  0  0  0  0  0  0  0  0  0  0
  -39.8459   60.6366   66.2287 O   0  0  0  0  0  0  0  0  0  0  0  0
  -41.3709   61.1521   64.6575 O   0  0  0  0  0  0  0  0  0  0  0  0
  -41.0675   60.5737   65.6650 C   0  0  0  0  0  0  0  0  0  0  0  0
  -41.9941   59.6833   66.4334 C   0  0  0  0  0  0  0  0  0  0  0  0
  -42.5755   58.5850   65.5488 C   0  0  0  0  0  0  0  0  0  0  0  0
  -43.0604   57.3666   66.3172 C   0  0  0  0  0  0  0  0  0  0  0  0
  -44.5581   57.1169   66.1823 C   0  0  0  0  0  0  0  0  0  0  0  0
  -45.2219   57.9254   65.0833 C   0  0  0  0  0  0  0  0  0  0  0  0
  -46.5903   58.5032   65.4559 C   0  0  0  0  0  0  0  0  0  0  0  0
  -47.7916   57.6476   65.0483 C   0  0  0  0  0  0  0  0  0  0  0  0
  -49.0260   58.0018   65.8223 C   0  0  0  0  0  0  0  0  0  0  0  0
  -50.0637   58.6851   65.3801 C   0  0  0  0  0  0  0  0  0  0  0  0
  -50.2267   59.2510   64.0047 C   0  0  0  0  0  0  0  0  0  0  0  0
  -50.7950   58.2333   63.0198 C   0  0  0  0  0  0  0  0  0  0  0  0
  -49.8737   57.9375   61.8494 C   0  0  0  0  0  0  0  0  0  0  0  0
  -50.5800   57.3074   60.6615 C   0  0  0  0  0  0  0  0  0  0  0  0
  -49.7224   57.1821   59.4131 C   0  0  0  0  0  0  0  0  0  0  0  0
  -48.2444   57.4380   59.6654 C   0  0  0  0  0  0  0  0  0  0  0  0
  -47.4386   57.7165   58.4120 C   0  0  0  0  0  0  0  0  0  0  0  0
  -45.9554   57.6553   58.6488 C   0  0  0  0  0  0  0  0  0  0  0  0
 21 22  1  0  0  0
  4  5  2  0  0  0
 25 24  1  0  0  0
 25 26  2  0  0  0
 25 27  1  0  0  0
 25 29  1  0  0  0
 22 20  1  0  0  0
  3  5  1  0  0  0
  3  2  1  0  0  0
 20 19  1  0  0  0
 24 23  1  0  0  0
 19 18  1  0  0  0
 18 17  1  0  0  0
 27 28  1  0  0  0
 17 16  1  0  0  0
 29 30  1  0  0  0
 16 15  1  0  0  0
 34 35  1  0  0  0
 34 36  1  0  0  0
 15 14  1  0  0  0
 31 32  1  0  0  0
 31 33  1  0  0  0
 14 13  1  0  0  0
 37  1  1  0  0  0
 37 39  1  0  0  0
 13 12  1  0  0  0
 38 39  2  0  0  0
 12 11  1  0  0  0
 11 10  1  0  0  0
 10  9  1  0  0  0
  9  8  1  0  0  0
  8  7  1  0  0  0
  7  6  1  0  0  0
  6  5  1  0  0  0
  2  1  1  0  0  0
  1 23  1  0  0  0
 30 32  1  0  0  0
 32 35  1  0  0  0
 39 40  1  0  0  0
 40 41  1  0  0  0
 41 42  1  0  0  0
 42 43  1  0  0  0
 43 44  1  0  0  0
 44 45  1  0  0  0
 45 46  1  0  0  0
 46 47  1  0  0  0
 47 48  2  0  0  0
 48 49  1  0  0  0
 49 50  1  0  0  0
 50 51  1  0  0  0
 51 52  1  0  0  0
 52 53  1  0  0  0
 53 54  1  0  0  0
 54 55  1  0  0  0
 55 56  1  0  0  0
M  CHG 1  26  -1
M  END
> <minimizedAffinity>
-8.83228

> <CNNscore>
0.5287078023

> <CNNaffinity>
7.5806670189

> <CNN_VS>
4.0079579353

> <CNNaffinity_variance>
1.1117506027

$$$$
/media/chris/experiments/cd1a-new-docking/inputs/ligands/7sh4_ligand.pdb


 56 55  0  0  0  0  0  0  0  0999 V2000
  -39.1170   58.3844   63.5181 C   0  0  0  0  0  0  0  0  0  0  0  0
  -38.1009   58.8784   64.5087 C   0  0  0  0  0  0  0  0  0  0  0  0
  -37.0554   59.4388   63.6865 O   0  0  0  0  0  0  0  0  0  0  0  0
  -35.8701   61.3009   63.3302 O   0  0  0  0  0  0  0  0  0  0  0  0
  -36.6102   60.6510   64.0184 C   0  0  0  0  0  0  0  0  0  0  0  0
  -37.2505   61.1356   65.2872 C   0  0  0  0  0  0  0  0  0  0  0  0
  -36.2632   61.6296   66.3311 C   0  0  0  0  0  0  0  0  0  0  0  0
  -36.1145   63.1365   66.3307 C   0  0  0  0  0  0  0  0  0  0  0  0
  -34.7379   63.6230   66.7231 C   0  0  0  0  0  0  0  0  0  0  0  0
  -33.6215   62.8570   66.0426 C   0  0  0  0  0  0  0  0  0  0  0  0
  -32.5159   63.7478   65.5311 C   0  0  0  0  0  0  0  0  0  0  0  0
  -32.5950   65.1520   66.0693 C   0  0  0  0  0  0  0  0  0  0  0  0
  -32.6834   66.2054   64.9873 C   0  0  0  0  0  0  0  0  0  0  0  0
  -32.7828   65.6100   63.5974 C   0  0  0  0  0  0  0  0  0  0  0  0
  -31.6051   65.9318   62.7016 C   0  0  0  0  0  0  0  0  0  0  0  0
  -31.3081   64.8550   61.6640 C   0  0  0  0  0  0  0  0  0  0  0  0
  -32.1021   63.5774   61.8573 C   0  0  0  0  0  0  0  0  0  0  0  0
  -31.2329   62.3479   62.0245 C   0  0  0  0  0  0  0  0  0  0  0  0
  -32.0166   61.0888   62.3684 C   0  0  0  0  0  0  0  0  0  0  0  0
  -31.3079   59.8053   61.9740 C   0  0  0  0  0  0  0  0  0  0  0  0
  -33.4343   58.7784   62.8457 C   0  0  0  0  0  0  0  0  0  0  0  0
  -32.1651   58.5564   62.0549 C   0  0  0  0  0  0  0  0  0  0  0  0
  -38.4823   57.9678   62.2161 C   0  0  0  0  0  0  0  0  0  0  0  0
  -39.0910   58.7176   61.1410 O   0  0  0  0  0  0  0  0  0  0  0  0
  -38.2585   59.6954   60.1856 P   0  0  0  0  0  0  0  0  0  0  0  0
  -39.1523   60.1400   59.0947 O   0  0  0  0  0  0  0  0  0  0  0  0
  -37.6038   60.7212   61.0328 O   0  0  0  0  0  0  0  0  0  0  0  0
  -38.2803   61.2880   61.4353 H   0  0  0  0  0  0  0  0  0  0  0  0
  -37.1153   58.7871   59.5445 O   0  0  0  0  0  0  0  0  0  0  0  0
  -37.3651   58.0726   58.3167 C   0  0  0  0  0  0  0  0  0  0  0  0
  -35.2060   57.1079   57.9297 O   0  0  0  0  0  0  0  0  0  0  0  0
  -36.5461   56.8053   58.3288 C   0  0  0  0  0  0  0  0  0  0  0  0
  -35.2169   57.5393   57.0610 H   0  0  0  0  0  0  0  0  0  0  0  0
  -35.4008   56.5101   60.4310 O   0  0  0  0  0  0  0  0  0  0  0  0
  -36.5479   56.1325   59.6806 C   0  0  0  0  0  0  0  0  0  0  0  0
  -35.4197   56.0686   61.2946 H   0  0  0  0  0  0  0  0  0  0  0  0
  -40.1182   59.4372   63.3201 O   0  0  0  0  0  0  0  0  0  0  0  0
  -40.8256   60.9705   64.8063 O   0  0  0  0  0  0  0  0  0  0  0  0
  -40.8053   59.8384   64.4069 C   0  0  0  0  0  0  0  0  0  0  0  0
  -41.5540   58.7095   65.0449 C   0  0  0  0  0  0  0  0  0  0  0  0
  -42.1239   59.1127   66.4011 C   0  0  0  0  0  0  0  0  0  0  0  0
  -43.6392   59.0268   66.4831 C   0  0  0  0  0  0  0  0  0  0  0  0
  -44.2605   58.1582   65.3954 C   0  0  0  0  0  0  0  0  0  0  0  0
  -45.6740   58.5601   65.0171 C   0  0  0  0  0  0  0  0  0  0  0  0
  -46.6733   58.5413   66.1772 C   0  0  0  0  0  0  0  0  0  0  0  0
  -47.6004   59.7559   66.2583 C   0  0  0  0  0  0  0  0  0  0  0  0
  -47.8963   60.3319   64.9060 C   0  0  0  0  0  0  0  0  0  0  0  0
  -48.9220   60.0363   64.1315 C   0  0  0  0  0  0  0  0  0  0  0  0
  -50.0114   59.0596   64.4441 C   0  0  0  0  0  0  0  0  0  0  0  0
  -51.1038   59.0451   63.3787 C   0  0  0  0  0  0  0  0  0  0  0  0
  -50.5755   58.8636   61.9665 C   0  0  0  0  0  0  0  0  0  0  0  0
  -50.8474   57.4865   61.3861 C   0  0  0  0  0  0  0  0  0  0  0  0
  -50.2161   57.2408   60.0257 C   0  0  0  0  0  0  0  0  0  0  0  0
  -48.9985   58.1121   59.7568 C   0  0  0  0  0  0  0  0  0  0  0  0
  -47.6826   57.3596   59.7589 C   0  0  0  0  0  0  0  0  0  0  0  0
  -46.8679   57.6099   58.5206 C   0  0  0  0  0  0  0  0  0  0  0  0
 21 22  1  0  0  0
  4  5  2  0  0  0
 25 24  1  0  0  0
 25 26  2  0  0  0
 25 27  1  0  0  0
 25 29  1  0  0  0
 22 20  1  0  0  0
  3  5  1  0  0  0
  3  2  1  0  0  0
 20 19  1  0  0  0
 24 23  1  0  0  0
 19 18  1  0  0  0
 18 17  1  0  0  0
 27 28  1  0  0  0
 17 16  1  0  0  0
 29 30  1  0  0  0
 16 15  1  0  0  0
 34 35  1  0  0  0
 34 36  1  0  0  0
 15 14  1  0  0  0
 31 32  1  0  0  0
 31 33  1  0  0  0
 14 13  1  0  0  0
 37  1  1  0  0  0
 37 39  1  0  0  0
 13 12  1  0  0  0
 38 39  2  0  0  0
 12 11  1  0  0  0
 11 10  1  0  0  0
 10  9  1  0  0  0
  9  8  1  0  0  0
  8  7  1  0  0  0
  7  6  1  0  0  0
  6  5  1  0  0  0
  2  1  1  0  0  0
  1 23  1  0  0  0
 30 32  1  0  0  0
 32 35  1  0  0  0
 39 40  1  0  0  0
 40 41  1  0  0  0
 41 42  1  0  0  0
 42 43  1  0  0  0
 43 44  1  0  0  0
 44 45  1  0  0  0
 45 46  1  0  0  0
 46 47  1  0  0  0
 47 48  2  0  0  0
 48 49  1  0  0  0
 49 50  1  0  0  0
 50 51  1  0  0  0
 51 52  1  0  0  0
 52 53  1  0  0  0
 53 54  1  0  0  0
 54 55  1  0  0  0
 55 56  1  0  0  0
M  CHG 1  26  -1
M  END
> <minimizedAffinity>
-8.20599

> <CNNscore>
0.5256199837

> <CNNaffinity>
7.2136816978

> <CNN_VS>
3.7916553020

> <CNNaffinity_variance>
0.3888675570

$$$$
/media/chris/experiments/cd1a-new-docking/inputs/ligands/7sh4_ligand.pdb


 56 55  0  0  0  0  0  0  0  0999 V2000
  -37.3409   60.7267   65.4031 C   0  0  0  0  0  0  0  0  0  0  0  0
  -38.4511   59.8673   65.9383 C   0  0  0  0  0  0  0  0  0  0  0  0
  -39.5913   60.7515   65.9732 O   0  0  0  0  0  0  0  0  0  0  0  0
  -41.3040   60.9637   64.5516 O   0  0  0  0  0  0  0  0  0  0  0  0
  -40.7042   60.3260   65.3745 C   0  0  0  0  0  0  0  0  0  0  0  0
  -41.0272   58.9139   65.7700 C   0  0  0  0  0  0  0  0  0  0  0  0
  -42.3176   58.7702   66.5591 C   0  0  0  0  0  0  0  0  0  0  0  0
  -43.3761   57.9847   65.8139 C   0  0  0  0  0  0  0  0  0  0  0  0
  -44.5438   58.8177   65.3362 C   0  0  0  0  0  0  0  0  0  0  0  0
  -45.6592   57.9865   64.7352 C   0  0  0  0  0  0  0  0  0  0  0  0
  -47.0069   58.6620   64.8046 C   0  0  0  0  0  0  0  0  0  0  0  0
  -48.0813   57.7747   65.3755 C   0  0  0  0  0  0  0  0  0  0  0  0
  -49.3154   58.5320   65.8133 C   0  0  0  0  0  0  0  0  0  0  0  0
  -50.5389   58.1834   64.9900 C   0  0  0  0  0  0  0  0  0  0  0  0
  -50.7246   59.0495   63.7618 C   0  0  0  0  0  0  0  0  0  0  0  0
  -50.7797   58.2637   62.4565 C   0  0  0  0  0  0  0  0  0  0  0  0
  -49.6147   58.5351   61.5243 C   0  0  0  0  0  0  0  0  0  0  0  0
  -49.8972   58.1622   60.0834 C   0  0  0  0  0  0  0  0  0  0  0  0
  -49.6002   56.7043   59.7609 C   0  0  0  0  0  0  0  0  0  0  0  0
  -48.1520   56.4481   59.3837 C   0  0  0  0  0  0  0  0  0  0  0  0
  -46.5093   57.8774   58.1211 C   0  0  0  0  0  0  0  0  0  0  0  0
  -47.7399   57.0036   58.0337 C   0  0  0  0  0  0  0  0  0  0  0  0
  -36.6898   61.5494   66.4852 C   0  0  0  0  0  0  0  0  0  0  0  0
  -36.7409   62.9426   66.1047 O   0  0  0  0  0  0  0  0  0  0  0  0
  -35.4432   63.7699   65.6650 P   0  0  0  0  0  0  0  0  0  0  0  0
  -35.8056   64.6052   64.4998 O   0  0  0  0  0  0  0  0  0  0  0  0
  -34.8873   64.4312   66.8702 O   0  0  0  0  0  0  0  0  0  0  0  0
  -35.5112   65.1028   67.1873 H   0  0  0  0  0  0  0  0  0  0  0  0
  -34.3904   62.6763   65.1767 O   0  0  0  0  0  0  0  0  0  0  0  0
  -33.1383   63.0903   64.5928 C   0  0  0  0  0  0  0  0  0  0  0  0
  -34.0018   61.4723   63.0503 O   0  0  0  0  0  0  0  0  0  0  0  0
  -33.0657   62.5456   63.1874 C   0  0  0  0  0  0  0  0  0  0  0  0
  -33.8215   60.7980   63.7239 H   0  0  0  0  0  0  0  0  0  0  0  0
  -34.7169   63.6616   61.8286 O   0  0  0  0  0  0  0  0  0  0  0  0
  -33.3319   63.6055   62.1455 C   0  0  0  0  0  0  0  0  0  0  0  0
  -34.8678   64.3469   61.1589 H   0  0  0  0  0  0  0  0  0  0  0  0
  -37.8847   61.5706   64.3344 O   0  0  0  0  0  0  0  0  0  0  0  0
  -36.7311   61.8108   62.4182 O   0  0  0  0  0  0  0  0  0  0  0  0
  -37.5614   61.2383   63.0698 C   0  0  0  0  0  0  0  0  0  0  0  0
  -38.3466   60.0605   62.5816 C   0  0  0  0  0  0  0  0  0  0  0  0
  -39.4740   60.4888   61.6476 C   0  0  0  0  0  0  0  0  0  0  0  0
  -39.4723   59.7690   60.3090 C   0  0  0  0  0  0  0  0  0  0  0  0
  -38.0920   59.6743   59.6692 C   0  0  0  0  0  0  0  0  0  0  0  0
  -37.6283   58.2530   59.4099 C   0  0  0  0  0  0  0  0  0  0  0  0
  -37.2640   57.9581   57.9520 C   0  0  0  0  0  0  0  0  0  0  0  0
  -36.2489   56.8312   57.7493 C   0  0  0  0  0  0  0  0  0  0  0  0
  -36.4761   55.6895   58.6943 C   0  0  0  0  0  0  0  0  0  0  0  0
  -35.6296   55.2345   59.5974 C   0  0  0  0  0  0  0  0  0  0  0  0
  -34.2583   55.7674   59.8695 C   0  0  0  0  0  0  0  0  0  0  0  0
  -34.0322   56.0652   61.3490 C   0  0  0  0  0  0  0  0  0  0  0  0
  -32.8295   56.9534   61.6151 C   0  0  0  0  0  0  0  0  0  0  0  0
  -33.0783   58.0165   62.6710 C   0  0  0  0  0  0  0  0  0  0  0  0
  -34.5458   58.3066   62.9389 C   0  0  0  0  0  0  0  0  0  0  0  0
  -35.0150   57.8409   64.3089 C   0  0  0  0  0  0  0  0  0  0  0  0
  -36.3732   57.1679   64.3055 C   0  0  0  0  0  0  0  0  0  0  0  0
  -37.0398   57.2107   62.9588 C   0  0  0  0  0  0  0  0  0  0  0  0
 21 22  1  0  0  0
  4  5  2  0  0  0
 25 24  1  0  0  0
 25 26  2  0  0  0
 25 27  1  0  0  0
 25 29  1  0  0  0
 22 20  1  0  0  0
  3  5  1  0  0  0
  3  2  1  0  0  0
 20 19  1  0  0  0
 24 23  1  0  0  0
 19 18  1  0  0  0
 18 17  1  0  0  0
 27 28  1  0  0  0
 17 16  1  0  0  0
 29 30  1  0  0  0
 16 15  1  0  0  0
 34 35  1  0  0  0
 34 36  1  0  0  0
 15 14  1  0  0  0
 31 32  1  0  0  0
 31 33  1  0  0  0
 14 13  1  0  0  0
 37  1  1  0  0  0
 37 39  1  0  0  0
 13 12  1  0  0  0
 38 39  2  0  0  0
 12 11  1  0  0  0
 11 10  1  0  0  0
 10  9  1  0  0  0
  9  8  1  0  0  0
  8  7  1  0  0  0
  7  6  1  0  0  0
  6  5  1  0  0  0
  2  1  1  0  0  0
  1 23  1  0  0  0
 30 32  1  0  0  0
 32 35  1  0  0  0
 39 40  1  0  0  0
 40 41  1  0  0  0
 41 42  1  0  0  0
 42 43  1  0  0  0
 43 44  1  0  0  0
 44 45  1  0  0  0
 45 46  1  0  0  0
 46 47  1  0  0  0
 47 48  2  0  0  0
 48 49  1  0  0  0
 49 50  1  0  0  0
 50 51  1  0  0  0
 51 52  1  0  0  0
 52 53  1  0  0  0
 53 54  1  0  0  0
 54 55  1  0  0  0
 55 56  1  0  0  0
M  CHG 1  26  -1
M  END
> <minimizedAffinity>
-8.95122

> <CNNscore>
0.5160587430

> <CNNaffinity>
7.5130858421

> <CNN_VS>
3.8771936893

> <CNNaffinity_variance>
1.1653223038

$$$$
/media/chris/experiments/cd1a-new-docking/inputs/ligands/7sh4_ligand.pdb


 56 55  0  0  0  0  0  0  0  0999 V2000
  -37.8835   59.9972   64.8239 C   0  0  0  0  0  0  0  0  0  0  0  0
  -38.9884   59.5227   65.7249 C   0  0  0  0  0  0  0  0  0  0  0  0
  -40.0323   60.5027   65.5433 O   0  0  0  0  0  0  0  0  0  0  0  0
  -41.8345   60.4143   64.2229 O   0  0  0  0  0  0  0  0  0  0  0  0
  -41.2363   60.0459   65.1976 C   0  0  0  0  0  0  0  0  0  0  0  0
  -41.6772   58.9357   66.1074 C   0  0  0  0  0  0  0  0  0  0  0  0
  -43.0177   59.1797   66.7797 C   0  0  0  0  0  0  0  0  0  0  0  0
  -44.1461   58.4004   66.1376 C   0  0  0  0  0  0  0  0  0  0  0  0
  -45.1689   59.2605   65.4307 C   0  0  0  0  0  0  0  0  0  0  0  0
  -46.3900   58.4832   64.9827 C   0  0  0  0  0  0  0  0  0  0  0  0
  -47.6873   59.0867   65.4627 C   0  0  0  0  0  0  0  0  0  0  0  0
  -48.0517   60.3537   64.7350 C   0  0  0  0  0  0  0  0  0  0  0  0
  -49.0136   60.1321   63.5887 C   0  0  0  0  0  0  0  0  0  0  0  0
  -50.1398   59.1828   63.9448 C   0  0  0  0  0  0  0  0  0  0  0  0
  -50.8179   58.5514   62.7471 C   0  0  0  0  0  0  0  0  0  0  0  0
  -49.8572   57.8473   61.7955 C   0  0  0  0  0  0  0  0  0  0  0  0
  -49.9047   58.3708   60.3729 C   0  0  0  0  0  0  0  0  0  0  0  0
  -49.8197   57.2787   59.3264 C   0  0  0  0  0  0  0  0  0  0  0  0
  -48.9339   56.1098   59.7348 C   0  0  0  0  0  0  0  0  0  0  0  0
  -47.7638   55.8770   58.7958 C   0  0  0  0  0  0  0  0  0  0  0  0
  -46.3301   57.8040   58.0426 C   0  0  0  0  0  0  0  0  0  0  0  0
  -47.5554   56.9649   57.7594 C   0  0  0  0  0  0  0  0  0  0  0  0
  -36.9754   60.9834   65.5128 C   0  0  0  0  0  0  0  0  0  0  0  0
  -36.9266   62.1967   64.7293 O   0  0  0  0  0  0  0  0  0  0  0  0
  -35.6282   62.6482   63.9095 P   0  0  0  0  0  0  0  0  0  0  0  0
  -34.5726   61.6363   64.1299 O   0  0  0  0  0  0  0  0  0  0  0  0
  -36.0433   62.9534   62.5191 O   0  0  0  0  0  0  0  0  0  0  0  0
  -36.3380   62.1383   62.0834 H   0  0  0  0  0  0  0  0  0  0  0  0
  -35.1523   64.0102   64.5888 O   0  0  0  0  0  0  0  0  0  0  0  0
  -35.9769   64.6450   65.5873 C   0  0  0  0  0  0  0  0  0  0  0  0
  -36.2412   63.4188   67.6292 O   0  0  0  0  0  0  0  0  0  0  0  0
  -35.3929   64.3467   66.9464 C   0  0  0  0  0  0  0  0  0  0  0  0
  -37.1407   63.7786   67.6780 H   0  0  0  0  0  0  0  0  0  0  0  0
  -33.9751   62.4020   67.1083 O   0  0  0  0  0  0  0  0  0  0  0  0
  -33.9872   63.8021   66.8611 C   0  0  0  0  0  0  0  0  0  0  0  0
  -33.0652   62.0711   67.0492 H   0  0  0  0  0  0  0  0  0  0  0  0
  -38.4865   60.5687   63.6158 O   0  0  0  0  0  0  0  0  0  0  0  0
  -37.4186   60.5286   61.6363 O   0  0  0  0  0  0  0  0  0  0  0  0
  -38.1444   60.0090   62.4394 C   0  0  0  0  0  0  0  0  0  0  0  0
  -38.7616   58.6564   62.2617 C   0  0  0  0  0  0  0  0  0  0  0  0
  -37.7118   57.5513   62.3191 C   0  0  0  0  0  0  0  0  0  0  0  0
  -37.5892   56.7502   61.0333 C   0  0  0  0  0  0  0  0  0  0  0  0
  -37.2167   57.5959   59.8210 C   0  0  0  0  0  0  0  0  0  0  0  0
  -36.6860   56.7929   58.6480 C   0  0  0  0  0  0  0  0  0  0  0  0
  -35.4187   57.3648   58.0063 C   0  0  0  0  0  0  0  0  0  0  0  0
  -34.1117   56.6955   58.4364 C   0  0  0  0  0  0  0  0  0  0  0  0
  -34.3322   55.6484   59.4867 C   0  0  0  0  0  0  0  0  0  0  0  0
  -33.8995   55.6790   60.7322 C   0  0  0  0  0  0  0  0  0  0  0  0
  -33.0949   56.7728   61.3604 C   0  0  0  0  0  0  0  0  0  0  0  0
  -33.9709   57.8593   61.9774 C   0  0  0  0  0  0  0  0  0  0  0  0
  -33.1828   58.9588   62.6676 C   0  0  0  0  0  0  0  0  0  0  0  0
  -31.7038   58.9582   62.3215 C   0  0  0  0  0  0  0  0  0  0  0  0
  -31.2188   60.2210   61.6290 C   0  0  0  0  0  0  0  0  0  0  0  0
  -31.2170   61.4446   62.5326 C   0  0  0  0  0  0  0  0  0  0  0  0
  -32.0194   62.6141   61.9975 C   0  0  0  0  0  0  0  0  0  0  0  0
  -31.2463   63.9032   62.0085 C   0  0  0  0  0  0  0  0  0  0  0  0
 21 22  1  0  0  0
  4  5  2  0  0  0
 25 24  1  0  0  0
 25 26  2  0  0  0
 25 27  1  0  0  0
 25 29  1  0  0  0
 22 20  1  0  0  0
  3  5  1  0  0  0
  3  2  1  0  0  0
 20 19  1  0  0  0
 24 23  1  0  0  0
 19 18  1  0  0  0
 18 17  1  0  0  0
 27 28  1  0  0  0
 17 16  1  0  0  0
 29 30  1  0  0  0
 16 15  1  0  0  0
 34 35  1  0  0  0
 34 36  1  0  0  0
 15 14  1  0  0  0
 31 32  1  0  0  0
 31 33  1  0  0  0
 14 13  1  0  0  0
 37  1  1  0  0  0
 37 39  1  0  0  0
 13 12  1  0  0  0
 38 39  2  0  0  0
 12 11  1  0  0  0
 11 10  1  0  0  0
 10  9  1  0  0  0
  9  8  1  0  0  0
  8  7  1  0  0  0
  7  6  1  0  0  0
  6  5  1  0  0  0
  2  1  1  0  0  0
  1 23  1  0  0  0
 30 32  1  0  0  0
 32 35  1  0  0  0
 39 40  1  0  0  0
 40 41  1  0  0  0
 41 42  1  0  0  0
 42 43  1  0  0  0
 43 44  1  0  0  0
 44 45  1  0  0  0
 45 46  1  0  0  0
 46 47  1  0  0  0
 47 48  2  0  0  0
 48 49  1  0  0  0
 49 50  1  0  0  0
 50 51  1  0  0  0
 51 52  1  0  0  0
 52 53  1  0  0  0
 53 54  1  0  0  0
 54 55  1  0  0  0
 55 56  1  0  0  0
M  CHG 1  26  -1
M  END
> <minimizedAffinity>
-8.66569

> <CNNscore>
0.4981572628

> <CNNaffinity>
7.2360544205

> <CNN_VS>
3.6046931744

> <CNNaffinity_variance>
0.5102670789

$$$$
/media/chris/experiments/cd1a-new-docking/inputs/ligands/7sh4_ligand.pdb


 56 55  0  0  0  0  0  0  0  0999 V2000
  -38.1112   59.9417   64.5587 C   0  0  0  0  0  0  0  0  0  0  0  0
  -39.1733   58.9638   64.9751 C   0  0  0  0  0  0  0  0  0  0  0  0
  -39.7388   59.5491   66.1670 O   0  0  0  0  0  0  0  0  0  0  0  0
  -41.3851   61.0555   66.3075 O   0  0  0  0  0  0  0  0  0  0  0  0
  -41.0151   59.9304   66.1058 C   0  0  0  0  0  0  0  0  0  0  0  0
  -41.8945   58.8084   65.6340 C   0  0  0  0  0  0  0  0  0  0  0  0
  -43.2765   58.7958   66.2652 C   0  0  0  0  0  0  0  0  0  0  0  0
  -44.3420   58.2593   65.3326 C   0  0  0  0  0  0  0  0  0  0  0  0
  -45.6439   59.0268   65.3731 C   0  0  0  0  0  0  0  0  0  0  0  0
  -46.7464   58.3680   64.5688 C   0  0  0  0  0  0  0  0  0  0  0  0
  -47.9305   57.9572   65.4095 C   0  0  0  0  0  0  0  0  0  0  0  0
  -48.8171   59.1155   65.7834 C   0  0  0  0  0  0  0  0  0  0  0  0
  -49.4137   59.8250   64.5881 C   0  0  0  0  0  0  0  0  0  0  0  0
  -50.8332   59.3836   64.2939 C   0  0  0  0  0  0  0  0  0  0  0  0
  -51.1778   59.3527   62.8197 C   0  0  0  0  0  0  0  0  0  0  0  0
  -49.9849   59.0680   61.9140 C   0  0  0  0  0  0  0  0  0  0  0  0
  -49.6930   57.5917   61.7254 C   0  0  0  0  0  0  0  0  0  0  0  0
  -49.8137   57.1333   60.2865 C   0  0  0  0  0  0  0  0  0  0  0  0
  -49.2320   55.7488   60.0363 C   0  0  0  0  0  0  0  0  0  0  0  0
  -48.2231   55.7093   58.9025 C   0  0  0  0  0  0  0  0  0  0  0  0
  -47.5018   56.6625   56.6873 C   0  0  0  0  0  0  0  0  0  0  0  0
  -48.2758   56.8999   57.9641 C   0  0  0  0  0  0  0  0  0  0  0  0
  -37.4578   60.6064   65.7433 C   0  0  0  0  0  0  0  0  0  0  0  0
  -37.1552   61.9769   65.3992 O   0  0  0  0  0  0  0  0  0  0  0  0
  -36.1815   62.8966   66.2755 P   0  0  0  0  0  0  0  0  0  0  0  0
  -36.5426   64.3094   66.0304 O   0  0  0  0  0  0  0  0  0  0  0  0
  -36.1971   62.3887   67.6686 O   0  0  0  0  0  0  0  0  0  0  0  0
  -37.0771   62.5262   68.0530 H   0  0  0  0  0  0  0  0  0  0  0  0
  -34.7220   62.6525   65.6815 O   0  0  0  0  0  0  0  0  0  0  0  0
  -33.6950   63.6496   65.8585 C   0  0  0  0  0  0  0  0  0  0  0  0
  -34.4237   65.0298   64.0400 O   0  0  0  0  0  0  0  0  0  0  0  0
  -33.3430   64.2154   64.5046 C   0  0  0  0  0  0  0  0  0  0  0  0
  -35.2404   64.5066   64.0273 H   0  0  0  0  0  0  0  0  0  0  0  0
  -31.0339   64.2939   65.1974 O   0  0  0  0  0  0  0  0  0  0  0  0
  -32.0622   65.0148   64.5309 C   0  0  0  0  0  0  0  0  0  0  0  0
  -30.2206   64.8226   65.2041 H   0  0  0  0  0  0  0  0  0  0  0  0
  -38.7167   60.9229   63.6530 O   0  0  0  0  0  0  0  0  0  0  0  0
  -40.8017   60.8544   62.8114 O   0  0  0  0  0  0  0  0  0  0  0  0
  -39.6637   60.4713   62.8084 C   0  0  0  0  0  0  0  0  0  0  0  0
  -39.1241   59.4501   61.8556 C   0  0  0  0  0  0  0  0  0  0  0  0
  -38.8568   60.0547   60.4809 C   0  0  0  0  0  0  0  0  0  0  0  0
  -37.6473   59.4660   59.7733 C   0  0  0  0  0  0  0  0  0  0  0  0
  -38.0069   58.5780   58.5876 C   0  0  0  0  0  0  0  0  0  0  0  0
  -37.2985   57.2362   58.5844 C   0  0  0  0  0  0  0  0  0  0  0  0
  -36.1120   57.1449   57.6207 C   0  0  0  0  0  0  0  0  0  0  0  0
  -34.7363   57.0696   58.2865 C   0  0  0  0  0  0  0  0  0  0  0  0
  -34.5209   55.7643   58.9920 C   0  0  0  0  0  0  0  0  0  0  0  0
  -34.2796   55.5944   60.2774 C   0  0  0  0  0  0  0  0  0  0  0  0
  -34.1717   56.6759   61.3057 C   0  0  0  0  0  0  0  0  0  0  0  0
  -35.5320   57.2478   61.6942 C   0  0  0  0  0  0  0  0  0  0  0  0
  -35.6407   57.6179   63.1630 C   0  0  0  0  0  0  0  0  0  0  0  0
  -34.3039   57.9278   63.8142 C   0  0  0  0  0  0  0  0  0  0  0  0
  -33.5994   59.1522   63.2539 C   0  0  0  0  0  0  0  0  0  0  0  0
  -32.1390   58.9051   62.9074 C   0  0  0  0  0  0  0  0  0  0  0  0
  -31.6784   59.5851   61.6333 C   0  0  0  0  0  0  0  0  0  0  0  0
  -31.0246   60.9146   61.8875 C   0  0  0  0  0  0  0  0  0  0  0  0
 21 22  1  0  0  0
  4  5  2  0  0  0
 25 24  1  0  0  0
 25 26  2  0  0  0
 25 27  1  0  0  0
 25 29  1  0  0  0
 22 20  1  0  0  0
  3  5  1  0  0  0
  3  2  1  0  0  0
 20 19  1  0  0  0
 24 23  1  0  0  0
 19 18  1  0  0  0
 18 17  1  0  0  0
 27 28  1  0  0  0
 17 16  1  0  0  0
 29 30  1  0  0  0
 16 15  1  0  0  0
 34 35  1  0  0  0
 34 36  1  0  0  0
 15 14  1  0  0  0
 31 32  1  0  0  0
 31 33  1  0  0  0
 14 13  1  0  0  0
 37  1  1  0  0  0
 37 39  1  0  0  0
 13 12  1  0  0  0
 38 39  2  0  0  0
 12 11  1  0  0  0
 11 10  1  0  0  0
 10  9  1  0  0  0
  9  8  1  0  0  0
  8  7  1  0  0  0
  7  6  1  0  0  0
  6  5  1  0  0  0
  2  1  1  0  0  0
  1 23  1  0  0  0
 30 32  1  0  0  0
 32 35  1  0  0  0
 39 40  1  0  0  0
 40 41  1  0  0  0
 41 42  1  0  0  0
 42 43  1  0  0  0
 43 44  1  0  0  0
 44 45  1  0  0  0
 45 46  1  0  0  0
 46 47  1  0  0  0
 47 48  2  0  0  0
 48 49  1  0  0  0
 49 50  1  0  0  0
 50 51  1  0  0  0
 51 52  1  0  0  0
 52 53  1  0  0  0
 53 54  1  0  0  0
 54 55  1  0  0  0
 55 56  1  0  0  0
M  CHG 1  26  -1
M  END
> <minimizedAffinity>
-8.39021

> <CNNscore>
0.4694695771

> <CNNaffinity>
7.4139451981

> <CNN_VS>
3.4806218147

> <CNNaffinity_variance>
0.6468282938

$$$$
/media/chris/experiments/cd1a-new-docking/inputs/ligands/7sh4_ligand.pdb


 56 55  0  0  0  0  0  0  0  0999 V2000
  -37.4375   59.0875   61.6941 C   0  0  0  0  0  0  0  0  0  0  0  0
  -38.8057   58.7870   61.1506 C   0  0  0  0  0  0  0  0  0  0  0  0
  -38.9207   59.6488   59.9985 O   0  0  0  0  0  0  0  0  0  0  0  0
  -40.6785   60.9536   60.4534 O   0  0  0  0  0  0  0  0  0  0  0  0
  -40.1264   60.1576   59.7427 C   0  0  0  0  0  0  0  0  0  0  0  0
  -40.6340   59.7038   58.4044 C   0  0  0  0  0  0  0  0  0  0  0  0
  -42.1266   59.4219   58.3698 C   0  0  0  0  0  0  0  0  0  0  0  0
  -42.6074   58.9753   57.0052 C   0  0  0  0  0  0  0  0  0  0  0  0
  -43.9422   58.2655   57.0207 C   0  0  0  0  0  0  0  0  0  0  0  0
  -44.5248   58.1274   58.4127 C   0  0  0  0  0  0  0  0  0  0  0  0
  -46.0205   57.9263   58.4133 C   0  0  0  0  0  0  0  0  0  0  0  0
  -46.5466   57.4194   57.0966 C   0  0  0  0  0  0  0  0  0  0  0  0
  -47.7313   56.4899   57.2413 C   0  0  0  0  0  0  0  0  0  0  0  0
  -47.5818   55.5277   58.4023 C   0  0  0  0  0  0  0  0  0  0  0  0
  -48.7519   55.5326   59.3636 C   0  0  0  0  0  0  0  0  0  0  0  0
  -48.7916   56.7507   60.2795 C   0  0  0  0  0  0  0  0  0  0  0  0
  -50.0299   57.6097   60.1091 C   0  0  0  0  0  0  0  0  0  0  0  0
  -51.0966   57.3413   61.1509 C   0  0  0  0  0  0  0  0  0  0  0  0
  -50.8031   57.9773   62.5026 C   0  0  0  0  0  0  0  0  0  0  0  0
  -51.0955   59.4665   62.5498 C   0  0  0  0  0  0  0  0  0  0  0  0
  -48.9831   60.4418   63.5102 C   0  0  0  0  0  0  0  0  0  0  0  0
  -50.4615   60.2011   63.7157 C   0  0  0  0  0  0  0  0  0  0  0  0
  -37.3075   60.5216   62.1393 C   0  0  0  0  0  0  0  0  0  0  0  0
  -36.1473   60.6403   62.9927 O   0  0  0  0  0  0  0  0  0  0  0  0
  -35.5489   62.0522   63.4515 P   0  0  0  0  0  0  0  0  0  0  0  0
  -34.1959   62.1868   62.8703 O   0  0  0  0  0  0  0  0  0  0  0  0
  -36.5577   63.0984   63.1577 O   0  0  0  0  0  0  0  0  0  0  0  0
  -36.6696   63.1792   62.1975 H   0  0  0  0  0  0  0  0  0  0  0  0
  -35.3951   61.9510   65.0355 O   0  0  0  0  0  0  0  0  0  0  0  0
  -36.4288   62.4725   65.8955 C   0  0  0  0  0  0  0  0  0  0  0  0
  -36.5215   63.8547   67.8509 O   0  0  0  0  0  0  0  0  0  0  0  0
  -35.9055   63.7185   66.5668 C   0  0  0  0  0  0  0  0  0  0  0  0
  -37.4860   63.8609   67.7477 H   0  0  0  0  0  0  0  0  0  0  0  0
  -33.9939   62.7201   67.6470 O   0  0  0  0  0  0  0  0  0  0  0  0
  -34.4023   63.7071   66.7086 C   0  0  0  0  0  0  0  0  0  0  0  0
  -33.0269   62.7280   67.7243 H   0  0  0  0  0  0  0  0  0  0  0  0
  -36.4479   58.7474   60.6669 O   0  0  0  0  0  0  0  0  0  0  0  0
  -34.6618   57.4395   60.2675 O   0  0  0  0  0  0  0  0  0  0  0  0
  -35.6238   57.7154   60.9311 C   0  0  0  0  0  0  0  0  0  0  0  0
  -36.0394   56.9663   62.1591 C   0  0  0  0  0  0  0  0  0  0  0  0
  -35.1889   57.3537   63.3646 C   0  0  0  0  0  0  0  0  0  0  0  0
  -35.9927   57.6132   64.6282 C   0  0  0  0  0  0  0  0  0  0  0  0
  -37.3498   56.9190   64.6410 C   0  0  0  0  0  0  0  0  0  0  0  0
  -38.4575   57.7414   65.2726 C   0  0  0  0  0  0  0  0  0  0  0  0
  -38.1548   59.2384   65.3841 C   0  0  0  0  0  0  0  0  0  0  0  0
  -39.3640   60.1272   65.6824 C   0  0  0  0  0  0  0  0  0  0  0  0
  -40.4616   59.9437   64.6775 C   0  0  0  0  0  0  0  0  0  0  0  0
  -41.6315   59.3714   64.8850 C   0  0  0  0  0  0  0  0  0  0  0  0
  -42.1105   58.7841   66.1750 C   0  0  0  0  0  0  0  0  0  0  0  0
  -43.6131   58.5184   66.1715 C   0  0  0  0  0  0  0  0  0  0  0  0
  -43.9712   57.0427   66.1629 C   0  0  0  0  0  0  0  0  0  0  0  0
  -45.3081   56.7433   65.5071 C   0  0  0  0  0  0  0  0  0  0  0  0
  -46.4599   56.5587   66.4811 C   0  0  0  0  0  0  0  0  0  0  0  0
  -47.8287   56.7275   65.8396 C   0  0  0  0  0  0  0  0  0  0  0  0
  -48.4619   58.0849   66.0731 C   0  0  0  0  0  0  0  0  0  0  0  0
  -47.4836   59.1010   66.5928 C   0  0  0  0  0  0  0  0  0  0  0  0
 21 22  1  0  0  0
  4  5  2  0  0  0
 25 24  1  0  0  0
 25 26  2  0  0  0
 25 27  1  0  0  0
 25 29  1  0  0  0
 22 20  1  0  0  0
  3  5  1  0  0  0
  3  2  1  0  0  0
 20 19  1  0  0  0
 24 23  1  0  0  0
 19 18  1  0  0  0
 18 17  1  0  0  0
 27 28  1  0  0  0
 17 16  1  0  0  0
 29 30  1  0  0  0
 16 15  1  0  0  0
 34 35  1  0  0  0
 34 36  1  0  0  0
 15 14  1  0  0  0
 31 32  1  0  0  0
 31 33  1  0  0  0
 14 13  1  0  0  0
 37  1  1  0  0  0
 37 39  1  0  0  0
 13 12  1  0  0  0
 38 39  2  0  0  0
 12 11  1  0  0  0
 11 10  1  0  0  0
 10  9  1  0  0  0
  9  8  1  0  0  0
  8  7  1  0  0  0
  7  6  1  0  0  0
  6  5  1  0  0  0
  2  1  1  0  0  0
  1 23  1  0  0  0
 30 32  1  0  0  0
 32 35  1  0  0  0
 39 40  1  0  0  0
 40 41  1  0  0  0
 41 42  1  0  0  0
 42 43  1  0  0  0
 43 44  1  0  0  0
 44 45  1  0  0  0
 45 46  1  0  0  0
 46 47  1  0  0  0
 47 48  2  0  0  0
 48 49  1  0  0  0
 49 50  1  0  0  0
 50 51  1  0  0  0
 51 52  1  0  0  0
 52 53  1  0  0  0
 53 54  1  0  0  0
 54 55  1  0  0  0
 55 56  1  0  0  0
M  CHG 1  26  -1
M  END
> <minimizedAffinity>
-8.03904

> <CNNscore>
0.4080516696

> <CNNaffinity>
7.4928712845

> <CNN_VS>
3.0574786663

> <CNNaffinity_variance>
0.6879980564

$$$$
/media/chris/experiments/cd1a-new-docking/inputs/ligands/7sh4_ligand.pdb


 56 55  0  0  0  0  0  0  0  0999 V2000
  -38.3205   60.0990   64.2710 C   0  0  0  0  0  0  0  0  0  0  0  0
  -38.9962   59.1343   65.2038 C   0  0  0  0  0  0  0  0  0  0  0  0
  -39.5279   59.9744   66.2501 O   0  0  0  0  0  0  0  0  0  0  0  0
  -41.3304   61.2888   66.4004 O   0  0  0  0  0  0  0  0  0  0  0  0
  -40.8411   60.2046   66.2314 C   0  0  0  0  0  0  0  0  0  0  0  0
  -41.6033   58.9681   65.8507 C   0  0  0  0  0  0  0  0  0  0  0  0
  -42.8551   58.7312   66.6786 C   0  0  0  0  0  0  0  0  0  0  0  0
  -44.1234   59.1178   65.9473 C   0  0  0  0  0  0  0  0  0  0  0  0
  -45.3778   58.4863   66.5069 C   0  0  0  0  0  0  0  0  0  0  0  0
  -46.6467   59.1635   66.0299 C   0  0  0  0  0  0  0  0  0  0  0  0
  -47.2996   58.4521   64.8700 C   0  0  0  0  0  0  0  0  0  0  0  0
  -48.5562   57.7200   65.2606 C   0  0  0  0  0  0  0  0  0  0  0  0
  -49.7504   58.6309   65.4401 C   0  0  0  0  0  0  0  0  0  0  0  0
  -50.4447   58.9505   64.1317 C   0  0  0  0  0  0  0  0  0  0  0  0
  -49.9910   58.0962   62.9666 C   0  0  0  0  0  0  0  0  0  0  0  0
  -49.4749   58.8994   61.7780 C   0  0  0  0  0  0  0  0  0  0  0  0
  -49.8948   58.3445   60.4304 C   0  0  0  0  0  0  0  0  0  0  0  0
  -50.0170   56.8346   60.4127 C   0  0  0  0  0  0  0  0  0  0  0  0
  -48.9623   56.1471   59.5567 C   0  0  0  0  0  0  0  0  0  0  0  0
  -48.1805   57.1020   58.6722 C   0  0  0  0  0  0  0  0  0  0  0  0
  -47.5253   55.1914   57.1701 C   0  0  0  0  0  0  0  0  0  0  0  0
  -47.9864   56.6293   57.2439 C   0  0  0  0  0  0  0  0  0  0  0  0
  -37.3718   61.0181   64.9968 C   0  0  0  0  0  0  0  0  0  0  0  0
  -37.3267   62.2839   64.3010 O   0  0  0  0  0  0  0  0  0  0  0  0
  -36.0167   62.8148   63.5501 P   0  0  0  0  0  0  0  0  0  0  0  0
  -35.4099   61.6763   62.8275 O   0  0  0  0  0  0  0  0  0  0  0  0
  -36.3843   64.0302   62.7842 O   0  0  0  0  0  0  0  0  0  0  0  0
  -36.9962   63.7900   62.0709 H   0  0  0  0  0  0  0  0  0  0  0  0
  -35.0130   63.2516   64.7097 O   0  0  0  0  0  0  0  0  0  0  0  0
  -35.3159   64.3965   65.5328 C   0  0  0  0  0  0  0  0  0  0  0  0
  -34.1679   64.0805   67.6125 O   0  0  0  0  0  0  0  0  0  0  0  0
  -34.0898   64.7372   66.3438 C   0  0  0  0  0  0  0  0  0  0  0  0
  -34.9931   64.3318   68.0563 H   0  0  0  0  0  0  0  0  0  0  0  0
  -32.6888   65.0566   64.4064 O   0  0  0  0  0  0  0  0  0  0  0  0
  -32.8100   64.3571   65.6383 C   0  0  0  0  0  0  0  0  0  0  0  0
  -31.8621   64.7996   63.9687 H   0  0  0  0  0  0  0  0  0  0  0  0
  -39.3560   60.8477   63.5518 O   0  0  0  0  0  0  0  0  0  0  0  0
  -40.5501   60.8941   61.6460 O   0  0  0  0  0  0  0  0  0  0  0  0
  -39.6929   60.4007   62.3267 C   0  0  0  0  0  0  0  0  0  0  0  0
  -38.8595   59.2290   61.9089 C   0  0  0  0  0  0  0  0  0  0  0  0
  -37.8503   59.6165   60.8328 C   0  0  0  0  0  0  0  0  0  0  0  0
  -38.3228   59.3372   59.4154 C   0  0  0  0  0  0  0  0  0  0  0  0
  -37.2071   58.8910   58.4774 C   0  0  0  0  0  0  0  0  0  0  0  0
  -37.5055   57.6034   57.7322 C   0  0  0  0  0  0  0  0  0  0  0  0
  -36.3105   56.6557   57.5947 C   0  0  0  0  0  0  0  0  0  0  0  0
  -36.3596   55.4119   58.4845 C   0  0  0  0  0  0  0  0  0  0  0  0
  -36.5961   55.7564   59.9245 C   0  0  0  0  0  0  0  0  0  0  0  0
  -35.6781   56.0491   60.8251 C   0  0  0  0  0  0  0  0  0  0  0  0
  -34.2006   56.1002   60.5951 C   0  0  0  0  0  0  0  0  0  0  0  0
  -33.6432   57.5167   60.7024 C   0  0  0  0  0  0  0  0  0  0  0  0
  -32.5720   57.6710   61.7677 C   0  0  0  0  0  0  0  0  0  0  0  0
  -32.6238   59.0029   62.4961 C   0  0  0  0  0  0  0  0  0  0  0  0
  -33.6953   59.0920   63.5700 C   0  0  0  0  0  0  0  0  0  0  0  0
  -34.2745   57.7410   63.9613 C   0  0  0  0  0  0  0  0  0  0  0  0
  -35.7711   57.6219   63.7525 C   0  0  0  0  0  0  0  0  0  0  0  0
  -36.4591   56.8977   64.8759 C   0  0  0  0  0  0  0  0  0  0  0  0
 21 22  1  0  0  0
  4  5  2  0  0  0
 25 24  1  0  0  0
 25 26  2  0  0  0
 25 27  1  0  0  0
 25 29  1  0  0  0
 22 20  1  0  0  0
  3  5  1  0  0  0
  3  2  1  0  0  0
 20 19  1  0  0  0
 24 23  1  0  0  0
 19 18  1  0  0  0
 18 17  1  0  0  0
 27 28  1  0  0  0
 17 16  1  0  0  0
 29 30  1  0  0  0
 16 15  1  0  0  0
 34 35  1  0  0  0
 34 36  1  0  0  0
 15 14  1  0  0  0
 31 32  1  0  0  0
 31 33  1  0  0  0
 14 13  1  0  0  0
 37  1  1  0  0  0
 37 39  1  0  0  0
 13 12  1  0  0  0
 38 39  2  0  0  0
 12 11  1  0  0  0
 11 10  1  0  0  0
 10  9  1  0  0  0
  9  8  1  0  0  0
  8  7  1  0  0  0
  7  6  1  0  0  0
  6  5  1  0  0  0
  2  1  1  0  0  0
  1 23  1  0  0  0
 30 32  1  0  0  0
 32 35  1  0  0  0
 39 40  1  0  0  0
 40 41  1  0  0  0
 41 42  1  0  0  0
 42 43  1  0  0  0
 43 44  1  0  0  0
 44 45  1  0  0  0
 45 46  1  0  0  0
 46 47  1  0  0  0
 47 48  2  0  0  0
 48 49  1  0  0  0
 49 50  1  0  0  0
 50 51  1  0  0  0
 51 52  1  0  0  0
 52 53  1  0  0  0
 53 54  1  0  0  0
 54 55  1  0  0  0
 55 56  1  0  0  0
M  CHG 1  26  -1
M  END
> <minimizedAffinity>
-8.03084

> <CNNscore>
0.3958888352

> <CNNaffinity>
7.4421515465

> <CNN_VS>
2.9462647438

> <CNNaffinity_variance>
0.3484964371

$$$$
