/media/chris/experiments/cd1a-new-docking/inputs/ligands/7sh4_ligand.pdb


 56 55  0  0  0  0  0  0  0  0999 V2000
  -40.6395   59.8663   65.7735 C   0  0  0  0  0  0  0  0  0  0  0  0
  -40.9069   60.3126   64.3639 C   0  0  0  0  0  0  0  0  0  0  0  0
  -40.4015   59.2308   63.5532 O   0  0  0  0  0  0  0  0  0  0  0  0
  -40.0330   60.4741   61.7318 O   0  0  0  0  0  0  0  0  0  0  0  0
  -39.7248   59.5647   62.4540 C   0  0  0  0  0  0  0  0  0  0  0  0
  -38.4753   58.7433   62.3156 C   0  0  0  0  0  0  0  0  0  0  0  0
  -38.3372   58.0453   60.9732 C   0  0  0  0  0  0  0  0  0  0  0  0
  -37.4603   58.8086   60.0030 C   0  0  0  0  0  0  0  0  0  0  0  0
  -37.5476   58.3214   58.5744 C   0  0  0  0  0  0  0  0  0  0  0  0
  -36.3395   57.5118   58.1488 C   0  0  0  0  0  0  0  0  0  0  0  0
  -36.4578   56.0458   58.4868 C   0  0  0  0  0  0  0  0  0  0  0  0
  -35.2166   55.4886   59.1322 C   0  0  0  0  0  0  0  0  0  0  0  0
  -35.0221   55.9520   60.5589 C   0  0  0  0  0  0  0  0  0  0  0  0
  -33.8371   56.8834   60.7154 C   0  0  0  0  0  0  0  0  0  0  0  0
  -33.7866   57.6007   62.0481 C   0  0  0  0  0  0  0  0  0  0  0  0
  -32.4281   58.2151   62.3659 C   0  0  0  0  0  0  0  0  0  0  0  0
  -32.3870   59.7248   62.2272 C   0  0  0  0  0  0  0  0  0  0  0  0
  -31.0147   60.2596   61.8724 C   0  0  0  0  0  0  0  0  0  0  0  0
  -30.7419   61.6529   62.4218 C   0  0  0  0  0  0  0  0  0  0  0  0
  -31.9944   62.3868   62.8666 C   0  0  0  0  0  0  0  0  0  0  0  0
  -31.7139   64.7197   61.9641 C   0  0  0  0  0  0  0  0  0  0  0  0
  -32.4997   63.4302   61.8884 C   0  0  0  0  0  0  0  0  0  0  0  0
  -39.1835   59.5493   66.0004 C   0  0  0  0  0  0  0  0  0  0  0  0
  -38.4338   60.7848   66.0056 O   0  0  0  0  0  0  0  0  0  0  0  0
  -37.0842   60.9839   65.1684 P   0  0  0  0  0  0  0  0  0  0  0  0
  -36.4859   59.6509   64.9404 O   0  0  0  0  0  0  0  0  0  0  0  0
  -37.3904   61.8373   63.9952 O   0  0  0  0  0  0  0  0  0  0  0  0
  -37.9842   61.3603   63.3945 H   0  0  0  0  0  0  0  0  0  0  0  0
  -36.1087   61.8024   66.1282 O   0  0  0  0  0  0  0  0  0  0  0  0
  -35.8257   63.1901   65.8558 C   0  0  0  0  0  0  0  0  0  0  0  0
  -34.2046   62.6179   67.5252 O   0  0  0  0  0  0  0  0  0  0  0  0
  -34.9179   63.7125   66.9420 C   0  0  0  0  0  0  0  0  0  0  0  0
  -34.8359   61.9568   67.8496 H   0  0  0  0  0  0  0  0  0  0  0  0
  -34.2174   65.0624   65.0697 O   0  0  0  0  0  0  0  0  0  0  0  0
  -33.9495   64.7523   66.4311 C   0  0  0  0  0  0  0  0  0  0  0  0
  -33.5864   65.7309   64.7601 H   0  0  0  0  0  0  0  0  0  0  0  0
  -41.4964   58.7122   66.0626 O   0  0  0  0  0  0  0  0  0  0  0  0
  -42.6881   59.7223   67.6813 O   0  0  0  0  0  0  0  0  0  0  0  0
  -42.6204   58.9475   66.7664 C   0  0  0  0  0  0  0  0  0  0  0  0
  -43.7773   58.1428   66.2604 C   0  0  0  0  0  0  0  0  0  0  0  0
  -45.0966   58.8872   66.4393 C   0  0  0  0  0  0  0  0  0  0  0  0
  -46.2002   58.0455   67.0586 C   0  0  0  0  0  0  0  0  0  0  0  0
  -46.9518   57.1865   66.0482 C   0  0  0  0  0  0  0  0  0  0  0  0
  -48.4040   57.5839   65.8599 C   0  0  0  0  0  0  0  0  0  0  0  0
  -48.6372   59.0894   65.7053 C   0  0  0  0  0  0  0  0  0  0  0  0
  -48.4258   59.6399   64.2933 C   0  0  0  0  0  0  0  0  0  0  0  0
  -49.6965   60.1653   63.6956 C   0  0  0  0  0  0  0  0  0  0  0  0
  -50.6193   59.4641   63.0664 C   0  0  0  0  0  0  0  0  0  0  0  0
  -50.5908   57.9890   62.8181 C   0  0  0  0  0  0  0  0  0  0  0  0
  -51.0196   57.6289   61.3987 C   0  0  0  0  0  0  0  0  0  0  0  0
  -49.9341   56.9400   60.5903 C   0  0  0  0  0  0  0  0  0  0  0  0
  -48.8182   57.8713   60.1494 C   0  0  0  0  0  0  0  0  0  0  0  0
  -47.5931   57.1662   59.5914 C   0  0  0  0  0  0  0  0  0  0  0  0
  -47.0029   57.8534   58.3694 C   0  0  0  0  0  0  0  0  0  0  0  0
  -46.8250   56.9442   57.1697 C   0  0  0  0  0  0  0  0  0  0  0  0
  -48.1333   56.4919   56.5837 C   0  0  0  0  0  0  0  0  0  0  0  0
 21 22  1  0  0  0
  4  5  2  0  0  0
 25 24  1  0  0  0
 25 26  2  0  0  0
 25 27  1  0  0  0
 25 29  1  0  0  0
 22 20  1  0  0  0
  3  5  1  0  0  0
  3  2  1  0  0  0
 20 19  1  0  0  0
 24 23  1  0  0  0
 19 18  1  0  0  0
 18 17  1  0  0  0
 27 28  1  0  0  0
 17 16  1  0  0  0
 29 30  1  0  0  0
 16 15  1  0  0  0
 34 35  1  0  0  0
 34 36  1  0  0  0
 15 14  1  0  0  0
 31 32  1  0  0  0
 31 33  1  0  0  0
 14 13  1  0  0  0
 37  1  1  0  0  0
 37 39  1  0  0  0
 13 12  1  0  0  0
 38 39  2  0  0  0
 12 11  1  0  0  0
 11 10  1  0  0  0
 10  9  1  0  0  0
  9  8  1  0  0  0
  8  7  1  0  0  0
  7  6  1  0  0  0
  6  5  1  0  0  0
  2  1  1  0  0  0
  1 23  1  0  0  0
 30 32  1  0  0  0
 32 35  1  0  0  0
 39 40  1  0  0  0
 40 41  1  0  0  0
 41 42  1  0  0  0
 42 43  1  0  0  0
 43 44  1  0  0  0
 44 45  1  0  0  0
 45 46  1  0  0  0
 46 47  1  0  0  0
 47 48  2  0  0  0
 48 49  1  0  0  0
 49 50  1  0  0  0
 50 51  1  0  0  0
 51 52  1  0  0  0
 52 53  1  0  0  0
 53 54  1  0  0  0
 54 55  1  0  0  0
 55 56  1  0  0  0
M  CHG 1  26  -1
M  END
> <minimizedAffinity>
-8.62061

> <CNNscore>
0.6852610111

> <CNNaffinity>
7.2956871986

> <CNN_VS>
4.9994502068

> <CNNaffinity_variance>
0.4378732145

$$$$
/media/chris/experiments/cd1a-new-docking/inputs/ligands/7sh4_ligand.pdb


 56 55  0  0  0  0  0  0  0  0999 V2000
  -38.0674   59.9950   61.0790 C   0  0  0  0  0  0  0  0  0  0  0  0
  -37.6427   58.5579   61.1891 C   0  0  0  0  0  0  0  0  0  0  0  0
  -36.4180   58.4964   60.4280 O   0  0  0  0  0  0  0  0  0  0  0  0
  -36.2757   57.1461   58.6516 O   0  0  0  0  0  0  0  0  0  0  0  0
  -36.1362   57.3388   59.8293 C   0  0  0  0  0  0  0  0  0  0  0  0
  -35.5122   56.3685   60.7905 C   0  0  0  0  0  0  0  0  0  0  0  0
  -34.0433   56.0876   60.5226 C   0  0  0  0  0  0  0  0  0  0  0  0
  -33.1436   56.5448   61.6514 C   0  0  0  0  0  0  0  0  0  0  0  0
  -33.5807   57.8346   62.3080 C   0  0  0  0  0  0  0  0  0  0  0  0
  -33.0867   57.9716   63.7339 C   0  0  0  0  0  0  0  0  0  0  0  0
  -34.2012   58.1680   64.7324 C   0  0  0  0  0  0  0  0  0  0  0  0
  -35.5563   58.2860   64.0861 C   0  0  0  0  0  0  0  0  0  0  0  0
  -36.5134   57.1878   64.4934 C   0  0  0  0  0  0  0  0  0  0  0  0
  -37.9325   57.6865   64.6767 C   0  0  0  0  0  0  0  0  0  0  0  0
  -38.0394   58.9641   65.4825 C   0  0  0  0  0  0  0  0  0  0  0  0
  -39.4577   59.5149   65.5789 C   0  0  0  0  0  0  0  0  0  0  0  0
  -40.5082   58.6268   64.9403 C   0  0  0  0  0  0  0  0  0  0  0  0
  -41.9099   59.1952   65.0261 C   0  0  0  0  0  0  0  0  0  0  0  0
  -42.3908   59.4204   66.4529 C   0  0  0  0  0  0  0  0  0  0  0  0
  -43.6753   58.6822   66.7849 C   0  0  0  0  0  0  0  0  0  0  0  0
  -45.3508   56.9111   66.1593 C   0  0  0  0  0  0  0  0  0  0  0  0
  -44.1269   57.6888   65.7313 C   0  0  0  0  0  0  0  0  0  0  0  0
  -37.8439   60.7515   62.3633 C   0  0  0  0  0  0  0  0  0  0  0  0
  -36.9927   61.8874   62.0920 O   0  0  0  0  0  0  0  0  0  0  0  0
  -36.0953   62.5871   63.2174 P   0  0  0  0  0  0  0  0  0  0  0  0
  -34.8953   61.7500   63.4323 O   0  0  0  0  0  0  0  0  0  0  0  0
  -35.9133   64.0105   62.8439 O   0  0  0  0  0  0  0  0  0  0  0  0
  -35.3811   64.0670   62.0348 H   0  0  0  0  0  0  0  0  0  0  0  0
  -36.9727   62.5383   64.5481 O   0  0  0  0  0  0  0  0  0  0  0  0
  -36.3655   62.1555   65.7990 C   0  0  0  0  0  0  0  0  0  0  0  0
  -36.3716   63.4508   67.8151 O   0  0  0  0  0  0  0  0  0  0  0  0
  -35.8561   63.4011   66.4814 C   0  0  0  0  0  0  0  0  0  0  0  0
  -37.3403   63.4066   67.7892 H   0  0  0  0  0  0  0  0  0  0  0  0
  -33.8086   62.4090   67.2823 O   0  0  0  0  0  0  0  0  0  0  0  0
  -34.3479   63.4689   66.5030 C   0  0  0  0  0  0  0  0  0  0  0  0
  -32.8404   62.4693   67.2841 H   0  0  0  0  0  0  0  0  0  0  0  0
  -39.4743   60.0302   60.6675 O   0  0  0  0  0  0  0  0  0  0  0  0
  -38.9168   59.3724   58.5898 O   0  0  0  0  0  0  0  0  0  0  0  0
  -39.7399   59.7545   59.3762 C   0  0  0  0  0  0  0  0  0  0  0  0
  -41.1850   59.9631   59.0442 C   0  0  0  0  0  0  0  0  0  0  0  0
  -41.5848   59.2008   57.7850 C   0  0  0  0  0  0  0  0  0  0  0  0
  -43.0246   59.4310   57.3562 C   0  0  0  0  0  0  0  0  0  0  0  0
  -43.8597   58.1564   57.3146 C   0  0  0  0  0  0  0  0  0  0  0  0
  -44.9824   58.1209   58.3347 C   0  0  0  0  0  0  0  0  0  0  0  0
  -46.3903   58.1457   57.7330 C   0  0  0  0  0  0  0  0  0  0  0  0
  -46.9179   56.7917   57.2535 C   0  0  0  0  0  0  0  0  0  0  0  0
  -47.3480   55.9173   58.3930 C   0  0  0  0  0  0  0  0  0  0  0  0
  -48.4590   56.0285   59.0949 C   0  0  0  0  0  0  0  0  0  0  0  0
  -49.5287   57.0556   58.8977 C   0  0  0  0  0  0  0  0  0  0  0  0
  -49.5549   58.0917   60.0176 C   0  0  0  0  0  0  0  0  0  0  0  0
  -50.5142   57.7479   61.1436 C   0  0  0  0  0  0  0  0  0  0  0  0
  -50.0656   58.2550   62.5033 C   0  0  0  0  0  0  0  0  0  0  0  0
  -51.1539   58.9461   63.3080 C   0  0  0  0  0  0  0  0  0  0  0  0
  -50.7194   59.3220   64.7164 C   0  0  0  0  0  0  0  0  0  0  0  0
  -50.3419   58.1402   65.5873 C   0  0  0  0  0  0  0  0  0  0  0  0
  -48.8881   58.1402   65.9692 C   0  0  0  0  0  0  0  0  0  0  0  0
 21 22  1  0  0  0
  4  5  2  0  0  0
 25 24  1  0  0  0
 25 26  2  0  0  0
 25 27  1  0  0  0
 25 29  1  0  0  0
 22 20  1  0  0  0
  3  5  1  0  0  0
  3  2  1  0  0  0
 20 19  1  0  0  0
 24 23  1  0  0  0
 19 18  1  0  0  0
 18 17  1  0  0  0
 27 28  1  0  0  0
 17 16  1  0  0  0
 29 30  1  0  0  0
 16 15  1  0  0  0
 34 35  1  0  0  0
 34 36  1  0  0  0
 15 14  1  0  0  0
 31 32  1  0  0  0
 31 33  1  0  0  0
 14 13  1  0  0  0
 37  1  1  0  0  0
 37 39  1  0  0  0
 13 12  1  0  0  0
 38 39  2  0  0  0
 12 11  1  0  0  0
 11 10  1  0  0  0
 10  9  1  0  0  0
  9  8  1  0  0  0
  8  7  1  0  0  0
  7  6  1  0  0  0
  6  5  1  0  0  0
  2  1  1  0  0  0
  1 23  1  0  0  0
 30 32  1  0  0  0
 32 35  1  0  0  0
 39 40  1  0  0  0
 40 41  1  0  0  0
 41 42  1  0  0  0
 42 43  1  0  0  0
 43 44  1  0  0  0
 44 45  1  0  0  0
 45 46  1  0  0  0
 46 47  1  0  0  0
 47 48  2  0  0  0
 48 49  1  0  0  0
 49 50  1  0  0  0
 50 51  1  0  0  0
 51 52  1  0  0  0
 52 53  1  0  0  0
 53 54  1  0  0  0
 54 55  1  0  0  0
 55 56  1  0  0  0
M  CHG 1  26  -1
M  END
> <minimizedAffinity>
-8.48893

> <CNNscore>
0.6062284708

> <CNNaffinity>
7.7858924866

> <CNN_VS>
4.7200298309

> <CNNaffinity_variance>
0.4571657777

$$$$
/media/chris/experiments/cd1a-new-docking/inputs/ligands/7sh4_ligand.pdb


 56 55  0  0  0  0  0  0  0  0999 V2000
  -38.7445   60.3734   62.4050 C   0  0  0  0  0  0  0  0  0  0  0  0
  -40.0447   60.4674   63.1523 C   0  0  0  0  0  0  0  0  0  0  0  0
  -39.6455   60.5839   64.5344 O   0  0  0  0  0  0  0  0  0  0  0  0
  -40.9006   61.0210   66.3324 O   0  0  0  0  0  0  0  0  0  0  0  0
  -40.5589   60.2745   65.4551 C   0  0  0  0  0  0  0  0  0  0  0  0
  -41.1820   58.9376   65.1736 C   0  0  0  0  0  0  0  0  0  0  0  0
  -42.6516   58.8466   65.5483 C   0  0  0  0  0  0  0  0  0  0  0  0
  -43.0090   57.5291   66.2034 C   0  0  0  0  0  0  0  0  0  0  0  0
  -44.3827   57.0107   65.8426 C   0  0  0  0  0  0  0  0  0  0  0  0
  -45.0450   57.8057   64.7356 C   0  0  0  0  0  0  0  0  0  0  0  0
  -46.5124   58.0581   64.9816 C   0  0  0  0  0  0  0  0  0  0  0  0
  -46.8138   59.4943   65.3197 C   0  0  0  0  0  0  0  0  0  0  0  0
  -48.2870   59.8308   65.2511 C   0  0  0  0  0  0  0  0  0  0  0  0
  -49.0287   59.0042   64.2202 C   0  0  0  0  0  0  0  0  0  0  0  0
  -50.5362   59.0577   64.3536 C   0  0  0  0  0  0  0  0  0  0  0  0
  -51.2702   59.1372   63.0198 C   0  0  0  0  0  0  0  0  0  0  0  0
  -50.4499   58.6625   61.8357 C   0  0  0  0  0  0  0  0  0  0  0  0
  -51.0321   57.4436   61.1500 C   0  0  0  0  0  0  0  0  0  0  0  0
  -50.0120   56.6511   60.3444 C   0  0  0  0  0  0  0  0  0  0  0  0
  -48.7408   57.4251   60.0442 C   0  0  0  0  0  0  0  0  0  0  0  0
  -47.8603   55.4959   58.6883 C   0  0  0  0  0  0  0  0  0  0  0  0
  -48.0203   56.9965   58.7800 C   0  0  0  0  0  0  0  0  0  0  0  0
  -37.5961   60.9507   63.1922 C   0  0  0  0  0  0  0  0  0  0  0  0
  -36.8048   61.7849   62.3168 O   0  0  0  0  0  0  0  0  0  0  0  0
  -35.7732   62.8806   62.8617 P   0  0  0  0  0  0  0  0  0  0  0  0
  -34.4122   62.3075   62.7829 O   0  0  0  0  0  0  0  0  0  0  0  0
  -36.0486   64.1604   62.1654 O   0  0  0  0  0  0  0  0  0  0  0  0
  -35.8349   64.0686   61.2236 H   0  0  0  0  0  0  0  0  0  0  0  0
  -36.1364   63.0733   64.4024 O   0  0  0  0  0  0  0  0  0  0  0  0
  -35.0986   63.3818   65.3552 C   0  0  0  0  0  0  0  0  0  0  0  0
  -34.1201   62.6428   67.4141 O   0  0  0  0  0  0  0  0  0  0  0  0
  -35.1470   62.3554   66.4602 C   0  0  0  0  0  0  0  0  0  0  0  0
  -33.2606   62.6709   66.9653 H   0  0  0  0  0  0  0  0  0  0  0  0
  -37.3829   61.4506   66.4389 O   0  0  0  0  0  0  0  0  0  0  0  0
  -36.4932   62.3080   67.1423 C   0  0  0  0  0  0  0  0  0  0  0  0
  -38.2406   61.4332   66.8915 H   0  0  0  0  0  0  0  0  0  0  0  0
  -38.9060   61.0447   61.1115 O   0  0  0  0  0  0  0  0  0  0  0  0
  -40.0923   60.1421   59.4267 O   0  0  0  0  0  0  0  0  0  0  0  0
  -39.0604   60.2570   60.0300 C   0  0  0  0  0  0  0  0  0  0  0  0
  -37.7892   59.5578   59.6597 C   0  0  0  0  0  0  0  0  0  0  0  0
  -38.0228   58.5107   58.5754 C   0  0  0  0  0  0  0  0  0  0  0  0
  -36.7957   58.2164   57.7282 C   0  0  0  0  0  0  0  0  0  0  0  0
  -36.1237   56.8910   58.0679 C   0  0  0  0  0  0  0  0  0  0  0  0
  -34.6118   56.9156   57.9414 C   0  0  0  0  0  0  0  0  0  0  0  0
  -33.8691   56.1333   59.0283 C   0  0  0  0  0  0  0  0  0  0  0  0
  -34.3470   56.3916   60.4588 C   0  0  0  0  0  0  0  0  0  0  0  0
  -33.3216   55.9930   61.4775 C   0  0  0  0  0  0  0  0  0  0  0  0
  -32.4965   56.7965   62.1202 C   0  0  0  0  0  0  0  0  0  0  0  0
  -32.4128   58.2823   61.9666 C   0  0  0  0  0  0  0  0  0  0  0  0
  -33.4354   59.0156   62.8298 C   0  0  0  0  0  0  0  0  0  0  0  0
  -33.8442   58.2482   64.0749 C   0  0  0  0  0  0  0  0  0  0  0  0
  -35.2992   58.4459   64.4629 C   0  0  0  0  0  0  0  0  0  0  0  0
  -36.1995   57.2607   64.1558 C   0  0  0  0  0  0  0  0  0  0  0  0
  -37.6708   57.5301   64.4322 C   0  0  0  0  0  0  0  0  0  0  0  0
  -38.6068   57.0510   63.3404 C   0  0  0  0  0  0  0  0  0  0  0  0
  -37.9293   56.9338   62.0038 C   0  0  0  0  0  0  0  0  0  0  0  0
 21 22  1  0  0  0
  4  5  2  0  0  0
 25 24  1  0  0  0
 25 26  2  0  0  0
 25 27  1  0  0  0
 25 29  1  0  0  0
 22 20  1  0  0  0
  3  5  1  0  0  0
  3  2  1  0  0  0
 20 19  1  0  0  0
 24 23  1  0  0  0
 19 18  1  0  0  0
 18 17  1  0  0  0
 27 28  1  0  0  0
 17 16  1  0  0  0
 29 30  1  0  0  0
 16 15  1  0  0  0
 34 35  1  0  0  0
 34 36  1  0  0  0
 15 14  1  0  0  0
 31 32  1  0  0  0
 31 33  1  0  0  0
 14 13  1  0  0  0
 37  1  1  0  0  0
 37 39  1  0  0  0
 13 12  1  0  0  0
 38 39  2  0  0  0
 12 11  1  0  0  0
 11 10  1  0  0  0
 10  9  1  0  0  0
  9  8  1  0  0  0
  8  7  1  0  0  0
  7  6  1  0  0  0
  6  5  1  0  0  0
  2  1  1  0  0  0
  1 23  1  0  0  0
 30 32  1  0  0  0
 32 35  1  0  0  0
 39 40  1  0  0  0
 40 41  1  0  0  0
 41 42  1  0  0  0
 42 43  1  0  0  0
 43 44  1  0  0  0
 44 45  1  0  0  0
 45 46  1  0  0  0
 46 47  1  0  0  0
 47 48  2  0  0  0
 48 49  1  0  0  0
 49 50  1  0  0  0
 50 51  1  0  0  0
 51 52  1  0  0  0
 52 53  1  0  0  0
 53 54  1  0  0  0
 54 55  1  0  0  0
 55 56  1  0  0  0
M  CHG 1  26  -1
M  END
> <minimizedAffinity>
-8.84987

> <CNNscore>
0.5705133677

> <CNNaffinity>
7.6898393631

> <CNN_VS>
4.3871560097

> <CNNaffinity_variance>
0.6403071284

$$$$
/media/chris/experiments/cd1a-new-docking/inputs/ligands/7sh4_ligand.pdb


 56 55  0  0  0  0  0  0  0  0999 V2000
  -39.2276   58.8150   64.3894 C   0  0  0  0  0  0  0  0  0  0  0  0
  -40.4290   58.2617   65.1024 C   0  0  0  0  0  0  0  0  0  0  0  0
  -40.8625   59.3466   65.9499 O   0  0  0  0  0  0  0  0  0  0  0  0
  -42.3460   59.8692   67.5389 O   0  0  0  0  0  0  0  0  0  0  0  0
  -41.9954   59.1667   66.6295 C   0  0  0  0  0  0  0  0  0  0  0  0
  -42.8185   58.0630   66.0299 C   0  0  0  0  0  0  0  0  0  0  0  0
  -44.3152   58.3233   66.0515 C   0  0  0  0  0  0  0  0  0  0  0  0
  -45.0863   57.3856   65.1465 C   0  0  0  0  0  0  0  0  0  0  0  0
  -46.5338   57.7720   64.9435 C   0  0  0  0  0  0  0  0  0  0  0  0
  -47.0825   58.6286   66.0666 C   0  0  0  0  0  0  0  0  0  0  0  0
  -48.3898   59.2976   65.7191 C   0  0  0  0  0  0  0  0  0  0  0  0
  -48.2216   60.4723   64.7921 C   0  0  0  0  0  0  0  0  0  0  0  0
  -49.1512   60.4339   63.5994 C   0  0  0  0  0  0  0  0  0  0  0  0
  -50.5604   60.0172   63.9690 C   0  0  0  0  0  0  0  0  0  0  0  0
  -51.0963   58.8591   63.1537 C   0  0  0  0  0  0  0  0  0  0  0  0
  -50.2975   58.5762   61.8864 C   0  0  0  0  0  0  0  0  0  0  0  0
  -50.8803   57.4731   61.0240 C   0  0  0  0  0  0  0  0  0  0  0  0
  -50.0911   57.2198   59.7560 C   0  0  0  0  0  0  0  0  0  0  0  0
  -48.6014   57.4992   59.8982 C   0  0  0  0  0  0  0  0  0  0  0  0
  -47.7738   56.9925   58.7306 C   0  0  0  0  0  0  0  0  0  0  0  0
  -47.4846   55.1486   57.0417 C   0  0  0  0  0  0  0  0  0  0  0  0
  -47.9228   55.5106   58.4427 C   0  0  0  0  0  0  0  0  0  0  0  0
  -39.2844   60.3161   64.2655 C   0  0  0  0  0  0  0  0  0  0  0  0
  -38.5014   60.7181   63.1193 O   0  0  0  0  0  0  0  0  0  0  0  0
  -37.0223   61.3163   63.2461 P   0  0  0  0  0  0  0  0  0  0  0  0
  -36.1283   60.2331   63.7092 O   0  0  0  0  0  0  0  0  0  0  0  0
  -36.6971   62.0158   61.9798 O   0  0  0  0  0  0  0  0  0  0  0  0
  -36.6398   61.3693   61.2588 H   0  0  0  0  0  0  0  0  0  0  0  0
  -37.1071   62.4110   64.4025 O   0  0  0  0  0  0  0  0  0  0  0  0
  -35.9111   63.0807   64.8512 C   0  0  0  0  0  0  0  0  0  0  0  0
  -36.6854   61.9545   66.8195 O   0  0  0  0  0  0  0  0  0  0  0  0
  -35.8846   63.0472   66.3595 C   0  0  0  0  0  0  0  0  0  0  0  0
  -37.5831   62.0384   66.4618 H   0  0  0  0  0  0  0  0  0  0  0  0
  -33.8190   64.1889   66.8575 O   0  0  0  0  0  0  0  0  0  0  0  0
  -34.4823   62.9324   66.9073 C   0  0  0  0  0  0  0  0  0  0  0  0
  -32.9214   64.0951   67.2131 H   0  0  0  0  0  0  0  0  0  0  0  0
  -39.1300   58.1666   63.0780 O   0  0  0  0  0  0  0  0  0  0  0  0
  -37.2655   57.0718   63.6986 O   0  0  0  0  0  0  0  0  0  0  0  0
  -38.0289   57.4275   62.8427 C   0  0  0  0  0  0  0  0  0  0  0  0
  -37.8813   57.0878   61.3919 C   0  0  0  0  0  0  0  0  0  0  0  0
  -37.9109   58.3386   60.5193 C   0  0  0  0  0  0  0  0  0  0  0  0
  -37.2227   58.1685   59.1749 C   0  0  0  0  0  0  0  0  0  0  0  0
  -36.9926   56.7123   58.7874 C   0  0  0  0  0  0  0  0  0  0  0  0
  -35.5508   56.3853   58.4460 C   0  0  0  0  0  0  0  0  0  0  0  0
  -34.7762   55.6804   59.5632 C   0  0  0  0  0  0  0  0  0  0  0  0
  -33.7476   56.5486   60.2910 C   0  0  0  0  0  0  0  0  0  0  0  0
  -34.3424   57.2627   61.4675 C   0  0  0  0  0  0  0  0  0  0  0  0
  -33.6889   57.9494   62.3844 C   0  0  0  0  0  0  0  0  0  0  0  0
  -32.2091   58.1617   62.4405 C   0  0  0  0  0  0  0  0  0  0  0  0
  -31.7806   59.4596   61.7621 C   0  0  0  0  0  0  0  0  0  0  0  0
  -31.8124   60.6674   62.6821 C   0  0  0  0  0  0  0  0  0  0  0  0
  -33.0809   61.4938   62.5601 C   0  0  0  0  0  0  0  0  0  0  0  0
  -32.8462   62.9780   62.3329 C   0  0  0  0  0  0  0  0  0  0  0  0
  -31.4023   63.3183   61.9964 C   0  0  0  0  0  0  0  0  0  0  0  0
  -30.7405   64.2631   62.9796 C   0  0  0  0  0  0  0  0  0  0  0  0
  -30.7654   63.7453   64.3905 C   0  0  0  0  0  0  0  0  0  0  0  0
 21 22  1  0  0  0
  4  5  2  0  0  0
 25 24  1  0  0  0
 25 26  2  0  0  0
 25 27  1  0  0  0
 25 29  1  0  0  0
 22 20  1  0  0  0
  3  5  1  0  0  0
  3  2  1  0  0  0
 20 19  1  0  0  0
 24 23  1  0  0  0
 19 18  1  0  0  0
 18 17  1  0  0  0
 27 28  1  0  0  0
 17 16  1  0  0  0
 29 30  1  0  0  0
 16 15  1  0  0  0
 34 35  1  0  0  0
 34 36  1  0  0  0
 15 14  1  0  0  0
 31 32  1  0  0  0
 31 33  1  0  0  0
 14 13  1  0  0  0
 37  1  1  0  0  0
 37 39  1  0  0  0
 13 12  1  0  0  0
 38 39  2  0  0  0
 12 11  1  0  0  0
 11 10  1  0  0  0
 10  9  1  0  0  0
  9  8  1  0  0  0
  8  7  1  0  0  0
  7  6  1  0  0  0
  6  5  1  0  0  0
  2  1  1  0  0  0
  1 23  1  0  0  0
 30 32  1  0  0  0
 32 35  1  0  0  0
 39 40  1  0  0  0
 40 41  1  0  0  0
 41 42  1  0  0  0
 42 43  1  0  0  0
 43 44  1  0  0  0
 44 45  1  0  0  0
 45 46  1  0  0  0
 46 47  1  0  0  0
 47 48  2  0  0  0
 48 49  1  0  0  0
 49 50  1  0  0  0
 50 51  1  0  0  0
 51 52  1  0  0  0
 52 53  1  0  0  0
 53 54  1  0  0  0
 54 55  1  0  0  0
 55 56  1  0  0  0
M  CHG 1  26  -1
M  END
> <minimizedAffinity>
-8.28747

> <CNNscore>
0.5274057984

> <CNNaffinity>
7.1617155075

> <CNN_VS>
3.7771303654

> <CNNaffinity_variance>
0.4186276495

$$$$
/media/chris/experiments/cd1a-new-docking/inputs/ligands/7sh4_ligand.pdb


 56 55  0  0  0  0  0  0  0  0999 V2000
  -36.4618   61.2333   65.8516 C   0  0  0  0  0  0  0  0  0  0  0  0
  -37.6469   60.7961   65.0380 C   0  0  0  0  0  0  0  0  0  0  0  0
  -38.7452   60.8314   65.9738 O   0  0  0  0  0  0  0  0  0  0  0  0
  -40.6178   61.0765   64.7770 O   0  0  0  0  0  0  0  0  0  0  0  0
  -39.9347   60.4301   65.5247 C   0  0  0  0  0  0  0  0  0  0  0  0
  -40.2397   59.0297   65.9728 C   0  0  0  0  0  0  0  0  0  0  0  0
  -41.6408   58.5575   65.6232 C   0  0  0  0  0  0  0  0  0  0  0  0
  -42.6359   58.7983   66.7389 C   0  0  0  0  0  0  0  0  0  0  0  0
  -44.0739   58.8795   66.2791 C   0  0  0  0  0  0  0  0  0  0  0  0
  -44.5702   57.5921   65.6528 C   0  0  0  0  0  0  0  0  0  0  0  0
  -45.5117   57.8191   64.4953 C   0  0  0  0  0  0  0  0  0  0  0  0
  -46.7287   58.6207   64.8752 C   0  0  0  0  0  0  0  0  0  0  0  0
  -48.0197   58.0423   64.3397 C   0  0  0  0  0  0  0  0  0  0  0  0
  -49.1353   59.0656   64.2708 C   0  0  0  0  0  0  0  0  0  0  0  0
  -50.5015   58.4728   63.9965 C   0  0  0  0  0  0  0  0  0  0  0  0
  -51.0864   58.8718   62.6464 C   0  0  0  0  0  0  0  0  0  0  0  0
  -50.7767   57.8955   61.5279 C   0  0  0  0  0  0  0  0  0  0  0  0
  -49.6182   58.3294   60.6536 C   0  0  0  0  0  0  0  0  0  0  0  0
  -48.8423   57.1681   60.0479 C   0  0  0  0  0  0  0  0  0  0  0  0
  -47.6491   57.6027   59.2157 C   0  0  0  0  0  0  0  0  0  0  0  0
  -48.0099   56.5181   56.9732 C   0  0  0  0  0  0  0  0  0  0  0  0
  -47.1580   56.5679   58.2213 C   0  0  0  0  0  0  0  0  0  0  0  0
  -36.3614   62.7343   65.9442 C   0  0  0  0  0  0  0  0  0  0  0  0
  -35.0802   63.0803   66.5165 O   0  0  0  0  0  0  0  0  0  0  0  0
  -34.1163   64.1878   65.8791 P   0  0  0  0  0  0  0  0  0  0  0  0
  -34.8674   64.8928   64.8181 O   0  0  0  0  0  0  0  0  0  0  0  0
  -33.5311   64.9825   66.9857 O   0  0  0  0  0  0  0  0  0  0  0  0
  -34.2316   65.4897   67.4251 H   0  0  0  0  0  0  0  0  0  0  0  0
  -32.9356   63.3711   65.1850 O   0  0  0  0  0  0  0  0  0  0  0  0
  -31.8612   64.0740   64.5279 C   0  0  0  0  0  0  0  0  0  0  0  0
  -32.0172   62.0567   63.2438 O   0  0  0  0  0  0  0  0  0  0  0  0
  -31.6244   63.4312   63.1835 C   0  0  0  0  0  0  0  0  0  0  0  0
  -31.5368   61.6144   63.9611 H   0  0  0  0  0  0  0  0  0  0  0  0
  -33.7691   64.0080   62.2423 O   0  0  0  0  0  0  0  0  0  0  0  0
  -32.3635   64.1358   62.0712 C   0  0  0  0  0  0  0  0  0  0  0  0
  -34.2258   64.4662   61.5196 H   0  0  0  0  0  0  0  0  0  0  0  0
  -35.2550   60.6451   65.2621 O   0  0  0  0  0  0  0  0  0  0  0  0
  -35.0060   61.7292   63.3068 O   0  0  0  0  0  0  0  0  0  0  0  0
  -35.1381   60.7063   63.9217 C   0  0  0  0  0  0  0  0  0  0  0  0
  -35.1738   59.3477   63.2933 C   0  0  0  0  0  0  0  0  0  0  0  0
  -35.3250   58.2506   64.3423 C   0  0  0  0  0  0  0  0  0  0  0  0
  -36.4647   57.2844   64.0638 C   0  0  0  0  0  0  0  0  0  0  0  0
  -36.7139   57.0472   62.5788 C   0  0  0  0  0  0  0  0  0  0  0  0
  -38.1818   57.0293   62.1948 C   0  0  0  0  0  0  0  0  0  0  0  0
  -39.0224   58.1341   62.8410 C   0  0  0  0  0  0  0  0  0  0  0  0
  -39.4379   59.2697   61.9032 C   0  0  0  0  0  0  0  0  0  0  0  0
  -38.2547   59.9676   61.3024 C   0  0  0  0  0  0  0  0  0  0  0  0
  -37.7980   59.8263   60.0733 C   0  0  0  0  0  0  0  0  0  0  0  0
  -38.3701   58.9361   59.0158 C   0  0  0  0  0  0  0  0  0  0  0  0
  -37.2950   58.3400   58.1118 C   0  0  0  0  0  0  0  0  0  0  0  0
  -36.4360   57.2913   58.7963 C   0  0  0  0  0  0  0  0  0  0  0  0
  -35.2132   56.8848   57.9923 C   0  0  0  0  0  0  0  0  0  0  0  0
  -33.9939   56.5398   58.8313 C   0  0  0  0  0  0  0  0  0  0  0  0
  -34.3384   55.8768   60.1562 C   0  0  0  0  0  0  0  0  0  0  0  0
  -33.3829   56.2089   61.2850 C   0  0  0  0  0  0  0  0  0  0  0  0
  -32.9961   57.6612   61.3110 C   0  0  0  0  0  0  0  0  0  0  0  0
 21 22  1  0  0  0
  4  5  2  0  0  0
 25 24  1  0  0  0
 25 26  2  0  0  0
 25 27  1  0  0  0
 25 29  1  0  0  0
 22 20  1  0  0  0
  3  5  1  0  0  0
  3  2  1  0  0  0
 20 19  1  0  0  0
 24 23  1  0  0  0
 19 18  1  0  0  0
 18 17  1  0  0  0
 27 28  1  0  0  0
 17 16  1  0  0  0
 29 30  1  0  0  0
 16 15  1  0  0  0
 34 35  1  0  0  0
 34 36  1  0  0  0
 15 14  1  0  0  0
 31 32  1  0  0  0
 31 33  1  0  0  0
 14 13  1  0  0  0
 37  1  1  0  0  0
 37 39  1  0  0  0
 13 12  1  0  0  0
 38 39  2  0  0  0
 12 11  1  0  0  0
 11 10  1  0  0  0
 10  9  1  0  0  0
  9  8  1  0  0  0
  8  7  1  0  0  0
  7  6  1  0  0  0
  6  5  1  0  0  0
  2  1  1  0  0  0
  1 23  1  0  0  0
 30 32  1  0  0  0
 32 35  1  0  0  0
 39 40  1  0  0  0
 40 41  1  0  0  0
 41 42  1  0  0  0
 42 43  1  0  0  0
 43 44  1  0  0  0
 44 45  1  0  0  0
 45 46  1  0  0  0
 46 47  1  0  0  0
 47 48  2  0  0  0
 48 49  1  0  0  0
 49 50  1  0  0  0
 50 51  1  0  0  0
 51 52  1  0  0  0
 52 53  1  0  0  0
 53 54  1  0  0  0
 54 55  1  0  0  0
 55 56  1  0  0  0
M  CHG 1  26  -1
M  END
> <minimizedAffinity>
-8.51659

> <CNNscore>
0.5032925010

> <CNNaffinity>
7.4270262718

> <CNN_VS>
3.7379665375

> <CNNaffinity_variance>
0.5402961969

$$$$
/media/chris/experiments/cd1a-new-docking/inputs/ligands/7sh4_ligand.pdb


 56 55  0  0  0  0  0  0  0  0999 V2000
  -37.2338   60.6614   65.2541 C   0  0  0  0  0  0  0  0  0  0  0  0
  -38.3339   59.7025   65.6118 C   0  0  0  0  0  0  0  0  0  0  0  0
  -39.4542   60.5571   65.9242 O   0  0  0  0  0  0  0  0  0  0  0  0
  -41.1683   61.0814   64.5877 O   0  0  0  0  0  0  0  0  0  0  0  0
  -40.6045   60.2969   65.3020 C   0  0  0  0  0  0  0  0  0  0  0  0
  -41.0244   58.8705   65.5119 C   0  0  0  0  0  0  0  0  0  0  0  0
  -42.4021   58.7143   66.1331 C   0  0  0  0  0  0  0  0  0  0  0  0
  -42.8101   57.2654   66.2973 C   0  0  0  0  0  0  0  0  0  0  0  0
  -44.1779   56.9404   65.7411 C   0  0  0  0  0  0  0  0  0  0  0  0
  -44.7942   58.0911   64.9716 C   0  0  0  0  0  0  0  0  0  0  0  0
  -46.1869   58.4389   65.4375 C   0  0  0  0  0  0  0  0  0  0  0  0
  -47.0342   57.2256   65.7164 C   0  0  0  0  0  0  0  0  0  0  0  0
  -48.5186   57.5167   65.7147 C   0  0  0  0  0  0  0  0  0  0  0  0
  -48.9904   58.1445   64.4187 C   0  0  0  0  0  0  0  0  0  0  0  0
  -50.4629   58.4975   64.4032 C   0  0  0  0  0  0  0  0  0  0  0  0
  -50.9629   58.9950   63.0517 C   0  0  0  0  0  0  0  0  0  0  0  0
  -51.0543   57.9136   61.9923 C   0  0  0  0  0  0  0  0  0  0  0  0
  -50.0892   58.1147   60.8420 C   0  0  0  0  0  0  0  0  0  0  0  0
  -49.7679   56.8341   60.0841 C   0  0  0  0  0  0  0  0  0  0  0  0
  -48.9252   57.0588   58.8413 C   0  0  0  0  0  0  0  0  0  0  0  0
  -46.7116   57.7193   57.8417 C   0  0  0  0  0  0  0  0  0  0  0  0
  -47.5197   57.5621   59.1098 C   0  0  0  0  0  0  0  0  0  0  0  0
  -36.7238   61.4124   66.4573 C   0  0  0  0  0  0  0  0  0  0  0  0
  -35.7408   62.3776   66.0208 O   0  0  0  0  0  0  0  0  0  0  0  0
  -35.7848   63.9174   66.4554 P   0  0  0  0  0  0  0  0  0  0  0  0
  -36.5176   64.6669   65.4123 O   0  0  0  0  0  0  0  0  0  0  0  0
  -36.2678   63.9883   67.8555 O   0  0  0  0  0  0  0  0  0  0  0  0
  -37.1918   63.6955   67.8940 H   0  0  0  0  0  0  0  0  0  0  0  0
  -34.2668   64.4054   66.4357 O   0  0  0  0  0  0  0  0  0  0  0  0
  -33.7941   65.2494   65.3660 C   0  0  0  0  0  0  0  0  0  0  0  0
  -31.5077   65.0841   66.0642 O   0  0  0  0  0  0  0  0  0  0  0  0
  -32.4043   64.8016   64.9855 C   0  0  0  0  0  0  0  0  0  0  0  0
  -31.5513   66.0284   66.2820 H   0  0  0  0  0  0  0  0  0  0  0  0
  -33.5280   62.9390   63.9434 O   0  0  0  0  0  0  0  0  0  0  0  0
  -32.3493   63.3345   64.6331 C   0  0  0  0  0  0  0  0  0  0  0  0
  -33.4741   61.9952   63.7259 H   0  0  0  0  0  0  0  0  0  0  0  0
  -37.7337   61.5719   64.2192 O   0  0  0  0  0  0  0  0  0  0  0  0
  -36.3157   62.5042   62.7426 O   0  0  0  0  0  0  0  0  0  0  0  0
  -37.0520   61.6098   63.0582 C   0  0  0  0  0  0  0  0  0  0  0  0
  -37.3075   60.3968   62.2183 C   0  0  0  0  0  0  0  0  0  0  0  0
  -38.7950   60.2195   61.9306 C   0  0  0  0  0  0  0  0  0  0  0  0
  -39.1779   58.8097   61.5112 C   0  0  0  0  0  0  0  0  0  0  0  0
  -38.1903   57.7457   61.9761 C   0  0  0  0  0  0  0  0  0  0  0  0
  -37.5712   56.9432   60.8469 C   0  0  0  0  0  0  0  0  0  0  0  0
  -37.2445   57.7574   59.5918 C   0  0  0  0  0  0  0  0  0  0  0  0
  -36.7597   56.9398   58.3926 C   0  0  0  0  0  0  0  0  0  0  0  0
  -35.3275   57.2272   58.0548 C   0  0  0  0  0  0  0  0  0  0  0  0
  -34.2646   56.6341   58.5625 C   0  0  0  0  0  0  0  0  0  0  0  0
  -34.2670   55.5431   59.5861 C   0  0  0  0  0  0  0  0  0  0  0  0
  -33.8196   56.0327   60.9603 C   0  0  0  0  0  0  0  0  0  0  0  0
  -33.5594   57.5277   61.0196 C   0  0  0  0  0  0  0  0  0  0  0  0
  -32.5830   57.9341   62.1099 C   0  0  0  0  0  0  0  0  0  0  0  0
  -32.8836   59.2763   62.7561 C   0  0  0  0  0  0  0  0  0  0  0  0
  -34.1851   59.2915   63.5433 C   0  0  0  0  0  0  0  0  0  0  0  0
  -34.3366   58.1399   64.5172 C   0  0  0  0  0  0  0  0  0  0  0  0
  -35.6267   57.3903   64.3352 C   0  0  0  0  0  0  0  0  0  0  0  0
 21 22  1  0  0  0
  4  5  2  0  0  0
 25 24  1  0  0  0
 25 26  2  0  0  0
 25 27  1  0  0  0
 25 29  1  0  0  0
 22 20  1  0  0  0
  3  5  1  0  0  0
  3  2  1  0  0  0
 20 19  1  0  0  0
 24 23  1  0  0  0
 19 18  1  0  0  0
 18 17  1  0  0  0
 27 28  1  0  0  0
 17 16  1  0  0  0
 29 30  1  0  0  0
 16 15  1  0  0  0
 34 35  1  0  0  0
 34 36  1  0  0  0
 15 14  1  0  0  0
 31 32  1  0  0  0
 31 33  1  0  0  0
 14 13  1  0  0  0
 37  1  1  0  0  0
 37 39  1  0  0  0
 13 12  1  0  0  0
 38 39  2  0  0  0
 12 11  1  0  0  0
 11 10  1  0  0  0
 10  9  1  0  0  0
  9  8  1  0  0  0
  8  7  1  0  0  0
  7  6  1  0  0  0
  6  5  1  0  0  0
  2  1  1  0  0  0
  1 23  1  0  0  0
 30 32  1  0  0  0
 32 35  1  0  0  0
 39 40  1  0  0  0
 40 41  1  0  0  0
 41 42  1  0  0  0
 42 43  1  0  0  0
 43 44  1  0  0  0
 44 45  1  0  0  0
 45 46  1  0  0  0
 46 47  1  0  0  0
 47 48  2  0  0  0
 48 49  1  0  0  0
 49 50  1  0  0  0
 50 51  1  0  0  0
 51 52  1  0  0  0
 52 53  1  0  0  0
 53 54  1  0  0  0
 54 55  1  0  0  0
 55 56  1  0  0  0
M  CHG 1  26  -1
M  END
> <minimizedAffinity>
-9.11694

> <CNNscore>
0.4997696280

> <CNNaffinity>
7.4169435501

> <CNN_VS>
3.7067630291

> <CNNaffinity_variance>
0.8692430258

$$$$
/media/chris/experiments/cd1a-new-docking/inputs/ligands/7sh4_ligand.pdb


 56 55  0  0  0  0  0  0  0  0999 V2000
  -38.5297   60.3428   62.6482 C   0  0  0  0  0  0  0  0  0  0  0  0
  -39.8953   60.1872   63.2554 C   0  0  0  0  0  0  0  0  0  0  0  0
  -39.6406   60.1166   64.6743 O   0  0  0  0  0  0  0  0  0  0  0  0
  -41.1071   60.8779   66.1805 O   0  0  0  0  0  0  0  0  0  0  0  0
  -40.7011   59.9956   65.4732 C   0  0  0  0  0  0  0  0  0  0  0  0
  -41.3812   58.6715   65.2755 C   0  0  0  0  0  0  0  0  0  0  0  0
  -42.3473   58.2980   66.3870 C   0  0  0  0  0  0  0  0  0  0  0  0
  -43.2758   57.1660   66.0009 C   0  0  0  0  0  0  0  0  0  0  0  0
  -44.5669   57.6166   65.3560 C   0  0  0  0  0  0  0  0  0  0  0  0
  -45.0765   58.9335   65.9055 C   0  0  0  0  0  0  0  0  0  0  0  0
  -46.4898   59.2479   65.4794 C   0  0  0  0  0  0  0  0  0  0  0  0
  -47.5021   58.2861   66.0431 C   0  0  0  0  0  0  0  0  0  0  0  0
  -48.6886   58.0611   65.1323 C   0  0  0  0  0  0  0  0  0  0  0  0
  -48.4659   58.6054   63.7357 C   0  0  0  0  0  0  0  0  0  0  0  0
  -49.3860   59.7493   63.3643 C   0  0  0  0  0  0  0  0  0  0  0  0
  -50.2374   59.4788   62.1289 C   0  0  0  0  0  0  0  0  0  0  0  0
  -51.0057   58.1724   62.1840 C   0  0  0  0  0  0  0  0  0  0  0  0
  -50.8877   57.3507   60.9167 C   0  0  0  0  0  0  0  0  0  0  0  0
  -49.9187   57.9353   59.8984 C   0  0  0  0  0  0  0  0  0  0  0  0
  -49.3425   56.9031   58.9457 C   0  0  0  0  0  0  0  0  0  0  0  0
  -47.4188   55.4078   58.3138 C   0  0  0  0  0  0  0  0  0  0  0  0
  -47.9118   56.4951   59.2415 C   0  0  0  0  0  0  0  0  0  0  0  0
  -37.5789   61.0627   63.5698 C   0  0  0  0  0  0  0  0  0  0  0  0
  -36.5171   61.6444   62.7807 O   0  0  0  0  0  0  0  0  0  0  0  0
  -35.5542   62.7956   63.3368 P   0  0  0  0  0  0  0  0  0  0  0  0
  -36.0745   64.0963   62.8632 O   0  0  0  0  0  0  0  0  0  0  0  0
  -35.3787   62.5866   64.7942 O   0  0  0  0  0  0  0  0  0  0  0  0
  -36.2243   62.7339   65.2461 H   0  0  0  0  0  0  0  0  0  0  0  0
  -34.1455   62.5446   62.6329 O   0  0  0  0  0  0  0  0  0  0  0  0
  -33.5533   63.5751   61.8159 C   0  0  0  0  0  0  0  0  0  0  0  0
  -31.3896   64.4563   61.2829 O   0  0  0  0  0  0  0  0  0  0  0  0
  -32.1560   63.8383   62.3210 C   0  0  0  0  0  0  0  0  0  0  0  0
  -31.4032   63.8940   60.4925 H   0  0  0  0  0  0  0  0  0  0  0  0
  -33.3701   65.4123   63.6873 O   0  0  0  0  0  0  0  0  0  0  0  0
  -32.1457   64.7010   63.5601 C   0  0  0  0  0  0  0  0  0  0  0  0
  -33.3445   65.9598   64.4876 H   0  0  0  0  0  0  0  0  0  0  0  0
  -38.6716   61.0386   61.3653 O   0  0  0  0  0  0  0  0  0  0  0  0
  -39.8204   60.3531   59.5568 O   0  0  0  0  0  0  0  0  0  0  0  0
  -38.8600   60.2732   60.2732 C   0  0  0  0  0  0  0  0  0  0  0  0
  -37.7223   59.3259   60.0495 C   0  0  0  0  0  0  0  0  0  0  0  0
  -37.8663   58.5823   58.7255 C   0  0  0  0  0  0  0  0  0  0  0  0
  -36.5588   58.4101   57.9700 C   0  0  0  0  0  0  0  0  0  0  0  0
  -35.9990   56.9938   58.0349 C   0  0  0  0  0  0  0  0  0  0  0  0
  -34.4845   56.9256   57.9715 C   0  0  0  0  0  0  0  0  0  0  0  0
  -33.8491   55.9464   58.9628 C   0  0  0  0  0  0  0  0  0  0  0  0
  -34.4112   56.0023   60.3849 C   0  0  0  0  0  0  0  0  0  0  0  0
  -33.3324   55.9148   61.4225 C   0  0  0  0  0  0  0  0  0  0  0  0
  -32.7146   56.9250   62.0030 C   0  0  0  0  0  0  0  0  0  0  0  0
  -32.9644   58.3776   61.7466 C   0  0  0  0  0  0  0  0  0  0  0  0
  -34.2818   58.8572   62.3491 C   0  0  0  0  0  0  0  0  0  0  0  0
  -34.2061   59.1296   63.8412 C   0  0  0  0  0  0  0  0  0  0  0  0
  -35.1085   58.2332   64.6714 C   0  0  0  0  0  0  0  0  0  0  0  0
  -36.0178   57.3277   63.8573 C   0  0  0  0  0  0  0  0  0  0  0  0
  -37.4703   57.3650   64.3076 C   0  0  0  0  0  0  0  0  0  0  0  0
  -38.4661   56.9907   63.2279 C   0  0  0  0  0  0  0  0  0  0  0  0
  -37.8142   56.7429   61.8963 C   0  0  0  0  0  0  0  0  0  0  0  0
 21 22  1  0  0  0
  4  5  2  0  0  0
 25 24  1  0  0  0
 25 26  2  0  0  0
 25 27  1  0  0  0
 25 29  1  0  0  0
 22 20  1  0  0  0
  3  5  1  0  0  0
  3  2  1  0  0  0
 20 19  1  0  0  0
 24 23  1  0  0  0
 19 18  1  0  0  0
 18 17  1  0  0  0
 27 28  1  0  0  0
 17 16  1  0  0  0
 29 30  1  0  0  0
 16 15  1  0  0  0
 34 35  1  0  0  0
 34 36  1  0  0  0
 15 14  1  0  0  0
 31 32  1  0  0  0
 31 33  1  0  0  0
 14 13  1  0  0  0
 37  1  1  0  0  0
 37 39  1  0  0  0
 13 12  1  0  0  0
 38 39  2  0  0  0
 12 11  1  0  0  0
 11 10  1  0  0  0
 10  9  1  0  0  0
  9  8  1  0  0  0
  8  7  1  0  0  0
  7  6  1  0  0  0
  6  5  1  0  0  0
  2  1  1  0  0  0
  1 23  1  0  0  0
 30 32  1  0  0  0
 32 35  1  0  0  0
 39 40  1  0  0  0
 40 41  1  0  0  0
 41 42  1  0  0  0
 42 43  1  0  0  0
 43 44  1  0  0  0
 44 45  1  0  0  0
 45 46  1  0  0  0
 46 47  1  0  0  0
 47 48  2  0  0  0
 48 49  1  0  0  0
 49 50  1  0  0  0
 50 51  1  0  0  0
 51 52  1  0  0  0
 52 53  1  0  0  0
 53 54  1  0  0  0
 54 55  1  0  0  0
 55 56  1  0  0  0
M  CHG 1  26  -1
M  END
> <minimizedAffinity>
-8.30344

> <CNNscore>
0.4934968948

> <CNNaffinity>
7.3648223877

> <CNN_VS>
3.6345169544

> <CNNaffinity_variance>
0.5515026450

$$$$
/media/chris/experiments/cd1a-new-docking/inputs/ligands/7sh4_ligand.pdb


 56 55  0  0  0  0  0  0  0  0999 V2000
  -37.3005   60.1478   65.1869 C   0  0  0  0  0  0  0  0  0  0  0  0
  -38.5853   60.6222   64.5689 C   0  0  0  0  0  0  0  0  0  0  0  0
  -39.5887   60.2918   65.5523 O   0  0  0  0  0  0  0  0  0  0  0  0
  -41.4584   60.7703   64.4233 O   0  0  0  0  0  0  0  0  0  0  0  0
  -40.8116   60.0156   65.0984 C   0  0  0  0  0  0  0  0  0  0  0  0
  -41.2098   58.6072   65.4344 C   0  0  0  0  0  0  0  0  0  0  0  0
  -42.5753   58.4881   66.0898 C   0  0  0  0  0  0  0  0  0  0  0  0
  -43.0764   57.0603   66.1452 C   0  0  0  0  0  0  0  0  0  0  0  0
  -44.4713   56.8718   65.5933 C   0  0  0  0  0  0  0  0  0  0  0  0
  -44.9557   58.0594   64.7865 C   0  0  0  0  0  0  0  0  0  0  0  0
  -46.3300   58.5327   65.1927 C   0  0  0  0  0  0  0  0  0  0  0  0
  -47.3057   57.4035   65.3938 C   0  0  0  0  0  0  0  0  0  0  0  0
  -48.7430   57.7992   65.1380 C   0  0  0  0  0  0  0  0  0  0  0  0
  -48.9551   58.3686   63.7499 C   0  0  0  0  0  0  0  0  0  0  0  0
  -50.2123   59.2009   63.6088 C   0  0  0  0  0  0  0  0  0  0  0  0
  -50.9773   58.9468   62.3148 C   0  0  0  0  0  0  0  0  0  0  0  0
  -50.8244   57.5377   61.7752 C   0  0  0  0  0  0  0  0  0  0  0  0
  -50.5034   57.4914   60.2954 C   0  0  0  0  0  0  0  0  0  0  0  0
  -49.2855   56.6412   59.9614 C   0  0  0  0  0  0  0  0  0  0  0  0
  -47.9671   57.3750   60.1309 C   0  0  0  0  0  0  0  0  0  0  0  0
  -47.8751   56.9827   57.6463 C   0  0  0  0  0  0  0  0  0  0  0  0
  -47.1428   57.5000   58.8637 C   0  0  0  0  0  0  0  0  0  0  0  0
  -36.7049   61.1758   66.1144 C   0  0  0  0  0  0  0  0  0  0  0  0
  -36.6602   62.4484   65.4311 O   0  0  0  0  0  0  0  0  0  0  0  0
  -35.9891   63.7531   66.0709 P   0  0  0  0  0  0  0  0  0  0  0  0
  -36.3618   64.9158   65.2365 O   0  0  0  0  0  0  0  0  0  0  0  0
  -36.3174   63.7794   67.5166 O   0  0  0  0  0  0  0  0  0  0  0  0
  -37.2715   63.9134   67.6291 H   0  0  0  0  0  0  0  0  0  0  0  0
  -34.4163   63.5314   65.9298 O   0  0  0  0  0  0  0  0  0  0  0  0
  -33.6276   64.4420   65.1367 C   0  0  0  0  0  0  0  0  0  0  0  0
  -32.8881   64.8710   62.8981 O   0  0  0  0  0  0  0  0  0  0  0  0
  -33.6755   63.9851   63.6994 C   0  0  0  0  0  0  0  0  0  0  0  0
  -33.2058   65.7802   63.0137 H   0  0  0  0  0  0  0  0  0  0  0  0
  -34.2923   61.6615   63.5033 O   0  0  0  0  0  0  0  0  0  0  0  0
  -33.1940   62.5640   63.5316 C   0  0  0  0  0  0  0  0  0  0  0  0
  -33.9636   60.7553   63.3950 H   0  0  0  0  0  0  0  0  0  0  0  0
  -36.3740   59.7902   64.1082 O   0  0  0  0  0  0  0  0  0  0  0  0
  -34.5081   58.8252   64.9131 O   0  0  0  0  0  0  0  0  0  0  0  0
  -35.5542   58.7447   64.3290 C   0  0  0  0  0  0  0  0  0  0  0  0
  -36.1111   57.4693   63.7763 C   0  0  0  0  0  0  0  0  0  0  0  0
  -36.5002   57.6190   62.3091 C   0  0  0  0  0  0  0  0  0  0  0  0
  -37.8732   57.0590   61.9754 C   0  0  0  0  0  0  0  0  0  0  0  0
  -38.9750   58.1122   61.9634 C   0  0  0  0  0  0  0  0  0  0  0  0
  -38.5526   59.4400   61.3627 C   0  0  0  0  0  0  0  0  0  0  0  0
  -38.7465   59.5437   59.8472 C   0  0  0  0  0  0  0  0  0  0  0  0
  -37.5266   59.1612   59.0065 C   0  0  0  0  0  0  0  0  0  0  0  0
  -37.8379   58.0753   58.0206 C   0  0  0  0  0  0  0  0  0  0  0  0
  -37.0238   57.1181   57.6205 C   0  0  0  0  0  0  0  0  0  0  0  0
  -35.6119   56.9143   58.0714 C   0  0  0  0  0  0  0  0  0  0  0  0
  -35.4925   55.8331   59.1414 C   0  0  0  0  0  0  0  0  0  0  0  0
  -34.0861   55.6730   59.6918 C   0  0  0  0  0  0  0  0  0  0  0  0
  -33.6290   56.8422   60.5468 C   0  0  0  0  0  0  0  0  0  0  0  0
  -32.9559   56.4442   61.8499 C   0  0  0  0  0  0  0  0  0  0  0  0
  -32.2946   57.6093   62.5704 C   0  0  0  0  0  0  0  0  0  0  0  0
  -32.4641   58.9465   61.8771 C   0  0  0  0  0  0  0  0  0  0  0  0
  -31.2306   59.8019   61.9541 C   0  0  0  0  0  0  0  0  0  0  0  0
 21 22  1  0  0  0
  4  5  2  0  0  0
 25 24  1  0  0  0
 25 26  2  0  0  0
 25 27  1  0  0  0
 25 29  1  0  0  0
 22 20  1  0  0  0
  3  5  1  0  0  0
  3  2  1  0  0  0
 20 19  1  0  0  0
 24 23  1  0  0  0
 19 18  1  0  0  0
 18 17  1  0  0  0
 27 28  1  0  0  0
 17 16  1  0  0  0
 29 30  1  0  0  0
 16 15  1  0  0  0
 34 35  1  0  0  0
 34 36  1  0  0  0
 15 14  1  0  0  0
 31 32  1  0  0  0
 31 33  1  0  0  0
 14 13  1  0  0  0
 37  1  1  0  0  0
 37 39  1  0  0  0
 13 12  1  0  0  0
 38 39  2  0  0  0
 12 11  1  0  0  0
 11 10  1  0  0  0
 10  9  1  0  0  0
  9  8  1  0  0  0
  8  7  1  0  0  0
  7  6  1  0  0  0
  6  5  1  0  0  0
  2  1  1  0  0  0
  1 23  1  0  0  0
 30 32  1  0  0  0
 32 35  1  0  0  0
 39 40  1  0  0  0
 40 41  1  0  0  0
 41 42  1  0  0  0
 42 43  1  0  0  0
 43 44  1  0  0  0
 44 45  1  0  0  0
 45 46  1  0  0  0
 46 47  1  0  0  0
 47 48  2  0  0  0
 48 49  1  0  0  0
 49 50  1  0  0  0
 50 51  1  0  0  0
 51 52  1  0  0  0
 52 53  1  0  0  0
 53 54  1  0  0  0
 54 55  1  0  0  0
 55 56  1  0  0  0
M  CHG 1  26  -1
M  END
> <minimizedAffinity>
-8.68061

> <CNNscore>
0.4744948745

> <CNNaffinity>
7.3852744102

> <CNN_VS>
3.5042748451

> <CNNaffinity_variance>
0.7675473690

$$$$
/media/chris/experiments/cd1a-new-docking/inputs/ligands/7sh4_ligand.pdb


 56 55  0  0  0  0  0  0  0  0999 V2000
  -38.7075   60.0410   64.9440 C   0  0  0  0  0  0  0  0  0  0  0  0
  -39.6280   59.0382   65.5803 C   0  0  0  0  0  0  0  0  0  0  0  0
  -40.7336   59.8331   66.0585 O   0  0  0  0  0  0  0  0  0  0  0  0
  -42.5942   59.6522   64.8319 O   0  0  0  0  0  0  0  0  0  0  0  0
  -41.9602   59.3716   65.8132 C   0  0  0  0  0  0  0  0  0  0  0  0
  -42.3811   58.3711   66.8508 C   0  0  0  0  0  0  0  0  0  0  0  0
  -42.9509   57.0847   66.2773 C   0  0  0  0  0  0  0  0  0  0  0  0
  -44.4632   57.0368   66.3342 C   0  0  0  0  0  0  0  0  0  0  0  0
  -45.1432   57.3800   65.0282 C   0  0  0  0  0  0  0  0  0  0  0  0
  -46.0257   58.6081   65.1235 C   0  0  0  0  0  0  0  0  0  0  0  0
  -47.1776   58.4387   66.0837 C   0  0  0  0  0  0  0  0  0  0  0  0
  -48.2673   57.5502   65.5446 C   0  0  0  0  0  0  0  0  0  0  0  0
  -48.8413   58.0335   64.2312 C   0  0  0  0  0  0  0  0  0  0  0  0
  -50.2750   58.5076   64.3582 C   0  0  0  0  0  0  0  0  0  0  0  0
  -51.0047   58.6300   63.0369 C   0  0  0  0  0  0  0  0  0  0  0  0
  -50.1272   58.3555   61.8209 C   0  0  0  0  0  0  0  0  0  0  0  0
  -50.7545   57.4174   60.8076 C   0  0  0  0  0  0  0  0  0  0  0  0
  -49.9937   57.3487   59.4993 C   0  0  0  0  0  0  0  0  0  0  0  0
  -48.5224   57.7175   59.6288 C   0  0  0  0  0  0  0  0  0  0  0  0
  -47.6769   57.2666   58.4511 C   0  0  0  0  0  0  0  0  0  0  0  0
  -47.7289   55.1242   57.1309 C   0  0  0  0  0  0  0  0  0  0  0  0
  -47.3480   55.7859   58.4359 C   0  0  0  0  0  0  0  0  0  0  0  0
  -37.7915   60.6876   65.9513 C   0  0  0  0  0  0  0  0  0  0  0  0
  -37.1844   61.8520   65.3478 O   0  0  0  0  0  0  0  0  0  0  0  0
  -36.0265   62.6950   66.0623 P   0  0  0  0  0  0  0  0  0  0  0  0
  -36.6645   63.6612   66.9822 O   0  0  0  0  0  0  0  0  0  0  0  0
  -35.0315   61.7413   66.6090 O   0  0  0  0  0  0  0  0  0  0  0  0
  -35.4366   61.2254   67.3236 H   0  0  0  0  0  0  0  0  0  0  0  0
  -35.3228   63.5208   64.8936 O   0  0  0  0  0  0  0  0  0  0  0  0
  -34.8693   64.8685   65.1345 C   0  0  0  0  0  0  0  0  0  0  0  0
  -33.1391   65.0007   63.4819 O   0  0  0  0  0  0  0  0  0  0  0  0
  -33.3813   64.9205   64.8897 C   0  0  0  0  0  0  0  0  0  0  0  0
  -33.5666   64.2522   63.0371 H   0  0  0  0  0  0  0  0  0  0  0  0
  -32.2208   65.6737   66.8656 O   0  0  0  0  0  0  0  0  0  0  0  0
  -32.7222   66.0794   65.5985 C   0  0  0  0  0  0  0  0  0  0  0  0
  -31.8018   66.4303   67.3049 H   0  0  0  0  0  0  0  0  0  0  0  0
  -39.5237   61.0339   64.2384 O   0  0  0  0  0  0  0  0  0  0  0  0
  -40.9469   60.9092   62.5007 O   0  0  0  0  0  0  0  0  0  0  0  0
  -39.8472   60.7609   62.9598 C   0  0  0  0  0  0  0  0  0  0  0  0
  -38.6698   60.2691   62.1764 C   0  0  0  0  0  0  0  0  0  0  0  0
  -39.0165   59.0211   61.3707 C   0  0  0  0  0  0  0  0  0  0  0  0
  -38.4770   57.7321   61.9684 C   0  0  0  0  0  0  0  0  0  0  0  0
  -37.5170   56.9878   61.0475 C   0  0  0  0  0  0  0  0  0  0  0  0
  -36.8700   57.8651   59.9919 C   0  0  0  0  0  0  0  0  0  0  0  0
  -37.2074   57.4789   58.5490 C   0  0  0  0  0  0  0  0  0  0  0  0
  -36.2253   56.5099   57.8871 C   0  0  0  0  0  0  0  0  0  0  0  0
  -34.8579   57.1063   57.7369 C   0  0  0  0  0  0  0  0  0  0  0  0
  -33.7507   56.6945   58.3231 C   0  0  0  0  0  0  0  0  0  0  0  0
  -33.6277   55.5383   59.2646 C   0  0  0  0  0  0  0  0  0  0  0  0
  -34.0005   55.9108   60.6965 C   0  0  0  0  0  0  0  0  0  0  0  0
  -33.5372   57.2981   61.1056 C   0  0  0  0  0  0  0  0  0  0  0  0
  -32.5756   57.2980   62.2813 C   0  0  0  0  0  0  0  0  0  0  0  0
  -32.9210   58.2923   63.3774 C   0  0  0  0  0  0  0  0  0  0  0  0
  -34.0048   57.7985   64.3236 C   0  0  0  0  0  0  0  0  0  0  0  0
  -35.3400   58.4969   64.1588 C   0  0  0  0  0  0  0  0  0  0  0  0
  -35.2245   59.8087   63.4342 C   0  0  0  0  0  0  0  0  0  0  0  0
 21 22  1  0  0  0
  4  5  2  0  0  0
 25 24  1  0  0  0
 25 26  2  0  0  0
 25 27  1  0  0  0
 25 29  1  0  0  0
 22 20  1  0  0  0
  3  5  1  0  0  0
  3  2  1  0  0  0
 20 19  1  0  0  0
 24 23  1  0  0  0
 19 18  1  0  0  0
 18 17  1  0  0  0
 27 28  1  0  0  0
 17 16  1  0  0  0
 29 30  1  0  0  0
 16 15  1  0  0  0
 34 35  1  0  0  0
 34 36  1  0  0  0
 15 14  1  0  0  0
 31 32  1  0  0  0
 31 33  1  0  0  0
 14 13  1  0  0  0
 37  1  1  0  0  0
 37 39  1  0  0  0
 13 12  1  0  0  0
 38 39  2  0  0  0
 12 11  1  0  0  0
 11 10  1  0  0  0
 10  9  1  0  0  0
  9  8  1  0  0  0
  8  7  1  0  0  0
  7  6  1  0  0  0
  6  5  1  0  0  0
  2  1  1  0  0  0
  1 23  1  0  0  0
 30 32  1  0  0  0
 32 35  1  0  0  0
 39 40  1  0  0  0
 40 41  1  0  0  0
 41 42  1  0  0  0
 42 43  1  0  0  0
 43 44  1  0  0  0
 44 45  1  0  0  0
 45 46  1  0  0  0
 46 47  1  0  0  0
 47 48  2  0  0  0
 48 49  1  0  0  0
 49 50  1  0  0  0
 50 51  1  0  0  0
 51 52  1  0  0  0
 52 53  1  0  0  0
 53 54  1  0  0  0
 54 55  1  0  0  0
 55 56  1  0  0  0
M  CHG 1  26  -1
M  END
> <minimizedAffinity>
-8.84203

> <CNNscore>
0.4477635026

> <CNNaffinity>
7.3424134254

> <CNN_VS>
3.2876646519

> <CNNaffinity_variance>
0.6818322539

$$$$
