/media/chris/experiments/cd1a-new-docking/inputs/ligands/7sh4_ligand.pdb


 56 55  0  0  0  0  0  0  0  0999 V2000
  -39.0797   58.8896   63.8503 C   0  0  0  0  0  0  0  0  0  0  0  0
  -38.8372   57.9438   62.7083 C   0  0  0  0  0  0  0  0  0  0  0  0
  -39.1254   58.7325   61.5344 O   0  0  0  0  0  0  0  0  0  0  0  0
  -37.5369   60.0903   60.7389 O   0  0  0  0  0  0  0  0  0  0  0  0
  -38.0977   59.0276   60.7377 C   0  0  0  0  0  0  0  0  0  0  0  0
  -37.6649   57.8288   59.9438 C   0  0  0  0  0  0  0  0  0  0  0  0
  -37.2150   58.1511   58.5288 C   0  0  0  0  0  0  0  0  0  0  0  0
  -36.4860   56.9997   57.8689 C   0  0  0  0  0  0  0  0  0  0  0  0
  -35.0509   56.8375   58.3163 C   0  0  0  0  0  0  0  0  0  0  0  0
  -34.8244   55.5871   59.1418 C   0  0  0  0  0  0  0  0  0  0  0  0
  -34.3958   55.8804   60.5588 C   0  0  0  0  0  0  0  0  0  0  0  0
  -34.0723   57.3333   60.7869 C   0  0  0  0  0  0  0  0  0  0  0  0
  -34.3690   57.8007   62.1946 C   0  0  0  0  0  0  0  0  0  0  0  0
  -33.1292   58.2686   62.9294 C   0  0  0  0  0  0  0  0  0  0  0  0
  -31.9405   58.5339   62.0294 C   0  0  0  0  0  0  0  0  0  0  0  0
  -31.5175   59.9977   61.9830 C   0  0  0  0  0  0  0  0  0  0  0  0
  -30.0378   60.2197   62.2303 C   0  0  0  0  0  0  0  0  0  0  0  0
  -29.6629   61.6812   62.3670 C   0  0  0  0  0  0  0  0  0  0  0  0
  -30.5439   62.6162   61.5501 C   0  0  0  0  0  0  0  0  0  0  0  0
  -31.1849   63.7199   62.3723 C   0  0  0  0  0  0  0  0  0  0  0  0
  -31.4586   63.7997   64.8732 C   0  0  0  0  0  0  0  0  0  0  0  0
  -31.9810   63.2382   63.5704 C   0  0  0  0  0  0  0  0  0  0  0  0
  -38.0613   58.7235   64.9490 C   0  0  0  0  0  0  0  0  0  0  0  0
  -36.7673   59.1285   64.4489 O   0  0  0  0  0  0  0  0  0  0  0  0
  -36.3069   60.6596   64.3735 P   0  0  0  0  0  0  0  0  0  0  0  0
  -34.8586   60.7172   64.6665 O   0  0  0  0  0  0  0  0  0  0  0  0
  -36.7980   61.2268   63.0946 O   0  0  0  0  0  0  0  0  0  0  0  0
  -36.3428   60.7965   62.3540 H   0  0  0  0  0  0  0  0  0  0  0  0
  -37.0778   61.3915   65.5621 O   0  0  0  0  0  0  0  0  0  0  0  0
  -36.3385   61.9352   66.6747 C   0  0  0  0  0  0  0  0  0  0  0  0
  -36.9806   64.2102   67.0681 O   0  0  0  0  0  0  0  0  0  0  0  0
  -36.0352   63.3841   66.3819 C   0  0  0  0  0  0  0  0  0  0  0  0
  -37.8801   63.9554   66.8096 H   0  0  0  0  0  0  0  0  0  0  0  0
  -34.0520   62.7746   67.6121 O   0  0  0  0  0  0  0  0  0  0  0  0
  -34.6280   63.7672   66.7728 C   0  0  0  0  0  0  0  0  0  0  0  0
  -33.1498   63.0380   67.8521 H   0  0  0  0  0  0  0  0  0  0  0  0
  -40.4452   58.6798   64.3413 O   0  0  0  0  0  0  0  0  0  0  0  0
  -40.9307   60.8162   64.8517 O   0  0  0  0  0  0  0  0  0  0  0  0
  -40.9696   59.6463   65.1191 C   0  0  0  0  0  0  0  0  0  0  0  0
  -41.6217   59.0866   66.3454 C   0  0  0  0  0  0  0  0  0  0  0  0
  -42.8601   58.2676   65.9955 C   0  0  0  0  0  0  0  0  0  0  0  0
  -43.9753   59.0790   65.3567 C   0  0  0  0  0  0  0  0  0  0  0  0
  -45.0192   58.2261   64.6448 C   0  0  0  0  0  0  0  0  0  0  0  0
  -46.3888   58.2551   65.2972 C   0  0  0  0  0  0  0  0  0  0  0  0
  -47.1470   59.5746   65.1275 C   0  0  0  0  0  0  0  0  0  0  0  0
  -48.4387   59.6930   65.9393 C   0  0  0  0  0  0  0  0  0  0  0  0
  -49.3143   58.4855   65.7869 C   0  0  0  0  0  0  0  0  0  0  0  0
  -50.4096   58.3940   65.0580 C   0  0  0  0  0  0  0  0  0  0  0  0
  -51.0092   59.4828   64.2253 C   0  0  0  0  0  0  0  0  0  0  0  0
  -51.1794   59.0726   62.7654 C   0  0  0  0  0  0  0  0  0  0  0  0
  -50.2756   57.9268   62.3449 C   0  0  0  0  0  0  0  0  0  0  0  0
  -50.7771   57.1696   61.1274 C   0  0  0  0  0  0  0  0  0  0  0  0
  -50.4417   57.8232   59.7972 C   0  0  0  0  0  0  0  0  0  0  0  0
  -49.3498   57.0987   59.0247 C   0  0  0  0  0  0  0  0  0  0  0  0
  -47.9430   57.4129   59.4937 C   0  0  0  0  0  0  0  0  0  0  0  0
  -46.9963   57.6769   58.3563 C   0  0  0  0  0  0  0  0  0  0  0  0
 21 22  1  0  0  0
  4  5  2  0  0  0
 25 24  1  0  0  0
 25 26  2  0  0  0
 25 27  1  0  0  0
 25 29  1  0  0  0
 22 20  1  0  0  0
  3  5  1  0  0  0
  3  2  1  0  0  0
 20 19  1  0  0  0
 24 23  1  0  0  0
 19 18  1  0  0  0
 18 17  1  0  0  0
 27 28  1  0  0  0
 17 16  1  0  0  0
 29 30  1  0  0  0
 16 15  1  0  0  0
 34 35  1  0  0  0
 34 36  1  0  0  0
 15 14  1  0  0  0
 31 32  1  0  0  0
 31 33  1  0  0  0
 14 13  1  0  0  0
 37  1  1  0  0  0
 37 39  1  0  0  0
 13 12  1  0  0  0
 38 39  2  0  0  0
 12 11  1  0  0  0
 11 10  1  0  0  0
 10  9  1  0  0  0
  9  8  1  0  0  0
  8  7  1  0  0  0
  7  6  1  0  0  0
  6  5  1  0  0  0
  2  1  1  0  0  0
  1 23  1  0  0  0
 30 32  1  0  0  0
 32 35  1  0  0  0
 39 40  1  0  0  0
 40 41  1  0  0  0
 41 42  1  0  0  0
 42 43  1  0  0  0
 43 44  1  0  0  0
 44 45  1  0  0  0
 45 46  1  0  0  0
 46 47  1  0  0  0
 47 48  2  0  0  0
 48 49  1  0  0  0
 49 50  1  0  0  0
 50 51  1  0  0  0
 51 52  1  0  0  0
 52 53  1  0  0  0
 53 54  1  0  0  0
 54 55  1  0  0  0
 55 56  1  0  0  0
M  CHG 1  26  -1
M  END
> <minimizedAffinity>
-8.91157

> <CNNscore>
0.8238993883

> <CNNaffinity>
7.4391450882

> <CNN_VS>
6.1291069984

> <CNNaffinity_variance>
0.4876981676

$$$$
/media/chris/experiments/cd1a-new-docking/inputs/ligands/7sh4_ligand.pdb


 56 55  0  0  0  0  0  0  0  0999 V2000
  -38.3444   58.7135   62.8701 C   0  0  0  0  0  0  0  0  0  0  0  0
  -39.5377   59.5998   63.0894 C   0  0  0  0  0  0  0  0  0  0  0  0
  -40.1765   59.0428   64.2576 O   0  0  0  0  0  0  0  0  0  0  0  0
  -40.3363   60.6359   65.8184 O   0  0  0  0  0  0  0  0  0  0  0  0
  -40.8553   59.8869   65.0352 C   0  0  0  0  0  0  0  0  0  0  0  0
  -42.3214   59.8630   64.7118 C   0  0  0  0  0  0  0  0  0  0  0  0
  -43.1006   58.7828   65.4429 C   0  0  0  0  0  0  0  0  0  0  0  0
  -44.5951   58.8879   65.2237 C   0  0  0  0  0  0  0  0  0  0  0  0
  -45.4227   58.6189   66.4600 C   0  0  0  0  0  0  0  0  0  0  0  0
  -46.7580   59.3353   66.4477 C   0  0  0  0  0  0  0  0  0  0  0  0
  -47.2772   59.6000   65.0557 C   0  0  0  0  0  0  0  0  0  0  0  0
  -48.5178   58.8108   64.7305 C   0  0  0  0  0  0  0  0  0  0  0  0
  -48.6231   58.4325   63.2698 C   0  0  0  0  0  0  0  0  0  0  0  0
  -49.5770   59.3247   62.5014 C   0  0  0  0  0  0  0  0  0  0  0  0
  -50.9693   58.7502   62.3442 C   0  0  0  0  0  0  0  0  0  0  0  0
  -51.0111   57.4407   61.5649 C   0  0  0  0  0  0  0  0  0  0  0  0
  -50.5397   57.5630   60.1286 C   0  0  0  0  0  0  0  0  0  0  0  0
  -49.2520   56.8146   59.8518 C   0  0  0  0  0  0  0  0  0  0  0  0
  -48.0669   57.7254   59.5627 C   0  0  0  0  0  0  0  0  0  0  0  0
  -46.9142   57.0212   58.8694 C   0  0  0  0  0  0  0  0  0  0  0  0
  -47.6447   56.5926   56.4991 C   0  0  0  0  0  0  0  0  0  0  0  0
  -47.3290   55.9817   57.8454 C   0  0  0  0  0  0  0  0  0  0  0  0
  -37.1080   59.2516   63.5435 C   0  0  0  0  0  0  0  0  0  0  0  0
  -36.6599   60.4231   62.8258 O   0  0  0  0  0  0  0  0  0  0  0  0
  -36.2108   61.7719   63.5612 P   0  0  0  0  0  0  0  0  0  0  0  0
  -35.0467   62.3236   62.8349 O   0  0  0  0  0  0  0  0  0  0  0  0
  -37.4112   62.6247   63.7351 O   0  0  0  0  0  0  0  0  0  0  0  0
  -37.7315   62.9134   62.8662 H   0  0  0  0  0  0  0  0  0  0  0  0
  -35.7173   61.3197   65.0084 O   0  0  0  0  0  0  0  0  0  0  0  0
  -36.3455   61.8632   66.1874 C   0  0  0  0  0  0  0  0  0  0  0  0
  -36.9681   64.0422   66.9664 O   0  0  0  0  0  0  0  0  0  0  0  0
  -35.9195   63.3035   66.3326 C   0  0  0  0  0  0  0  0  0  0  0  0
  -37.7874   63.9427   66.4566 H   0  0  0  0  0  0  0  0  0  0  0  0
  -33.9601   62.1992   67.2040 O   0  0  0  0  0  0  0  0  0  0  0  0
  -34.6352   63.4472   67.1135 C   0  0  0  0  0  0  0  0  0  0  0  0
  -33.1390   62.3116   67.7081 H   0  0  0  0  0  0  0  0  0  0  0  0
  -38.1480   58.5526   61.4260 O   0  0  0  0  0  0  0  0  0  0  0  0
  -37.7772   56.3339   61.4173 O   0  0  0  0  0  0  0  0  0  0  0  0
  -37.5171   57.4354   61.0163 C   0  0  0  0  0  0  0  0  0  0  0  0
  -36.4677   57.7290   59.9893 C   0  0  0  0  0  0  0  0  0  0  0  0
  -35.7260   56.4636   59.5706 C   0  0  0  0  0  0  0  0  0  0  0  0
  -34.5127   56.1475   60.4299 C   0  0  0  0  0  0  0  0  0  0  0  0
  -33.8320   57.3854   61.0027 C   0  0  0  0  0  0  0  0  0  0  0  0
  -32.7938   57.0818   62.0667 C   0  0  0  0  0  0  0  0  0  0  0  0
  -32.1899   58.3184   62.7382 C   0  0  0  0  0  0  0  0  0  0  0  0
  -31.8365   59.4671   61.7911 C   0  0  0  0  0  0  0  0  0  0  0  0
  -30.3888   59.8470   61.8795 C   0  0  0  0  0  0  0  0  0  0  0  0
  -29.8944   61.0697   61.8824 C   0  0  0  0  0  0  0  0  0  0  0  0
  -30.6805   62.3399   61.7989 C   0  0  0  0  0  0  0  0  0  0  0  0
  -30.1947   63.3917   62.7919 C   0  0  0  0  0  0  0  0  0  0  0  0
  -30.6960   63.1703   64.2083 C   0  0  0  0  0  0  0  0  0  0  0  0
  -32.0356   63.8283   64.4909 C   0  0  0  0  0  0  0  0  0  0  0  0
  -31.9521   65.0898   65.3340 C   0  0  0  0  0  0  0  0  0  0  0  0
  -33.0242   66.1151   64.9976 C   0  0  0  0  0  0  0  0  0  0  0  0
  -32.5596   67.5549   65.0927 C   0  0  0  0  0  0  0  0  0  0  0  0
  -32.5811   68.2616   63.7662 C   0  0  0  0  0  0  0  0  0  0  0  0
 21 22  1  0  0  0
  4  5  2  0  0  0
 25 24  1  0  0  0
 25 26  2  0  0  0
 25 27  1  0  0  0
 25 29  1  0  0  0
 22 20  1  0  0  0
  3  5  1  0  0  0
  3  2  1  0  0  0
 20 19  1  0  0  0
 24 23  1  0  0  0
 19 18  1  0  0  0
 18 17  1  0  0  0
 27 28  1  0  0  0
 17 16  1  0  0  0
 29 30  1  0  0  0
 16 15  1  0  0  0
 34 35  1  0  0  0
 34 36  1  0  0  0
 15 14  1  0  0  0
 31 32  1  0  0  0
 31 33  1  0  0  0
 14 13  1  0  0  0
 37  1  1  0  0  0
 37 39  1  0  0  0
 13 12  1  0  0  0
 38 39  2  0  0  0
 12 11  1  0  0  0
 11 10  1  0  0  0
 10  9  1  0  0  0
  9  8  1  0  0  0
  8  7  1  0  0  0
  7  6  1  0  0  0
  6  5  1  0  0  0
  2  1  1  0  0  0
  1 23  1  0  0  0
 30 32  1  0  0  0
 32 35  1  0  0  0
 39 40  1  0  0  0
 40 41  1  0  0  0
 41 42  1  0  0  0
 42 43  1  0  0  0
 43 44  1  0  0  0
 44 45  1  0  0  0
 45 46  1  0  0  0
 46 47  1  0  0  0
 47 48  2  0  0  0
 48 49  1  0  0  0
 49 50  1  0  0  0
 50 51  1  0  0  0
 51 52  1  0  0  0
 52 53  1  0  0  0
 53 54  1  0  0  0
 54 55  1  0  0  0
 55 56  1  0  0  0
M  CHG 1  26  -1
M  END
> <minimizedAffinity>
-8.48432

> <CNNscore>
0.7953103185

> <CNNaffinity>
7.1772165298

> <CNN_VS>
5.7081141472

> <CNNaffinity_variance>
0.2537957132

$$$$
/media/chris/experiments/cd1a-new-docking/inputs/ligands/7sh4_ligand.pdb


 56 55  0  0  0  0  0  0  0  0999 V2000
  -37.2456   59.9866   63.9756 C   0  0  0  0  0  0  0  0  0  0  0  0
  -37.9767   60.1380   65.2796 C   0  0  0  0  0  0  0  0  0  0  0  0
  -39.2795   60.6257   64.8949 O   0  0  0  0  0  0  0  0  0  0  0  0
  -40.8543   60.9489   66.4491 O   0  0  0  0  0  0  0  0  0  0  0  0
  -40.3139   60.2404   65.6430 C   0  0  0  0  0  0  0  0  0  0  0  0
  -40.7820   58.8672   65.2558 C   0  0  0  0  0  0  0  0  0  0  0  0
  -42.2716   58.7770   64.9705 C   0  0  0  0  0  0  0  0  0  0  0  0
  -43.0353   58.0595   66.0635 C   0  0  0  0  0  0  0  0  0  0  0  0
  -43.9228   58.9600   66.8924 C   0  0  0  0  0  0  0  0  0  0  0  0
  -45.3868   58.5746   66.8261 C   0  0  0  0  0  0  0  0  0  0  0  0
  -45.9949   58.7839   65.4609 C   0  0  0  0  0  0  0  0  0  0  0  0
  -47.1214   59.7830   65.4654 C   0  0  0  0  0  0  0  0  0  0  0  0
  -48.2118   59.4539   66.4608 C   0  0  0  0  0  0  0  0  0  0  0  0
  -49.2029   58.4385   65.9289 C   0  0  0  0  0  0  0  0  0  0  0  0
  -50.4841   59.0455   65.3967 C   0  0  0  0  0  0  0  0  0  0  0  0
  -50.4654   59.3052   63.8947 C   0  0  0  0  0  0  0  0  0  0  0  0
  -50.3733   58.0470   63.0529 C   0  0  0  0  0  0  0  0  0  0  0  0
  -51.0198   58.1860   61.6899 C   0  0  0  0  0  0  0  0  0  0  0  0
  -50.6766   57.0525   60.7332 C   0  0  0  0  0  0  0  0  0  0  0  0
  -50.0342   57.5222   59.4402 C   0  0  0  0  0  0  0  0  0  0  0  0
  -47.5855   57.7235   58.8934 C   0  0  0  0  0  0  0  0  0  0  0  0
  -48.7618   56.7887   59.0606 C   0  0  0  0  0  0  0  0  0  0  0  0
  -37.1446   61.2916   63.2283 C   0  0  0  0  0  0  0  0  0  0  0  0
  -35.7500   61.5809   62.9839 O   0  0  0  0  0  0  0  0  0  0  0  0
  -35.1308   63.0499   63.1269 P   0  0  0  0  0  0  0  0  0  0  0  0
  -34.3344   63.3313   61.9131 O   0  0  0  0  0  0  0  0  0  0  0  0
  -36.2271   63.9795   63.4909 O   0  0  0  0  0  0  0  0  0  0  0  0
  -36.8523   64.0471   62.7524 H   0  0  0  0  0  0  0  0  0  0  0  0
  -34.1279   62.9669   64.3639 O   0  0  0  0  0  0  0  0  0  0  0  0
  -34.3687   63.7623   65.5425 C   0  0  0  0  0  0  0  0  0  0  0  0
  -33.8886   62.5785   67.5701 O   0  0  0  0  0  0  0  0  0  0  0  0
  -34.9204   62.8614   66.6200 C   0  0  0  0  0  0  0  0  0  0  0  0
  -33.1251   62.1926   67.1128 H   0  0  0  0  0  0  0  0  0  0  0  0
  -36.8389   64.3111   66.4301 O   0  0  0  0  0  0  0  0  0  0  0  0
  -36.1180   63.4633   67.3151 C   0  0  0  0  0  0  0  0  0  0  0  0
  -37.6031   64.6876   66.8939 H   0  0  0  0  0  0  0  0  0  0  0  0
  -37.9263   58.9590   63.1815 O   0  0  0  0  0  0  0  0  0  0  0  0
  -36.6858   57.2838   64.0271 O   0  0  0  0  0  0  0  0  0  0  0  0
  -37.3537   57.7406   63.1401 C   0  0  0  0  0  0  0  0  0  0  0  0
  -37.6648   57.0182   61.8659 C   0  0  0  0  0  0  0  0  0  0  0  0
  -38.1357   57.9793   60.7791 C   0  0  0  0  0  0  0  0  0  0  0  0
  -37.0544   58.3573   59.7800 C   0  0  0  0  0  0  0  0  0  0  0  0
  -37.2947   57.8000   58.3815 C   0  0  0  0  0  0  0  0  0  0  0  0
  -36.3019   56.7311   57.9644 C   0  0  0  0  0  0  0  0  0  0  0  0
  -34.8324   57.1421   58.0926 C   0  0  0  0  0  0  0  0  0  0  0  0
  -33.9362   56.1384   58.8212 C   0  0  0  0  0  0  0  0  0  0  0  0
  -34.5260   55.6992   60.1278 C   0  0  0  0  0  0  0  0  0  0  0  0
  -34.2030   56.1439   61.3267 C   0  0  0  0  0  0  0  0  0  0  0  0
  -33.1752   57.1869   61.6339 C   0  0  0  0  0  0  0  0  0  0  0  0
  -33.7565   58.3673   62.4066 C   0  0  0  0  0  0  0  0  0  0  0  0
  -32.8124   59.5523   62.5101 C   0  0  0  0  0  0  0  0  0  0  0  0
  -31.4832   59.3363   61.8075 C   0  0  0  0  0  0  0  0  0  0  0  0
  -30.3551   60.2232   62.3077 C   0  0  0  0  0  0  0  0  0  0  0  0
  -30.3208   61.5915   61.6440 C   0  0  0  0  0  0  0  0  0  0  0  0
  -30.3628   62.7549   62.6148 C   0  0  0  0  0  0  0  0  0  0  0  0
  -30.8730   64.0204   61.9840 C   0  0  0  0  0  0  0  0  0  0  0  0
 21 22  1  0  0  0
  4  5  2  0  0  0
 25 24  1  0  0  0
 25 26  2  0  0  0
 25 27  1  0  0  0
 25 29  1  0  0  0
 22 20  1  0  0  0
  3  5  1  0  0  0
  3  2  1  0  0  0
 20 19  1  0  0  0
 24 23  1  0  0  0
 19 18  1  0  0  0
 18 17  1  0  0  0
 27 28  1  0  0  0
 17 16  1  0  0  0
 29 30  1  0  0  0
 16 15  1  0  0  0
 34 35  1  0  0  0
 34 36  1  0  0  0
 15 14  1  0  0  0
 31 32  1  0  0  0
 31 33  1  0  0  0
 14 13  1  0  0  0
 37  1  1  0  0  0
 37 39  1  0  0  0
 13 12  1  0  0  0
 38 39  2  0  0  0
 12 11  1  0  0  0
 11 10  1  0  0  0
 10  9  1  0  0  0
  9  8  1  0  0  0
  8  7  1  0  0  0
  7  6  1  0  0  0
  6  5  1  0  0  0
  2  1  1  0  0  0
  1 23  1  0  0  0
 30 32  1  0  0  0
 32 35  1  0  0  0
 39 40  1  0  0  0
 40 41  1  0  0  0
 41 42  1  0  0  0
 42 43  1  0  0  0
 43 44  1  0  0  0
 44 45  1  0  0  0
 45 46  1  0  0  0
 46 47  1  0  0  0
 47 48  2  0  0  0
 48 49  1  0  0  0
 49 50  1  0  0  0
 50 51  1  0  0  0
 51 52  1  0  0  0
 52 53  1  0  0  0
 53 54  1  0  0  0
 54 55  1  0  0  0
 55 56  1  0  0  0
M  CHG 1  26  -1
M  END
> <minimizedAffinity>
-8.83373

> <CNNscore>
0.7574436665

> <CNNaffinity>
7.4214620590

> <CNN_VS>
5.6213393211

> <CNNaffinity_variance>
0.6947723627

$$$$
/media/chris/experiments/cd1a-new-docking/inputs/ligands/7sh4_ligand.pdb


 56 55  0  0  0  0  0  0  0  0999 V2000
  -37.9665   59.9233   62.2635 C   0  0  0  0  0  0  0  0  0  0  0  0
  -39.4236   60.2209   62.4779 C   0  0  0  0  0  0  0  0  0  0  0  0
  -39.8073   59.3337   63.5497 O   0  0  0  0  0  0  0  0  0  0  0  0
  -39.9645   60.5947   65.3895 O   0  0  0  0  0  0  0  0  0  0  0  0
  -40.4708   59.8737   64.5725 C   0  0  0  0  0  0  0  0  0  0  0  0
  -41.9379   59.5645   64.4913 C   0  0  0  0  0  0  0  0  0  0  0  0
  -42.4191   58.5621   65.5267 C   0  0  0  0  0  0  0  0  0  0  0  0
  -43.6243   59.0524   66.3014 C   0  0  0  0  0  0  0  0  0  0  0  0
  -44.8250   59.3735   65.4406 C   0  0  0  0  0  0  0  0  0  0  0  0
  -45.9298   58.3427   65.5549 C   0  0  0  0  0  0  0  0  0  0  0  0
  -46.7923   58.2570   64.3195 C   0  0  0  0  0  0  0  0  0  0  0  0
  -48.1939   57.7903   64.6117 C   0  0  0  0  0  0  0  0  0  0  0  0
  -49.2197   58.9007   64.5592 C   0  0  0  0  0  0  0  0  0  0  0  0
  -50.5013   58.4813   63.8680 C   0  0  0  0  0  0  0  0  0  0  0  0
  -50.9094   59.3836   62.7223 C   0  0  0  0  0  0  0  0  0  0  0  0
  -49.9800   59.3067   61.5164 C   0  0  0  0  0  0  0  0  0  0  0  0
  -49.7635   57.8995   60.9940 C   0  0  0  0  0  0  0  0  0  0  0  0
  -48.3173   57.5978   60.6585 C   0  0  0  0  0  0  0  0  0  0  0  0
  -48.0908   57.2474   59.1944 C   0  0  0  0  0  0  0  0  0  0  0  0
  -48.1201   55.7553   58.9151 C   0  0  0  0  0  0  0  0  0  0  0  0
  -47.5187   56.5671   56.6096 C   0  0  0  0  0  0  0  0  0  0  0  0
  -47.7197   55.3655   57.5047 C   0  0  0  0  0  0  0  0  0  0  0  0
  -37.0935   60.6008   63.2884 C   0  0  0  0  0  0  0  0  0  0  0  0
  -37.1341   62.0278   63.0638 O   0  0  0  0  0  0  0  0  0  0  0  0
  -35.8270   62.9504   63.1084 P   0  0  0  0  0  0  0  0  0  0  0  0
  -34.7006   62.1254   63.5954 O   0  0  0  0  0  0  0  0  0  0  0  0
  -35.6971   63.6305   61.7972 O   0  0  0  0  0  0  0  0  0  0  0  0
  -35.5105   62.9730   61.1090 H   0  0  0  0  0  0  0  0  0  0  0  0
  -36.1327   64.0629   64.2091 O   0  0  0  0  0  0  0  0  0  0  0  0
  -35.1029   64.4625   65.1364 C   0  0  0  0  0  0  0  0  0  0  0  0
  -36.9543   64.2565   66.6439 O   0  0  0  0  0  0  0  0  0  0  0  0
  -35.5397   64.0759   66.5281 C   0  0  0  0  0  0  0  0  0  0  0  0
  -37.1827   65.1722   66.4196 H   0  0  0  0  0  0  0  0  0  0  0  0
  -33.9538   62.6206   67.6167 O   0  0  0  0  0  0  0  0  0  0  0  0
  -35.1657   62.6546   66.8740 C   0  0  0  0  0  0  0  0  0  0  0  0
  -33.7305   61.7009   67.8292 H   0  0  0  0  0  0  0  0  0  0  0  0
  -37.6097   60.3233   60.8987 O   0  0  0  0  0  0  0  0  0  0  0  0
  -39.1017   60.1619   59.2230 O   0  0  0  0  0  0  0  0  0  0  0  0
  -38.2295   59.6784   59.8917 C   0  0  0  0  0  0  0  0  0  0  0  0
  -37.6886   58.2961   59.6944 C   0  0  0  0  0  0  0  0  0  0  0  0
  -37.2729   58.0602   58.2459 C   0  0  0  0  0  0  0  0  0  0  0  0
  -36.3877   56.8403   58.0497 C   0  0  0  0  0  0  0  0  0  0  0  0
  -34.9067   57.1764   57.9180 C   0  0  0  0  0  0  0  0  0  0  0  0
  -33.9965   56.2885   58.7461 C   0  0  0  0  0  0  0  0  0  0  0  0
  -34.6587   55.6756   59.9833 C   0  0  0  0  0  0  0  0  0  0  0  0
  -34.1378   56.1939   61.3255 C   0  0  0  0  0  0  0  0  0  0  0  0
  -34.7850   57.4871   61.7211 C   0  0  0  0  0  0  0  0  0  0  0  0
  -34.2120   58.4940   62.3513 C   0  0  0  0  0  0  0  0  0  0  0  0
  -32.7873   58.5560   62.8041 C   0  0  0  0  0  0  0  0  0  0  0  0
  -31.8706   59.1828   61.7576 C   0  0  0  0  0  0  0  0  0  0  0  0
  -30.6539   59.8734   62.3484 C   0  0  0  0  0  0  0  0  0  0  0  0
  -30.0804   60.9641   61.4603 C   0  0  0  0  0  0  0  0  0  0  0  0
  -30.7637   62.3142   61.6003 C   0  0  0  0  0  0  0  0  0  0  0  0
  -30.4049   63.0442   62.8857 C   0  0  0  0  0  0  0  0  0  0  0  0
  -31.5662   63.7734   63.5318 C   0  0  0  0  0  0  0  0  0  0  0  0
  -31.5319   63.7064   65.0331 C   0  0  0  0  0  0  0  0  0  0  0  0
 21 22  1  0  0  0
  4  5  2  0  0  0
 25 24  1  0  0  0
 25 26  2  0  0  0
 25 27  1  0  0  0
 25 29  1  0  0  0
 22 20  1  0  0  0
  3  5  1  0  0  0
  3  2  1  0  0  0
 20 19  1  0  0  0
 24 23  1  0  0  0
 19 18  1  0  0  0
 18 17  1  0  0  0
 27 28  1  0  0  0
 17 16  1  0  0  0
 29 30  1  0  0  0
 16 15  1  0  0  0
 34 35  1  0  0  0
 34 36  1  0  0  0
 15 14  1  0  0  0
 31 32  1  0  0  0
 31 33  1  0  0  0
 14 13  1  0  0  0
 37  1  1  0  0  0
 37 39  1  0  0  0
 13 12  1  0  0  0
 38 39  2  0  0  0
 12 11  1  0  0  0
 11 10  1  0  0  0
 10  9  1  0  0  0
  9  8  1  0  0  0
  8  7  1  0  0  0
  7  6  1  0  0  0
  6  5  1  0  0  0
  2  1  1  0  0  0
  1 23  1  0  0  0
 30 32  1  0  0  0
 32 35  1  0  0  0
 39 40  1  0  0  0
 40 41  1  0  0  0
 41 42  1  0  0  0
 42 43  1  0  0  0
 43 44  1  0  0  0
 44 45  1  0  0  0
 45 46  1  0  0  0
 46 47  1  0  0  0
 47 48  2  0  0  0
 48 49  1  0  0  0
 49 50  1  0  0  0
 50 51  1  0  0  0
 51 52  1  0  0  0
 52 53  1  0  0  0
 53 54  1  0  0  0
 54 55  1  0  0  0
 55 56  1  0  0  0
M  CHG 1  26  -1
M  END
> <minimizedAffinity>
-9.16234

> <CNNscore>
0.7515606284

> <CNNaffinity>
7.3438134193

> <CNN_VS>
5.5193209648

> <CNNaffinity_variance>
0.6439577341

$$$$
/media/chris/experiments/cd1a-new-docking/inputs/ligands/7sh4_ligand.pdb


 56 55  0  0  0  0  0  0  0  0999 V2000
  -38.9153   59.0875   64.5532 C   0  0  0  0  0  0  0  0  0  0  0  0
  -40.3557   59.3313   64.2016 C   0  0  0  0  0  0  0  0  0  0  0  0
  -41.0834   58.4378   65.0705 O   0  0  0  0  0  0  0  0  0  0  0  0
  -41.6184   60.0270   66.5497 O   0  0  0  0  0  0  0  0  0  0  0  0
  -41.8749   58.9972   65.9863 C   0  0  0  0  0  0  0  0  0  0  0  0
  -43.1663   58.2429   66.1208 C   0  0  0  0  0  0  0  0  0  0  0  0
  -44.3170   58.8360   65.3254 C   0  0  0  0  0  0  0  0  0  0  0  0
  -45.3436   57.8000   64.9186 C   0  0  0  0  0  0  0  0  0  0  0  0
  -45.7795   56.8860   66.0412 C   0  0  0  0  0  0  0  0  0  0  0  0
  -47.2745   56.6392   66.0590 C   0  0  0  0  0  0  0  0  0  0  0  0
  -48.0444   57.5920   65.1775 C   0  0  0  0  0  0  0  0  0  0  0  0
  -49.0420   58.4232   65.9400 C   0  0  0  0  0  0  0  0  0  0  0  0
  -50.3806   58.5414   65.2455 C   0  0  0  0  0  0  0  0  0  0  0  0
  -50.4538   59.7354   64.3153 C   0  0  0  0  0  0  0  0  0  0  0  0
  -51.3762   59.5397   63.1302 C   0  0  0  0  0  0  0  0  0  0  0  0
  -51.2019   58.1974   62.4289 C   0  0  0  0  0  0  0  0  0  0  0  0
  -50.1742   58.2135   61.3138 C   0  0  0  0  0  0  0  0  0  0  0  0
  -50.3834   57.1199   60.2865 C   0  0  0  0  0  0  0  0  0  0  0  0
  -49.4381   57.2115   59.0966 C   0  0  0  0  0  0  0  0  0  0  0  0
  -48.1342   56.4601   59.2971 C   0  0  0  0  0  0  0  0  0  0  0  0
  -46.7960   57.0715   57.2548 C   0  0  0  0  0  0  0  0  0  0  0  0
  -47.4845   55.9638   58.0192 C   0  0  0  0  0  0  0  0  0  0  0  0
  -38.3172   60.2386   65.3206 C   0  0  0  0  0  0  0  0  0  0  0  0
  -37.9359   61.2726   64.3858 O   0  0  0  0  0  0  0  0  0  0  0  0
  -36.4237   61.7659   64.2073 P   0  0  0  0  0  0  0  0  0  0  0  0
  -35.5459   60.8240   64.9347 O   0  0  0  0  0  0  0  0  0  0  0  0
  -36.1805   61.9952   62.7627 O   0  0  0  0  0  0  0  0  0  0  0  0
  -36.2206   61.1493   62.2897 H   0  0  0  0  0  0  0  0  0  0  0  0
  -36.3496   63.1768   64.9466 O   0  0  0  0  0  0  0  0  0  0  0  0
  -36.1737   63.2334   66.3769 C   0  0  0  0  0  0  0  0  0  0  0  0
  -34.0232   62.4336   67.0685 O   0  0  0  0  0  0  0  0  0  0  0  0
  -34.7398   63.6046   66.6656 C   0  0  0  0  0  0  0  0  0  0  0  0
  -34.4670   62.0292   67.8305 H   0  0  0  0  0  0  0  0  0  0  0  0
  -34.8407   65.3284   64.9815 O   0  0  0  0  0  0  0  0  0  0  0  0
  -34.0624   64.2477   65.4794 C   0  0  0  0  0  0  0  0  0  0  0  0
  -34.3900   65.7281   64.2212 H   0  0  0  0  0  0  0  0  0  0  0  0
  -38.1769   58.8200   63.3150 O   0  0  0  0  0  0  0  0  0  0  0  0
  -36.7939   57.1758   63.9813 O   0  0  0  0  0  0  0  0  0  0  0  0
  -37.5953   57.6106   63.2001 C   0  0  0  0  0  0  0  0  0  0  0  0
  -38.0808   56.8675   61.9942 C   0  0  0  0  0  0  0  0  0  0  0  0
  -37.4510   57.4073   60.7141 C   0  0  0  0  0  0  0  0  0  0  0  0
  -36.7006   56.3602   59.9074 C   0  0  0  0  0  0  0  0  0  0  0  0
  -35.7569   56.9527   58.8671 C   0  0  0  0  0  0  0  0  0  0  0  0
  -34.2902   56.8709   59.2470 C   0  0  0  0  0  0  0  0  0  0  0  0
  -33.9930   55.9696   60.4487 C   0  0  0  0  0  0  0  0  0  0  0  0
  -33.2372   56.6422   61.5967 C   0  0  0  0  0  0  0  0  0  0  0  0
  -33.9590   57.8487   62.1178 C   0  0  0  0  0  0  0  0  0  0  0  0
  -33.4107   58.9504   62.5919 C   0  0  0  0  0  0  0  0  0  0  0  0
  -31.9450   59.2277   62.7078 C   0  0  0  0  0  0  0  0  0  0  0  0
  -31.3750   59.8815   61.4523 C   0  0  0  0  0  0  0  0  0  0  0  0
  -30.0256   60.5436   61.6689 C   0  0  0  0  0  0  0  0  0  0  0  0
  -29.9914   61.4825   62.8625 C   0  0  0  0  0  0  0  0  0  0  0  0
  -29.7482   62.9405   62.5099 C   0  0  0  0  0  0  0  0  0  0  0  0
  -30.8348   63.8759   63.0182 C   0  0  0  0  0  0  0  0  0  0  0  0
  -31.8029   64.3436   61.9496 C   0  0  0  0  0  0  0  0  0  0  0  0
  -33.0649   63.5280   61.9111 C   0  0  0  0  0  0  0  0  0  0  0  0
 21 22  1  0  0  0
  4  5  2  0  0  0
 25 24  1  0  0  0
 25 26  2  0  0  0
 25 27  1  0  0  0
 25 29  1  0  0  0
 22 20  1  0  0  0
  3  5  1  0  0  0
  3  2  1  0  0  0
 20 19  1  0  0  0
 24 23  1  0  0  0
 19 18  1  0  0  0
 18 17  1  0  0  0
 27 28  1  0  0  0
 17 16  1  0  0  0
 29 30  1  0  0  0
 16 15  1  0  0  0
 34 35  1  0  0  0
 34 36  1  0  0  0
 15 14  1  0  0  0
 31 32  1  0  0  0
 31 33  1  0  0  0
 14 13  1  0  0  0
 37  1  1  0  0  0
 37 39  1  0  0  0
 13 12  1  0  0  0
 38 39  2  0  0  0
 12 11  1  0  0  0
 11 10  1  0  0  0
 10  9  1  0  0  0
  9  8  1  0  0  0
  8  7  1  0  0  0
  7  6  1  0  0  0
  6  5  1  0  0  0
  2  1  1  0  0  0
  1 23  1  0  0  0
 30 32  1  0  0  0
 32 35  1  0  0  0
 39 40  1  0  0  0
 40 41  1  0  0  0
 41 42  1  0  0  0
 42 43  1  0  0  0
 43 44  1  0  0  0
 44 45  1  0  0  0
 45 46  1  0  0  0
 46 47  1  0  0  0
 47 48  2  0  0  0
 48 49  1  0  0  0
 49 50  1  0  0  0
 50 51  1  0  0  0
 51 52  1  0  0  0
 52 53  1  0  0  0
 53 54  1  0  0  0
 54 55  1  0  0  0
 55 56  1  0  0  0
M  CHG 1  26  -1
M  END
> <minimizedAffinity>
-8.61997

> <CNNscore>
0.7444210649

> <CNNaffinity>
7.1799683571

> <CNN_VS>
5.3449196815

> <CNNaffinity_variance>
0.3499010503

$$$$
/media/chris/experiments/cd1a-new-docking/inputs/ligands/7sh4_ligand.pdb


 56 55  0  0  0  0  0  0  0  0999 V2000
  -38.2185   60.2617   65.3651 C   0  0  0  0  0  0  0  0  0  0  0  0
  -37.6428   58.9234   64.9971 C   0  0  0  0  0  0  0  0  0  0  0  0
  -37.6322   58.9328   63.5539 O   0  0  0  0  0  0  0  0  0  0  0  0
  -36.2929   57.1582   63.3151 O   0  0  0  0  0  0  0  0  0  0  0  0
  -37.2269   57.8176   62.9455 C   0  0  0  0  0  0  0  0  0  0  0  0
  -38.1593   57.4378   61.8314 C   0  0  0  0  0  0  0  0  0  0  0  0
  -37.4714   57.2169   60.4948 C   0  0  0  0  0  0  0  0  0  0  0  0
  -37.7669   58.3150   59.4950 C   0  0  0  0  0  0  0  0  0  0  0  0
  -37.3549   57.9890   58.0773 C   0  0  0  0  0  0  0  0  0  0  0  0
  -36.3632   56.8462   57.9955 C   0  0  0  0  0  0  0  0  0  0  0  0
  -34.9298   57.3091   57.9031 C   0  0  0  0  0  0  0  0  0  0  0  0
  -33.9385   56.2215   58.2227 C   0  0  0  0  0  0  0  0  0  0  0  0
  -33.8960   55.8603   59.6910 C   0  0  0  0  0  0  0  0  0  0  0  0
  -33.8291   57.0773   60.5913 C   0  0  0  0  0  0  0  0  0  0  0  0
  -33.0654   56.8518   61.8794 C   0  0  0  0  0  0  0  0  0  0  0  0
  -32.1262   57.9949   62.2471 C   0  0  0  0  0  0  0  0  0  0  0  0
  -32.8260   59.3237   62.4584 C   0  0  0  0  0  0  0  0  0  0  0  0
  -31.9111   60.5194   62.2897 C   0  0  0  0  0  0  0  0  0  0  0  0
  -30.4595   60.1446   62.0249 C   0  0  0  0  0  0  0  0  0  0  0  0
  -29.5144   61.3328   62.0307 C   0  0  0  0  0  0  0  0  0  0  0  0
  -29.5239   63.8494   62.0786 C   0  0  0  0  0  0  0  0  0  0  0  0
  -30.0666   62.5799   62.6947 C   0  0  0  0  0  0  0  0  0  0  0  0
  -37.2724   61.0705   66.2151 C   0  0  0  0  0  0  0  0  0  0  0  0
  -36.7951   62.1932   65.4403 O   0  0  0  0  0  0  0  0  0  0  0  0
  -36.0857   63.4656   66.1031 P   0  0  0  0  0  0  0  0  0  0  0  0
  -36.5301   64.6709   65.3706 O   0  0  0  0  0  0  0  0  0  0  0  0
  -36.3014   63.4030   67.5688 O   0  0  0  0  0  0  0  0  0  0  0  0
  -37.2448   63.5191   67.7621 H   0  0  0  0  0  0  0  0  0  0  0  0
  -34.5271   63.2710   65.8286 O   0  0  0  0  0  0  0  0  0  0  0  0
  -34.0057   63.4203   64.4922 C   0  0  0  0  0  0  0  0  0  0  0  0
  -33.9821   65.8052   64.2583 O   0  0  0  0  0  0  0  0  0  0  0  0
  -33.1465   64.6601   64.4524 C   0  0  0  0  0  0  0  0  0  0  0  0
  -34.5093   65.6878   63.4525 H   0  0  0  0  0  0  0  0  0  0  0  0
  -30.9420   64.5950   65.4294 O   0  0  0  0  0  0  0  0  0  0  0  0
  -32.3179   64.8257   65.7037 C   0  0  0  0  0  0  0  0  0  0  0  0
  -30.4269   64.7058   66.2438 H   0  0  0  0  0  0  0  0  0  0  0  0
  -39.5010   60.0423   66.0410 O   0  0  0  0  0  0  0  0  0  0  0  0
  -40.9075   61.0087   64.5754 O   0  0  0  0  0  0  0  0  0  0  0  0
  -40.6088   60.0803   65.2759 C   0  0  0  0  0  0  0  0  0  0  0  0
  -41.4116   58.8214   65.3890 C   0  0  0  0  0  0  0  0  0  0  0  0
  -42.2992   58.8342   66.6294 C   0  0  0  0  0  0  0  0  0  0  0  0
  -43.7507   59.1842   66.3449 C   0  0  0  0  0  0  0  0  0  0  0  0
  -44.5924   57.9894   65.9113 C   0  0  0  0  0  0  0  0  0  0  0  0
  -46.0534   58.0870   66.3092 C   0  0  0  0  0  0  0  0  0  0  0  0
  -46.8104   59.2551   65.6709 C   0  0  0  0  0  0  0  0  0  0  0  0
  -48.2336   59.4705   66.1899 C   0  0  0  0  0  0  0  0  0  0  0  0
  -49.1209   58.2948   65.9101 C   0  0  0  0  0  0  0  0  0  0  0  0
  -50.1878   58.2803   65.1349 C   0  0  0  0  0  0  0  0  0  0  0  0
  -50.7372   59.4413   64.3676 C   0  0  0  0  0  0  0  0  0  0  0  0
  -51.2368   59.0399   62.9828 C   0  0  0  0  0  0  0  0  0  0  0  0
  -50.3333   58.0467   62.2731 C   0  0  0  0  0  0  0  0  0  0  0  0
  -51.0114   57.3161   61.1270 C   0  0  0  0  0  0  0  0  0  0  0  0
  -50.3521   57.5190   59.7730 C   0  0  0  0  0  0  0  0  0  0  0  0
  -48.9230   58.0319   59.8660 C   0  0  0  0  0  0  0  0  0  0  0  0
  -47.8651   56.9593   59.6981 C   0  0  0  0  0  0  0  0  0  0  0  0
  -46.6471   57.4532   58.9685 C   0  0  0  0  0  0  0  0  0  0  0  0
 21 22  1  0  0  0
  4  5  2  0  0  0
 25 24  1  0  0  0
 25 26  2  0  0  0
 25 27  1  0  0  0
 25 29  1  0  0  0
 22 20  1  0  0  0
  3  5  1  0  0  0
  3  2  1  0  0  0
 20 19  1  0  0  0
 24 23  1  0  0  0
 19 18  1  0  0  0
 18 17  1  0  0  0
 27 28  1  0  0  0
 17 16  1  0  0  0
 29 30  1  0  0  0
 16 15  1  0  0  0
 34 35  1  0  0  0
 34 36  1  0  0  0
 15 14  1  0  0  0
 31 32  1  0  0  0
 31 33  1  0  0  0
 14 13  1  0  0  0
 37  1  1  0  0  0
 37 39  1  0  0  0
 13 12  1  0  0  0
 38 39  2  0  0  0
 12 11  1  0  0  0
 11 10  1  0  0  0
 10  9  1  0  0  0
  9  8  1  0  0  0
  8  7  1  0  0  0
  7  6  1  0  0  0
  6  5  1  0  0  0
  2  1  1  0  0  0
  1 23  1  0  0  0
 30 32  1  0  0  0
 32 35  1  0  0  0
 39 40  1  0  0  0
 40 41  1  0  0  0
 41 42  1  0  0  0
 42 43  1  0  0  0
 43 44  1  0  0  0
 44 45  1  0  0  0
 45 46  1  0  0  0
 46 47  1  0  0  0
 47 48  2  0  0  0
 48 49  1  0  0  0
 49 50  1  0  0  0
 50 51  1  0  0  0
 51 52  1  0  0  0
 52 53  1  0  0  0
 53 54  1  0  0  0
 54 55  1  0  0  0
 55 56  1  0  0  0
M  CHG 1  26  -1
M  END
> <minimizedAffinity>
-9.15134

> <CNNscore>
0.7202623487

> <CNNaffinity>
7.2143430710

> <CNN_VS>
5.1962199211

> <CNNaffinity_variance>
0.6047123671

$$$$
/media/chris/experiments/cd1a-new-docking/inputs/ligands/7sh4_ligand.pdb


 56 55  0  0  0  0  0  0  0  0999 V2000
  -39.4653   58.9526   64.8600 C   0  0  0  0  0  0  0  0  0  0  0  0
  -39.1741   57.7635   63.9888 C   0  0  0  0  0  0  0  0  0  0  0  0
  -37.9602   58.1261   63.2974 O   0  0  0  0  0  0  0  0  0  0  0  0
  -38.0903   56.5485   61.7180 O   0  0  0  0  0  0  0  0  0  0  0  0
  -37.8140   57.6688   62.0534 C   0  0  0  0  0  0  0  0  0  0  0  0
  -37.3846   58.7637   61.1198 C   0  0  0  0  0  0  0  0  0  0  0  0
  -38.0474   58.7097   59.7536 C   0  0  0  0  0  0  0  0  0  0  0  0
  -37.0530   58.5257   58.6267 C   0  0  0  0  0  0  0  0  0  0  0  0
  -37.3615   57.3616   57.7126 C   0  0  0  0  0  0  0  0  0  0  0  0
  -36.3081   56.2734   57.7614 C   0  0  0  0  0  0  0  0  0  0  0  0
  -36.1907   55.6207   59.1170 C   0  0  0  0  0  0  0  0  0  0  0  0
  -34.7673   55.5115   59.5962 C   0  0  0  0  0  0  0  0  0  0  0  0
  -34.5329   56.1712   60.9371 C   0  0  0  0  0  0  0  0  0  0  0  0
  -33.8737   57.5300   60.8137 C   0  0  0  0  0  0  0  0  0  0  0  0
  -33.7273   58.2675   62.1282 C   0  0  0  0  0  0  0  0  0  0  0  0
  -32.2799   58.5098   62.5409 C   0  0  0  0  0  0  0  0  0  0  0  0
  -31.6979   59.8074   62.0141 C   0  0  0  0  0  0  0  0  0  0  0  0
  -30.1929   59.8965   62.1632 C   0  0  0  0  0  0  0  0  0  0  0  0
  -29.6665   61.3245   62.1973 C   0  0  0  0  0  0  0  0  0  0  0  0
  -30.6283   62.3409   61.6082 C   0  0  0  0  0  0  0  0  0  0  0  0
  -30.5495   63.2601   63.9501 C   0  0  0  0  0  0  0  0  0  0  0  0
  -30.9404   63.5181   62.5127 C   0  0  0  0  0  0  0  0  0  0  0  0
  -38.2913   59.3165   65.7323 C   0  0  0  0  0  0  0  0  0  0  0  0
  -38.2959   60.7457   65.9460 O   0  0  0  0  0  0  0  0  0  0  0  0
  -37.2071   61.7233   65.2976 P   0  0  0  0  0  0  0  0  0  0  0  0
  -37.6579   62.0695   63.9324 O   0  0  0  0  0  0  0  0  0  0  0  0
  -36.9404   62.8199   66.2592 O   0  0  0  0  0  0  0  0  0  0  0  0
  -37.7358   63.3668   66.3547 H   0  0  0  0  0  0  0  0  0  0  0  0
  -35.8788   60.8503   65.1694 O   0  0  0  0  0  0  0  0  0  0  0  0
  -34.5911   61.4581   65.3984 C   0  0  0  0  0  0  0  0  0  0  0  0
  -34.8843   61.5363   63.0213 O   0  0  0  0  0  0  0  0  0  0  0  0
  -34.1181   62.0727   64.1040 C   0  0  0  0  0  0  0  0  0  0  0  0
  -34.8153   60.5687   63.0247 H   0  0  0  0  0  0  0  0  0  0  0  0
  -35.2961   64.0193   63.3033 O   0  0  0  0  0  0  0  0  0  0  0  0
  -34.2142   63.5795   64.1142 C   0  0  0  0  0  0  0  0  0  0  0  0
  -35.3416   64.9880   63.3225 H   0  0  0  0  0  0  0  0  0  0  0  0
  -40.6613   58.6596   65.6560 O   0  0  0  0  0  0  0  0  0  0  0  0
  -41.8919   60.0234   64.3577 O   0  0  0  0  0  0  0  0  0  0  0  0
  -41.8080   59.2561   65.2774 C   0  0  0  0  0  0  0  0  0  0  0  0
  -42.9664   58.8341   66.1272 C   0  0  0  0  0  0  0  0  0  0  0  0
  -44.2969   59.1016   65.4309 C   0  0  0  0  0  0  0  0  0  0  0  0
  -44.9697   57.8521   64.8865 C   0  0  0  0  0  0  0  0  0  0  0  0
  -45.4147   56.8774   65.9708 C   0  0  0  0  0  0  0  0  0  0  0  0
  -46.9176   56.6830   66.0467 C   0  0  0  0  0  0  0  0  0  0  0  0
  -47.7305   57.6678   65.2016 C   0  0  0  0  0  0  0  0  0  0  0  0
  -48.8933   58.3457   65.9295 C   0  0  0  0  0  0  0  0  0  0  0  0
  -50.2042   58.1118   65.2404 C   0  0  0  0  0  0  0  0  0  0  0  0
  -50.7574   58.8771   64.3198 C   0  0  0  0  0  0  0  0  0  0  0  0
  -50.1875   60.1452   63.7670 C   0  0  0  0  0  0  0  0  0  0  0  0
  -49.5527   59.9481   62.3935 C   0  0  0  0  0  0  0  0  0  0  0  0
  -50.0005   58.6780   61.6916 C   0  0  0  0  0  0  0  0  0  0  0  0
  -48.8511   57.8021   61.2237 C   0  0  0  0  0  0  0  0  0  0  0  0
  -48.9556   57.3452   59.7782 C   0  0  0  0  0  0  0  0  0  0  0  0
  -47.6308   56.8804   59.1927 C   0  0  0  0  0  0  0  0  0  0  0  0
  -47.7684   55.9373   58.0140 C   0  0  0  0  0  0  0  0  0  0  0  0
  -47.5814   56.6279   56.6919 C   0  0  0  0  0  0  0  0  0  0  0  0
 21 22  1  0  0  0
  4  5  2  0  0  0
 25 24  1  0  0  0
 25 26  2  0  0  0
 25 27  1  0  0  0
 25 29  1  0  0  0
 22 20  1  0  0  0
  3  5  1  0  0  0
  3  2  1  0  0  0
 20 19  1  0  0  0
 24 23  1  0  0  0
 19 18  1  0  0  0
 18 17  1  0  0  0
 27 28  1  0  0  0
 17 16  1  0  0  0
 29 30  1  0  0  0
 16 15  1  0  0  0
 34 35  1  0  0  0
 34 36  1  0  0  0
 15 14  1  0  0  0
 31 32  1  0  0  0
 31 33  1  0  0  0
 14 13  1  0  0  0
 37  1  1  0  0  0
 37 39  1  0  0  0
 13 12  1  0  0  0
 38 39  2  0  0  0
 12 11  1  0  0  0
 11 10  1  0  0  0
 10  9  1  0  0  0
  9  8  1  0  0  0
  8  7  1  0  0  0
  7  6  1  0  0  0
  6  5  1  0  0  0
  2  1  1  0  0  0
  1 23  1  0  0  0
 30 32  1  0  0  0
 32 35  1  0  0  0
 39 40  1  0  0  0
 40 41  1  0  0  0
 41 42  1  0  0  0
 42 43  1  0  0  0
 43 44  1  0  0  0
 44 45  1  0  0  0
 45 46  1  0  0  0
 46 47  1  0  0  0
 47 48  2  0  0  0
 48 49  1  0  0  0
 49 50  1  0  0  0
 50 51  1  0  0  0
 51 52  1  0  0  0
 52 53  1  0  0  0
 53 54  1  0  0  0
 54 55  1  0  0  0
 55 56  1  0  0  0
M  CHG 1  26  -1
M  END
> <minimizedAffinity>
-8.26845

> <CNNscore>
0.6104320884

> <CNNaffinity>
7.2533998489

> <CNN_VS>
4.4277081490

> <CNNaffinity_variance>
0.6795705557

$$$$
/media/chris/experiments/cd1a-new-docking/inputs/ligands/7sh4_ligand.pdb


 56 55  0  0  0  0  0  0  0  0999 V2000
  -38.2198   60.2249   62.2026 C   0  0  0  0  0  0  0  0  0  0  0  0
  -39.7072   60.4294   62.1455 C   0  0  0  0  0  0  0  0  0  0  0  0
  -40.2174   59.5775   63.1929 O   0  0  0  0  0  0  0  0  0  0  0  0
  -41.0535   61.3500   64.2696 O   0  0  0  0  0  0  0  0  0  0  0  0
  -40.9538   60.1596   64.1400 C   0  0  0  0  0  0  0  0  0  0  0  0
  -41.7274   59.1419   64.9278 C   0  0  0  0  0  0  0  0  0  0  0  0
  -41.8225   59.4482   66.4129 C   0  0  0  0  0  0  0  0  0  0  0  0
  -42.9131   58.6586   67.1056 C   0  0  0  0  0  0  0  0  0  0  0  0
  -43.2133   57.3229   66.4641 C   0  0  0  0  0  0  0  0  0  0  0  0
  -44.6822   57.1357   66.1428 C   0  0  0  0  0  0  0  0  0  0  0  0
  -45.0332   57.5146   64.7248 C   0  0  0  0  0  0  0  0  0  0  0  0
  -46.3814   58.1752   64.6088 C   0  0  0  0  0  0  0  0  0  0  0  0
  -46.5182   59.4149   65.4647 C   0  0  0  0  0  0  0  0  0  0  0  0
  -47.9110   59.5792   66.0385 C   0  0  0  0  0  0  0  0  0  0  0  0
  -48.8312   58.4062   65.7728 C   0  0  0  0  0  0  0  0  0  0  0  0
  -50.3101   58.7754   65.7531 C   0  0  0  0  0  0  0  0  0  0  0  0
  -50.8164   59.2194   64.3942 C   0  0  0  0  0  0  0  0  0  0  0  0
  -50.3156   58.3569   63.2539 C   0  0  0  0  0  0  0  0  0  0  0  0
  -51.2516   58.3284   62.0536 C   0  0  0  0  0  0  0  0  0  0  0  0
  -50.9289   57.2291   61.0573 C   0  0  0  0  0  0  0  0  0  0  0  0
  -48.7043   57.0406   59.8948 C   0  0  0  0  0  0  0  0  0  0  0  0
  -50.0793   57.6687   59.8800 C   0  0  0  0  0  0  0  0  0  0  0  0
  -37.5627   61.1270   63.2156 C   0  0  0  0  0  0  0  0  0  0  0  0
  -36.2603   61.5109   62.7210 O   0  0  0  0  0  0  0  0  0  0  0  0
  -35.4491   62.7651   63.2961 P   0  0  0  0  0  0  0  0  0  0  0  0
  -34.0903   62.7379   62.7133 O   0  0  0  0  0  0  0  0  0  0  0  0
  -36.2806   63.9782   63.1081 O   0  0  0  0  0  0  0  0  0  0  0  0
  -36.3762   64.1610   62.1602 H   0  0  0  0  0  0  0  0  0  0  0  0
  -35.3167   62.5000   64.8629 O   0  0  0  0  0  0  0  0  0  0  0  0
  -35.9996   63.3576   65.8000 C   0  0  0  0  0  0  0  0  0  0  0  0
  -34.3829   62.9457   67.5203 O   0  0  0  0  0  0  0  0  0  0  0  0
  -34.9721   63.9733   66.7177 C   0  0  0  0  0  0  0  0  0  0  0  0
  -35.0794   62.4717   68.0010 H   0  0  0  0  0  0  0  0  0  0  0  0
  -34.4794   65.5544   64.9640 O   0  0  0  0  0  0  0  0  0  0  0  0
  -33.9012   64.7222   65.9614 C   0  0  0  0  0  0  0  0  0  0  0  0
  -33.7771   66.0265   64.4898 H   0  0  0  0  0  0  0  0  0  0  0  0
  -37.6734   60.4321   60.8578 O   0  0  0  0  0  0  0  0  0  0  0  0
  -39.1847   60.2382   59.2030 O   0  0  0  0  0  0  0  0  0  0  0  0
  -38.2791   59.7817   59.8458 C   0  0  0  0  0  0  0  0  0  0  0  0
  -37.6768   58.4318   59.6069 C   0  0  0  0  0  0  0  0  0  0  0  0
  -37.0628   58.3324   58.2142 C   0  0  0  0  0  0  0  0  0  0  0  0
  -36.0663   57.1951   58.0597 C   0  0  0  0  0  0  0  0  0  0  0  0
  -36.6204   55.8378   58.4776 C   0  0  0  0  0  0  0  0  0  0  0  0
  -35.7559   55.1018   59.4841 C   0  0  0  0  0  0  0  0  0  0  0  0
  -34.3573   55.6949   59.6763 C   0  0  0  0  0  0  0  0  0  0  0  0
  -34.0119   56.0980   61.1114 C   0  0  0  0  0  0  0  0  0  0  0  0
  -34.6507   57.3968   61.5025 C   0  0  0  0  0  0  0  0  0  0  0  0
  -34.1637   58.2938   62.3379 C   0  0  0  0  0  0  0  0  0  0  0  0
  -32.8636   58.2016   63.0724 C   0  0  0  0  0  0  0  0  0  0  0  0
  -31.6848   58.6848   62.2326 C   0  0  0  0  0  0  0  0  0  0  0  0
  -31.7261   60.1708   61.9221 C   0  0  0  0  0  0  0  0  0  0  0  0
  -30.3822   60.7449   61.5078 C   0  0  0  0  0  0  0  0  0  0  0  0
  -29.6445   61.4819   62.6131 C   0  0  0  0  0  0  0  0  0  0  0  0
  -30.5357   62.4159   63.4177 C   0  0  0  0  0  0  0  0  0  0  0  0
  -30.3089   63.8880   63.1362 C   0  0  0  0  0  0  0  0  0  0  0  0
  -31.0361   64.3642   61.9098 C   0  0  0  0  0  0  0  0  0  0  0  0
 21 22  1  0  0  0
  4  5  2  0  0  0
 25 24  1  0  0  0
 25 26  2  0  0  0
 25 27  1  0  0  0
 25 29  1  0  0  0
 22 20  1  0  0  0
  3  5  1  0  0  0
  3  2  1  0  0  0
 20 19  1  0  0  0
 24 23  1  0  0  0
 19 18  1  0  0  0
 18 17  1  0  0  0
 27 28  1  0  0  0
 17 16  1  0  0  0
 29 30  1  0  0  0
 16 15  1  0  0  0
 34 35  1  0  0  0
 34 36  1  0  0  0
 15 14  1  0  0  0
 31 32  1  0  0  0
 31 33  1  0  0  0
 14 13  1  0  0  0
 37  1  1  0  0  0
 37 39  1  0  0  0
 13 12  1  0  0  0
 38 39  2  0  0  0
 12 11  1  0  0  0
 11 10  1  0  0  0
 10  9  1  0  0  0
  9  8  1  0  0  0
  8  7  1  0  0  0
  7  6  1  0  0  0
  6  5  1  0  0  0
  2  1  1  0  0  0
  1 23  1  0  0  0
 30 32  1  0  0  0
 32 35  1  0  0  0
 39 40  1  0  0  0
 40 41  1  0  0  0
 41 42  1  0  0  0
 42 43  1  0  0  0
 43 44  1  0  0  0
 44 45  1  0  0  0
 45 46  1  0  0  0
 46 47  1  0  0  0
 47 48  2  0  0  0
 48 49  1  0  0  0
 49 50  1  0  0  0
 50 51  1  0  0  0
 51 52  1  0  0  0
 52 53  1  0  0  0
 53 54  1  0  0  0
 54 55  1  0  0  0
 55 56  1  0  0  0
M  CHG 1  26  -1
M  END
> <minimizedAffinity>
-9.07516

> <CNNscore>
0.6018629670

> <CNNaffinity>
7.0870170593

> <CNN_VS>
4.2654132843

> <CNNaffinity_variance>
0.8901336789

$$$$
/media/chris/experiments/cd1a-new-docking/inputs/ligands/7sh4_ligand.pdb


 56 55  0  0  0  0  0  0  0  0999 V2000
  -37.4134   60.0859   65.1639 C   0  0  0  0  0  0  0  0  0  0  0  0
  -38.7527   59.9719   65.8353 C   0  0  0  0  0  0  0  0  0  0  0  0
  -39.6620   60.6052   64.9105 O   0  0  0  0  0  0  0  0  0  0  0  0
  -41.3788   59.7961   63.7282 O   0  0  0  0  0  0  0  0  0  0  0  0
  -40.8727   60.0607   64.7854 C   0  0  0  0  0  0  0  0  0  0  0  0
  -41.4525   59.7131   66.1262 C   0  0  0  0  0  0  0  0  0  0  0  0
  -42.3825   58.5117   66.1075 C   0  0  0  0  0  0  0  0  0  0  0  0
  -43.8439   58.9005   66.1856 C   0  0  0  0  0  0  0  0  0  0  0  0
  -44.6117   58.6843   64.9013 C   0  0  0  0  0  0  0  0  0  0  0  0
  -46.0720   58.3520   65.1317 C   0  0  0  0  0  0  0  0  0  0  0  0
  -46.7198   59.2194   66.1832 C   0  0  0  0  0  0  0  0  0  0  0  0
  -48.1943   59.4207   65.9532 C   0  0  0  0  0  0  0  0  0  0  0  0
  -48.9721   58.1256   65.8750 C   0  0  0  0  0  0  0  0  0  0  0  0
  -50.4018   58.3284   65.4155 C   0  0  0  0  0  0  0  0  0  0  0  0
  -50.5572   59.3568   64.3149 C   0  0  0  0  0  0  0  0  0  0  0  0
  -51.0347   58.7736   62.9898 C   0  0  0  0  0  0  0  0  0  0  0  0
  -49.9528   58.0540   62.2076 C   0  0  0  0  0  0  0  0  0  0  0  0
  -49.7286   58.6270   60.8233 C   0  0  0  0  0  0  0  0  0  0  0  0
  -50.0977   57.6690   59.6992 C   0  0  0  0  0  0  0  0  0  0  0  0
  -49.0272   56.6324   59.4081 C   0  0  0  0  0  0  0  0  0  0  0  0
  -46.6208   57.3601   59.2848 C   0  0  0  0  0  0  0  0  0  0  0  0
  -47.8999   57.1172   58.5164 C   0  0  0  0  0  0  0  0  0  0  0  0
  -36.9532   61.5172   65.0577 C   0  0  0  0  0  0  0  0  0  0  0  0
  -35.8182   61.7070   65.9317 O   0  0  0  0  0  0  0  0  0  0  0  0
  -35.4432   63.1257   66.5710 P   0  0  0  0  0  0  0  0  0  0  0  0
  -36.6998   63.8707   66.8010 O   0  0  0  0  0  0  0  0  0  0  0  0
  -34.5351   62.8891   67.7190 O   0  0  0  0  0  0  0  0  0  0  0  0
  -35.0155   62.4226   68.4207 H   0  0  0  0  0  0  0  0  0  0  0  0
  -34.6174   63.8923   65.4428 O   0  0  0  0  0  0  0  0  0  0  0  0
  -33.1894   64.0466   65.5733 C   0  0  0  0  0  0  0  0  0  0  0  0
  -33.9277   66.1057   64.5946 O   0  0  0  0  0  0  0  0  0  0  0  0
  -32.8377   65.4851   65.2831 C   0  0  0  0  0  0  0  0  0  0  0  0
  -34.1331   65.6003   63.7924 H   0  0  0  0  0  0  0  0  0  0  0  0
  -33.2933   65.8095   67.6294 O   0  0  0  0  0  0  0  0  0  0  0  0
  -32.5041   66.2593   66.5356 C   0  0  0  0  0  0  0  0  0  0  0  0
  -33.0650   66.3177   68.4234 H   0  0  0  0  0  0  0  0  0  0  0  0
  -37.5011   59.4461   63.8475 O   0  0  0  0  0  0  0  0  0  0  0  0
  -36.7033   57.4308   64.4492 O   0  0  0  0  0  0  0  0  0  0  0  0
  -37.4770   58.0998   63.8201 C   0  0  0  0  0  0  0  0  0  0  0  0
  -38.5401   57.5381   62.9278 C   0  0  0  0  0  0  0  0  0  0  0  0
  -38.2257   57.7902   61.4566 C   0  0  0  0  0  0  0  0  0  0  0  0
  -38.8640   59.0511   60.8972 C   0  0  0  0  0  0  0  0  0  0  0  0
  -38.2118   59.5457   59.6112 C   0  0  0  0  0  0  0  0  0  0  0  0
  -37.9130   58.4466   58.6087 C   0  0  0  0  0  0  0  0  0  0  0  0
  -36.4310   58.2924   58.2559 C   0  0  0  0  0  0  0  0  0  0  0  0
  -35.9569   56.8523   58.0487 C   0  0  0  0  0  0  0  0  0  0  0  0
  -34.5145   56.6740   58.4170 C   0  0  0  0  0  0  0  0  0  0  0  0
  -34.0283   56.4888   59.6289 C   0  0  0  0  0  0  0  0  0  0  0  0
  -34.8204   56.4162   60.8961 C   0  0  0  0  0  0  0  0  0  0  0  0
  -34.2540   57.3175   61.9893 C   0  0  0  0  0  0  0  0  0  0  0  0
  -32.8426   57.8030   61.7085 C   0  0  0  0  0  0  0  0  0  0  0  0
  -32.5316   59.1593   62.3175 C   0  0  0  0  0  0  0  0  0  0  0  0
  -31.2547   59.8027   61.8030 C   0  0  0  0  0  0  0  0  0  0  0  0
  -31.1399   61.2801   62.1469 C   0  0  0  0  0  0  0  0  0  0  0  0
  -32.4672   61.9611   62.4157 C   0  0  0  0  0  0  0  0  0  0  0  0
  -32.4873   63.3945   61.9633 C   0  0  0  0  0  0  0  0  0  0  0  0
 21 22  1  0  0  0
  4  5  2  0  0  0
 25 24  1  0  0  0
 25 26  2  0  0  0
 25 27  1  0  0  0
 25 29  1  0  0  0
 22 20  1  0  0  0
  3  5  1  0  0  0
  3  2  1  0  0  0
 20 19  1  0  0  0
 24 23  1  0  0  0
 19 18  1  0  0  0
 18 17  1  0  0  0
 27 28  1  0  0  0
 17 16  1  0  0  0
 29 30  1  0  0  0
 16 15  1  0  0  0
 34 35  1  0  0  0
 34 36  1  0  0  0
 15 14  1  0  0  0
 31 32  1  0  0  0
 31 33  1  0  0  0
 14 13  1  0  0  0
 37  1  1  0  0  0
 37 39  1  0  0  0
 13 12  1  0  0  0
 38 39  2  0  0  0
 12 11  1  0  0  0
 11 10  1  0  0  0
 10  9  1  0  0  0
  9  8  1  0  0  0
  8  7  1  0  0  0
  7  6  1  0  0  0
  6  5  1  0  0  0
  2  1  1  0  0  0
  1 23  1  0  0  0
 30 32  1  0  0  0
 32 35  1  0  0  0
 39 40  1  0  0  0
 40 41  1  0  0  0
 41 42  1  0  0  0
 42 43  1  0  0  0
 43 44  1  0  0  0
 44 45  1  0  0  0
 45 46  1  0  0  0
 46 47  1  0  0  0
 47 48  2  0  0  0
 48 49  1  0  0  0
 49 50  1  0  0  0
 50 51  1  0  0  0
 51 52  1  0  0  0
 52 53  1  0  0  0
 53 54  1  0  0  0
 54 55  1  0  0  0
 55 56  1  0  0  0
M  CHG 1  26  -1
M  END
> <minimizedAffinity>
-9.11418

> <CNNscore>
0.5725299716

> <CNNaffinity>
7.2687101364

> <CNN_VS>
4.1615543365

> <CNNaffinity_variance>
0.8874371648

$$$$
