/media/chris/experiments/cd1a-new-docking/inputs/ligands/7sh4_ligand.pdb


 56 55  0  0  0  0  0  0  0  0999 V2000
  -38.4485   59.1792   63.5727 C   0  0  0  0  0  0  0  0  0  0  0  0
  -39.5300   58.3528   64.2092 C   0  0  0  0  0  0  0  0  0  0  0  0
  -40.7054   59.1854   64.1173 O   0  0  0  0  0  0  0  0  0  0  0  0
  -40.9816   59.6228   66.2926 O   0  0  0  0  0  0  0  0  0  0  0  0
  -41.4380   59.3202   65.2232 C   0  0  0  0  0  0  0  0  0  0  0  0
  -42.9022   59.1692   64.9258 C   0  0  0  0  0  0  0  0  0  0  0  0
  -43.7740   59.0183   66.1610 C   0  0  0  0  0  0  0  0  0  0  0  0
  -45.2094   58.6717   65.8266 C   0  0  0  0  0  0  0  0  0  0  0  0
  -46.0405   58.2569   67.0194 C   0  0  0  0  0  0  0  0  0  0  0  0
  -46.9021   57.0402   66.7483 C   0  0  0  0  0  0  0  0  0  0  0  0
  -47.8150   57.2120   65.5589 C   0  0  0  0  0  0  0  0  0  0  0  0
  -49.2037   57.6511   65.9416 C   0  0  0  0  0  0  0  0  0  0  0  0
  -49.5046   59.0853   65.5664 C   0  0  0  0  0  0  0  0  0  0  0  0
  -48.9263   59.4716   64.2201 C   0  0  0  0  0  0  0  0  0  0  0  0
  -49.8968   60.2048   63.3180 C   0  0  0  0  0  0  0  0  0  0  0  0
  -50.9211   59.2962   62.6475 C   0  0  0  0  0  0  0  0  0  0  0  0
  -50.3812   57.9291   62.2742 C   0  0  0  0  0  0  0  0  0  0  0  0
  -51.0630   57.3222   61.0651 C   0  0  0  0  0  0  0  0  0  0  0  0
  -50.3113   57.5514   59.7614 C   0  0  0  0  0  0  0  0  0  0  0  0
  -48.9909   56.8058   59.6821 C   0  0  0  0  0  0  0  0  0  0  0  0
  -46.5638   57.3598   59.3107 C   0  0  0  0  0  0  0  0  0  0  0  0
  -47.9666   57.4260   58.7508 C   0  0  0  0  0  0  0  0  0  0  0  0
  -37.9826   60.2934   64.4744 C   0  0  0  0  0  0  0  0  0  0  0  0
  -37.8308   61.4960   63.6876 O   0  0  0  0  0  0  0  0  0  0  0  0
  -36.4335   62.2613   63.5336 P   0  0  0  0  0  0  0  0  0  0  0  0
  -35.3828   61.4253   64.1532 O   0  0  0  0  0  0  0  0  0  0  0  0
  -36.2805   62.6616   62.1141 O   0  0  0  0  0  0  0  0  0  0  0  0
  -36.1887   61.8688   61.5627 H   0  0  0  0  0  0  0  0  0  0  0  0
  -36.5812   63.5893   64.4039 O   0  0  0  0  0  0  0  0  0  0  0  0
  -35.4213   64.1737   65.0309 C   0  0  0  0  0  0  0  0  0  0  0  0
  -36.9933   64.3024   66.8351 O   0  0  0  0  0  0  0  0  0  0  0  0
  -35.6088   64.1147   66.5271 C   0  0  0  0  0  0  0  0  0  0  0  0
  -37.2993   65.1390   66.4514 H   0  0  0  0  0  0  0  0  0  0  0  0
  -36.1544   61.8456   67.1369 O   0  0  0  0  0  0  0  0  0  0  0  0
  -35.1151   62.8156   67.1175 C   0  0  0  0  0  0  0  0  0  0  0  0
  -35.8187   61.0196   67.5189 H   0  0  0  0  0  0  0  0  0  0  0  0
  -38.9513   59.6915   62.2942 O   0  0  0  0  0  0  0  0  0  0  0  0
  -37.6071   60.4449   60.6553 O   0  0  0  0  0  0  0  0  0  0  0  0
  -38.1549   59.5372   61.2189 C   0  0  0  0  0  0  0  0  0  0  0  0
  -38.0202   58.0994   60.8231 C   0  0  0  0  0  0  0  0  0  0  0  0
  -37.6324   57.9581   59.3546 C   0  0  0  0  0  0  0  0  0  0  0  0
  -36.7758   56.7381   59.0580 C   0  0  0  0  0  0  0  0  0  0  0  0
  -35.5536   57.0450   58.2004 C   0  0  0  0  0  0  0  0  0  0  0  0
  -34.2435   57.0306   58.9657 C   0  0  0  0  0  0  0  0  0  0  0  0
  -34.0351   55.7966   59.8482 C   0  0  0  0  0  0  0  0  0  0  0  0
  -33.8358   56.0868   61.3374 C   0  0  0  0  0  0  0  0  0  0  0  0
  -34.4460   57.3944   61.7447 C   0  0  0  0  0  0  0  0  0  0  0  0
  -33.8145   58.4318   62.2588 C   0  0  0  0  0  0  0  0  0  0  0  0
  -32.3483   58.5206   62.5427 C   0  0  0  0  0  0  0  0  0  0  0  0
  -31.6288   59.4772   61.5962 C   0  0  0  0  0  0  0  0  0  0  0  0
  -31.0156   60.6786   62.2940 C   0  0  0  0  0  0  0  0  0  0  0  0
  -31.9264   61.8937   62.3295 C   0  0  0  0  0  0  0  0  0  0  0  0
  -31.2475   63.2006   61.9547 C   0  0  0  0  0  0  0  0  0  0  0  0
  -31.2307   64.2198   63.0837 C   0  0  0  0  0  0  0  0  0  0  0  0
  -31.2504   63.6109   64.4718 C   0  0  0  0  0  0  0  0  0  0  0  0
  -31.7702   64.5596   65.5156 C   0  0  0  0  0  0  0  0  0  0  0  0
 21 22  1  0  0  0
  4  5  2  0  0  0
 25 24  1  0  0  0
 25 26  2  0  0  0
 25 27  1  0  0  0
 25 29  1  0  0  0
 22 20  1  0  0  0
  3  5  1  0  0  0
  3  2  1  0  0  0
 20 19  1  0  0  0
 24 23  1  0  0  0
 19 18  1  0  0  0
 18 17  1  0  0  0
 27 28  1  0  0  0
 17 16  1  0  0  0
 29 30  1  0  0  0
 16 15  1  0  0  0
 34 35  1  0  0  0
 34 36  1  0  0  0
 15 14  1  0  0  0
 31 32  1  0  0  0
 31 33  1  0  0  0
 14 13  1  0  0  0
 37  1  1  0  0  0
 37 39  1  0  0  0
 13 12  1  0  0  0
 38 39  2  0  0  0
 12 11  1  0  0  0
 11 10  1  0  0  0
 10  9  1  0  0  0
  9  8  1  0  0  0
  8  7  1  0  0  0
  7  6  1  0  0  0
  6  5  1  0  0  0
  2  1  1  0  0  0
  1 23  1  0  0  0
 30 32  1  0  0  0
 32 35  1  0  0  0
 39 40  1  0  0  0
 40 41  1  0  0  0
 41 42  1  0  0  0
 42 43  1  0  0  0
 43 44  1  0  0  0
 44 45  1  0  0  0
 45 46  1  0  0  0
 46 47  1  0  0  0
 47 48  2  0  0  0
 48 49  1  0  0  0
 49 50  1  0  0  0
 50 51  1  0  0  0
 51 52  1  0  0  0
 52 53  1  0  0  0
 53 54  1  0  0  0
 54 55  1  0  0  0
 55 56  1  0  0  0
M  CHG 1  26  -1
M  END
> <minimizedAffinity>
-8.55710

> <CNNscore>
0.6184964180

> <CNNaffinity>
7.1602048874

> <CNN_VS>
4.4285612106

> <CNNaffinity_variance>
0.5361390114

$$$$
/media/chris/experiments/cd1a-new-docking/inputs/ligands/7sh4_ligand.pdb


 56 55  0  0  0  0  0  0  0  0999 V2000
  -37.9032   59.7069   65.3896 C   0  0  0  0  0  0  0  0  0  0  0  0
  -39.2351   60.1159   64.8272 C   0  0  0  0  0  0  0  0  0  0  0  0
  -40.1898   59.3749   65.6163 O   0  0  0  0  0  0  0  0  0  0  0  0
  -41.8526   60.0846   64.3007 O   0  0  0  0  0  0  0  0  0  0  0  0
  -41.4637   59.4237   65.2257 C   0  0  0  0  0  0  0  0  0  0  0  0
  -42.3081   58.4582   66.0067 C   0  0  0  0  0  0  0  0  0  0  0  0
  -43.5396   59.0828   66.6404 C   0  0  0  0  0  0  0  0  0  0  0  0
  -44.7413   59.0738   65.7194 C   0  0  0  0  0  0  0  0  0  0  0  0
  -46.0425   58.7186   66.4022 C   0  0  0  0  0  0  0  0  0  0  0  0
  -47.2051   59.5778   65.9479 C   0  0  0  0  0  0  0  0  0  0  0  0
  -48.0800   58.8992   64.9224 C   0  0  0  0  0  0  0  0  0  0  0  0
  -49.1729   58.0670   65.5396 C   0  0  0  0  0  0  0  0  0  0  0  0
  -50.5628   58.5082   65.1379 C   0  0  0  0  0  0  0  0  0  0  0  0
  -50.5647   59.3806   63.8988 C   0  0  0  0  0  0  0  0  0  0  0  0
  -51.1496   58.7113   62.6728 C   0  0  0  0  0  0  0  0  0  0  0  0
  -50.1909   57.7501   61.9793 C   0  0  0  0  0  0  0  0  0  0  0  0
  -50.5944   57.3932   60.5616 C   0  0  0  0  0  0  0  0  0  0  0  0
  -49.4834   56.7391   59.7659 C   0  0  0  0  0  0  0  0  0  0  0  0
  -48.2192   57.5824   59.6759 C   0  0  0  0  0  0  0  0  0  0  0  0
  -47.4386   57.3718   58.3907 C   0  0  0  0  0  0  0  0  0  0  0  0
  -47.5965   55.1815   57.1604 C   0  0  0  0  0  0  0  0  0  0  0  0
  -48.1681   56.5710   57.3288 C   0  0  0  0  0  0  0  0  0  0  0  0
  -37.4210   60.6599   66.4531 C   0  0  0  0  0  0  0  0  0  0  0  0
  -37.2731   61.9731   65.8685 O   0  0  0  0  0  0  0  0  0  0  0  0
  -36.1494   63.0109   66.3398 P   0  0  0  0  0  0  0  0  0  0  0  0
  -36.5562   64.3606   65.8931 O   0  0  0  0  0  0  0  0  0  0  0  0
  -35.8896   62.7863   67.7823 O   0  0  0  0  0  0  0  0  0  0  0  0
  -36.6774   63.0277   68.2941 H   0  0  0  0  0  0  0  0  0  0  0  0
  -34.8340   62.6033   65.5358 O   0  0  0  0  0  0  0  0  0  0  0  0
  -33.5640   63.1906   65.8850 C   0  0  0  0  0  0  0  0  0  0  0  0
  -33.6083   63.2295   63.4893 O   0  0  0  0  0  0  0  0  0  0  0  0
  -32.9515   63.7767   64.6366 C   0  0  0  0  0  0  0  0  0  0  0  0
  -33.5523   62.2616   63.5157 H   0  0  0  0  0  0  0  0  0  0  0  0
  -34.3830   65.7180   64.6216 O   0  0  0  0  0  0  0  0  0  0  0  0
  -33.0290   65.2844   64.6116 C   0  0  0  0  0  0  0  0  0  0  0  0
  -34.4122   66.6875   64.6053 H   0  0  0  0  0  0  0  0  0  0  0  0
  -36.9474   59.6019   64.2827 O   0  0  0  0  0  0  0  0  0  0  0  0
  -36.5918   57.4007   63.9850 O   0  0  0  0  0  0  0  0  0  0  0  0
  -36.1773   58.4975   64.2436 C   0  0  0  0  0  0  0  0  0  0  0  0
  -34.7425   58.8039   64.5426 C   0  0  0  0  0  0  0  0  0  0  0  0
  -34.1300   59.7066   63.4764 C   0  0  0  0  0  0  0  0  0  0  0  0
  -33.2583   58.9705   62.4722 C   0  0  0  0  0  0  0  0  0  0  0  0
  -32.9171   57.5448   62.8903 C   0  0  0  0  0  0  0  0  0  0  0  0
  -32.7499   56.5842   61.7278 C   0  0  0  0  0  0  0  0  0  0  0  0
  -34.0600   56.1655   61.0543 C   0  0  0  0  0  0  0  0  0  0  0  0
  -33.9070   55.5278   59.6717 C   0  0  0  0  0  0  0  0  0  0  0  0
  -33.8395   56.5541   58.5807 C   0  0  0  0  0  0  0  0  0  0  0  0
  -34.8432   56.9842   57.8411 C   0  0  0  0  0  0  0  0  0  0  0  0
  -36.2672   56.5359   57.9390 C   0  0  0  0  0  0  0  0  0  0  0  0
  -37.2537   57.6592   57.6332 C   0  0  0  0  0  0  0  0  0  0  0  0
  -37.5466   58.5541   58.8247 C   0  0  0  0  0  0  0  0  0  0  0  0
  -37.4309   57.8450   60.1630 C   0  0  0  0  0  0  0  0  0  0  0  0
  -38.5126   58.2117   61.1654 C   0  0  0  0  0  0  0  0  0  0  0  0
  -38.6752   59.7116   61.3594 C   0  0  0  0  0  0  0  0  0  0  0  0
  -40.0996   60.2077   61.2078 C   0  0  0  0  0  0  0  0  0  0  0  0
  -40.5137   60.3560   59.7703 C   0  0  0  0  0  0  0  0  0  0  0  0
 21 22  1  0  0  0
  4  5  2  0  0  0
 25 24  1  0  0  0
 25 26  2  0  0  0
 25 27  1  0  0  0
 25 29  1  0  0  0
 22 20  1  0  0  0
  3  5  1  0  0  0
  3  2  1  0  0  0
 20 19  1  0  0  0
 24 23  1  0  0  0
 19 18  1  0  0  0
 18 17  1  0  0  0
 27 28  1  0  0  0
 17 16  1  0  0  0
 29 30  1  0  0  0
 16 15  1  0  0  0
 34 35  1  0  0  0
 34 36  1  0  0  0
 15 14  1  0  0  0
 31 32  1  0  0  0
 31 33  1  0  0  0
 14 13  1  0  0  0
 37  1  1  0  0  0
 37 39  1  0  0  0
 13 12  1  0  0  0
 38 39  2  0  0  0
 12 11  1  0  0  0
 11 10  1  0  0  0
 10  9  1  0  0  0
  9  8  1  0  0  0
  8  7  1  0  0  0
  7  6  1  0  0  0
  6  5  1  0  0  0
  2  1  1  0  0  0
  1 23  1  0  0  0
 30 32  1  0  0  0
 32 35  1  0  0  0
 39 40  1  0  0  0
 40 41  1  0  0  0
 41 42  1  0  0  0
 42 43  1  0  0  0
 43 44  1  0  0  0
 44 45  1  0  0  0
 45 46  1  0  0  0
 46 47  1  0  0  0
 47 48  2  0  0  0
 48 49  1  0  0  0
 49 50  1  0  0  0
 50 51  1  0  0  0
 51 52  1  0  0  0
 52 53  1  0  0  0
 53 54  1  0  0  0
 54 55  1  0  0  0
 55 56  1  0  0  0
M  CHG 1  26  -1
M  END
> <minimizedAffinity>
-8.97714

> <CNNscore>
0.5725938082

> <CNNaffinity>
7.4867143631

> <CNN_VS>
4.2868461609

> <CNNaffinity_variance>
0.5022067428

$$$$
/media/chris/experiments/cd1a-new-docking/inputs/ligands/7sh4_ligand.pdb


 56 55  0  0  0  0  0  0  0  0999 V2000
  -35.8685   60.2291   63.9810 C   0  0  0  0  0  0  0  0  0  0  0  0
  -37.0205   61.0899   63.5455 C   0  0  0  0  0  0  0  0  0  0  0  0
  -38.1869   60.3124   63.8892 O   0  0  0  0  0  0  0  0  0  0  0  0
  -38.3430   60.9842   66.0162 O   0  0  0  0  0  0  0  0  0  0  0  0
  -38.4223   60.1181   65.1872 C   0  0  0  0  0  0  0  0  0  0  0  0
  -38.9151   58.7234   65.4464 C   0  0  0  0  0  0  0  0  0  0  0  0
  -40.0203   58.2712   64.5071 C   0  0  0  0  0  0  0  0  0  0  0  0
  -41.3336   58.9799   64.7631 C   0  0  0  0  0  0  0  0  0  0  0  0
  -41.6058   59.2722   66.2212 C   0  0  0  0  0  0  0  0  0  0  0  0
  -42.9235   58.7013   66.7050 C   0  0  0  0  0  0  0  0  0  0  0  0
  -43.0933   57.2382   66.3764 C   0  0  0  0  0  0  0  0  0  0  0  0
  -44.4902   56.8933   65.9318 C   0  0  0  0  0  0  0  0  0  0  0  0
  -44.9244   57.6354   64.6873 C   0  0  0  0  0  0  0  0  0  0  0  0
  -46.2168   58.4017   64.8838 C   0  0  0  0  0  0  0  0  0  0  0  0
  -47.3704   57.5522   65.3743 C   0  0  0  0  0  0  0  0  0  0  0  0
  -48.7215   58.2562   65.3176 C   0  0  0  0  0  0  0  0  0  0  0  0
  -48.6414   59.7104   64.8947 C   0  0  0  0  0  0  0  0  0  0  0  0
  -49.4851   60.0309   63.6779 C   0  0  0  0  0  0  0  0  0  0  0  0
  -50.8558   59.3688   63.6941 C   0  0  0  0  0  0  0  0  0  0  0  0
  -51.1671   58.5853   62.4313 C   0  0  0  0  0  0  0  0  0  0  0  0
  -50.2227   57.4184   60.4109 C   0  0  0  0  0  0  0  0  0  0  0  0
  -49.9895   57.8283   61.8473 C   0  0  0  0  0  0  0  0  0  0  0  0
  -34.8174   61.0198   64.7169 C   0  0  0  0  0  0  0  0  0  0  0  0
  -35.2898   62.3747   64.8886 O   0  0  0  0  0  0  0  0  0  0  0  0
  -35.1382   63.1783   66.2645 P   0  0  0  0  0  0  0  0  0  0  0  0
  -36.4928   63.4161   66.8076 O   0  0  0  0  0  0  0  0  0  0  0  0
  -34.1475   62.4669   67.1077 O   0  0  0  0  0  0  0  0  0  0  0  0
  -34.5041   61.6024   67.3659 H   0  0  0  0  0  0  0  0  0  0  0  0
  -34.5154   64.5902   65.8626 O   0  0  0  0  0  0  0  0  0  0  0  0
  -34.2932   64.9118   64.4744 C   0  0  0  0  0  0  0  0  0  0  0  0
  -32.7666   66.5511   65.3259 O   0  0  0  0  0  0  0  0  0  0  0  0
  -32.9204   65.5241   64.3417 C   0  0  0  0  0  0  0  0  0  0  0  0
  -33.4788   67.2022   65.2279 H   0  0  0  0  0  0  0  0  0  0  0  0
  -31.6105   64.1684   65.8464 O   0  0  0  0  0  0  0  0  0  0  0  0
  -31.8188   64.5008   64.4798 C   0  0  0  0  0  0  0  0  0  0  0  0
  -30.9004   63.5110   65.9146 H   0  0  0  0  0  0  0  0  0  0  0  0
  -35.3159   59.5640   62.7969 O   0  0  0  0  0  0  0  0  0  0  0  0
  -36.4147   57.6293   63.1280 O   0  0  0  0  0  0  0  0  0  0  0  0
  -35.4521   58.2257   62.7289 C   0  0  0  0  0  0  0  0  0  0  0  0
  -34.2699   57.5743   62.0808 C   0  0  0  0  0  0  0  0  0  0  0  0
  -34.5211   57.3072   60.6002 C   0  0  0  0  0  0  0  0  0  0  0  0
  -35.0342   55.9074   60.3047 C   0  0  0  0  0  0  0  0  0  0  0  0
  -36.1854   55.8780   59.3060 C   0  0  0  0  0  0  0  0  0  0  0  0
  -36.1069   56.9570   58.2421 C   0  0  0  0  0  0  0  0  0  0  0  0
  -37.3841   57.7866   58.0812 C   0  0  0  0  0  0  0  0  0  0  0  0
  -37.4220   59.0871   58.8867 C   0  0  0  0  0  0  0  0  0  0  0  0
  -38.0870   58.9075   60.2184 C   0  0  0  0  0  0  0  0  0  0  0  0
  -39.2479   59.4092   60.5929 C   0  0  0  0  0  0  0  0  0  0  0  0
  -40.1489   60.2657   59.7606 C   0  0  0  0  0  0  0  0  0  0  0  0
  -40.6869   59.5285   58.5376 C   0  0  0  0  0  0  0  0  0  0  0  0
  -42.1968   59.6067   58.3942 C   0  0  0  0  0  0  0  0  0  0  0  0
  -42.7372   58.8328   57.2041 C   0  0  0  0  0  0  0  0  0  0  0  0
  -44.1753   58.3661   57.3571 C   0  0  0  0  0  0  0  0  0  0  0  0
  -44.5631   58.0608   58.7959 C   0  0  0  0  0  0  0  0  0  0  0  0
  -45.9519   57.4744   58.9548 C   0  0  0  0  0  0  0  0  0  0  0  0
  -46.8560   57.7992   57.7985 C   0  0  0  0  0  0  0  0  0  0  0  0
 21 22  1  0  0  0
  4  5  2  0  0  0
 25 24  1  0  0  0
 25 26  2  0  0  0
 25 27  1  0  0  0
 25 29  1  0  0  0
 22 20  1  0  0  0
  3  5  1  0  0  0
  3  2  1  0  0  0
 20 19  1  0  0  0
 24 23  1  0  0  0
 19 18  1  0  0  0
 18 17  1  0  0  0
 27 28  1  0  0  0
 17 16  1  0  0  0
 29 30  1  0  0  0
 16 15  1  0  0  0
 34 35  1  0  0  0
 34 36  1  0  0  0
 15 14  1  0  0  0
 31 32  1  0  0  0
 31 33  1  0  0  0
 14 13  1  0  0  0
 37  1  1  0  0  0
 37 39  1  0  0  0
 13 12  1  0  0  0
 38 39  2  0  0  0
 12 11  1  0  0  0
 11 10  1  0  0  0
 10  9  1  0  0  0
  9  8  1  0  0  0
  8  7  1  0  0  0
  7  6  1  0  0  0
  6  5  1  0  0  0
  2  1  1  0  0  0
  1 23  1  0  0  0
 30 32  1  0  0  0
 32 35  1  0  0  0
 39 40  1  0  0  0
 40 41  1  0  0  0
 41 42  1  0  0  0
 42 43  1  0  0  0
 43 44  1  0  0  0
 44 45  1  0  0  0
 45 46  1  0  0  0
 46 47  1  0  0  0
 47 48  2  0  0  0
 48 49  1  0  0  0
 49 50  1  0  0  0
 50 51  1  0  0  0
 51 52  1  0  0  0
 52 53  1  0  0  0
 53 54  1  0  0  0
 54 55  1  0  0  0
 55 56  1  0  0  0
M  CHG 1  26  -1
M  END
> <minimizedAffinity>
-8.00252

> <CNNscore>
0.5054218173

> <CNNaffinity>
7.3687791824

> <CNN_VS>
3.7243418694

> <CNNaffinity_variance>
0.9209370613

$$$$
/media/chris/experiments/cd1a-new-docking/inputs/ligands/7sh4_ligand.pdb


 56 55  0  0  0  0  0  0  0  0999 V2000
  -39.0815   58.6361   63.8080 C   0  0  0  0  0  0  0  0  0  0  0  0
  -37.6880   58.0857   63.6954 C   0  0  0  0  0  0  0  0  0  0  0  0
  -36.8511   59.1484   64.1989 O   0  0  0  0  0  0  0  0  0  0  0  0
  -35.5501   59.0043   62.3861 O   0  0  0  0  0  0  0  0  0  0  0  0
  -35.8280   59.5264   63.4320 C   0  0  0  0  0  0  0  0  0  0  0  0
  -35.1611   60.7538   63.9832 C   0  0  0  0  0  0  0  0  0  0  0  0
  -35.1849   60.8448   65.4997 C   0  0  0  0  0  0  0  0  0  0  0  0
  -36.3654   61.6367   66.0210 C   0  0  0  0  0  0  0  0  0  0  0  0
  -36.2942   63.1186   65.7304 C   0  0  0  0  0  0  0  0  0  0  0  0
  -35.7755   63.9287   66.9012 C   0  0  0  0  0  0  0  0  0  0  0  0
  -34.2771   64.1080   66.8821 C   0  0  0  0  0  0  0  0  0  0  0  0
  -33.8187   65.1222   65.8677 C   0  0  0  0  0  0  0  0  0  0  0  0
  -32.3156   65.2847   65.8183 C   0  0  0  0  0  0  0  0  0  0  0  0
  -31.6283   64.1513   65.0838 C   0  0  0  0  0  0  0  0  0  0  0  0
  -32.3021   63.7573   63.7862 C   0  0  0  0  0  0  0  0  0  0  0  0
  -31.4062   63.8948   62.5604 C   0  0  0  0  0  0  0  0  0  0  0  0
  -31.2899   62.6267   61.7368 C   0  0  0  0  0  0  0  0  0  0  0  0
  -31.8626   61.4058   62.4272 C   0  0  0  0  0  0  0  0  0  0  0  0
  -31.0993   60.1226   62.1304 C   0  0  0  0  0  0  0  0  0  0  0  0
  -31.9640   59.0247   61.5366 C   0  0  0  0  0  0  0  0  0  0  0  0
  -32.9402   56.7266   61.8553 C   0  0  0  0  0  0  0  0  0  0  0  0
  -32.4383   57.9823   62.5314 C   0  0  0  0  0  0  0  0  0  0  0  0
  -39.4689   59.4484   62.5990 C   0  0  0  0  0  0  0  0  0  0  0  0
  -39.0522   58.7406   61.4100 O   0  0  0  0  0  0  0  0  0  0  0  0
  -38.3448   59.4667   60.1713 P   0  0  0  0  0  0  0  0  0  0  0  0
  -39.3923   59.8232   59.1904 O   0  0  0  0  0  0  0  0  0  0  0  0
  -37.4717   60.5407   60.7032 O   0  0  0  0  0  0  0  0  0  0  0  0
  -38.0190   61.2294   61.1121 H   0  0  0  0  0  0  0  0  0  0  0  0
  -37.4094   58.3577   59.5096 O   0  0  0  0  0  0  0  0  0  0  0  0
  -37.3175   57.0453   60.1004 C   0  0  0  0  0  0  0  0  0  0  0  0
  -36.2762   54.9217   59.7146 O   0  0  0  0  0  0  0  0  0  0  0  0
  -36.1418   56.3274   59.4843 C   0  0  0  0  0  0  0  0  0  0  0  0
  -36.3595   54.7566   60.6667 H   0  0  0  0  0  0  0  0  0  0  0  0
  -34.9758   57.5465   57.7603 O   0  0  0  0  0  0  0  0  0  0  0  0
  -36.0107   56.6030   58.0055 C   0  0  0  0  0  0  0  0  0  0  0  0
  -34.9070   57.7104   56.8066 H   0  0  0  0  0  0  0  0  0  0  0  0
  -39.1680   59.4249   65.0410 O   0  0  0  0  0  0  0  0  0  0  0  0
  -40.7688   60.8719   65.6765 O   0  0  0  0  0  0  0  0  0  0  0  0
  -40.4019   59.7465   65.4747 C   0  0  0  0  0  0  0  0  0  0  0  0
  -41.2649   58.5366   65.6571 C   0  0  0  0  0  0  0  0  0  0  0  0
  -42.7362   58.9152   65.7944 C   0  0  0  0  0  0  0  0  0  0  0  0
  -43.6738   57.7224   65.8836 C   0  0  0  0  0  0  0  0  0  0  0  0
  -45.0067   57.9402   65.1768 C   0  0  0  0  0  0  0  0  0  0  0  0
  -45.5665   59.3418   65.3337 C   0  0  0  0  0  0  0  0  0  0  0  0
  -46.9878   59.4000   65.9005 C   0  0  0  0  0  0  0  0  0  0  0  0
  -48.0852   58.8961   64.9606 C   0  0  0  0  0  0  0  0  0  0  0  0
  -49.2528   59.8349   64.9009 C   0  0  0  0  0  0  0  0  0  0  0  0
  -50.3975   59.6293   64.2789 C   0  0  0  0  0  0  0  0  0  0  0  0
  -50.7719   58.4079   63.5002 C   0  0  0  0  0  0  0  0  0  0  0  0
  -50.6782   58.6268   61.9930 C   0  0  0  0  0  0  0  0  0  0  0  0
  -50.8767   57.3598   61.1797 C   0  0  0  0  0  0  0  0  0  0  0  0
  -50.2923   57.4361   59.7796 C   0  0  0  0  0  0  0  0  0  0  0  0
  -48.8858   58.0077   59.7149 C   0  0  0  0  0  0  0  0  0  0  0  0
  -47.8007   56.9427   59.6689 C   0  0  0  0  0  0  0  0  0  0  0  0
  -46.4684   57.4345   59.1386 C   0  0  0  0  0  0  0  0  0  0  0  0
  -46.4535   57.5726   57.6418 C   0  0  0  0  0  0  0  0  0  0  0  0
 21 22  1  0  0  0
  4  5  2  0  0  0
 25 24  1  0  0  0
 25 26  2  0  0  0
 25 27  1  0  0  0
 25 29  1  0  0  0
 22 20  1  0  0  0
  3  5  1  0  0  0
  3  2  1  0  0  0
 20 19  1  0  0  0
 24 23  1  0  0  0
 19 18  1  0  0  0
 18 17  1  0  0  0
 27 28  1  0  0  0
 17 16  1  0  0  0
 29 30  1  0  0  0
 16 15  1  0  0  0
 34 35  1  0  0  0
 34 36  1  0  0  0
 15 14  1  0  0  0
 31 32  1  0  0  0
 31 33  1  0  0  0
 14 13  1  0  0  0
 37  1  1  0  0  0
 37 39  1  0  0  0
 13 12  1  0  0  0
 38 39  2  0  0  0
 12 11  1  0  0  0
 11 10  1  0  0  0
 10  9  1  0  0  0
  9  8  1  0  0  0
  8  7  1  0  0  0
  7  6  1  0  0  0
  6  5  1  0  0  0
  2  1  1  0  0  0
  1 23  1  0  0  0
 30 32  1  0  0  0
 32 35  1  0  0  0
 39 40  1  0  0  0
 40 41  1  0  0  0
 41 42  1  0  0  0
 42 43  1  0  0  0
 43 44  1  0  0  0
 44 45  1  0  0  0
 45 46  1  0  0  0
 46 47  1  0  0  0
 47 48  2  0  0  0
 48 49  1  0  0  0
 49 50  1  0  0  0
 50 51  1  0  0  0
 51 52  1  0  0  0
 52 53  1  0  0  0
 53 54  1  0  0  0
 54 55  1  0  0  0
 55 56  1  0  0  0
M  CHG 1  26  -1
M  END
> <minimizedAffinity>
-8.24051

> <CNNscore>
0.4928656220

> <CNNaffinity>
7.3364310265

> <CNN_VS>
3.6158745289

> <CNNaffinity_variance>
0.5344325900

$$$$
/media/chris/experiments/cd1a-new-docking/inputs/ligands/7sh4_ligand.pdb


 56 55  0  0  0  0  0  0  0  0999 V2000
  -38.9930   61.0902   62.9805 C   0  0  0  0  0  0  0  0  0  0  0  0
  -39.5130   60.3591   61.7752 C   0  0  0  0  0  0  0  0  0  0  0  0
  -38.3305   60.0913   60.9922 O   0  0  0  0  0  0  0  0  0  0  0  0
  -39.4410   60.1785   59.0534 O   0  0  0  0  0  0  0  0  0  0  0  0
  -38.5133   59.7844   59.7076 C   0  0  0  0  0  0  0  0  0  0  0  0
  -37.3541   58.9974   59.1674 C   0  0  0  0  0  0  0  0  0  0  0  0
  -37.7424   57.9444   58.1432 C   0  0  0  0  0  0  0  0  0  0  0  0
  -36.5528   57.1643   57.6247 C   0  0  0  0  0  0  0  0  0  0  0  0
  -35.2197   57.6447   58.1516 C   0  0  0  0  0  0  0  0  0  0  0  0
  -34.0827   56.6901   57.8480 C   0  0  0  0  0  0  0  0  0  0  0  0
  -33.7180   55.8095   59.0182 C   0  0  0  0  0  0  0  0  0  0  0  0
  -34.8297   55.6793   60.0256 C   0  0  0  0  0  0  0  0  0  0  0  0
  -34.4638   56.2075   61.3949 C   0  0  0  0  0  0  0  0  0  0  0  0
  -32.9744   56.4365   61.5551 C   0  0  0  0  0  0  0  0  0  0  0  0
  -32.6218   57.6728   62.3551 C   0  0  0  0  0  0  0  0  0  0  0  0
  -33.8325   58.4887   62.7941 C   0  0  0  0  0  0  0  0  0  0  0  0
  -34.0831   58.4634   64.2897 C   0  0  0  0  0  0  0  0  0  0  0  0
  -35.5456   58.6084   64.6575 C   0  0  0  0  0  0  0  0  0  0  0  0
  -36.4037   57.4280   64.2246 C   0  0  0  0  0  0  0  0  0  0  0  0
  -37.8718   57.5808   64.5811 C   0  0  0  0  0  0  0  0  0  0  0  0
  -38.1227   56.9191   62.1655 C   0  0  0  0  0  0  0  0  0  0  0  0
  -38.8323   57.3436   63.4312 C   0  0  0  0  0  0  0  0  0  0  0  0
  -37.4914   61.0128   63.0854 C   0  0  0  0  0  0  0  0  0  0  0  0
  -36.9201   62.1783   62.4500 O   0  0  0  0  0  0  0  0  0  0  0  0
  -35.7664   63.0573   63.1268 P   0  0  0  0  0  0  0  0  0  0  0  0
  -34.6446   63.1566   62.1686 O   0  0  0  0  0  0  0  0  0  0  0  0
  -36.3787   64.3071   63.6387 O   0  0  0  0  0  0  0  0  0  0  0  0
  -36.6908   64.8432   62.8930 H   0  0  0  0  0  0  0  0  0  0  0  0
  -35.2678   62.2070   64.3803 O   0  0  0  0  0  0  0  0  0  0  0  0
  -34.2153   62.7160   65.2247 C   0  0  0  0  0  0  0  0  0  0  0  0
  -34.2542   63.8747   67.3220 O   0  0  0  0  0  0  0  0  0  0  0  0
  -34.6976   62.6895   66.6544 C   0  0  0  0  0  0  0  0  0  0  0  0
  -33.2892   63.9429   67.2529 H   0  0  0  0  0  0  0  0  0  0  0  0
  -36.8167   63.8413   66.6211 O   0  0  0  0  0  0  0  0  0  0  0  0
  -36.1994   62.5672   66.7522 C   0  0  0  0  0  0  0  0  0  0  0  0
  -37.7795   63.7423   66.6866 H   0  0  0  0  0  0  0  0  0  0  0  0
  -39.6481   60.5408   64.1717 O   0  0  0  0  0  0  0  0  0  0  0  0
  -41.5396   61.7508   64.0361 O   0  0  0  0  0  0  0  0  0  0  0  0
  -40.9800   60.7147   64.2709 C   0  0  0  0  0  0  0  0  0  0  0  0
  -41.6795   59.4590   64.6902 C   0  0  0  0  0  0  0  0  0  0  0  0
  -41.5481   59.2207   66.1911 C   0  0  0  0  0  0  0  0  0  0  0  0
  -42.8736   59.2299   66.9350 C   0  0  0  0  0  0  0  0  0  0  0  0
  -44.0602   58.8174   66.0717 C   0  0  0  0  0  0  0  0  0  0  0  0
  -45.2823   58.3931   66.8648 C   0  0  0  0  0  0  0  0  0  0  0  0
  -46.5640   59.1547   66.5154 C   0  0  0  0  0  0  0  0  0  0  0  0
  -46.7236   59.5181   65.0376 C   0  0  0  0  0  0  0  0  0  0  0  0
  -48.0386   60.1820   64.7580 C   0  0  0  0  0  0  0  0  0  0  0  0
  -48.9979   59.7300   63.9738 C   0  0  0  0  0  0  0  0  0  0  0  0
  -48.9737   58.4519   63.1966 C   0  0  0  0  0  0  0  0  0  0  0  0
  -49.3084   58.6603   61.7224 C   0  0  0  0  0  0  0  0  0  0  0  0
  -50.1558   57.5497   61.1269 C   0  0  0  0  0  0  0  0  0  0  0  0
  -49.9729   57.3797   59.6286 C   0  0  0  0  0  0  0  0  0  0  0  0
  -48.8368   56.4506   59.2344 C   0  0  0  0  0  0  0  0  0  0  0  0
  -48.1995   56.8057   57.8997 C   0  0  0  0  0  0  0  0  0  0  0  0
  -46.9999   57.7261   58.0085 C   0  0  0  0  0  0  0  0  0  0  0  0
  -46.1846   57.4748   59.2462 C   0  0  0  0  0  0  0  0  0  0  0  0
 21 22  1  0  0  0
  4  5  2  0  0  0
 25 24  1  0  0  0
 25 26  2  0  0  0
 25 27  1  0  0  0
 25 29  1  0  0  0
 22 20  1  0  0  0
  3  5  1  0  0  0
  3  2  1  0  0  0
 20 19  1  0  0  0
 24 23  1  0  0  0
 19 18  1  0  0  0
 18 17  1  0  0  0
 27 28  1  0  0  0
 17 16  1  0  0  0
 29 30  1  0  0  0
 16 15  1  0  0  0
 34 35  1  0  0  0
 34 36  1  0  0  0
 15 14  1  0  0  0
 31 32  1  0  0  0
 31 33  1  0  0  0
 14 13  1  0  0  0
 37  1  1  0  0  0
 37 39  1  0  0  0
 13 12  1  0  0  0
 38 39  2  0  0  0
 12 11  1  0  0  0
 11 10  1  0  0  0
 10  9  1  0  0  0
  9  8  1  0  0  0
  8  7  1  0  0  0
  7  6  1  0  0  0
  6  5  1  0  0  0
  2  1  1  0  0  0
  1 23  1  0  0  0
 30 32  1  0  0  0
 32 35  1  0  0  0
 39 40  1  0  0  0
 40 41  1  0  0  0
 41 42  1  0  0  0
 42 43  1  0  0  0
 43 44  1  0  0  0
 44 45  1  0  0  0
 45 46  1  0  0  0
 46 47  1  0  0  0
 47 48  2  0  0  0
 48 49  1  0  0  0
 49 50  1  0  0  0
 50 51  1  0  0  0
 51 52  1  0  0  0
 52 53  1  0  0  0
 53 54  1  0  0  0
 54 55  1  0  0  0
 55 56  1  0  0  0
M  CHG 1  26  -1
M  END
> <minimizedAffinity>
-8.90988

> <CNNscore>
0.4739640057

> <CNNaffinity>
7.5669074059

> <CNN_VS>
3.5864417553

> <CNNaffinity_variance>
1.2904773951

$$$$
/media/chris/experiments/cd1a-new-docking/inputs/ligands/7sh4_ligand.pdb


 56 55  0  0  0  0  0  0  0  0999 V2000
  -36.4500   60.2000   64.4592 C   0  0  0  0  0  0  0  0  0  0  0  0
  -37.3976   61.0752   63.6886 C   0  0  0  0  0  0  0  0  0  0  0  0
  -38.4834   61.3103   64.6100 O   0  0  0  0  0  0  0  0  0  0  0  0
  -38.5285   59.8198   66.2762 O   0  0  0  0  0  0  0  0  0  0  0  0
  -38.9764   60.2474   65.2465 C   0  0  0  0  0  0  0  0  0  0  0  0
  -40.2239   59.7453   64.5783 C   0  0  0  0  0  0  0  0  0  0  0  0
  -40.7649   58.4524   65.1653 C   0  0  0  0  0  0  0  0  0  0  0  0
  -42.0782   58.6439   65.8939 C   0  0  0  0  0  0  0  0  0  0  0  0
  -43.2179   59.0940   65.0085 C   0  0  0  0  0  0  0  0  0  0  0  0
  -44.5814   58.7985   65.5999 C   0  0  0  0  0  0  0  0  0  0  0  0
  -45.3559   57.7646   64.8198 C   0  0  0  0  0  0  0  0  0  0  0  0
  -46.8078   57.6960   65.2137 C   0  0  0  0  0  0  0  0  0  0  0  0
  -47.6525   58.7812   64.5837 C   0  0  0  0  0  0  0  0  0  0  0  0
  -48.4767   58.2774   63.4162 C   0  0  0  0  0  0  0  0  0  0  0  0
  -49.9341   58.6856   63.4668 C   0  0  0  0  0  0  0  0  0  0  0  0
  -50.4220   59.3857   62.2035 C   0  0  0  0  0  0  0  0  0  0  0  0
  -49.9562   58.7311   60.9172 C   0  0  0  0  0  0  0  0  0  0  0  0
  -50.5663   57.3645   60.6819 C   0  0  0  0  0  0  0  0  0  0  0  0
  -49.5791   56.3406   60.1393 C   0  0  0  0  0  0  0  0  0  0  0  0
  -48.8482   56.8032   58.8914 C   0  0  0  0  0  0  0  0  0  0  0  0
  -46.7628   57.9191   58.0304 C   0  0  0  0  0  0  0  0  0  0  0  0
  -47.3520   56.9850   59.0628 C   0  0  0  0  0  0  0  0  0  0  0  0
  -35.2988   60.9829   65.0366 C   0  0  0  0  0  0  0  0  0  0  0  0
  -35.5911   62.3934   64.9211 O   0  0  0  0  0  0  0  0  0  0  0  0
  -35.5146   63.3997   66.1635 P   0  0  0  0  0  0  0  0  0  0  0  0
  -36.8906   63.8351   66.4855 O   0  0  0  0  0  0  0  0  0  0  0  0
  -34.7029   62.7596   67.2265 O   0  0  0  0  0  0  0  0  0  0  0  0
  -35.1724   61.9824   67.5681 H   0  0  0  0  0  0  0  0  0  0  0  0
  -34.7101   64.6689   65.6301 O   0  0  0  0  0  0  0  0  0  0  0  0
  -33.4083   64.9767   66.1693 C   0  0  0  0  0  0  0  0  0  0  0  0
  -31.1069   64.8697   65.5101 O   0  0  0  0  0  0  0  0  0  0  0  0
  -32.4337   65.0919   65.0230 C   0  0  0  0  0  0  0  0  0  0  0  0
  -30.9172   65.4939   66.2279 H   0  0  0  0  0  0  0  0  0  0  0  0
  -32.6644   64.7788   62.6425 O   0  0  0  0  0  0  0  0  0  0  0  0
  -32.7461   64.1277   63.9038 C   0  0  0  0  0  0  0  0  0  0  0  0
  -32.8680   64.1444   61.9374 H   0  0  0  0  0  0  0  0  0  0  0  0
  -35.9858   59.1290   63.5719 O   0  0  0  0  0  0  0  0  0  0  0  0
  -35.2448   57.3334   64.7063 O   0  0  0  0  0  0  0  0  0  0  0  0
  -36.0840   57.8677   64.0340 C   0  0  0  0  0  0  0  0  0  0  0  0
  -37.3704   57.2196   63.6252 C   0  0  0  0  0  0  0  0  0  0  0  0
  -37.5930   57.3201   62.1195 C   0  0  0  0  0  0  0  0  0  0  0  0
  -38.7835   58.1802   61.7285 C   0  0  0  0  0  0  0  0  0  0  0  0
  -38.5528   59.0035   60.4665 C   0  0  0  0  0  0  0  0  0  0  0  0
  -37.3113   58.6070   59.6895 C   0  0  0  0  0  0  0  0  0  0  0  0
  -37.5868   58.0513   58.2895 C   0  0  0  0  0  0  0  0  0  0  0  0
  -36.7161   56.8623   57.8775 C   0  0  0  0  0  0  0  0  0  0  0  0
  -36.5733   55.8574   58.9812 C   0  0  0  0  0  0  0  0  0  0  0  0
  -35.4456   55.3751   59.4659 C   0  0  0  0  0  0  0  0  0  0  0  0
  -34.0654   55.7340   59.0134 C   0  0  0  0  0  0  0  0  0  0  0  0
  -33.5884   57.0612   59.5960 C   0  0  0  0  0  0  0  0  0  0  0  0
  -34.0447   57.2987   61.0249 C   0  0  0  0  0  0  0  0  0  0  0  0
  -32.9666   57.0330   62.0615 C   0  0  0  0  0  0  0  0  0  0  0  0
  -32.4632   58.2745   62.7787 C   0  0  0  0  0  0  0  0  0  0  0  0
  -31.7773   59.2706   61.8562 C   0  0  0  0  0  0  0  0  0  0  0  0
  -31.9738   60.7210   62.2505 C   0  0  0  0  0  0  0  0  0  0  0  0
  -30.9299   61.6297   61.6637 C   0  0  0  0  0  0  0  0  0  0  0  0
 21 22  1  0  0  0
  4  5  2  0  0  0
 25 24  1  0  0  0
 25 26  2  0  0  0
 25 27  1  0  0  0
 25 29  1  0  0  0
 22 20  1  0  0  0
  3  5  1  0  0  0
  3  2  1  0  0  0
 20 19  1  0  0  0
 24 23  1  0  0  0
 19 18  1  0  0  0
 18 17  1  0  0  0
 27 28  1  0  0  0
 17 16  1  0  0  0
 29 30  1  0  0  0
 16 15  1  0  0  0
 34 35  1  0  0  0
 34 36  1  0  0  0
 15 14  1  0  0  0
 31 32  1  0  0  0
 31 33  1  0  0  0
 14 13  1  0  0  0
 37  1  1  0  0  0
 37 39  1  0  0  0
 13 12  1  0  0  0
 38 39  2  0  0  0
 12 11  1  0  0  0
 11 10  1  0  0  0
 10  9  1  0  0  0
  9  8  1  0  0  0
  8  7  1  0  0  0
  7  6  1  0  0  0
  6  5  1  0  0  0
  2  1  1  0  0  0
  1 23  1  0  0  0
 30 32  1  0  0  0
 32 35  1  0  0  0
 39 40  1  0  0  0
 40 41  1  0  0  0
 41 42  1  0  0  0
 42 43  1  0  0  0
 43 44  1  0  0  0
 44 45  1  0  0  0
 45 46  1  0  0  0
 46 47  1  0  0  0
 47 48  2  0  0  0
 48 49  1  0  0  0
 49 50  1  0  0  0
 50 51  1  0  0  0
 51 52  1  0  0  0
 52 53  1  0  0  0
 53 54  1  0  0  0
 54 55  1  0  0  0
 55 56  1  0  0  0
M  CHG 1  26  -1
M  END
> <minimizedAffinity>
-8.52151

> <CNNscore>
0.4716775715

> <CNNaffinity>
7.2454147339

> <CNN_VS>
3.4174995422

> <CNNaffinity_variance>
0.8628975153

$$$$
/media/chris/experiments/cd1a-new-docking/inputs/ligands/7sh4_ligand.pdb


 56 55  0  0  0  0  0  0  0  0999 V2000
  -39.2671   59.4033   64.6682 C   0  0  0  0  0  0  0  0  0  0  0  0
  -40.4418   58.5817   65.1182 C   0  0  0  0  0  0  0  0  0  0  0  0
  -41.5220   59.5350   65.2048 O   0  0  0  0  0  0  0  0  0  0  0  0
  -42.2562   59.3944   67.3121 O   0  0  0  0  0  0  0  0  0  0  0  0
  -42.4548   59.3085   66.1302 C   0  0  0  0  0  0  0  0  0  0  0  0
  -43.7952   59.0605   65.5003 C   0  0  0  0  0  0  0  0  0  0  0  0
  -44.1925   57.5951   65.4432 C   0  0  0  0  0  0  0  0  0  0  0  0
  -45.6743   57.3985   65.2021 C   0  0  0  0  0  0  0  0  0  0  0  0
  -46.4138   56.7763   66.3646 C   0  0  0  0  0  0  0  0  0  0  0  0
  -47.8856   56.5535   66.0810 C   0  0  0  0  0  0  0  0  0  0  0  0
  -48.4737   57.5848   65.1492 C   0  0  0  0  0  0  0  0  0  0  0  0
  -49.7746   58.1554   65.6489 C   0  0  0  0  0  0  0  0  0  0  0  0
  -50.3043   59.2829   64.7910 C   0  0  0  0  0  0  0  0  0  0  0  0
  -49.4117   59.5843   63.6041 C   0  0  0  0  0  0  0  0  0  0  0  0
  -50.1219   59.5321   62.2677 C   0  0  0  0  0  0  0  0  0  0  0  0
  -51.1514   58.4128   62.1604 C   0  0  0  0  0  0  0  0  0  0  0  0
  -50.7494   57.2941   61.2186 C   0  0  0  0  0  0  0  0  0  0  0  0
  -49.4580   57.5678   60.4753 C   0  0  0  0  0  0  0  0  0  0  0  0
  -49.4926   57.1413   59.0143 C   0  0  0  0  0  0  0  0  0  0  0  0
  -48.2100   56.4782   58.5444 C   0  0  0  0  0  0  0  0  0  0  0  0
  -45.9881   57.6267   58.8268 C   0  0  0  0  0  0  0  0  0  0  0  0
  -47.1925   57.4242   57.9356 C   0  0  0  0  0  0  0  0  0  0  0  0
  -38.4634   59.9265   65.8310 C   0  0  0  0  0  0  0  0  0  0  0  0
  -38.1338   61.3115   65.5830 O   0  0  0  0  0  0  0  0  0  0  0  0
  -36.6282   61.8282   65.4151 P   0  0  0  0  0  0  0  0  0  0  0  0
  -35.7530   60.9626   66.2344 O   0  0  0  0  0  0  0  0  0  0  0  0
  -36.3445   61.9599   63.9656 O   0  0  0  0  0  0  0  0  0  0  0  0
  -36.3504   61.0816   63.5538 H   0  0  0  0  0  0  0  0  0  0  0  0
  -36.6096   63.2896   66.0527 O   0  0  0  0  0  0  0  0  0  0  0  0
  -35.9674   64.3743   65.3520 C   0  0  0  0  0  0  0  0  0  0  0  0
  -33.9231   65.6225   65.2776 O   0  0  0  0  0  0  0  0  0  0  0  0
  -34.5172   64.4163   65.7668 C   0  0  0  0  0  0  0  0  0  0  0  0
  -34.0399   65.6736   64.3161 H   0  0  0  0  0  0  0  0  0  0  0  0
  -34.1183   62.9730   67.6579 O   0  0  0  0  0  0  0  0  0  0  0  0
  -34.3444   64.3203   67.2637 C   0  0  0  0  0  0  0  0  0  0  0  0
  -34.0100   62.9317   68.6210 H   0  0  0  0  0  0  0  0  0  0  0  0
  -39.7628   60.4912   63.8193 O   0  0  0  0  0  0  0  0  0  0  0  0
  -38.1708   60.9431   62.2957 O   0  0  0  0  0  0  0  0  0  0  0  0
  -39.2755   60.5578   62.5655 C   0  0  0  0  0  0  0  0  0  0  0  0
  -40.2678   60.0774   61.5523 C   0  0  0  0  0  0  0  0  0  0  0  0
  -39.8304   60.4254   60.1330 C   0  0  0  0  0  0  0  0  0  0  0  0
  -39.2050   59.2637   59.3785 C   0  0  0  0  0  0  0  0  0  0  0  0
  -37.6859   59.2093   59.4929 C   0  0  0  0  0  0  0  0  0  0  0  0
  -36.9953   58.6340   58.2704 C   0  0  0  0  0  0  0  0  0  0  0  0
  -37.4986   57.2513   57.8465 C   0  0  0  0  0  0  0  0  0  0  0  0
  -36.4682   56.1243   57.9452 C   0  0  0  0  0  0  0  0  0  0  0  0
  -36.2287   55.7006   59.3634 C   0  0  0  0  0  0  0  0  0  0  0  0
  -35.1777   55.9914   60.1053 C   0  0  0  0  0  0  0  0  0  0  0  0
  -33.9995   56.8113   59.6838 C   0  0  0  0  0  0  0  0  0  0  0  0
  -33.3125   57.4930   60.8636 C   0  0  0  0  0  0  0  0  0  0  0  0
  -33.7558   56.9634   62.2161 C   0  0  0  0  0  0  0  0  0  0  0  0
  -33.6608   57.9882   63.3333 C   0  0  0  0  0  0  0  0  0  0  0  0
  -35.0008   58.4322   63.8960 C   0  0  0  0  0  0  0  0  0  0  0  0
  -36.1436   58.3204   62.8983 C   0  0  0  0  0  0  0  0  0  0  0  0
  -37.1756   57.2672   63.2499 C   0  0  0  0  0  0  0  0  0  0  0  0
  -38.1165   56.9734   62.1150 C   0  0  0  0  0  0  0  0  0  0  0  0
 21 22  1  0  0  0
  4  5  2  0  0  0
 25 24  1  0  0  0
 25 26  2  0  0  0
 25 27  1  0  0  0
 25 29  1  0  0  0
 22 20  1  0  0  0
  3  5  1  0  0  0
  3  2  1  0  0  0
 20 19  1  0  0  0
 24 23  1  0  0  0
 19 18  1  0  0  0
 18 17  1  0  0  0
 27 28  1  0  0  0
 17 16  1  0  0  0
 29 30  1  0  0  0
 16 15  1  0  0  0
 34 35  1  0  0  0
 34 36  1  0  0  0
 15 14  1  0  0  0
 31 32  1  0  0  0
 31 33  1  0  0  0
 14 13  1  0  0  0
 37  1  1  0  0  0
 37 39  1  0  0  0
 13 12  1  0  0  0
 38 39  2  0  0  0
 12 11  1  0  0  0
 11 10  1  0  0  0
 10  9  1  0  0  0
  9  8  1  0  0  0
  8  7  1  0  0  0
  7  6  1  0  0  0
  6  5  1  0  0  0
  2  1  1  0  0  0
  1 23  1  0  0  0
 30 32  1  0  0  0
 32 35  1  0  0  0
 39 40  1  0  0  0
 40 41  1  0  0  0
 41 42  1  0  0  0
 42 43  1  0  0  0
 43 44  1  0  0  0
 44 45  1  0  0  0
 45 46  1  0  0  0
 46 47  1  0  0  0
 47 48  2  0  0  0
 48 49  1  0  0  0
 49 50  1  0  0  0
 50 51  1  0  0  0
 51 52  1  0  0  0
 52 53  1  0  0  0
 53 54  1  0  0  0
 54 55  1  0  0  0
 55 56  1  0  0  0
M  CHG 1  26  -1
M  END
> <minimizedAffinity>
-8.36318

> <CNNscore>
0.4610163867

> <CNNaffinity>
7.5481352806

> <CNN_VS>
3.4798140526

> <CNNaffinity_variance>
0.5523843765

$$$$
/media/chris/experiments/cd1a-new-docking/inputs/ligands/7sh4_ligand.pdb


 56 55  0  0  0  0  0  0  0  0999 V2000
  -38.2127   60.3236   65.6142 C   0  0  0  0  0  0  0  0  0  0  0  0
  -37.6139   58.9992   65.2332 C   0  0  0  0  0  0  0  0  0  0  0  0
  -36.2823   59.3333   64.7876 O   0  0  0  0  0  0  0  0  0  0  0  0
  -35.9681   57.2363   64.0779 O   0  0  0  0  0  0  0  0  0  0  0  0
  -35.5968   58.3760   64.1620 C   0  0  0  0  0  0  0  0  0  0  0  0
  -34.3816   58.9360   63.4802 C   0  0  0  0  0  0  0  0  0  0  0  0
  -33.1767   58.0107   63.5010 C   0  0  0  0  0  0  0  0  0  0  0  0
  -32.5854   57.7872   62.1252 C   0  0  0  0  0  0  0  0  0  0  0  0
  -33.6094   57.5072   61.0489 C   0  0  0  0  0  0  0  0  0  0  0  0
  -33.9616   56.0379   60.9325 C   0  0  0  0  0  0  0  0  0  0  0  0
  -34.3212   55.6228   59.5268 C   0  0  0  0  0  0  0  0  0  0  0  0
  -35.6978   55.0211   59.4250 C   0  0  0  0  0  0  0  0  0  0  0  0
  -36.5177   55.5873   58.2869 C   0  0  0  0  0  0  0  0  0  0  0  0
  -36.2505   57.0599   58.0492 C   0  0  0  0  0  0  0  0  0  0  0  0
  -37.2588   57.9838   58.6993 C   0  0  0  0  0  0  0  0  0  0  0  0
  -37.0166   58.2108   60.1873 C   0  0  0  0  0  0  0  0  0  0  0  0
  -37.9033   57.3753   61.0904 C   0  0  0  0  0  0  0  0  0  0  0  0
  -38.7057   58.1997   62.0762 C   0  0  0  0  0  0  0  0  0  0  0  0
  -38.4718   59.6987   61.9509 C   0  0  0  0  0  0  0  0  0  0  0  0
  -39.7474   60.5200   62.0127 C   0  0  0  0  0  0  0  0  0  0  0  0
  -40.0524   60.2955   59.5243 C   0  0  0  0  0  0  0  0  0  0  0  0
  -40.7225   60.2643   60.8792 C   0  0  0  0  0  0  0  0  0  0  0  0
  -37.2634   61.1593   66.4341 C   0  0  0  0  0  0  0  0  0  0  0  0
  -36.9219   62.3463   65.6839 O   0  0  0  0  0  0  0  0  0  0  0  0
  -36.1515   63.5905   66.3323 P   0  0  0  0  0  0  0  0  0  0  0  0
  -36.4136   64.7793   65.4928 O   0  0  0  0  0  0  0  0  0  0  0  0
  -36.4958   63.6462   67.7735 O   0  0  0  0  0  0  0  0  0  0  0  0
  -37.4366   63.8605   67.8732 H   0  0  0  0  0  0  0  0  0  0  0  0
  -34.6013   63.2366   66.2123 O   0  0  0  0  0  0  0  0  0  0  0  0
  -34.0687   62.7413   64.9670 C   0  0  0  0  0  0  0  0  0  0  0  0
  -34.0515   64.7444   63.6516 O   0  0  0  0  0  0  0  0  0  0  0  0
  -33.2125   63.8214   64.3526 C   0  0  0  0  0  0  0  0  0  0  0  0
  -34.5803   64.2657   62.9944 H   0  0  0  0  0  0  0  0  0  0  0  0
  -30.9964   64.3018   65.1749 O   0  0  0  0  0  0  0  0  0  0  0  0
  -32.3810   64.5503   65.3808 C   0  0  0  0  0  0  0  0  0  0  0  0
  -30.4795   64.7776   65.8438 H   0  0  0  0  0  0  0  0  0  0  0  0
  -39.4690   60.0739   66.3277 O   0  0  0  0  0  0  0  0  0  0  0  0
  -40.9469   61.1205   64.9933 O   0  0  0  0  0  0  0  0  0  0  0  0
  -40.6050   60.1473   65.6078 C   0  0  0  0  0  0  0  0  0  0  0  0
  -41.3794   58.8664   65.6506 C   0  0  0  0  0  0  0  0  0  0  0  0
  -42.2546   58.7840   66.8971 C   0  0  0  0  0  0  0  0  0  0  0  0
  -43.7292   58.5643   66.6014 C   0  0  0  0  0  0  0  0  0  0  0  0
  -44.1511   59.0414   65.2165 C   0  0  0  0  0  0  0  0  0  0  0  0
  -45.5250   59.6842   65.1773 C   0  0  0  0  0  0  0  0  0  0  0  0
  -46.5168   59.1298   66.2039 C   0  0  0  0  0  0  0  0  0  0  0  0
  -47.9917   59.2423   65.8117 C   0  0  0  0  0  0  0  0  0  0  0  0
  -48.2053   60.2142   64.6900 C   0  0  0  0  0  0  0  0  0  0  0  0
  -49.3177   60.3935   64.0047 C   0  0  0  0  0  0  0  0  0  0  0  0
  -50.6065   59.6611   64.2066 C   0  0  0  0  0  0  0  0  0  0  0  0
  -51.1441   59.0605   62.9109 C   0  0  0  0  0  0  0  0  0  0  0  0
  -50.1181   58.2422   62.1468 C   0  0  0  0  0  0  0  0  0  0  0  0
  -50.6798   57.5601   60.9112 C   0  0  0  0  0  0  0  0  0  0  0  0
  -49.7536   56.5313   60.2841 C   0  0  0  0  0  0  0  0  0  0  0  0
  -48.4611   57.1274   59.7476 C   0  0  0  0  0  0  0  0  0  0  0  0
  -48.2388   56.8988   58.2656 C   0  0  0  0  0  0  0  0  0  0  0  0
  -46.9556   57.5051   57.7699 C   0  0  0  0  0  0  0  0  0  0  0  0
 21 22  1  0  0  0
  4  5  2  0  0  0
 25 24  1  0  0  0
 25 26  2  0  0  0
 25 27  1  0  0  0
 25 29  1  0  0  0
 22 20  1  0  0  0
  3  5  1  0  0  0
  3  2  1  0  0  0
 20 19  1  0  0  0
 24 23  1  0  0  0
 19 18  1  0  0  0
 18 17  1  0  0  0
 27 28  1  0  0  0
 17 16  1  0  0  0
 29 30  1  0  0  0
 16 15  1  0  0  0
 34 35  1  0  0  0
 34 36  1  0  0  0
 15 14  1  0  0  0
 31 32  1  0  0  0
 31 33  1  0  0  0
 14 13  1  0  0  0
 37  1  1  0  0  0
 37 39  1  0  0  0
 13 12  1  0  0  0
 38 39  2  0  0  0
 12 11  1  0  0  0
 11 10  1  0  0  0
 10  9  1  0  0  0
  9  8  1  0  0  0
  8  7  1  0  0  0
  7  6  1  0  0  0
  6  5  1  0  0  0
  2  1  1  0  0  0
  1 23  1  0  0  0
 30 32  1  0  0  0
 32 35  1  0  0  0
 39 40  1  0  0  0
 40 41  1  0  0  0
 41 42  1  0  0  0
 42 43  1  0  0  0
 43 44  1  0  0  0
 44 45  1  0  0  0
 45 46  1  0  0  0
 46 47  1  0  0  0
 47 48  2  0  0  0
 48 49  1  0  0  0
 49 50  1  0  0  0
 50 51  1  0  0  0
 51 52  1  0  0  0
 52 53  1  0  0  0
 53 54  1  0  0  0
 54 55  1  0  0  0
 55 56  1  0  0  0
M  CHG 1  26  -1
M  END
> <minimizedAffinity>
-8.78418

> <CNNscore>
0.4359183609

> <CNNaffinity>
7.5481133461

> <CNN_VS>
3.2903611660

> <CNNaffinity_variance>
0.5961164832

$$$$
/media/chris/experiments/cd1a-new-docking/inputs/ligands/7sh4_ligand.pdb


 56 55  0  0  0  0  0  0  0  0999 V2000
  -37.4396   60.0964   65.0912 C   0  0  0  0  0  0  0  0  0  0  0  0
  -38.7431   59.5792   65.6306 C   0  0  0  0  0  0  0  0  0  0  0  0
  -39.6028   60.7385   65.6375 O   0  0  0  0  0  0  0  0  0  0  0  0
  -41.3881   61.3335   64.4300 O   0  0  0  0  0  0  0  0  0  0  0  0
  -40.8456   60.5717   65.1844 C   0  0  0  0  0  0  0  0  0  0  0  0
  -41.4168   59.2590   65.6378 C   0  0  0  0  0  0  0  0  0  0  0  0
  -42.2337   59.3461   66.9160 C   0  0  0  0  0  0  0  0  0  0  0  0
  -43.6466   58.8295   66.7450 C   0  0  0  0  0  0  0  0  0  0  0  0
  -44.1991   58.9879   65.3467 C   0  0  0  0  0  0  0  0  0  0  0  0
  -45.7032   58.8167   65.2799 C   0  0  0  0  0  0  0  0  0  0  0  0
  -46.4049   59.2279   66.5512 C   0  0  0  0  0  0  0  0  0  0  0  0
  -47.9035   59.2693   66.4092 C   0  0  0  0  0  0  0  0  0  0  0  0
  -48.4454   58.2249   65.4586 C   0  0  0  0  0  0  0  0  0  0  0  0
  -49.9597   58.1699   65.4510 C   0  0  0  0  0  0  0  0  0  0  0  0
  -50.6009   58.9518   64.3238 C   0  0  0  0  0  0  0  0  0  0  0  0
  -49.6170   59.4052   63.2511 C   0  0  0  0  0  0  0  0  0  0  0  0
  -50.0887   59.1461   61.8332 C   0  0  0  0  0  0  0  0  0  0  0  0
  -50.3253   57.6796   61.5360 C   0  0  0  0  0  0  0  0  0  0  0  0
  -50.5410   57.3834   60.0585 C   0  0  0  0  0  0  0  0  0  0  0  0
  -49.2941   56.8836   59.3507 C   0  0  0  0  0  0  0  0  0  0  0  0
  -46.7943   57.1696   59.2800 C   0  0  0  0  0  0  0  0  0  0  0  0
  -48.1364   57.8636   59.3364 C   0  0  0  0  0  0  0  0  0  0  0  0
  -37.6017   60.7373   63.7367 C   0  0  0  0  0  0  0  0  0  0  0  0
  -36.3087   61.1934   63.2802 O   0  0  0  0  0  0  0  0  0  0  0  0
  -35.8873   62.7374   63.2706 P   0  0  0  0  0  0  0  0  0  0  0  0
  -35.7158   63.1566   61.8630 O   0  0  0  0  0  0  0  0  0  0  0  0
  -36.8441   63.4822   64.1242 O   0  0  0  0  0  0  0  0  0  0  0  0
  -37.7235   63.4649   63.7152 H   0  0  0  0  0  0  0  0  0  0  0  0
  -34.4582   62.7896   63.9761 O   0  0  0  0  0  0  0  0  0  0  0  0
  -33.9832   64.0229   64.5535 C   0  0  0  0  0  0  0  0  0  0  0  0
  -32.4158   64.7650   66.2074 O   0  0  0  0  0  0  0  0  0  0  0  0
  -33.3173   63.7064   65.8701 C   0  0  0  0  0  0  0  0  0  0  0  0
  -31.7798   64.8902   65.4859 H   0  0  0  0  0  0  0  0  0  0  0  0
  -35.6073   63.9422   66.5901 O   0  0  0  0  0  0  0  0  0  0  0  0
  -34.3155   63.4974   66.9836 C   0  0  0  0  0  0  0  0  0  0  0  0
  -36.2335   63.8000   67.3172 H   0  0  0  0  0  0  0  0  0  0  0  0
  -36.4825   58.9862   65.0541 O   0  0  0  0  0  0  0  0  0  0  0  0
  -37.9549   57.5921   64.0800 O   0  0  0  0  0  0  0  0  0  0  0  0
  -36.8218   57.9120   64.3159 C   0  0  0  0  0  0  0  0  0  0  0  0
  -35.6194   57.1768   63.8104 C   0  0  0  0  0  0  0  0  0  0  0  0
  -34.6350   58.1195   63.1255 C   0  0  0  0  0  0  0  0  0  0  0  0
  -33.1780   57.8276   63.4451 C   0  0  0  0  0  0  0  0  0  0  0  0
  -32.3810   57.3205   62.2488 C   0  0  0  0  0  0  0  0  0  0  0  0
  -33.2178   56.5914   61.2142 C   0  0  0  0  0  0  0  0  0  0  0  0
  -33.5463   57.4150   59.9656 C   0  0  0  0  0  0  0  0  0  0  0  0
  -33.6910   56.6090   58.6730 C   0  0  0  0  0  0  0  0  0  0  0  0
  -34.8983   57.0187   57.8840 C   0  0  0  0  0  0  0  0  0  0  0  0
  -36.1285   56.5684   58.0364 C   0  0  0  0  0  0  0  0  0  0  0  0
  -36.5782   55.5500   59.0358 C   0  0  0  0  0  0  0  0  0  0  0  0
  -36.8157   56.1545   60.4166 C   0  0  0  0  0  0  0  0  0  0  0  0
  -37.7498   57.3518   60.4052 C   0  0  0  0  0  0  0  0  0  0  0  0
  -37.0458   58.6768   60.6424 C   0  0  0  0  0  0  0  0  0  0  0  0
  -37.9208   59.9012   60.4313 C   0  0  0  0  0  0  0  0  0  0  0  0
  -39.0257   59.6869   59.4081 C   0  0  0  0  0  0  0  0  0  0  0  0
  -40.3777   60.2273   59.8301 C   0  0  0  0  0  0  0  0  0  0  0  0
  -40.4496   60.5301   61.3008 C   0  0  0  0  0  0  0  0  0  0  0  0
 21 22  1  0  0  0
  4  5  2  0  0  0
 25 24  1  0  0  0
 25 26  2  0  0  0
 25 27  1  0  0  0
 25 29  1  0  0  0
 22 20  1  0  0  0
  3  5  1  0  0  0
  3  2  1  0  0  0
 20 19  1  0  0  0
 24 23  1  0  0  0
 19 18  1  0  0  0
 18 17  1  0  0  0
 27 28  1  0  0  0
 17 16  1  0  0  0
 29 30  1  0  0  0
 16 15  1  0  0  0
 34 35  1  0  0  0
 34 36  1  0  0  0
 15 14  1  0  0  0
 31 32  1  0  0  0
 31 33  1  0  0  0
 14 13  1  0  0  0
 37  1  1  0  0  0
 37 39  1  0  0  0
 13 12  1  0  0  0
 38 39  2  0  0  0
 12 11  1  0  0  0
 11 10  1  0  0  0
 10  9  1  0  0  0
  9  8  1  0  0  0
  8  7  1  0  0  0
  7  6  1  0  0  0
  6  5  1  0  0  0
  2  1  1  0  0  0
  1 23  1  0  0  0
 30 32  1  0  0  0
 32 35  1  0  0  0
 39 40  1  0  0  0
 40 41  1  0  0  0
 41 42  1  0  0  0
 42 43  1  0  0  0
 43 44  1  0  0  0
 44 45  1  0  0  0
 45 46  1  0  0  0
 46 47  1  0  0  0
 47 48  2  0  0  0
 48 49  1  0  0  0
 49 50  1  0  0  0
 50 51  1  0  0  0
 51 52  1  0  0  0
 52 53  1  0  0  0
 53 54  1  0  0  0
 54 55  1  0  0  0
 55 56  1  0  0  0
M  CHG 1  26  -1
M  END
> <minimizedAffinity>
-8.21748

> <CNNscore>
0.4312896430

> <CNNaffinity>
7.4640550613

> <CNN_VS>
3.2191696167

> <CNNaffinity_variance>
0.6543965340

$$$$
