/media/chris/experiments/cd1a-new-docking/inputs/ligands/7sh4_ligand.pdb


 56 55  0  0  0  0  0  0  0  0999 V2000
  -38.9223   59.2427   62.4428 C   0  0  0  0  0  0  0  0  0  0  0  0
  -40.1960   59.6630   63.1200 C   0  0  0  0  0  0  0  0  0  0  0  0
  -40.0828   59.1125   64.4494 O   0  0  0  0  0  0  0  0  0  0  0  0
  -40.7477   60.7042   65.8720 O   0  0  0  0  0  0  0  0  0  0  0  0
  -40.8909   59.6162   65.3827 C   0  0  0  0  0  0  0  0  0  0  0  0
  -42.0561   58.7049   65.6406 C   0  0  0  0  0  0  0  0  0  0  0  0
  -43.3957   59.2705   65.2002 C   0  0  0  0  0  0  0  0  0  0  0  0
  -44.5677   58.4335   65.6677 C   0  0  0  0  0  0  0  0  0  0  0  0
  -45.4079   57.8639   64.5471 C   0  0  0  0  0  0  0  0  0  0  0  0
  -46.8761   58.2189   64.6671 C   0  0  0  0  0  0  0  0  0  0  0  0
  -47.1327   59.3781   65.5987 C   0  0  0  0  0  0  0  0  0  0  0  0
  -48.5555   59.4354   66.0886 C   0  0  0  0  0  0  0  0  0  0  0  0
  -49.4080   58.2886   65.5924 C   0  0  0  0  0  0  0  0  0  0  0  0
  -50.4886   58.7367   64.6292 C   0  0  0  0  0  0  0  0  0  0  0  0
  -50.3884   58.1112   63.2537 C   0  0  0  0  0  0  0  0  0  0  0  0
  -50.5929   59.0995   62.1112 C   0  0  0  0  0  0  0  0  0  0  0  0
  -49.6504   58.8922   60.9411 C   0  0  0  0  0  0  0  0  0  0  0  0
  -50.1274   57.8378   59.9634 C   0  0  0  0  0  0  0  0  0  0  0  0
  -49.4338   56.4929   60.1300 C   0  0  0  0  0  0  0  0  0  0  0  0
  -48.4455   56.1774   59.0213 C   0  0  0  0  0  0  0  0  0  0  0  0
  -46.8512   57.9538   58.2225 C   0  0  0  0  0  0  0  0  0  0  0  0
  -47.0788   56.8137   59.1891 C   0  0  0  0  0  0  0  0  0  0  0  0
  -37.7735   59.1371   63.4127 C   0  0  0  0  0  0  0  0  0  0  0  0
  -36.8455   60.2141   63.1534 O   0  0  0  0  0  0  0  0  0  0  0  0
  -35.4858   60.4045   63.9763 P   0  0  0  0  0  0  0  0  0  0  0  0
  -35.0642   59.0785   64.4772 O   0  0  0  0  0  0  0  0  0  0  0  0
  -34.5428   61.1814   63.1362 O   0  0  0  0  0  0  0  0  0  0  0  0
  -34.2899   60.6544   62.3621 H   0  0  0  0  0  0  0  0  0  0  0  0
  -35.8759   61.3033   65.2344 O   0  0  0  0  0  0  0  0  0  0  0  0
  -34.8972   62.1839   65.8232 C   0  0  0  0  0  0  0  0  0  0  0  0
  -36.4357   63.7450   64.8545 O   0  0  0  0  0  0  0  0  0  0  0  0
  -35.4968   63.5654   65.9190 C   0  0  0  0  0  0  0  0  0  0  0  0
  -35.9958   63.5850   64.0050 H   0  0  0  0  0  0  0  0  0  0  0  0
  -36.2437   62.6069   68.0027 O   0  0  0  0  0  0  0  0  0  0  0  0
  -36.1652   63.8109   67.2504 C   0  0  0  0  0  0  0  0  0  0  0  0
  -36.6753   62.7845   68.8531 H   0  0  0  0  0  0  0  0  0  0  0  0
  -38.6360   60.1956   61.3658 O   0  0  0  0  0  0  0  0  0  0  0  0
  -39.4733   60.3140   59.2812 O   0  0  0  0  0  0  0  0  0  0  0  0
  -38.7982   59.7564   60.1029 C   0  0  0  0  0  0  0  0  0  0  0  0
  -38.0226   58.5025   59.8415 C   0  0  0  0  0  0  0  0  0  0  0  0
  -37.1277   58.6445   58.6144 C   0  0  0  0  0  0  0  0  0  0  0  0
  -37.2425   57.4912   57.6312 C   0  0  0  0  0  0  0  0  0  0  0  0
  -36.2851   56.3418   57.9249 C   0  0  0  0  0  0  0  0  0  0  0  0
  -34.8893   56.7871   58.3199 C   0  0  0  0  0  0  0  0  0  0  0  0
  -34.3828   56.1984   59.6396 C   0  0  0  0  0  0  0  0  0  0  0  0
  -34.2931   57.1885   60.8028 C   0  0  0  0  0  0  0  0  0  0  0  0
  -33.1851   56.8449   61.7528 C   0  0  0  0  0  0  0  0  0  0  0  0
  -32.3395   57.6873   62.3140 C   0  0  0  0  0  0  0  0  0  0  0  0
  -32.3111   59.1704   62.1194 C   0  0  0  0  0  0  0  0  0  0  0  0
  -30.9394   59.6738   61.6795 C   0  0  0  0  0  0  0  0  0  0  0  0
  -30.4904   60.9308   62.4038 C   0  0  0  0  0  0  0  0  0  0  0  0
  -30.6228   62.1945   61.5714 C   0  0  0  0  0  0  0  0  0  0  0  0
  -30.5617   63.4850   62.3717 C   0  0  0  0  0  0  0  0  0  0  0  0
  -29.5549   64.4874   61.8284 C   0  0  0  0  0  0  0  0  0  0  0  0
  -30.1789   65.7224   61.2093 C   0  0  0  0  0  0  0  0  0  0  0  0
  -29.5342   66.1094   59.9077 C   0  0  0  0  0  0  0  0  0  0  0  0
 21 22  1  0  0  0
  4  5  2  0  0  0
 25 24  1  0  0  0
 25 26  2  0  0  0
 25 27  1  0  0  0
 25 29  1  0  0  0
 22 20  1  0  0  0
  3  5  1  0  0  0
  3  2  1  0  0  0
 20 19  1  0  0  0
 24 23  1  0  0  0
 19 18  1  0  0  0
 18 17  1  0  0  0
 27 28  1  0  0  0
 17 16  1  0  0  0
 29 30  1  0  0  0
 16 15  1  0  0  0
 34 35  1  0  0  0
 34 36  1  0  0  0
 15 14  1  0  0  0
 31 32  1  0  0  0
 31 33  1  0  0  0
 14 13  1  0  0  0
 37  1  1  0  0  0
 37 39  1  0  0  0
 13 12  1  0  0  0
 38 39  2  0  0  0
 12 11  1  0  0  0
 11 10  1  0  0  0
 10  9  1  0  0  0
  9  8  1  0  0  0
  8  7  1  0  0  0
  7  6  1  0  0  0
  6  5  1  0  0  0
  2  1  1  0  0  0
  1 23  1  0  0  0
 30 32  1  0  0  0
 32 35  1  0  0  0
 39 40  1  0  0  0
 40 41  1  0  0  0
 41 42  1  0  0  0
 42 43  1  0  0  0
 43 44  1  0  0  0
 44 45  1  0  0  0
 45 46  1  0  0  0
 46 47  1  0  0  0
 47 48  2  0  0  0
 48 49  1  0  0  0
 49 50  1  0  0  0
 50 51  1  0  0  0
 51 52  1  0  0  0
 52 53  1  0  0  0
 53 54  1  0  0  0
 54 55  1  0  0  0
 55 56  1  0  0  0
M  CHG 1  26  -1
M  END
> <minimizedAffinity>
-8.60821

> <CNNscore>
0.8395606875

> <CNNaffinity>
7.4106659889

> <CNN_VS>
6.2217040062

> <CNNaffinity_variance>
0.4153099954

$$$$
/media/chris/experiments/cd1a-new-docking/inputs/ligands/7sh4_ligand.pdb


 56 55  0  0  0  0  0  0  0  0999 V2000
  -37.0625   60.1435   63.9896 C   0  0  0  0  0  0  0  0  0  0  0  0
  -38.0591   60.9462   63.2021 C   0  0  0  0  0  0  0  0  0  0  0  0
  -39.2722   60.8560   63.9790 O   0  0  0  0  0  0  0  0  0  0  0  0
  -40.4159   60.2558   62.1539 O   0  0  0  0  0  0  0  0  0  0  0  0
  -40.3860   60.5272   63.3240 C   0  0  0  0  0  0  0  0  0  0  0  0
  -41.5548   60.4207   64.2607 C   0  0  0  0  0  0  0  0  0  0  0  0
  -41.2613   59.6451   65.5337 C   0  0  0  0  0  0  0  0  0  0  0  0
  -42.2161   58.4899   65.7497 C   0  0  0  0  0  0  0  0  0  0  0  0
  -43.5924   58.9035   66.2193 C   0  0  0  0  0  0  0  0  0  0  0  0
  -44.6788   58.6084   65.2051 C   0  0  0  0  0  0  0  0  0  0  0  0
  -45.8779   59.5151   65.3383 C   0  0  0  0  0  0  0  0  0  0  0  0
  -47.1808   58.8118   65.0635 C   0  0  0  0  0  0  0  0  0  0  0  0
  -48.3809   59.7314   65.1104 C   0  0  0  0  0  0  0  0  0  0  0  0
  -49.0158   59.9349   63.7495 C   0  0  0  0  0  0  0  0  0  0  0  0
  -50.5285   59.8642   63.7566 C   0  0  0  0  0  0  0  0  0  0  0  0
  -51.1023   58.8473   62.7765 C   0  0  0  0  0  0  0  0  0  0  0  0
  -50.1381   58.4361   61.6804 C   0  0  0  0  0  0  0  0  0  0  0  0
  -50.6622   57.3145   60.8071 C   0  0  0  0  0  0  0  0  0  0  0  0
  -49.5681   56.5442   60.0811 C   0  0  0  0  0  0  0  0  0  0  0  0
  -48.5628   57.4366   59.3752 C   0  0  0  0  0  0  0  0  0  0  0  0
  -48.2569   56.4374   57.0853 C   0  0  0  0  0  0  0  0  0  0  0  0
  -47.6235   56.7112   58.4305 C   0  0  0  0  0  0  0  0  0  0  0  0
  -35.7327   60.8441   64.1009 C   0  0  0  0  0  0  0  0  0  0  0  0
  -35.5982   61.7651   62.9955 O   0  0  0  0  0  0  0  0  0  0  0  0
  -34.9637   63.2259   63.1558 P   0  0  0  0  0  0  0  0  0  0  0  0
  -34.1241   63.4934   61.9682 O   0  0  0  0  0  0  0  0  0  0  0  0
  -36.0586   64.1713   63.4817 O   0  0  0  0  0  0  0  0  0  0  0  0
  -36.6581   64.2456   62.7228 H   0  0  0  0  0  0  0  0  0  0  0  0
  -34.0033   63.1321   64.4253 O   0  0  0  0  0  0  0  0  0  0  0  0
  -34.3249   63.8591   65.6286 C   0  0  0  0  0  0  0  0  0  0  0  0
  -33.9519   62.6308   67.6521 O   0  0  0  0  0  0  0  0  0  0  0  0
  -34.9139   62.8917   66.6258 C   0  0  0  0  0  0  0  0  0  0  0  0
  -33.1319   62.3031   67.2508 H   0  0  0  0  0  0  0  0  0  0  0  0
  -36.8276   64.3368   66.3651 O   0  0  0  0  0  0  0  0  0  0  0  0
  -36.1982   63.4030   67.2332 C   0  0  0  0  0  0  0  0  0  0  0  0
  -37.6493   64.6534   66.7718 H   0  0  0  0  0  0  0  0  0  0  0  0
  -36.9297   58.8263   63.3594 O   0  0  0  0  0  0  0  0  0  0  0  0
  -37.8454   57.5316   64.9549 O   0  0  0  0  0  0  0  0  0  0  0  0
  -37.7481   57.8524   63.8019 C   0  0  0  0  0  0  0  0  0  0  0  0
  -38.5339   57.2318   62.6886 C   0  0  0  0  0  0  0  0  0  0  0  0
  -37.7333   57.1980   61.3907 C   0  0  0  0  0  0  0  0  0  0  0  0
  -38.1464   58.2589   60.3838 C   0  0  0  0  0  0  0  0  0  0  0  0
  -37.1158   58.4910   59.2848 C   0  0  0  0  0  0  0  0  0  0  0  0
  -37.3637   57.6814   58.0257 C   0  0  0  0  0  0  0  0  0  0  0  0
  -36.3829   56.5257   57.8084 C   0  0  0  0  0  0  0  0  0  0  0  0
  -34.9233   56.8376   58.1459 C   0  0  0  0  0  0  0  0  0  0  0  0
  -34.3656   55.8929   59.1679 C   0  0  0  0  0  0  0  0  0  0  0  0
  -34.0249   56.1857   60.4080 C   0  0  0  0  0  0  0  0  0  0  0  0
  -34.1265   57.5298   61.0572 C   0  0  0  0  0  0  0  0  0  0  0  0
  -33.9110   57.4652   62.5665 C   0  0  0  0  0  0  0  0  0  0  0  0
  -32.6241   58.1269   63.0273 C   0  0  0  0  0  0  0  0  0  0  0  0
  -32.3556   59.4665   62.3637 C   0  0  0  0  0  0  0  0  0  0  0  0
  -30.8995   59.7097   62.0025 C   0  0  0  0  0  0  0  0  0  0  0  0
  -30.5946   61.1600   61.6600 C   0  0  0  0  0  0  0  0  0  0  0  0
  -31.0291   62.1538   62.7190 C   0  0  0  0  0  0  0  0  0  0  0  0
  -30.1342   63.3596   62.7868 C   0  0  0  0  0  0  0  0  0  0  0  0
 21 22  1  0  0  0
  4  5  2  0  0  0
 25 24  1  0  0  0
 25 26  2  0  0  0
 25 27  1  0  0  0
 25 29  1  0  0  0
 22 20  1  0  0  0
  3  5  1  0  0  0
  3  2  1  0  0  0
 20 19  1  0  0  0
 24 23  1  0  0  0
 19 18  1  0  0  0
 18 17  1  0  0  0
 27 28  1  0  0  0
 17 16  1  0  0  0
 29 30  1  0  0  0
 16 15  1  0  0  0
 34 35  1  0  0  0
 34 36  1  0  0  0
 15 14  1  0  0  0
 31 32  1  0  0  0
 31 33  1  0  0  0
 14 13  1  0  0  0
 37  1  1  0  0  0
 37 39  1  0  0  0
 13 12  1  0  0  0
 38 39  2  0  0  0
 12 11  1  0  0  0
 11 10  1  0  0  0
 10  9  1  0  0  0
  9  8  1  0  0  0
  8  7  1  0  0  0
  7  6  1  0  0  0
  6  5  1  0  0  0
  2  1  1  0  0  0
  1 23  1  0  0  0
 30 32  1  0  0  0
 32 35  1  0  0  0
 39 40  1  0  0  0
 40 41  1  0  0  0
 41 42  1  0  0  0
 42 43  1  0  0  0
 43 44  1  0  0  0
 44 45  1  0  0  0
 45 46  1  0  0  0
 46 47  1  0  0  0
 47 48  2  0  0  0
 48 49  1  0  0  0
 49 50  1  0  0  0
 50 51  1  0  0  0
 51 52  1  0  0  0
 52 53  1  0  0  0
 53 54  1  0  0  0
 54 55  1  0  0  0
 55 56  1  0  0  0
M  CHG 1  26  -1
M  END
> <minimizedAffinity>
-8.88020

> <CNNscore>
0.8265295029

> <CNNaffinity>
7.6567907333

> <CNN_VS>
6.3285632133

> <CNNaffinity_variance>
0.7221623659

$$$$
/media/chris/experiments/cd1a-new-docking/inputs/ligands/7sh4_ligand.pdb


 56 55  0  0  0  0  0  0  0  0999 V2000
  -38.4254   59.9555   64.6380 C   0  0  0  0  0  0  0  0  0  0  0  0
  -38.1247   59.0576   63.4714 C   0  0  0  0  0  0  0  0  0  0  0  0
  -38.8592   59.6478   62.3781 O   0  0  0  0  0  0  0  0  0  0  0  0
  -37.2978   60.9174   61.4037 O   0  0  0  0  0  0  0  0  0  0  0  0
  -38.1489   60.0723   61.3326 C   0  0  0  0  0  0  0  0  0  0  0  0
  -38.4651   59.2730   60.1014 C   0  0  0  0  0  0  0  0  0  0  0  0
  -37.5097   58.1190   59.8484 C   0  0  0  0  0  0  0  0  0  0  0  0
  -36.9654   58.1076   58.4354 C   0  0  0  0  0  0  0  0  0  0  0  0
  -36.1352   56.8889   58.1014 C   0  0  0  0  0  0  0  0  0  0  0  0
  -36.4695   55.6888   58.9640 C   0  0  0  0  0  0  0  0  0  0  0  0
  -35.2692   55.1189   59.6795 C   0  0  0  0  0  0  0  0  0  0  0  0
  -34.0953   56.0618   59.7025 C   0  0  0  0  0  0  0  0  0  0  0  0
  -33.6238   56.3995   61.0996 C   0  0  0  0  0  0  0  0  0  0  0  0
  -34.2000   57.7038   61.6125 C   0  0  0  0  0  0  0  0  0  0  0  0
  -33.3158   58.4192   62.6124 C   0  0  0  0  0  0  0  0  0  0  0  0
  -31.8715   58.5808   62.1523 C   0  0  0  0  0  0  0  0  0  0  0  0
  -31.5187   59.9889   61.7127 C   0  0  0  0  0  0  0  0  0  0  0  0
  -30.0788   60.3650   61.9960 C   0  0  0  0  0  0  0  0  0  0  0  0
  -29.9316   61.6207   62.8441 C   0  0  0  0  0  0  0  0  0  0  0  0
  -31.0000   62.6652   62.5738 C   0  0  0  0  0  0  0  0  0  0  0  0
  -29.0990   64.2279   62.0451 C   0  0  0  0  0  0  0  0  0  0  0  0
  -30.5043   64.0987   62.5876 C   0  0  0  0  0  0  0  0  0  0  0  0
  -37.1709   60.4290   65.3263 C   0  0  0  0  0  0  0  0  0  0  0  0
  -37.1010   61.8690   65.2266 O   0  0  0  0  0  0  0  0  0  0  0  0
  -36.2031   62.7635   66.2043 P   0  0  0  0  0  0  0  0  0  0  0  0
  -36.7773   64.1259   66.2349 O   0  0  0  0  0  0  0  0  0  0  0  0
  -36.0414   62.0297   67.4827 O   0  0  0  0  0  0  0  0  0  0  0  0
  -36.9002   61.9643   67.9288 H   0  0  0  0  0  0  0  0  0  0  0  0
  -34.7729   62.8489   65.5042 O   0  0  0  0  0  0  0  0  0  0  0  0
  -33.7624   63.7316   66.0329 C   0  0  0  0  0  0  0  0  0  0  0  0
  -34.6034   65.4659   64.6091 O   0  0  0  0  0  0  0  0  0  0  0  0
  -33.4194   64.7504   64.9740 C   0  0  0  0  0  0  0  0  0  0  0  0
  -35.2840   64.8384   64.3195 H   0  0  0  0  0  0  0  0  0  0  0  0
  -31.2929   65.0185   66.0806 O   0  0  0  0  0  0  0  0  0  0  0  0
  -32.3481   65.7128   65.4277 C   0  0  0  0  0  0  0  0  0  0  0  0
  -30.6156   65.6523   66.3643 H   0  0  0  0  0  0  0  0  0  0  0  0
  -39.3095   59.2347   65.5593 O   0  0  0  0  0  0  0  0  0  0  0  0
  -40.7380   60.9453   65.8651 O   0  0  0  0  0  0  0  0  0  0  0  0
  -40.5275   59.7664   65.7782 C   0  0  0  0  0  0  0  0  0  0  0  0
  -41.5880   58.7143   65.8815 C   0  0  0  0  0  0  0  0  0  0  0  0
  -42.6310   59.0738   66.9350 C   0  0  0  0  0  0  0  0  0  0  0  0
  -44.0546   58.7177   66.5393 C   0  0  0  0  0  0  0  0  0  0  0  0
  -44.3042   58.7823   65.0368 C   0  0  0  0  0  0  0  0  0  0  0  0
  -45.3401   57.7910   64.5403 C   0  0  0  0  0  0  0  0  0  0  0  0
  -46.3443   57.3340   65.6022 C   0  0  0  0  0  0  0  0  0  0  0  0
  -47.8123   57.6154   65.2747 C   0  0  0  0  0  0  0  0  0  0  0  0
  -47.9773   58.8429   64.4297 C   0  0  0  0  0  0  0  0  0  0  0  0
  -49.0529   59.1935   63.7518 C   0  0  0  0  0  0  0  0  0  0  0  0
  -50.3409   58.4351   63.6860 C   0  0  0  0  0  0  0  0  0  0  0  0
  -50.7579   58.1190   62.2527 C   0  0  0  0  0  0  0  0  0  0  0  0
  -49.8991   58.8024   61.2031 C   0  0  0  0  0  0  0  0  0  0  0  0
  -49.5497   57.9093   60.0251 C   0  0  0  0  0  0  0  0  0  0  0  0
  -48.0959   57.4689   59.9781 C   0  0  0  0  0  0  0  0  0  0  0  0
  -47.5967   57.1771   58.5713 C   0  0  0  0  0  0  0  0  0  0  0  0
  -47.1707   55.7395   58.3482 C   0  0  0  0  0  0  0  0  0  0  0  0
  -47.8142   55.1236   57.1374 C   0  0  0  0  0  0  0  0  0  0  0  0
 21 22  1  0  0  0
  4  5  2  0  0  0
 25 24  1  0  0  0
 25 26  2  0  0  0
 25 27  1  0  0  0
 25 29  1  0  0  0
 22 20  1  0  0  0
  3  5  1  0  0  0
  3  2  1  0  0  0
 20 19  1  0  0  0
 24 23  1  0  0  0
 19 18  1  0  0  0
 18 17  1  0  0  0
 27 28  1  0  0  0
 17 16  1  0  0  0
 29 30  1  0  0  0
 16 15  1  0  0  0
 34 35  1  0  0  0
 34 36  1  0  0  0
 15 14  1  0  0  0
 31 32  1  0  0  0
 31 33  1  0  0  0
 14 13  1  0  0  0
 37  1  1  0  0  0
 37 39  1  0  0  0
 13 12  1  0  0  0
 38 39  2  0  0  0
 12 11  1  0  0  0
 11 10  1  0  0  0
 10  9  1  0  0  0
  9  8  1  0  0  0
  8  7  1  0  0  0
  7  6  1  0  0  0
  6  5  1  0  0  0
  2  1  1  0  0  0
  1 23  1  0  0  0
 30 32  1  0  0  0
 32 35  1  0  0  0
 39 40  1  0  0  0
 40 41  1  0  0  0
 41 42  1  0  0  0
 42 43  1  0  0  0
 43 44  1  0  0  0
 44 45  1  0  0  0
 45 46  1  0  0  0
 46 47  1  0  0  0
 47 48  2  0  0  0
 48 49  1  0  0  0
 49 50  1  0  0  0
 50 51  1  0  0  0
 51 52  1  0  0  0
 52 53  1  0  0  0
 53 54  1  0  0  0
 54 55  1  0  0  0
 55 56  1  0  0  0
M  CHG 1  26  -1
M  END
> <minimizedAffinity>
-8.91865

> <CNNscore>
0.7763872743

> <CNNaffinity>
7.4242424965

> <CNN_VS>
5.7640872002

> <CNNaffinity_variance>
0.5045204163

$$$$
/media/chris/experiments/cd1a-new-docking/inputs/ligands/7sh4_ligand.pdb


 56 55  0  0  0  0  0  0  0  0999 V2000
  -39.0056   59.5664   65.1088 C   0  0  0  0  0  0  0  0  0  0  0  0
  -38.4880   58.1558   65.1097 C   0  0  0  0  0  0  0  0  0  0  0  0
  -39.1702   57.5329   64.0008 O   0  0  0  0  0  0  0  0  0  0  0  0
  -39.4415   58.8375   62.2054 O   0  0  0  0  0  0  0  0  0  0  0  0
  -38.8527   57.9610   62.7787 C   0  0  0  0  0  0  0  0  0  0  0  0
  -37.6022   57.2966   62.2789 C   0  0  0  0  0  0  0  0  0  0  0  0
  -37.6199   56.9782   60.7934 C   0  0  0  0  0  0  0  0  0  0  0  0
  -37.1846   58.1492   59.9376 C   0  0  0  0  0  0  0  0  0  0  0  0
  -37.0458   57.8241   58.4676 C   0  0  0  0  0  0  0  0  0  0  0  0
  -36.1467   56.6328   58.2058 C   0  0  0  0  0  0  0  0  0  0  0  0
  -34.7136   57.0190   57.9329 C   0  0  0  0  0  0  0  0  0  0  0  0
  -33.7317   56.3028   58.8220 C   0  0  0  0  0  0  0  0  0  0  0  0
  -34.3804   55.6220   60.0069 C   0  0  0  0  0  0  0  0  0  0  0  0
  -33.9936   56.2538   61.3289 C   0  0  0  0  0  0  0  0  0  0  0  0
  -33.4700   57.6695   61.2073 C   0  0  0  0  0  0  0  0  0  0  0  0
  -32.8146   58.1952   62.4794 C   0  0  0  0  0  0  0  0  0  0  0  0
  -32.3189   59.6245   62.3717 C   0  0  0  0  0  0  0  0  0  0  0  0
  -30.8176   59.7295   62.1969 C   0  0  0  0  0  0  0  0  0  0  0  0
  -30.3740   60.9964   61.4788 C   0  0  0  0  0  0  0  0  0  0  0  0
  -31.1205   62.2410   61.9252 C   0  0  0  0  0  0  0  0  0  0  0  0
  -30.6947   63.3399   64.1492 C   0  0  0  0  0  0  0  0  0  0  0  0
  -30.2820   63.2411   62.6981 C   0  0  0  0  0  0  0  0  0  0  0  0
  -37.9359   60.5623   65.4773 C   0  0  0  0  0  0  0  0  0  0  0  0
  -37.6865   61.4189   64.3405 O   0  0  0  0  0  0  0  0  0  0  0  0
  -36.2655   61.4961   63.6077 P   0  0  0  0  0  0  0  0  0  0  0  0
  -35.9294   60.1423   63.1166 O   0  0  0  0  0  0  0  0  0  0  0  0
  -36.3071   62.6160   62.6368 O   0  0  0  0  0  0  0  0  0  0  0  0
  -36.9373   62.4076   61.9297 H   0  0  0  0  0  0  0  0  0  0  0  0
  -35.2210   61.8771   64.7509 O   0  0  0  0  0  0  0  0  0  0  0  0
  -34.4485   63.0905   64.6470 C   0  0  0  0  0  0  0  0  0  0  0  0
  -36.1546   64.7503   64.9233 O   0  0  0  0  0  0  0  0  0  0  0  0
  -35.0491   64.1178   65.5749 C   0  0  0  0  0  0  0  0  0  0  0  0
  -35.8588   65.1320   64.0821 H   0  0  0  0  0  0  0  0  0  0  0  0
  -34.3939   62.9141   67.5600 O   0  0  0  0  0  0  0  0  0  0  0  0
  -35.4919   63.5175   66.8876 C   0  0  0  0  0  0  0  0  0  0  0  0
  -34.6977   62.5347   68.3995 H   0  0  0  0  0  0  0  0  0  0  0  0
  -40.1504   59.6385   66.0221 O   0  0  0  0  0  0  0  0  0  0  0  0
  -41.5044   60.4686   64.4290 O   0  0  0  0  0  0  0  0  0  0  0  0
  -41.3533   59.8970   65.4740 C   0  0  0  0  0  0  0  0  0  0  0  0
  -42.4763   59.3710   66.3133 C   0  0  0  0  0  0  0  0  0  0  0  0
  -43.5076   58.6316   65.4668 C   0  0  0  0  0  0  0  0  0  0  0  0
  -44.8260   59.3725   65.3154 C   0  0  0  0  0  0  0  0  0  0  0  0
  -45.9521   58.7930   66.1639 C   0  0  0  0  0  0  0  0  0  0  0  0
  -46.4518   57.4421   65.6867 C   0  0  0  0  0  0  0  0  0  0  0  0
  -47.9744   57.2817   65.7108 C   0  0  0  0  0  0  0  0  0  0  0  0
  -48.7591   58.5568   66.0270 C   0  0  0  0  0  0  0  0  0  0  0  0
  -50.1489   58.5185   65.4659 C   0  0  0  0  0  0  0  0  0  0  0  0
  -50.4978   58.7292   64.2115 C   0  0  0  0  0  0  0  0  0  0  0  0
  -49.5730   59.0506   63.0803 C   0  0  0  0  0  0  0  0  0  0  0  0
  -49.1983   57.8158   62.2657 C   0  0  0  0  0  0  0  0  0  0  0  0
  -50.2290   57.4433   61.2144 C   0  0  0  0  0  0  0  0  0  0  0  0
  -49.6227   57.0505   59.8782 C   0  0  0  0  0  0  0  0  0  0  0  0
  -48.3012   57.7312   59.5619 C   0  0  0  0  0  0  0  0  0  0  0  0
  -47.2375   56.7764   59.0417 C   0  0  0  0  0  0  0  0  0  0  0  0
  -47.7755   55.4345   58.5857 C   0  0  0  0  0  0  0  0  0  0  0  0
  -47.7708   55.2840   57.0901 C   0  0  0  0  0  0  0  0  0  0  0  0
 21 22  1  0  0  0
  4  5  2  0  0  0
 25 24  1  0  0  0
 25 26  2  0  0  0
 25 27  1  0  0  0
 25 29  1  0  0  0
 22 20  1  0  0  0
  3  5  1  0  0  0
  3  2  1  0  0  0
 20 19  1  0  0  0
 24 23  1  0  0  0
 19 18  1  0  0  0
 18 17  1  0  0  0
 27 28  1  0  0  0
 17 16  1  0  0  0
 29 30  1  0  0  0
 16 15  1  0  0  0
 34 35  1  0  0  0
 34 36  1  0  0  0
 15 14  1  0  0  0
 31 32  1  0  0  0
 31 33  1  0  0  0
 14 13  1  0  0  0
 37  1  1  0  0  0
 37 39  1  0  0  0
 13 12  1  0  0  0
 38 39  2  0  0  0
 12 11  1  0  0  0
 11 10  1  0  0  0
 10  9  1  0  0  0
  9  8  1  0  0  0
  8  7  1  0  0  0
  7  6  1  0  0  0
  6  5  1  0  0  0
  2  1  1  0  0  0
  1 23  1  0  0  0
 30 32  1  0  0  0
 32 35  1  0  0  0
 39 40  1  0  0  0
 40 41  1  0  0  0
 41 42  1  0  0  0
 42 43  1  0  0  0
 43 44  1  0  0  0
 44 45  1  0  0  0
 45 46  1  0  0  0
 46 47  1  0  0  0
 47 48  2  0  0  0
 48 49  1  0  0  0
 49 50  1  0  0  0
 50 51  1  0  0  0
 51 52  1  0  0  0
 52 53  1  0  0  0
 53 54  1  0  0  0
 54 55  1  0  0  0
 55 56  1  0  0  0
M  CHG 1  26  -1
M  END
> <minimizedAffinity>
-8.87126

> <CNNscore>
0.7238025069

> <CNNaffinity>
7.3863067627

> <CNN_VS>
5.3462271690

> <CNNaffinity_variance>
0.4882104397

$$$$
/media/chris/experiments/cd1a-new-docking/inputs/ligands/7sh4_ligand.pdb


 56 55  0  0  0  0  0  0  0  0999 V2000
  -38.2502   60.5789   63.1093 C   0  0  0  0  0  0  0  0  0  0  0  0
  -37.5968   59.6043   62.1707 C   0  0  0  0  0  0  0  0  0  0  0  0
  -37.5960   60.2898   60.9006 O   0  0  0  0  0  0  0  0  0  0  0  0
  -39.1445   60.2662   59.2879 O   0  0  0  0  0  0  0  0  0  0  0  0
  -38.2718   59.7166   59.9043 C   0  0  0  0  0  0  0  0  0  0  0  0
  -37.7153   58.3599   59.5813 C   0  0  0  0  0  0  0  0  0  0  0  0
  -36.9732   58.2928   58.2571 C   0  0  0  0  0  0  0  0  0  0  0  0
  -36.2201   56.9922   58.0725 C   0  0  0  0  0  0  0  0  0  0  0  0
  -34.7242   57.1579   57.9286 C   0  0  0  0  0  0  0  0  0  0  0  0
  -33.9348   56.1679   58.7610 C   0  0  0  0  0  0  0  0  0  0  0  0
  -34.7108   55.6299   59.9382 C   0  0  0  0  0  0  0  0  0  0  0  0
  -34.1680   56.0959   61.2633 C   0  0  0  0  0  0  0  0  0  0  0  0
  -34.8558   57.3354   61.7914 C   0  0  0  0  0  0  0  0  0  0  0  0
  -34.0245   58.0717   62.8224 C   0  0  0  0  0  0  0  0  0  0  0  0
  -32.5318   58.0020   62.5768 C   0  0  0  0  0  0  0  0  0  0  0  0
  -32.0349   58.9827   61.5207 C   0  0  0  0  0  0  0  0  0  0  0  0
  -31.5593   60.3075   62.0854 C   0  0  0  0  0  0  0  0  0  0  0  0
  -30.0545   60.3902   62.2408 C   0  0  0  0  0  0  0  0  0  0  0  0
  -29.5022   61.8010   62.0909 C   0  0  0  0  0  0  0  0  0  0  0  0
  -30.5688   62.8444   61.8099 C   0  0  0  0  0  0  0  0  0  0  0  0
  -30.6045   63.3344   64.2785 C   0  0  0  0  0  0  0  0  0  0  0  0
  -30.7168   63.9059   62.8833 C   0  0  0  0  0  0  0  0  0  0  0  0
  -37.2764   61.1341   64.1170 C   0  0  0  0  0  0  0  0  0  0  0  0
  -36.9884   62.5088   63.7768 O   0  0  0  0  0  0  0  0  0  0  0  0
  -35.5650   62.9847   63.2204 P   0  0  0  0  0  0  0  0  0  0  0  0
  -34.6437   61.8290   63.2712 O   0  0  0  0  0  0  0  0  0  0  0  0
  -35.7816   63.6663   61.9215 O   0  0  0  0  0  0  0  0  0  0  0  0
  -36.0987   63.0235   61.2680 H   0  0  0  0  0  0  0  0  0  0  0  0
  -35.0458   64.0727   64.2641 O   0  0  0  0  0  0  0  0  0  0  0  0
  -34.0709   63.7076   65.2622 C   0  0  0  0  0  0  0  0  0  0  0  0
  -33.8131   62.3463   67.2173 O   0  0  0  0  0  0  0  0  0  0  0  0
  -34.7817   62.9834   66.3790 C   0  0  0  0  0  0  0  0  0  0  0  0
  -33.2589   61.7576   66.6815 H   0  0  0  0  0  0  0  0  0  0  0  0
  -36.8899   64.1450   66.5368 O   0  0  0  0  0  0  0  0  0  0  0  0
  -35.6541   63.9045   67.1977 C   0  0  0  0  0  0  0  0  0  0  0  0
  -37.4356   64.7376   67.0771 H   0  0  0  0  0  0  0  0  0  0  0  0
  -39.3790   59.9068   63.7604 O   0  0  0  0  0  0  0  0  0  0  0  0
  -40.8485   60.8120   62.3177 O   0  0  0  0  0  0  0  0  0  0  0  0
  -40.6147   60.2611   63.3587 C   0  0  0  0  0  0  0  0  0  0  0  0
  -41.6617   59.8701   64.3553 C   0  0  0  0  0  0  0  0  0  0  0  0
  -41.2239   58.6653   65.1822 C   0  0  0  0  0  0  0  0  0  0  0  0
  -42.0476   58.4498   66.4411 C   0  0  0  0  0  0  0  0  0  0  0  0
  -42.9068   57.1912   66.3996 C   0  0  0  0  0  0  0  0  0  0  0  0
  -44.3032   57.4153   65.8498 C   0  0  0  0  0  0  0  0  0  0  0  0
  -44.9951   58.6801   66.3657 C   0  0  0  0  0  0  0  0  0  0  0  0
  -46.0509   59.2730   65.4301 C   0  0  0  0  0  0  0  0  0  0  0  0
  -47.3211   59.6087   66.1525 C   0  0  0  0  0  0  0  0  0  0  0  0
  -48.5450   59.5437   65.6651 C   0  0  0  0  0  0  0  0  0  0  0  0
  -48.9225   59.1172   64.2817 C   0  0  0  0  0  0  0  0  0  0  0  0
  -50.3559   58.5998   64.2027 C   0  0  0  0  0  0  0  0  0  0  0  0
  -50.9564   58.6784   62.8100 C   0  0  0  0  0  0  0  0  0  0  0  0
  -50.1040   59.4549   61.8213 C   0  0  0  0  0  0  0  0  0  0  0  0
  -49.6260   58.6432   60.6286 C   0  0  0  0  0  0  0  0  0  0  0  0
  -50.4012   57.3502   60.4262 C   0  0  0  0  0  0  0  0  0  0  0  0
  -49.5305   56.1383   60.1595 C   0  0  0  0  0  0  0  0  0  0  0  0
  -48.2686   56.4809   59.4180 C   0  0  0  0  0  0  0  0  0  0  0  0
 21 22  1  0  0  0
  4  5  2  0  0  0
 25 24  1  0  0  0
 25 26  2  0  0  0
 25 27  1  0  0  0
 25 29  1  0  0  0
 22 20  1  0  0  0
  3  5  1  0  0  0
  3  2  1  0  0  0
 20 19  1  0  0  0
 24 23  1  0  0  0
 19 18  1  0  0  0
 18 17  1  0  0  0
 27 28  1  0  0  0
 17 16  1  0  0  0
 29 30  1  0  0  0
 16 15  1  0  0  0
 34 35  1  0  0  0
 34 36  1  0  0  0
 15 14  1  0  0  0
 31 32  1  0  0  0
 31 33  1  0  0  0
 14 13  1  0  0  0
 37  1  1  0  0  0
 37 39  1  0  0  0
 13 12  1  0  0  0
 38 39  2  0  0  0
 12 11  1  0  0  0
 11 10  1  0  0  0
 10  9  1  0  0  0
  9  8  1  0  0  0
  8  7  1  0  0  0
  7  6  1  0  0  0
  6  5  1  0  0  0
  2  1  1  0  0  0
  1 23  1  0  0  0
 30 32  1  0  0  0
 32 35  1  0  0  0
 39 40  1  0  0  0
 40 41  1  0  0  0
 41 42  1  0  0  0
 42 43  1  0  0  0
 43 44  1  0  0  0
 44 45  1  0  0  0
 45 46  1  0  0  0
 46 47  1  0  0  0
 47 48  2  0  0  0
 48 49  1  0  0  0
 49 50  1  0  0  0
 50 51  1  0  0  0
 51 52  1  0  0  0
 52 53  1  0  0  0
 53 54  1  0  0  0
 54 55  1  0  0  0
 55 56  1  0  0  0
M  CHG 1  26  -1
M  END
> <minimizedAffinity>
-9.10585

> <CNNscore>
0.7104261518

> <CNNaffinity>
7.3162622452

> <CNN_VS>
5.1976642609

> <CNNaffinity_variance>
0.6892934442

$$$$
/media/chris/experiments/cd1a-new-docking/inputs/ligands/7sh4_ligand.pdb


 56 55  0  0  0  0  0  0  0  0999 V2000
  -38.2877   60.4477   65.5633 C   0  0  0  0  0  0  0  0  0  0  0  0
  -38.0457   58.9765   65.3765 C   0  0  0  0  0  0  0  0  0  0  0  0
  -36.8316   58.9184   64.5982 O   0  0  0  0  0  0  0  0  0  0  0  0
  -36.5406   59.7770   62.5544 O   0  0  0  0  0  0  0  0  0  0  0  0
  -36.9643   58.9111   63.2715 C   0  0  0  0  0  0  0  0  0  0  0  0
  -37.5923   57.6327   62.7961 C   0  0  0  0  0  0  0  0  0  0  0  0
  -38.3488   57.7630   61.4850 C   0  0  0  0  0  0  0  0  0  0  0  0
  -37.4994   57.4146   60.2809 C   0  0  0  0  0  0  0  0  0  0  0  0
  -37.6216   58.3914   59.1333 C   0  0  0  0  0  0  0  0  0  0  0  0
  -36.9185   57.9208   57.8762 C   0  0  0  0  0  0  0  0  0  0  0  0
  -35.9520   56.7887   58.1246 C   0  0  0  0  0  0  0  0  0  0  0  0
  -34.5184   57.1723   57.8696 C   0  0  0  0  0  0  0  0  0  0  0  0
  -33.5249   56.3214   58.6293 C   0  0  0  0  0  0  0  0  0  0  0  0
  -34.1182   55.7049   59.8801 C   0  0  0  0  0  0  0  0  0  0  0  0
  -33.4366   56.1329   61.1629 C   0  0  0  0  0  0  0  0  0  0  0  0
  -34.1572   57.2575   61.8977 C   0  0  0  0  0  0  0  0  0  0  0  0
  -33.2272   58.2556   62.5604 C   0  0  0  0  0  0  0  0  0  0  0  0
  -32.0937   58.7097   61.6636 C   0  0  0  0  0  0  0  0  0  0  0  0
  -31.6135   60.1244   61.9561 C   0  0  0  0  0  0  0  0  0  0  0  0
  -30.1129   60.2260   62.1638 C   0  0  0  0  0  0  0  0  0  0  0  0
  -30.6297   62.6666   61.8286 C   0  0  0  0  0  0  0  0  0  0  0  0
  -29.5548   61.6342   62.0831 C   0  0  0  0  0  0  0  0  0  0  0  0
  -37.1445   61.1235   66.2760 C   0  0  0  0  0  0  0  0  0  0  0  0
  -36.7958   62.3282   65.5581 O   0  0  0  0  0  0  0  0  0  0  0  0
  -36.0228   63.5521   66.2412 P   0  0  0  0  0  0  0  0  0  0  0  0
  -36.1122   64.7150   65.3321 O   0  0  0  0  0  0  0  0  0  0  0  0
  -36.5204   63.6944   67.6308 O   0  0  0  0  0  0  0  0  0  0  0  0
  -37.4504   63.9693   67.6145 H   0  0  0  0  0  0  0  0  0  0  0  0
  -34.4952   63.1001   66.3117 O   0  0  0  0  0  0  0  0  0  0  0  0
  -33.6996   63.0560   65.1096 C   0  0  0  0  0  0  0  0  0  0  0  0
  -31.3608   63.5708   65.1927 O   0  0  0  0  0  0  0  0  0  0  0  0
  -32.6671   64.1541   65.1819 C   0  0  0  0  0  0  0  0  0  0  0  0
  -31.2930   62.9431   65.9290 H   0  0  0  0  0  0  0  0  0  0  0  0
  -33.8392   66.0630   64.2870 O   0  0  0  0  0  0  0  0  0  0  0  0
  -32.7904   65.1350   64.0407 C   0  0  0  0  0  0  0  0  0  0  0  0
  -33.9027   66.6838   63.5443 H   0  0  0  0  0  0  0  0  0  0  0  0
  -39.5528   60.6194   66.2842 O   0  0  0  0  0  0  0  0  0  0  0  0
  -40.8201   60.8894   64.4454 O   0  0  0  0  0  0  0  0  0  0  0  0
  -40.6862   60.4870   65.5687 C   0  0  0  0  0  0  0  0  0  0  0  0
  -41.7506   59.7630   66.3336 C   0  0  0  0  0  0  0  0  0  0  0  0
  -42.0029   58.3723   65.7601 C   0  0  0  0  0  0  0  0  0  0  0  0
  -43.4686   57.9706   65.7397 C   0  0  0  0  0  0  0  0  0  0  0  0
  -44.3803   59.0218   65.1170 C   0  0  0  0  0  0  0  0  0  0  0  0
  -45.7834   59.0415   65.6941 C   0  0  0  0  0  0  0  0  0  0  0  0
  -46.8334   58.3259   64.8396 C   0  0  0  0  0  0  0  0  0  0  0  0
  -48.0024   59.1986   64.3776 C   0  0  0  0  0  0  0  0  0  0  0  0
  -49.3265   58.5283   64.5912 C   0  0  0  0  0  0  0  0  0  0  0  0
  -50.2382   58.2750   63.6724 C   0  0  0  0  0  0  0  0  0  0  0  0
  -50.1392   58.6045   62.2164 C   0  0  0  0  0  0  0  0  0  0  0  0
  -50.7753   57.5354   61.3328 C   0  0  0  0  0  0  0  0  0  0  0  0
  -49.7689   56.7308   60.5290 C   0  0  0  0  0  0  0  0  0  0  0  0
  -49.1486   57.5049   59.3787 C   0  0  0  0  0  0  0  0  0  0  0  0
  -47.6317   57.4345   59.3178 C   0  0  0  0  0  0  0  0  0  0  0  0
  -47.0802   57.4689   57.9006 C   0  0  0  0  0  0  0  0  0  0  0  0
  -47.8550   56.6215   56.9110 C   0  0  0  0  0  0  0  0  0  0  0  0
  -47.5412   55.1562   57.0294 C   0  0  0  0  0  0  0  0  0  0  0  0
 21 22  1  0  0  0
  4  5  2  0  0  0
 25 24  1  0  0  0
 25 26  2  0  0  0
 25 27  1  0  0  0
 25 29  1  0  0  0
 22 20  1  0  0  0
  3  5  1  0  0  0
  3  2  1  0  0  0
 20 19  1  0  0  0
 24 23  1  0  0  0
 19 18  1  0  0  0
 18 17  1  0  0  0
 27 28  1  0  0  0
 17 16  1  0  0  0
 29 30  1  0  0  0
 16 15  1  0  0  0
 34 35  1  0  0  0
 34 36  1  0  0  0
 15 14  1  0  0  0
 31 32  1  0  0  0
 31 33  1  0  0  0
 14 13  1  0  0  0
 37  1  1  0  0  0
 37 39  1  0  0  0
 13 12  1  0  0  0
 38 39  2  0  0  0
 12 11  1  0  0  0
 11 10  1  0  0  0
 10  9  1  0  0  0
  9  8  1  0  0  0
  8  7  1  0  0  0
  7  6  1  0  0  0
  6  5  1  0  0  0
  2  1  1  0  0  0
  1 23  1  0  0  0
 30 32  1  0  0  0
 32 35  1  0  0  0
 39 40  1  0  0  0
 40 41  1  0  0  0
 41 42  1  0  0  0
 42 43  1  0  0  0
 43 44  1  0  0  0
 44 45  1  0  0  0
 45 46  1  0  0  0
 46 47  1  0  0  0
 47 48  2  0  0  0
 48 49  1  0  0  0
 49 50  1  0  0  0
 50 51  1  0  0  0
 51 52  1  0  0  0
 52 53  1  0  0  0
 53 54  1  0  0  0
 54 55  1  0  0  0
 55 56  1  0  0  0
M  CHG 1  26  -1
M  END
> <minimizedAffinity>
-9.18655

> <CNNscore>
0.5928062797

> <CNNaffinity>
7.2726807594

> <CNN_VS>
4.3112907410

> <CNNaffinity_variance>
0.4020917416

$$$$
/media/chris/experiments/cd1a-new-docking/inputs/ligands/7sh4_ligand.pdb


 56 55  0  0  0  0  0  0  0  0999 V2000
  -39.8055   58.7630   63.5347 C   0  0  0  0  0  0  0  0  0  0  0  0
  -38.8103   57.7664   63.0112 C   0  0  0  0  0  0  0  0  0  0  0  0
  -38.7873   58.0101   61.5888 O   0  0  0  0  0  0  0  0  0  0  0  0
  -36.9755   59.0067   60.7384 O   0  0  0  0  0  0  0  0  0  0  0  0
  -37.5936   58.0088   60.9948 C   0  0  0  0  0  0  0  0  0  0  0  0
  -37.0812   56.6095   60.8097 C   0  0  0  0  0  0  0  0  0  0  0  0
  -36.4647   56.3499   59.4455 C   0  0  0  0  0  0  0  0  0  0  0  0
  -35.0359   56.8411   59.3449 C   0  0  0  0  0  0  0  0  0  0  0  0
  -34.0093   55.8761   59.8933 C   0  0  0  0  0  0  0  0  0  0  0  0
  -33.4880   56.2770   61.2584 C   0  0  0  0  0  0  0  0  0  0  0  0
  -33.5609   57.7634   61.5091 C   0  0  0  0  0  0  0  0  0  0  0  0
  -32.4422   58.2685   62.3814 C   0  0  0  0  0  0  0  0  0  0  0  0
  -31.9951   59.6708   62.0323 C   0  0  0  0  0  0  0  0  0  0  0  0
  -30.4884   59.7965   61.9306 C   0  0  0  0  0  0  0  0  0  0  0  0
  -30.0008   61.2107   61.6952 C   0  0  0  0  0  0  0  0  0  0  0  0
  -30.2799   62.1596   62.8552 C   0  0  0  0  0  0  0  0  0  0  0  0
  -29.5893   63.5042   62.7312 C   0  0  0  0  0  0  0  0  0  0  0  0
  -30.1391   64.3622   61.6100 C   0  0  0  0  0  0  0  0  0  0  0  0
  -31.6242   64.6678   61.7476 C   0  0  0  0  0  0  0  0  0  0  0  0
  -32.0685   64.8901   63.1823 C   0  0  0  0  0  0  0  0  0  0  0  0
  -33.6679   62.9516   63.0431 C   0  0  0  0  0  0  0  0  0  0  0  0
  -33.4593   64.3766   63.5030 C   0  0  0  0  0  0  0  0  0  0  0  0
  -39.6083   60.1303   62.9320 C   0  0  0  0  0  0  0  0  0  0  0  0
  -38.8423   60.9385   63.8531 O   0  0  0  0  0  0  0  0  0  0  0  0
  -37.2741   61.2052   63.6758 P   0  0  0  0  0  0  0  0  0  0  0  0
  -36.5448   60.0779   64.2957 O   0  0  0  0  0  0  0  0  0  0  0  0
  -37.0180   61.5210   62.2498 O   0  0  0  0  0  0  0  0  0  0  0  0
  -37.1968   60.7368   61.7078 H   0  0  0  0  0  0  0  0  0  0  0  0
  -36.9694   62.5165   64.5305 O   0  0  0  0  0  0  0  0  0  0  0  0
  -36.0970   62.4441   65.6766 C   0  0  0  0  0  0  0  0  0  0  0  0
  -36.9904   64.1833   67.0620 O   0  0  0  0  0  0  0  0  0  0  0  0
  -35.8940   63.8415   66.2089 C   0  0  0  0  0  0  0  0  0  0  0  0
  -37.8228   64.0850   66.5739 H   0  0  0  0  0  0  0  0  0  0  0  0
  -34.2537   62.7810   67.6243 O   0  0  0  0  0  0  0  0  0  0  0  0
  -34.5887   63.9891   66.9533 C   0  0  0  0  0  0  0  0  0  0  0  0
  -33.4137   62.8953   68.0959 H   0  0  0  0  0  0  0  0  0  0  0  0
  -39.7008   58.7953   64.9968 O   0  0  0  0  0  0  0  0  0  0  0  0
  -41.0493   60.1664   66.1640 O   0  0  0  0  0  0  0  0  0  0  0  0
  -40.8218   59.0901   65.6829 C   0  0  0  0  0  0  0  0  0  0  0  0
  -41.7565   57.9226   65.7577 C   0  0  0  0  0  0  0  0  0  0  0  0
  -43.0800   58.3073   66.4112 C   0  0  0  0  0  0  0  0  0  0  0  0
  -44.3014   57.7266   65.7178 C   0  0  0  0  0  0  0  0  0  0  0  0
  -45.2866   58.7835   65.2316 C   0  0  0  0  0  0  0  0  0  0  0  0
  -46.6132   58.2191   64.7584 C   0  0  0  0  0  0  0  0  0  0  0  0
  -47.7293   58.2522   65.8063 C   0  0  0  0  0  0  0  0  0  0  0  0
  -48.5609   59.5364   65.8322 C   0  0  0  0  0  0  0  0  0  0  0  0
  -48.5840   60.2213   64.4986 C   0  0  0  0  0  0  0  0  0  0  0  0
  -49.5655   60.1971   63.6178 C   0  0  0  0  0  0  0  0  0  0  0  0
  -50.8686   59.4779   63.7681 C   0  0  0  0  0  0  0  0  0  0  0  0
  -51.2557   58.7052   62.5105 C   0  0  0  0  0  0  0  0  0  0  0  0
  -50.0769   58.0557   61.8070 C   0  0  0  0  0  0  0  0  0  0  0  0
  -50.4794   57.1182   60.6817 C   0  0  0  0  0  0  0  0  0  0  0  0
  -49.7858   57.3903   59.3571 C   0  0  0  0  0  0  0  0  0  0  0  0
  -48.3502   56.8896   59.3112 C   0  0  0  0  0  0  0  0  0  0  0  0
  -47.6020   57.2614   58.0463 C   0  0  0  0  0  0  0  0  0  0  0  0
  -47.6610   56.1854   56.9984 C   0  0  0  0  0  0  0  0  0  0  0  0
 21 22  1  0  0  0
  4  5  2  0  0  0
 25 24  1  0  0  0
 25 26  2  0  0  0
 25 27  1  0  0  0
 25 29  1  0  0  0
 22 20  1  0  0  0
  3  5  1  0  0  0
  3  2  1  0  0  0
 20 19  1  0  0  0
 24 23  1  0  0  0
 19 18  1  0  0  0
 18 17  1  0  0  0
 27 28  1  0  0  0
 17 16  1  0  0  0
 29 30  1  0  0  0
 16 15  1  0  0  0
 34 35  1  0  0  0
 34 36  1  0  0  0
 15 14  1  0  0  0
 31 32  1  0  0  0
 31 33  1  0  0  0
 14 13  1  0  0  0
 37  1  1  0  0  0
 37 39  1  0  0  0
 13 12  1  0  0  0
 38 39  2  0  0  0
 12 11  1  0  0  0
 11 10  1  0  0  0
 10  9  1  0  0  0
  9  8  1  0  0  0
  8  7  1  0  0  0
  7  6  1  0  0  0
  6  5  1  0  0  0
  2  1  1  0  0  0
  1 23  1  0  0  0
 30 32  1  0  0  0
 32 35  1  0  0  0
 39 40  1  0  0  0
 40 41  1  0  0  0
 41 42  1  0  0  0
 42 43  1  0  0  0
 43 44  1  0  0  0
 44 45  1  0  0  0
 45 46  1  0  0  0
 46 47  1  0  0  0
 47 48  2  0  0  0
 48 49  1  0  0  0
 49 50  1  0  0  0
 50 51  1  0  0  0
 51 52  1  0  0  0
 52 53  1  0  0  0
 53 54  1  0  0  0
 54 55  1  0  0  0
 55 56  1  0  0  0
M  CHG 1  26  -1
M  END
> <minimizedAffinity>
-8.79190

> <CNNscore>
0.5915642977

> <CNNaffinity>
7.0585355759

> <CNN_VS>
4.1755776405

> <CNNaffinity_variance>
0.4065900743

$$$$
/media/chris/experiments/cd1a-new-docking/inputs/ligands/7sh4_ligand.pdb


 56 55  0  0  0  0  0  0  0  0999 V2000
  -37.1027   61.1391   64.9413 C   0  0  0  0  0  0  0  0  0  0  0  0
  -38.0365   61.0080   63.7715 C   0  0  0  0  0  0  0  0  0  0  0  0
  -39.3296   60.8015   64.3784 O   0  0  0  0  0  0  0  0  0  0  0  0
  -40.3330   60.7682   62.3805 O   0  0  0  0  0  0  0  0  0  0  0  0
  -40.3455   60.5311   63.5583 C   0  0  0  0  0  0  0  0  0  0  0  0
  -41.4365   59.7870   64.2732 C   0  0  0  0  0  0  0  0  0  0  0  0
  -41.0052   59.1702   65.5930 C   0  0  0  0  0  0  0  0  0  0  0  0
  -42.1649   58.9383   66.5385 C   0  0  0  0  0  0  0  0  0  0  0  0
  -43.5228   58.9800   65.8749 C   0  0  0  0  0  0  0  0  0  0  0  0
  -44.1703   57.6147   65.7624 C   0  0  0  0  0  0  0  0  0  0  0  0
  -45.4249   57.6197   64.9236 C   0  0  0  0  0  0  0  0  0  0  0  0
  -46.2805   58.8377   65.1519 C   0  0  0  0  0  0  0  0  0  0  0  0
  -47.0365   58.8035   66.4617 C   0  0  0  0  0  0  0  0  0  0  0  0
  -48.5224   59.0436   66.2862 C   0  0  0  0  0  0  0  0  0  0  0  0
  -49.2074   58.0422   65.3800 C   0  0  0  0  0  0  0  0  0  0  0  0
  -50.1579   58.6748   64.3700 C   0  0  0  0  0  0  0  0  0  0  0  0
  -49.8620   58.3041   62.9294 C   0  0  0  0  0  0  0  0  0  0  0  0
  -51.1042   58.1922   62.0692 C   0  0  0  0  0  0  0  0  0  0  0  0
  -50.9732   57.1835   60.9365 C   0  0  0  0  0  0  0  0  0  0  0  0
  -50.2761   57.7379   59.7068 C   0  0  0  0  0  0  0  0  0  0  0  0
  -48.7661   55.7248   59.7587 C   0  0  0  0  0  0  0  0  0  0  0  0
  -48.8738   57.2065   59.4784 C   0  0  0  0  0  0  0  0  0  0  0  0
  -36.4324   62.4885   64.9822 C   0  0  0  0  0  0  0  0  0  0  0  0
  -36.2757   62.9711   63.6290 O   0  0  0  0  0  0  0  0  0  0  0  0
  -34.8443   63.2081   62.9530 P   0  0  0  0  0  0  0  0  0  0  0  0
  -34.0378   61.9839   63.1470 O   0  0  0  0  0  0  0  0  0  0  0  0
  -35.0622   63.7064   61.5735 O   0  0  0  0  0  0  0  0  0  0  0  0
  -35.4740   63.0094   61.0393 H   0  0  0  0  0  0  0  0  0  0  0  0
  -34.1679   64.3804   63.7963 O   0  0  0  0  0  0  0  0  0  0  0  0
  -32.7489   64.3587   64.0526 C   0  0  0  0  0  0  0  0  0  0  0  0
  -31.3122   64.9696   65.8706 O   0  0  0  0  0  0  0  0  0  0  0  0
  -32.5358   64.3033   65.5455 C   0  0  0  0  0  0  0  0  0  0  0  0
  -30.5832   64.5682   65.3724 H   0  0  0  0  0  0  0  0  0  0  0  0
  -33.2005   65.6898   67.4041 O   0  0  0  0  0  0  0  0  0  0  0  0
  -33.6827   64.9161   66.3129 C   0  0  0  0  0  0  0  0  0  0  0  0
  -33.9506   66.0745   67.8841 H   0  0  0  0  0  0  0  0  0  0  0  0
  -36.1235   60.0498   64.8747 O   0  0  0  0  0  0  0  0  0  0  0  0
  -35.7946   59.5022   62.7178 O   0  0  0  0  0  0  0  0  0  0  0  0
  -36.2000   59.2241   63.8133 C   0  0  0  0  0  0  0  0  0  0  0  0
  -36.8330   57.9140   64.1667 C   0  0  0  0  0  0  0  0  0  0  0  0
  -37.2695   57.1500   62.9207 C   0  0  0  0  0  0  0  0  0  0  0  0
  -38.5763   57.6432   62.3216 C   0  0  0  0  0  0  0  0  0  0  0  0
  -38.4351   58.1651   60.8962 C   0  0  0  0  0  0  0  0  0  0  0  0
  -37.2101   57.6451   60.1674 C   0  0  0  0  0  0  0  0  0  0  0  0
  -37.2229   57.8783   58.6540 C   0  0  0  0  0  0  0  0  0  0  0  0
  -36.4595   56.8406   57.8283 C   0  0  0  0  0  0  0  0  0  0  0  0
  -34.9854   57.1131   57.8018 C   0  0  0  0  0  0  0  0  0  0  0  0
  -34.0635   56.5307   58.5437 C   0  0  0  0  0  0  0  0  0  0  0  0
  -34.2984   55.4690   59.5712 C   0  0  0  0  0  0  0  0  0  0  0  0
  -34.1455   55.9934   60.9960 C   0  0  0  0  0  0  0  0  0  0  0  0
  -33.5231   57.3765   61.0729 C   0  0  0  0  0  0  0  0  0  0  0  0
  -32.5463   57.5426   62.2242 C   0  0  0  0  0  0  0  0  0  0  0  0
  -32.3387   58.9801   62.6716 C   0  0  0  0  0  0  0  0  0  0  0  0
  -31.4031   59.7668   61.7664 C   0  0  0  0  0  0  0  0  0  0  0  0
  -30.4542   60.6901   62.5046 C   0  0  0  0  0  0  0  0  0  0  0  0
  -29.0453   60.6107   61.9867 C   0  0  0  0  0  0  0  0  0  0  0  0
 21 22  1  0  0  0
  4  5  2  0  0  0
 25 24  1  0  0  0
 25 26  2  0  0  0
 25 27  1  0  0  0
 25 29  1  0  0  0
 22 20  1  0  0  0
  3  5  1  0  0  0
  3  2  1  0  0  0
 20 19  1  0  0  0
 24 23  1  0  0  0
 19 18  1  0  0  0
 18 17  1  0  0  0
 27 28  1  0  0  0
 17 16  1  0  0  0
 29 30  1  0  0  0
 16 15  1  0  0  0
 34 35  1  0  0  0
 34 36  1  0  0  0
 15 14  1  0  0  0
 31 32  1  0  0  0
 31 33  1  0  0  0
 14 13  1  0  0  0
 37  1  1  0  0  0
 37 39  1  0  0  0
 13 12  1  0  0  0
 38 39  2  0  0  0
 12 11  1  0  0  0
 11 10  1  0  0  0
 10  9  1  0  0  0
  9  8  1  0  0  0
  8  7  1  0  0  0
  7  6  1  0  0  0
  6  5  1  0  0  0
  2  1  1  0  0  0
  1 23  1  0  0  0
 30 32  1  0  0  0
 32 35  1  0  0  0
 39 40  1  0  0  0
 40 41  1  0  0  0
 41 42  1  0  0  0
 42 43  1  0  0  0
 43 44  1  0  0  0
 44 45  1  0  0  0
 45 46  1  0  0  0
 46 47  1  0  0  0
 47 48  2  0  0  0
 48 49  1  0  0  0
 49 50  1  0  0  0
 50 51  1  0  0  0
 51 52  1  0  0  0
 52 53  1  0  0  0
 53 54  1  0  0  0
 54 55  1  0  0  0
 55 56  1  0  0  0
M  CHG 1  26  -1
M  END
> <minimizedAffinity>
-8.97910

> <CNNscore>
0.5667338967

> <CNNaffinity>
7.1959519386

> <CNN_VS>
4.0781898499

> <CNNaffinity_variance>
0.6969311833

$$$$
/media/chris/experiments/cd1a-new-docking/inputs/ligands/7sh4_ligand.pdb


 56 55  0  0  0  0  0  0  0  0999 V2000
  -37.1890   60.2608   65.5012 C   0  0  0  0  0  0  0  0  0  0  0  0
  -38.4199   60.5402   64.6860 C   0  0  0  0  0  0  0  0  0  0  0  0
  -39.4913   60.5193   65.6528 O   0  0  0  0  0  0  0  0  0  0  0  0
  -40.0948   58.4423   65.0862 O   0  0  0  0  0  0  0  0  0  0  0  0
  -40.3577   59.5090   65.5727 C   0  0  0  0  0  0  0  0  0  0  0  0
  -41.6427   59.8392   66.2759 C   0  0  0  0  0  0  0  0  0  0  0  0
  -42.6579   58.7089   66.2768 C   0  0  0  0  0  0  0  0  0  0  0  0
  -43.9439   59.0754   65.5664 C   0  0  0  0  0  0  0  0  0  0  0  0
  -45.1927   58.5442   66.2330 C   0  0  0  0  0  0  0  0  0  0  0  0
  -45.9096   57.4990   65.4026 C   0  0  0  0  0  0  0  0  0  0  0  0
  -47.4096   57.5382   65.5645 C   0  0  0  0  0  0  0  0  0  0  0  0
  -47.9181   58.8831   66.0122 C   0  0  0  0  0  0  0  0  0  0  0  0
  -48.7255   59.6022   64.9543 C   0  0  0  0  0  0  0  0  0  0  0  0
  -48.9848   58.7444   63.7322 C   0  0  0  0  0  0  0  0  0  0  0  0
  -50.4378   58.3625   63.5424 C   0  0  0  0  0  0  0  0  0  0  0  0
  -50.8802   58.3278   62.0839 C   0  0  0  0  0  0  0  0  0  0  0  0
  -50.0516   57.4053   61.2106 C   0  0  0  0  0  0  0  0  0  0  0  0
  -50.2502   57.6415   59.7273 C   0  0  0  0  0  0  0  0  0  0  0  0
  -49.1732   57.0065   58.8588 C   0  0  0  0  0  0  0  0  0  0  0  0
  -47.7843   57.5686   59.1047 C   0  0  0  0  0  0  0  0  0  0  0  0
  -47.1277   56.5345   56.9059 C   0  0  0  0  0  0  0  0  0  0  0  0
  -46.9175   57.6839   57.8653 C   0  0  0  0  0  0  0  0  0  0  0  0
  -36.9233   61.3443   66.5148 C   0  0  0  0  0  0  0  0  0  0  0  0
  -35.8956   62.2204   66.0004 O   0  0  0  0  0  0  0  0  0  0  0  0
  -35.8082   63.7725   66.3819 P   0  0  0  0  0  0  0  0  0  0  0  0
  -36.4587   64.5467   65.3028 O   0  0  0  0  0  0  0  0  0  0  0  0
  -36.3006   63.9347   67.7712 O   0  0  0  0  0  0  0  0  0  0  0  0
  -37.2472   63.7261   67.8051 H   0  0  0  0  0  0  0  0  0  0  0  0
  -34.2528   64.1235   66.3692 O   0  0  0  0  0  0  0  0  0  0  0  0
  -33.7814   65.2865   65.6584 C   0  0  0  0  0  0  0  0  0  0  0  0
  -31.4373   64.9820   66.0519 O   0  0  0  0  0  0  0  0  0  0  0  0
  -32.4462   64.9560   65.0378 C   0  0  0  0  0  0  0  0  0  0  0  0
  -31.4430   65.8466   66.4915 H   0  0  0  0  0  0  0  0  0  0  0  0
  -33.7458   63.3188   63.8340 O   0  0  0  0  0  0  0  0  0  0  0  0
  -32.4516   63.6158   64.3423 C   0  0  0  0  0  0  0  0  0  0  0  0
  -33.7292   62.4557   63.3915 H   0  0  0  0  0  0  0  0  0  0  0  0
  -36.0578   60.0874   64.5846 O   0  0  0  0  0  0  0  0  0  0  0  0
  -36.4127   60.0454   62.3636 O   0  0  0  0  0  0  0  0  0  0  0  0
  -36.3098   59.4717   63.4135 C   0  0  0  0  0  0  0  0  0  0  0  0
  -36.4275   57.9877   63.5744 C   0  0  0  0  0  0  0  0  0  0  0  0
  -37.6950   57.4530   62.9153 C   0  0  0  0  0  0  0  0  0  0  0  0
  -37.4891   56.9606   61.4923 C   0  0  0  0  0  0  0  0  0  0  0  0
  -38.0769   57.8882   60.4350 C   0  0  0  0  0  0  0  0  0  0  0  0
  -37.0700   58.3668   59.4056 C   0  0  0  0  0  0  0  0  0  0  0  0
  -37.2040   57.7081   58.0298 C   0  0  0  0  0  0  0  0  0  0  0  0
  -36.3198   56.4793   57.8067 C   0  0  0  0  0  0  0  0  0  0  0  0
  -34.8599   56.8153   57.8681 C   0  0  0  0  0  0  0  0  0  0  0  0
  -34.0101   56.4639   58.8136 C   0  0  0  0  0  0  0  0  0  0  0  0
  -34.3280   55.6502   60.0281 C   0  0  0  0  0  0  0  0  0  0  0  0
  -33.8426   56.3108   61.3151 C   0  0  0  0  0  0  0  0  0  0  0  0
  -33.6447   57.8116   61.1928 C   0  0  0  0  0  0  0  0  0  0  0  0
  -32.9084   58.4275   62.3701 C   0  0  0  0  0  0  0  0  0  0  0  0
  -31.5638   59.0429   62.0197 C   0  0  0  0  0  0  0  0  0  0  0  0
  -31.4968   60.5401   62.2794 C   0  0  0  0  0  0  0  0  0  0  0  0
  -30.3200   61.2335   61.6220 C   0  0  0  0  0  0  0  0  0  0  0  0
  -28.9972   60.6509   62.0348 C   0  0  0  0  0  0  0  0  0  0  0  0
 21 22  1  0  0  0
  4  5  2  0  0  0
 25 24  1  0  0  0
 25 26  2  0  0  0
 25 27  1  0  0  0
 25 29  1  0  0  0
 22 20  1  0  0  0
  3  5  1  0  0  0
  3  2  1  0  0  0
 20 19  1  0  0  0
 24 23  1  0  0  0
 19 18  1  0  0  0
 18 17  1  0  0  0
 27 28  1  0  0  0
 17 16  1  0  0  0
 29 30  1  0  0  0
 16 15  1  0  0  0
 34 35  1  0  0  0
 34 36  1  0  0  0
 15 14  1  0  0  0
 31 32  1  0  0  0
 31 33  1  0  0  0
 14 13  1  0  0  0
 37  1  1  0  0  0
 37 39  1  0  0  0
 13 12  1  0  0  0
 38 39  2  0  0  0
 12 11  1  0  0  0
 11 10  1  0  0  0
 10  9  1  0  0  0
  9  8  1  0  0  0
  8  7  1  0  0  0
  7  6  1  0  0  0
  6  5  1  0  0  0
  2  1  1  0  0  0
  1 23  1  0  0  0
 30 32  1  0  0  0
 32 35  1  0  0  0
 39 40  1  0  0  0
 40 41  1  0  0  0
 41 42  1  0  0  0
 42 43  1  0  0  0
 43 44  1  0  0  0
 44 45  1  0  0  0
 45 46  1  0  0  0
 46 47  1  0  0  0
 47 48  2  0  0  0
 48 49  1  0  0  0
 49 50  1  0  0  0
 50 51  1  0  0  0
 51 52  1  0  0  0
 52 53  1  0  0  0
 53 54  1  0  0  0
 54 55  1  0  0  0
 55 56  1  0  0  0
M  CHG 1  26  -1
M  END
> <minimizedAffinity>
-8.99100

> <CNNscore>
0.5017381310

> <CNNaffinity>
7.1451506615

> <CNN_VS>
3.5849945545

> <CNNaffinity_variance>
0.5019179583

$$$$
