/media/chris/experiments/cd1a-new-docking/inputs/ligands/7sh4_ligand.pdb


 56 55  0  0  0  0  0  0  0  0999 V2000
  -39.5561   59.4914   62.4791 C   0  0  0  0  0  0  0  0  0  0  0  0
  -40.6793   60.0709   63.2917 C   0  0  0  0  0  0  0  0  0  0  0  0
  -40.8588   59.1230   64.3652 O   0  0  0  0  0  0  0  0  0  0  0  0
  -40.6893   60.6588   65.9814 O   0  0  0  0  0  0  0  0  0  0  0  0
  -41.1344   59.6209   65.5711 C   0  0  0  0  0  0  0  0  0  0  0  0
  -42.1588   58.7845   66.2824 C   0  0  0  0  0  0  0  0  0  0  0  0
  -43.5870   59.0335   65.8281 C   0  0  0  0  0  0  0  0  0  0  0  0
  -44.2749   57.7757   65.3408 C   0  0  0  0  0  0  0  0  0  0  0  0
  -45.7463   57.7033   65.6809 C   0  0  0  0  0  0  0  0  0  0  0  0
  -46.2866   58.9965   66.2567 C   0  0  0  0  0  0  0  0  0  0  0  0
  -47.5217   59.4932   65.5457 C   0  0  0  0  0  0  0  0  0  0  0  0
  -48.7821   59.2900   66.3441 C   0  0  0  0  0  0  0  0  0  0  0  0
  -49.9193   58.7093   65.5332 C   0  0  0  0  0  0  0  0  0  0  0  0
  -49.7269   58.8917   64.0411 C   0  0  0  0  0  0  0  0  0  0  0  0
  -51.0198   58.9750   63.2571 C   0  0  0  0  0  0  0  0  0  0  0  0
  -51.0165   58.1515   61.9742 C   0  0  0  0  0  0  0  0  0  0  0  0
  -50.0882   58.6864   60.9009 C   0  0  0  0  0  0  0  0  0  0  0  0
  -49.8160   57.6926   59.7903 C   0  0  0  0  0  0  0  0  0  0  0  0
  -48.4245   57.0779   59.8491 C   0  0  0  0  0  0  0  0  0  0  0  0
  -48.3689   55.6497   59.3369 C   0  0  0  0  0  0  0  0  0  0  0  0
  -47.6770   55.1273   56.9739 C   0  0  0  0  0  0  0  0  0  0  0  0
  -47.2162   55.3573   58.3953 C   0  0  0  0  0  0  0  0  0  0  0  0
  -38.2327   59.5854   63.1943 C   0  0  0  0  0  0  0  0  0  0  0  0
  -38.0566   60.9383   63.6706 O   0  0  0  0  0  0  0  0  0  0  0  0
  -36.6163   61.6098   63.8625 P   0  0  0  0  0  0  0  0  0  0  0  0
  -35.6573   60.5421   64.2190 O   0  0  0  0  0  0  0  0  0  0  0  0
  -36.3368   62.4503   62.6734 O   0  0  0  0  0  0  0  0  0  0  0  0
  -36.2418   61.8837   61.8919 H   0  0  0  0  0  0  0  0  0  0  0  0
  -36.7653   62.5765   65.1218 O   0  0  0  0  0  0  0  0  0  0  0  0
  -36.1773   63.8931   65.0942 C   0  0  0  0  0  0  0  0  0  0  0  0
  -36.2285   63.9406   67.4896 O   0  0  0  0  0  0  0  0  0  0  0  0
  -35.3686   64.0794   66.3546 C   0  0  0  0  0  0  0  0  0  0  0  0
  -36.9625   64.5707   67.4181 H   0  0  0  0  0  0  0  0  0  0  0  0
  -34.0686   62.6339   67.7825 O   0  0  0  0  0  0  0  0  0  0  0  0
  -34.2191   63.1050   66.4495 C   0  0  0  0  0  0  0  0  0  0  0  0
  -33.3267   62.0104   67.8233 H   0  0  0  0  0  0  0  0  0  0  0  0
  -39.5217   60.1777   61.1839 O   0  0  0  0  0  0  0  0  0  0  0  0
  -37.3673   60.5931   60.6876 O   0  0  0  0  0  0  0  0  0  0  0  0
  -38.4032   60.0356   60.4471 C   0  0  0  0  0  0  0  0  0  0  0  0
  -38.6007   59.0868   59.3057 C   0  0  0  0  0  0  0  0  0  0  0  0
  -37.5943   57.9414   59.3505 C   0  0  0  0  0  0  0  0  0  0  0  0
  -37.1047   57.4973   57.9820 C   0  0  0  0  0  0  0  0  0  0  0  0
  -35.6301   57.1116   57.9576 C   0  0  0  0  0  0  0  0  0  0  0  0
  -35.2470   56.0719   58.9942 C   0  0  0  0  0  0  0  0  0  0  0  0
  -33.9797   56.4012   59.7882 C   0  0  0  0  0  0  0  0  0  0  0  0
  -34.2137   56.8514   61.2318 C   0  0  0  0  0  0  0  0  0  0  0  0
  -32.9574   56.8042   62.0489 C   0  0  0  0  0  0  0  0  0  0  0  0
  -32.2669   57.8370   62.4918 C   0  0  0  0  0  0  0  0  0  0  0  0
  -32.5967   59.2794   62.2709 C   0  0  0  0  0  0  0  0  0  0  0  0
  -31.4097   60.0722   61.7316 C   0  0  0  0  0  0  0  0  0  0  0  0
  -31.2451   61.4374   62.3762 C   0  0  0  0  0  0  0  0  0  0  0  0
  -32.5574   62.0723   62.8031 C   0  0  0  0  0  0  0  0  0  0  0  0
  -32.9350   63.3217   62.0247 C   0  0  0  0  0  0  0  0  0  0  0  0
  -31.9763   64.4826   62.2405 C   0  0  0  0  0  0  0  0  0  0  0  0
  -31.7398   64.8316   63.6966 C   0  0  0  0  0  0  0  0  0  0  0  0
  -32.7494   65.8082   64.2319 C   0  0  0  0  0  0  0  0  0  0  0  0
 21 22  1  0  0  0
  4  5  2  0  0  0
 25 24  1  0  0  0
 25 26  2  0  0  0
 25 27  1  0  0  0
 25 29  1  0  0  0
 22 20  1  0  0  0
  3  5  1  0  0  0
  3  2  1  0  0  0
 20 19  1  0  0  0
 24 23  1  0  0  0
 19 18  1  0  0  0
 18 17  1  0  0  0
 27 28  1  0  0  0
 17 16  1  0  0  0
 29 30  1  0  0  0
 16 15  1  0  0  0
 34 35  1  0  0  0
 34 36  1  0  0  0
 15 14  1  0  0  0
 31 32  1  0  0  0
 31 33  1  0  0  0
 14 13  1  0  0  0
 37  1  1  0  0  0
 37 39  1  0  0  0
 13 12  1  0  0  0
 38 39  2  0  0  0
 12 11  1  0  0  0
 11 10  1  0  0  0
 10  9  1  0  0  0
  9  8  1  0  0  0
  8  7  1  0  0  0
  7  6  1  0  0  0
  6  5  1  0  0  0
  2  1  1  0  0  0
  1 23  1  0  0  0
 30 32  1  0  0  0
 32 35  1  0  0  0
 39 40  1  0  0  0
 40 41  1  0  0  0
 41 42  1  0  0  0
 42 43  1  0  0  0
 43 44  1  0  0  0
 44 45  1  0  0  0
 45 46  1  0  0  0
 46 47  1  0  0  0
 47 48  2  0  0  0
 48 49  1  0  0  0
 49 50  1  0  0  0
 50 51  1  0  0  0
 51 52  1  0  0  0
 52 53  1  0  0  0
 53 54  1  0  0  0
 54 55  1  0  0  0
 55 56  1  0  0  0
M  CHG 1  26  -1
M  END
> <minimizedAffinity>
-8.62917

> <CNNscore>
0.6497008204

> <CNNaffinity>
7.2901430130

> <CNN_VS>
4.7364120483

> <CNNaffinity_variance>
0.5006743073

$$$$
/media/chris/experiments/cd1a-new-docking/inputs/ligands/7sh4_ligand.pdb


 56 55  0  0  0  0  0  0  0  0999 V2000
  -35.6196   59.5124   63.3586 C   0  0  0  0  0  0  0  0  0  0  0  0
  -35.2035   58.0688   63.3375 C   0  0  0  0  0  0  0  0  0  0  0  0
  -34.9740   57.7919   61.9397 O   0  0  0  0  0  0  0  0  0  0  0  0
  -32.7618   58.0990   62.0438 O   0  0  0  0  0  0  0  0  0  0  0  0
  -33.7168   57.5435   61.5716 C   0  0  0  0  0  0  0  0  0  0  0  0
  -33.6523   56.4048   60.5948 C   0  0  0  0  0  0  0  0  0  0  0  0
  -34.9506   56.1553   59.8462 C   0  0  0  0  0  0  0  0  0  0  0  0
  -34.9199   56.6827   58.4272 C   0  0  0  0  0  0  0  0  0  0  0  0
  -35.9974   57.6979   58.1205 C   0  0  0  0  0  0  0  0  0  0  0  0
  -37.3220   57.3756   58.7821 C   0  0  0  0  0  0  0  0  0  0  0  0
  -37.6209   58.2541   59.9723 C   0  0  0  0  0  0  0  0  0  0  0  0
  -38.2142   59.5837   59.5881 C   0  0  0  0  0  0  0  0  0  0  0  0
  -39.6538   59.7468   60.0229 C   0  0  0  0  0  0  0  0  0  0  0  0
  -40.5441   60.2716   58.9146 C   0  0  0  0  0  0  0  0  0  0  0  0
  -41.7710   59.4232   58.6537 C   0  0  0  0  0  0  0  0  0  0  0  0
  -42.1349   59.3035   57.1781 C   0  0  0  0  0  0  0  0  0  0  0  0
  -43.4379   58.5709   56.9222 C   0  0  0  0  0  0  0  0  0  0  0  0
  -44.2273   58.2878   58.1839 C   0  0  0  0  0  0  0  0  0  0  0  0
  -45.6932   57.9668   57.9274 C   0  0  0  0  0  0  0  0  0  0  0  0
  -46.4386   57.4997   59.1650 C   0  0  0  0  0  0  0  0  0  0  0  0
  -47.6162   55.3899   58.4599 C   0  0  0  0  0  0  0  0  0  0  0  0
  -47.7718   56.8312   58.8885 C   0  0  0  0  0  0  0  0  0  0  0  0
  -34.6353   60.3745   64.1068 C   0  0  0  0  0  0  0  0  0  0  0  0
  -34.6897   61.7153   63.5705 O   0  0  0  0  0  0  0  0  0  0  0  0
  -33.4090   62.4597   62.9643 P   0  0  0  0  0  0  0  0  0  0  0  0
  -32.5060   61.4326   62.4018 O   0  0  0  0  0  0  0  0  0  0  0  0
  -33.8849   63.5509   62.0803 O   0  0  0  0  0  0  0  0  0  0  0  0
  -34.3353   63.1701   61.3102 H   0  0  0  0  0  0  0  0  0  0  0  0
  -32.6767   63.1260   64.2142 O   0  0  0  0  0  0  0  0  0  0  0  0
  -33.4539   63.7361   65.2648 C   0  0  0  0  0  0  0  0  0  0  0  0
  -31.3072   64.7005   65.7168 O   0  0  0  0  0  0  0  0  0  0  0  0
  -32.7143   64.9561   65.7565 C   0  0  0  0  0  0  0  0  0  0  0  0
  -31.1081   63.9061   66.2367 H   0  0  0  0  0  0  0  0  0  0  0  0
  -32.7928   65.9702   63.5693 O   0  0  0  0  0  0  0  0  0  0  0  0
  -33.0425   66.1906   64.9516 C   0  0  0  0  0  0  0  0  0  0  0  0
  -33.0091   66.7729   63.0696 H   0  0  0  0  0  0  0  0  0  0  0  0
  -36.9637   59.5970   63.9385 O   0  0  0  0  0  0  0  0  0  0  0  0
  -37.5709   61.2730   62.5664 O   0  0  0  0  0  0  0  0  0  0  0  0
  -37.8637   60.3569   63.2854 C   0  0  0  0  0  0  0  0  0  0  0  0
  -39.2690   59.9117   63.5481 C   0  0  0  0  0  0  0  0  0  0  0  0
  -39.3635   58.3931   63.6545 C   0  0  0  0  0  0  0  0  0  0  0  0
  -40.1277   57.9071   64.8751 C   0  0  0  0  0  0  0  0  0  0  0  0
  -40.7958   59.0285   65.6625 C   0  0  0  0  0  0  0  0  0  0  0  0
  -42.3021   58.8871   65.7801 C   0  0  0  0  0  0  0  0  0  0  0  0
  -42.7908   57.4548   66.0132 C   0  0  0  0  0  0  0  0  0  0  0  0
  -44.2776   57.3201   66.3490 C   0  0  0  0  0  0  0  0  0  0  0  0
  -45.1220   57.1607   65.1203 C   0  0  0  0  0  0  0  0  0  0  0  0
  -46.0917   57.9611   64.7221 C   0  0  0  0  0  0  0  0  0  0  0  0
  -46.5526   59.2031   65.4173 C   0  0  0  0  0  0  0  0  0  0  0  0
  -47.8014   58.9684   66.2620 C   0  0  0  0  0  0  0  0  0  0  0  0
  -48.6123   57.7598   65.8284 C   0  0  0  0  0  0  0  0  0  0  0  0
  -50.0760   58.0697   65.5661 C   0  0  0  0  0  0  0  0  0  0  0  0
  -50.3174   59.3380   64.7645 C   0  0  0  0  0  0  0  0  0  0  0  0
  -51.0016   59.0894   63.4291 C   0  0  0  0  0  0  0  0  0  0  0  0
  -50.0845   59.2103   62.2282 C   0  0  0  0  0  0  0  0  0  0  0  0
  -49.0281   58.1415   62.1933 C   0  0  0  0  0  0  0  0  0  0  0  0
 21 22  1  0  0  0
  4  5  2  0  0  0
 25 24  1  0  0  0
 25 26  2  0  0  0
 25 27  1  0  0  0
 25 29  1  0  0  0
 22 20  1  0  0  0
  3  5  1  0  0  0
  3  2  1  0  0  0
 20 19  1  0  0  0
 24 23  1  0  0  0
 19 18  1  0  0  0
 18 17  1  0  0  0
 27 28  1  0  0  0
 17 16  1  0  0  0
 29 30  1  0  0  0
 16 15  1  0  0  0
 34 35  1  0  0  0
 34 36  1  0  0  0
 15 14  1  0  0  0
 31 32  1  0  0  0
 31 33  1  0  0  0
 14 13  1  0  0  0
 37  1  1  0  0  0
 37 39  1  0  0  0
 13 12  1  0  0  0
 38 39  2  0  0  0
 12 11  1  0  0  0
 11 10  1  0  0  0
 10  9  1  0  0  0
  9  8  1  0  0  0
  8  7  1  0  0  0
  7  6  1  0  0  0
  6  5  1  0  0  0
  2  1  1  0  0  0
  1 23  1  0  0  0
 30 32  1  0  0  0
 32 35  1  0  0  0
 39 40  1  0  0  0
 40 41  1  0  0  0
 41 42  1  0  0  0
 42 43  1  0  0  0
 43 44  1  0  0  0
 44 45  1  0  0  0
 45 46  1  0  0  0
 46 47  1  0  0  0
 47 48  2  0  0  0
 48 49  1  0  0  0
 49 50  1  0  0  0
 50 51  1  0  0  0
 51 52  1  0  0  0
 52 53  1  0  0  0
 53 54  1  0  0  0
 54 55  1  0  0  0
 55 56  1  0  0  0
M  CHG 1  26  -1
M  END
> <minimizedAffinity>
-7.99590

> <CNNscore>
0.6111491323

> <CNNaffinity>
7.5131750107

> <CNN_VS>
4.5916705132

> <CNNaffinity_variance>
0.6186814904

$$$$
/media/chris/experiments/cd1a-new-docking/inputs/ligands/7sh4_ligand.pdb


 56 55  0  0  0  0  0  0  0  0999 V2000
  -37.4532   60.5457   65.1205 C   0  0  0  0  0  0  0  0  0  0  0  0
  -38.5026   59.6789   65.7570 C   0  0  0  0  0  0  0  0  0  0  0  0
  -39.6165   60.5733   65.9629 O   0  0  0  0  0  0  0  0  0  0  0  0
  -41.4230   61.0061   64.7185 O   0  0  0  0  0  0  0  0  0  0  0  0
  -40.7704   60.2451   65.3808 C   0  0  0  0  0  0  0  0  0  0  0  0
  -41.0717   58.7848   65.5583 C   0  0  0  0  0  0  0  0  0  0  0  0
  -42.5505   58.4436   65.4888 C   0  0  0  0  0  0  0  0  0  0  0  0
  -43.2991   58.8204   66.7498 C   0  0  0  0  0  0  0  0  0  0  0  0
  -44.8034   58.7302   66.6274 C   0  0  0  0  0  0  0  0  0  0  0  0
  -45.2560   57.6746   65.6390 C   0  0  0  0  0  0  0  0  0  0  0  0
  -46.3061   58.1733   64.6765 C   0  0  0  0  0  0  0  0  0  0  0  0
  -46.9698   59.4442   65.1366 C   0  0  0  0  0  0  0  0  0  0  0  0
  -48.3792   59.6091   64.6125 C   0  0  0  0  0  0  0  0  0  0  0  0
  -48.8685   58.3907   63.8559 C   0  0  0  0  0  0  0  0  0  0  0  0
  -50.3652   58.3655   63.6270 C   0  0  0  0  0  0  0  0  0  0  0  0
  -50.7738   58.6656   62.1894 C   0  0  0  0  0  0  0  0  0  0  0  0
  -51.0060   57.4283   61.3436 C   0  0  0  0  0  0  0  0  0  0  0  0
  -50.3757   57.5120   59.9686 C   0  0  0  0  0  0  0  0  0  0  0  0
  -48.8684   57.7236   60.0002 C   0  0  0  0  0  0  0  0  0  0  0  0
  -48.0993   56.7480   59.1271 C   0  0  0  0  0  0  0  0  0  0  0  0
  -47.3120   56.3709   56.7664 C   0  0  0  0  0  0  0  0  0  0  0  0
  -48.4601   56.7936   57.6545 C   0  0  0  0  0  0  0  0  0  0  0  0
  -36.7617   61.4290   66.1271 C   0  0  0  0  0  0  0  0  0  0  0  0
  -35.9180   62.3663   65.4214 O   0  0  0  0  0  0  0  0  0  0  0  0
  -35.8701   63.9266   65.7747 P   0  0  0  0  0  0  0  0  0  0  0  0
  -35.9754   64.6859   64.5101 O   0  0  0  0  0  0  0  0  0  0  0  0
  -36.8606   64.1877   66.8468 O   0  0  0  0  0  0  0  0  0  0  0  0
  -37.7556   64.0408   66.5030 H   0  0  0  0  0  0  0  0  0  0  0  0
  -34.4162   64.1785   66.3791 O   0  0  0  0  0  0  0  0  0  0  0  0
  -33.2463   63.7941   65.6285 C   0  0  0  0  0  0  0  0  0  0  0  0
  -31.7430   65.2224   64.4273 O   0  0  0  0  0  0  0  0  0  0  0  0
  -32.2274   64.9021   65.7349 C   0  0  0  0  0  0  0  0  0  0  0  0
  -31.3857   64.4229   64.0101 H   0  0  0  0  0  0  0  0  0  0  0  0
  -32.6453   66.0550   67.8120 O   0  0  0  0  0  0  0  0  0  0  0  0
  -32.7878   66.1365   66.3997 C   0  0  0  0  0  0  0  0  0  0  0  0
  -33.0103   66.8555   68.2206 H   0  0  0  0  0  0  0  0  0  0  0  0
  -38.0863   61.3304   64.0560 O   0  0  0  0  0  0  0  0  0  0  0  0
  -36.8181   60.7349   62.2960 O   0  0  0  0  0  0  0  0  0  0  0  0
  -37.8984   60.9072   62.7912 C   0  0  0  0  0  0  0  0  0  0  0  0
  -39.1950   60.6599   62.0844 C   0  0  0  0  0  0  0  0  0  0  0  0
  -39.1350   59.3959   61.2327 C   0  0  0  0  0  0  0  0  0  0  0  0
  -38.7457   59.6462   59.7850 C   0  0  0  0  0  0  0  0  0  0  0  0
  -37.4282   58.9913   59.3859 C   0  0  0  0  0  0  0  0  0  0  0  0
  -37.5032   58.1867   58.1016 C   0  0  0  0  0  0  0  0  0  0  0  0
  -36.9236   56.7729   58.2013 C   0  0  0  0  0  0  0  0  0  0  0  0
  -36.7070   56.2563   59.6254 C   0  0  0  0  0  0  0  0  0  0  0  0
  -35.4551   55.4401   59.7458 C   0  0  0  0  0  0  0  0  0  0  0  0
  -34.3130   55.8245   60.2819 C   0  0  0  0  0  0  0  0  0  0  0  0
  -34.0281   57.1630   60.8866 C   0  0  0  0  0  0  0  0  0  0  0  0
  -32.7601   57.1605   61.7354 C   0  0  0  0  0  0  0  0  0  0  0  0
  -32.8471   58.0493   62.9637 C   0  0  0  0  0  0  0  0  0  0  0  0
  -34.2375   58.6066   63.2158 C   0  0  0  0  0  0  0  0  0  0  0  0
  -34.8794   58.1358   64.5103 C   0  0  0  0  0  0  0  0  0  0  0  0
  -36.0076   57.1378   64.2989 C   0  0  0  0  0  0  0  0  0  0  0  0
  -36.8139   57.3687   63.0362 C   0  0  0  0  0  0  0  0  0  0  0  0
  -38.2766   57.0733   63.2181 C   0  0  0  0  0  0  0  0  0  0  0  0
 21 22  1  0  0  0
  4  5  2  0  0  0
 25 24  1  0  0  0
 25 26  2  0  0  0
 25 27  1  0  0  0
 25 29  1  0  0  0
 22 20  1  0  0  0
  3  5  1  0  0  0
  3  2  1  0  0  0
 20 19  1  0  0  0
 24 23  1  0  0  0
 19 18  1  0  0  0
 18 17  1  0  0  0
 27 28  1  0  0  0
 17 16  1  0  0  0
 29 30  1  0  0  0
 16 15  1  0  0  0
 34 35  1  0  0  0
 34 36  1  0  0  0
 15 14  1  0  0  0
 31 32  1  0  0  0
 31 33  1  0  0  0
 14 13  1  0  0  0
 37  1  1  0  0  0
 37 39  1  0  0  0
 13 12  1  0  0  0
 38 39  2  0  0  0
 12 11  1  0  0  0
 11 10  1  0  0  0
 10  9  1  0  0  0
  9  8  1  0  0  0
  8  7  1  0  0  0
  7  6  1  0  0  0
  6  5  1  0  0  0
  2  1  1  0  0  0
  1 23  1  0  0  0
 30 32  1  0  0  0
 32 35  1  0  0  0
 39 40  1  0  0  0
 40 41  1  0  0  0
 41 42  1  0  0  0
 42 43  1  0  0  0
 43 44  1  0  0  0
 44 45  1  0  0  0
 45 46  1  0  0  0
 46 47  1  0  0  0
 47 48  2  0  0  0
 48 49  1  0  0  0
 49 50  1  0  0  0
 50 51  1  0  0  0
 51 52  1  0  0  0
 52 53  1  0  0  0
 53 54  1  0  0  0
 54 55  1  0  0  0
 55 56  1  0  0  0
M  CHG 1  26  -1
M  END
> <minimizedAffinity>
-9.10094

> <CNNscore>
0.5830080509

> <CNNaffinity>
7.6224622726

> <CNN_VS>
4.4439568520

> <CNNaffinity_variance>
0.5123359561

$$$$
/media/chris/experiments/cd1a-new-docking/inputs/ligands/7sh4_ligand.pdb


 56 55  0  0  0  0  0  0  0  0999 V2000
  -38.3685   59.9305   61.8614 C   0  0  0  0  0  0  0  0  0  0  0  0
  -39.6230   60.7120   61.5910 C   0  0  0  0  0  0  0  0  0  0  0  0
  -40.4358   59.8090   60.8118 O   0  0  0  0  0  0  0  0  0  0  0  0
  -40.0216   60.9128   58.9119 O   0  0  0  0  0  0  0  0  0  0  0  0
  -40.7128   60.1734   59.5594 C   0  0  0  0  0  0  0  0  0  0  0  0
  -41.9176   59.4455   59.0364 C   0  0  0  0  0  0  0  0  0  0  0  0
  -42.0005   59.3923   57.5203 C   0  0  0  0  0  0  0  0  0  0  0  0
  -43.2648   58.7220   57.0255 C   0  0  0  0  0  0  0  0  0  0  0  0
  -44.2006   58.2757   58.1260 C   0  0  0  0  0  0  0  0  0  0  0  0
  -45.5714   57.8804   57.6153 C   0  0  0  0  0  0  0  0  0  0  0  0
  -46.6179   57.8289   58.7015 C   0  0  0  0  0  0  0  0  0  0  0  0
  -47.7225   56.8484   58.4082 C   0  0  0  0  0  0  0  0  0  0  0  0
  -48.6413   56.6094   59.5859 C   0  0  0  0  0  0  0  0  0  0  0  0
  -49.7002   57.6838   59.7295 C   0  0  0  0  0  0  0  0  0  0  0  0
  -50.8813   57.2768   60.5854 C   0  0  0  0  0  0  0  0  0  0  0  0
  -50.8595   57.8721   61.9886 C   0  0  0  0  0  0  0  0  0  0  0  0
  -50.2227   59.2464   62.0651 C   0  0  0  0  0  0  0  0  0  0  0  0
  -49.1810   59.3673   63.1584 C   0  0  0  0  0  0  0  0  0  0  0  0
  -49.3232   58.3209   64.2550 C   0  0  0  0  0  0  0  0  0  0  0  0
  -48.1071   58.2183   65.1584 C   0  0  0  0  0  0  0  0  0  0  0  0
  -46.6848   56.7434   66.6204 C   0  0  0  0  0  0  0  0  0  0  0  0
  -48.0474   56.9590   66.0020 C   0  0  0  0  0  0  0  0  0  0  0  0
  -37.5395   60.5515   62.9563 C   0  0  0  0  0  0  0  0  0  0  0  0
  -36.8253   61.6844   62.4133 O   0  0  0  0  0  0  0  0  0  0  0  0
  -36.0497   62.7418   63.3309 P   0  0  0  0  0  0  0  0  0  0  0  0
  -34.7014   62.2029   63.6110 O   0  0  0  0  0  0  0  0  0  0  0  0
  -36.1655   64.0766   62.6957 O   0  0  0  0  0  0  0  0  0  0  0  0
  -35.6807   64.0780   61.8555 H   0  0  0  0  0  0  0  0  0  0  0  0
  -36.8578   62.7815   64.7050 O   0  0  0  0  0  0  0  0  0  0  0  0
  -36.1780   62.5194   65.9496 C   0  0  0  0  0  0  0  0  0  0  0  0
  -36.4662   63.7586   67.9803 O   0  0  0  0  0  0  0  0  0  0  0  0
  -35.9442   63.8352   66.6504 C   0  0  0  0  0  0  0  0  0  0  0  0
  -37.4041   63.5132   67.9459 H   0  0  0  0  0  0  0  0  0  0  0  0
  -34.1277   64.7254   67.9641 O   0  0  0  0  0  0  0  0  0  0  0  0
  -34.4837   64.2166   66.6851 C   0  0  0  0  0  0  0  0  0  0  0  0
  -33.1876   64.9645   67.9668 H   0  0  0  0  0  0  0  0  0  0  0  0
  -37.6150   59.8192   60.6085 O   0  0  0  0  0  0  0  0  0  0  0  0
  -37.8404   57.5810   60.6164 O   0  0  0  0  0  0  0  0  0  0  0  0
  -37.5324   58.5953   60.0523 C   0  0  0  0  0  0  0  0  0  0  0  0
  -37.0291   58.6527   58.6433 C   0  0  0  0  0  0  0  0  0  0  0  0
  -37.3654   57.3772   57.8773 C   0  0  0  0  0  0  0  0  0  0  0  0
  -36.2194   56.3815   57.8050 C   0  0  0  0  0  0  0  0  0  0  0  0
  -34.8427   57.0275   57.9105 C   0  0  0  0  0  0  0  0  0  0  0  0
  -33.9649   56.4352   58.9973 C   0  0  0  0  0  0  0  0  0  0  0  0
  -34.7232   55.9616   60.2405 C   0  0  0  0  0  0  0  0  0  0  0  0
  -34.0976   56.3638   61.5779 C   0  0  0  0  0  0  0  0  0  0  0  0
  -34.4534   57.7669   61.9686 C   0  0  0  0  0  0  0  0  0  0  0  0
  -35.1127   58.1405   63.0481 C   0  0  0  0  0  0  0  0  0  0  0  0
  -35.6446   57.2362   64.1147 C   0  0  0  0  0  0  0  0  0  0  0  0
  -37.1617   57.0869   64.0483 C   0  0  0  0  0  0  0  0  0  0  0  0
  -37.9050   57.9736   65.0320 C   0  0  0  0  0  0  0  0  0  0  0  0
  -39.4152   57.8233   64.9677 C   0  0  0  0  0  0  0  0  0  0  0  0
  -40.1901   59.0254   65.4813 C   0  0  0  0  0  0  0  0  0  0  0  0
  -41.6491   59.0342   65.0515 C   0  0  0  0  0  0  0  0  0  0  0  0
  -42.6227   58.6485   66.1475 C   0  0  0  0  0  0  0  0  0  0  0  0
  -42.8737   57.1676   66.2077 C   0  0  0  0  0  0  0  0  0  0  0  0
 21 22  1  0  0  0
  4  5  2  0  0  0
 25 24  1  0  0  0
 25 26  2  0  0  0
 25 27  1  0  0  0
 25 29  1  0  0  0
 22 20  1  0  0  0
  3  5  1  0  0  0
  3  2  1  0  0  0
 20 19  1  0  0  0
 24 23  1  0  0  0
 19 18  1  0  0  0
 18 17  1  0  0  0
 27 28  1  0  0  0
 17 16  1  0  0  0
 29 30  1  0  0  0
 16 15  1  0  0  0
 34 35  1  0  0  0
 34 36  1  0  0  0
 15 14  1  0  0  0
 31 32  1  0  0  0
 31 33  1  0  0  0
 14 13  1  0  0  0
 37  1  1  0  0  0
 37 39  1  0  0  0
 13 12  1  0  0  0
 38 39  2  0  0  0
 12 11  1  0  0  0
 11 10  1  0  0  0
 10  9  1  0  0  0
  9  8  1  0  0  0
  8  7  1  0  0  0
  7  6  1  0  0  0
  6  5  1  0  0  0
  2  1  1  0  0  0
  1 23  1  0  0  0
 30 32  1  0  0  0
 32 35  1  0  0  0
 39 40  1  0  0  0
 40 41  1  0  0  0
 41 42  1  0  0  0
 42 43  1  0  0  0
 43 44  1  0  0  0
 44 45  1  0  0  0
 45 46  1  0  0  0
 46 47  1  0  0  0
 47 48  2  0  0  0
 48 49  1  0  0  0
 49 50  1  0  0  0
 50 51  1  0  0  0
 51 52  1  0  0  0
 52 53  1  0  0  0
 53 54  1  0  0  0
 54 55  1  0  0  0
 55 56  1  0  0  0
M  CHG 1  26  -1
M  END
> <minimizedAffinity>
-8.39375

> <CNNscore>
0.5703789592

> <CNNaffinity>
7.5923752785

> <CNN_VS>
4.3305311203

> <CNNaffinity_variance>
0.8018265963

$$$$
/media/chris/experiments/cd1a-new-docking/inputs/ligands/7sh4_ligand.pdb


 56 55  0  0  0  0  0  0  0  0999 V2000
  -36.3951   60.8093   64.3243 C   0  0  0  0  0  0  0  0  0  0  0  0
  -35.0716   60.1251   64.5192 C   0  0  0  0  0  0  0  0  0  0  0  0
  -34.6205   59.8484   63.1764 O   0  0  0  0  0  0  0  0  0  0  0  0
  -33.1425   61.5098   62.9429 O   0  0  0  0  0  0  0  0  0  0  0  0
  -33.4382   60.3517   62.8206 C   0  0  0  0  0  0  0  0  0  0  0  0
  -32.4999   59.2682   62.3725 C   0  0  0  0  0  0  0  0  0  0  0  0
  -32.7945   57.9045   62.9739 C   0  0  0  0  0  0  0  0  0  0  0  0
  -32.5103   56.7673   62.0154 C   0  0  0  0  0  0  0  0  0  0  0  0
  -33.4723   56.6827   60.8521 C   0  0  0  0  0  0  0  0  0  0  0  0
  -34.8769   56.2978   61.2705 C   0  0  0  0  0  0  0  0  0  0  0  0
  -35.9451   56.9025   60.3924 C   0  0  0  0  0  0  0  0  0  0  0  0
  -37.3383   56.5039   60.8015 C   0  0  0  0  0  0  0  0  0  0  0  0
  -38.0731   57.5851   61.5626 C   0  0  0  0  0  0  0  0  0  0  0  0
  -37.4612   58.9575   61.3666 C   0  0  0  0  0  0  0  0  0  0  0  0
  -38.4371   60.0041   60.8710 C   0  0  0  0  0  0  0  0  0  0  0  0
  -39.2243   59.5772   59.6373 C   0  0  0  0  0  0  0  0  0  0  0  0
  -40.4080   60.4713   59.3218 C   0  0  0  0  0  0  0  0  0  0  0  0
  -41.6715   59.7032   58.9918 C   0  0  0  0  0  0  0  0  0  0  0  0
  -41.7312   59.2174   57.5502 C   0  0  0  0  0  0  0  0  0  0  0  0
  -43.1340   58.8723   57.0829 C   0  0  0  0  0  0  0  0  0  0  0  0
  -45.4762   58.2408   57.7541 C   0  0  0  0  0  0  0  0  0  0  0  0
  -44.0139   58.2281   58.1373 C   0  0  0  0  0  0  0  0  0  0  0  0
  -36.2985   62.2989   64.5327 C   0  0  0  0  0  0  0  0  0  0  0  0
  -35.1696   62.5761   65.3913 O   0  0  0  0  0  0  0  0  0  0  0  0
  -35.2310   63.6346   66.5904 P   0  0  0  0  0  0  0  0  0  0  0  0
  -36.6535   63.9171   66.8793 O   0  0  0  0  0  0  0  0  0  0  0  0
  -34.3659   63.1394   67.6880 O   0  0  0  0  0  0  0  0  0  0  0  0
  -34.7457   62.3269   68.0576 H   0  0  0  0  0  0  0  0  0  0  0  0
  -34.5736   64.9671   66.0117 O   0  0  0  0  0  0  0  0  0  0  0  0
  -33.2124   65.3049   66.3478 C   0  0  0  0  0  0  0  0  0  0  0  0
  -32.2684   63.3822   65.2733 O   0  0  0  0  0  0  0  0  0  0  0  0
  -32.3127   64.8119   65.2412 C   0  0  0  0  0  0  0  0  0  0  0  0
  -31.9797   63.0873   66.1512 H   0  0  0  0  0  0  0  0  0  0  0  0
  -33.6727   64.3655   63.2996 O   0  0  0  0  0  0  0  0  0  0  0  0
  -32.7607   65.2888   63.8805 C   0  0  0  0  0  0  0  0  0  0  0  0
  -33.9485   64.6887   62.4276 H   0  0  0  0  0  0  0  0  0  0  0  0
  -37.3693   60.1973   65.2333 O   0  0  0  0  0  0  0  0  0  0  0  0
  -39.2127   60.9080   64.1575 O   0  0  0  0  0  0  0  0  0  0  0  0
  -38.6288   60.0605   64.7762 C   0  0  0  0  0  0  0  0  0  0  0  0
  -39.2057   58.7210   65.1152 C   0  0  0  0  0  0  0  0  0  0  0  0
  -40.7260   58.7197   64.9911 C   0  0  0  0  0  0  0  0  0  0  0  0
  -41.4406   59.3738   66.1622 C   0  0  0  0  0  0  0  0  0  0  0  0
  -42.5634   58.5224   66.7440 C   0  0  0  0  0  0  0  0  0  0  0  0
  -43.7655   58.3782   65.8294 C   0  0  0  0  0  0  0  0  0  0  0  0
  -44.6317   57.1461   66.1059 C   0  0  0  0  0  0  0  0  0  0  0  0
  -46.0331   57.1836   65.4923 C   0  0  0  0  0  0  0  0  0  0  0  0
  -46.3416   58.5121   64.8695 C   0  0  0  0  0  0  0  0  0  0  0  0
  -47.3299   59.3231   65.1936 C   0  0  0  0  0  0  0  0  0  0  0  0
  -48.3541   59.0852   66.2579 C   0  0  0  0  0  0  0  0  0  0  0  0
  -49.5635   58.3124   65.7399 C   0  0  0  0  0  0  0  0  0  0  0  0
  -50.3983   59.0883   64.7362 C   0  0  0  0  0  0  0  0  0  0  0  0
  -50.6127   58.3537   63.4240 C   0  0  0  0  0  0  0  0  0  0  0  0
  -49.5903   58.6768   62.3472 C   0  0  0  0  0  0  0  0  0  0  0  0
  -49.3710   57.5407   61.3599 C   0  0  0  0  0  0  0  0  0  0  0  0
  -49.8210   57.8498   59.9458 C   0  0  0  0  0  0  0  0  0  0  0  0
  -49.0154   57.1212   58.9067 C   0  0  0  0  0  0  0  0  0  0  0  0
 21 22  1  0  0  0
  4  5  2  0  0  0
 25 24  1  0  0  0
 25 26  2  0  0  0
 25 27  1  0  0  0
 25 29  1  0  0  0
 22 20  1  0  0  0
  3  5  1  0  0  0
  3  2  1  0  0  0
 20 19  1  0  0  0
 24 23  1  0  0  0
 19 18  1  0  0  0
 18 17  1  0  0  0
 27 28  1  0  0  0
 17 16  1  0  0  0
 29 30  1  0  0  0
 16 15  1  0  0  0
 34 35  1  0  0  0
 34 36  1  0  0  0
 15 14  1  0  0  0
 31 32  1  0  0  0
 31 33  1  0  0  0
 14 13  1  0  0  0
 37  1  1  0  0  0
 37 39  1  0  0  0
 13 12  1  0  0  0
 38 39  2  0  0  0
 12 11  1  0  0  0
 11 10  1  0  0  0
 10  9  1  0  0  0
  9  8  1  0  0  0
  8  7  1  0  0  0
  7  6  1  0  0  0
  6  5  1  0  0  0
  2  1  1  0  0  0
  1 23  1  0  0  0
 30 32  1  0  0  0
 32 35  1  0  0  0
 39 40  1  0  0  0
 40 41  1  0  0  0
 41 42  1  0  0  0
 42 43  1  0  0  0
 43 44  1  0  0  0
 44 45  1  0  0  0
 45 46  1  0  0  0
 46 47  1  0  0  0
 47 48  2  0  0  0
 48 49  1  0  0  0
 49 50  1  0  0  0
 50 51  1  0  0  0
 51 52  1  0  0  0
 52 53  1  0  0  0
 53 54  1  0  0  0
 54 55  1  0  0  0
 55 56  1  0  0  0
M  CHG 1  26  -1
M  END
> <minimizedAffinity>
-7.83135

> <CNNscore>
0.5173636079

> <CNNaffinity>
7.2834930420

> <CNN_VS>
3.7682142258

> <CNNaffinity_variance>
0.7506066561

$$$$
/media/chris/experiments/cd1a-new-docking/inputs/ligands/7sh4_ligand.pdb


 56 55  0  0  0  0  0  0  0  0999 V2000
  -39.5499   59.8267   64.6331 C   0  0  0  0  0  0  0  0  0  0  0  0
  -40.8909   60.0847   65.2599 C   0  0  0  0  0  0  0  0  0  0  0  0
  -41.1470   58.8964   66.0381 O   0  0  0  0  0  0  0  0  0  0  0  0
  -42.5483   59.7111   67.5781 O   0  0  0  0  0  0  0  0  0  0  0  0
  -42.2678   58.8770   66.7601 C   0  0  0  0  0  0  0  0  0  0  0  0
  -43.1729   57.7597   66.3273 C   0  0  0  0  0  0  0  0  0  0  0  0
  -44.6289   58.1651   66.1728 C   0  0  0  0  0  0  0  0  0  0  0  0
  -45.4470   57.1371   65.4200 C   0  0  0  0  0  0  0  0  0  0  0  0
  -46.9220   57.1558   65.7517 C   0  0  0  0  0  0  0  0  0  0  0  0
  -47.3534   58.4204   66.4664 C   0  0  0  0  0  0  0  0  0  0  0  0
  -48.2644   59.2909   65.6358 C   0  0  0  0  0  0  0  0  0  0  0  0
  -49.7025   58.8466   65.6785 C   0  0  0  0  0  0  0  0  0  0  0  0
  -50.2597   58.4852   64.3194 C   0  0  0  0  0  0  0  0  0  0  0  0
  -49.2273   58.5949   63.2156 C   0  0  0  0  0  0  0  0  0  0  0  0
  -49.7147   59.3298   61.9845 C   0  0  0  0  0  0  0  0  0  0  0  0
  -49.8004   58.4555   60.7387 C   0  0  0  0  0  0  0  0  0  0  0  0
  -49.5207   56.9873   60.9958 C   0  0  0  0  0  0  0  0  0  0  0  0
  -49.0876   56.2309   59.7566 C   0  0  0  0  0  0  0  0  0  0  0  0
  -48.3893   57.1029   58.7225 C   0  0  0  0  0  0  0  0  0  0  0  0
  -46.9373   57.3964   59.0559 C   0  0  0  0  0  0  0  0  0  0  0  0
  -44.6561   58.0834   58.2437 C   0  0  0  0  0  0  0  0  0  0  0  0
  -46.1262   57.9701   57.9097 C   0  0  0  0  0  0  0  0  0  0  0  0
  -38.4595   59.6903   65.6648 C   0  0  0  0  0  0  0  0  0  0  0  0
  -38.0969   61.0078   66.1351 O   0  0  0  0  0  0  0  0  0  0  0  0
  -36.6973   61.6998   65.7827 P   0  0  0  0  0  0  0  0  0  0  0  0
  -35.6910   60.6314   65.6019 O   0  0  0  0  0  0  0  0  0  0  0  0
  -36.9231   62.6603   64.6759 O   0  0  0  0  0  0  0  0  0  0  0  0
  -37.1671   62.1758   63.8718 H   0  0  0  0  0  0  0  0  0  0  0  0
  -36.2996   62.5342   67.0820 O   0  0  0  0  0  0  0  0  0  0  0  0
  -35.8343   63.8931   66.9524 C   0  0  0  0  0  0  0  0  0  0  0  0
  -33.8425   62.5898   67.2302 O   0  0  0  0  0  0  0  0  0  0  0  0
  -34.3311   63.8708   66.8211 C   0  0  0  0  0  0  0  0  0  0  0  0
  -34.1432   62.4025   68.1332 H   0  0  0  0  0  0  0  0  0  0  0  0
  -34.8494   64.9468   64.7254 O   0  0  0  0  0  0  0  0  0  0  0  0
  -33.8721   64.1791   65.4161 C   0  0  0  0  0  0  0  0  0  0  0  0
  -34.5371   65.1345   63.8264 H   0  0  0  0  0  0  0  0  0  0  0  0
  -39.2671   60.9098   63.6861 O   0  0  0  0  0  0  0  0  0  0  0  0
  -37.5105   60.8979   62.2808 O   0  0  0  0  0  0  0  0  0  0  0  0
  -38.6362   60.5735   62.5446 C   0  0  0  0  0  0  0  0  0  0  0  0
  -39.4982   59.7331   61.6544 C   0  0  0  0  0  0  0  0  0  0  0  0
  -38.6679   58.7391   60.8487 C   0  0  0  0  0  0  0  0  0  0  0  0
  -38.5015   59.1176   59.3862 C   0  0  0  0  0  0  0  0  0  0  0  0
  -37.1603   58.6970   58.7963 C   0  0  0  0  0  0  0  0  0  0  0  0
  -37.2721   57.6958   57.6616 C   0  0  0  0  0  0  0  0  0  0  0  0
  -36.5837   56.3538   57.9265 C   0  0  0  0  0  0  0  0  0  0  0  0
  -36.4593   55.9652   59.4013 C   0  0  0  0  0  0  0  0  0  0  0  0
  -35.1908   55.2172   59.6833 C   0  0  0  0  0  0  0  0  0  0  0  0
  -34.0728   55.7187   60.1713 C   0  0  0  0  0  0  0  0  0  0  0  0
  -33.8371   57.1471   60.5488 C   0  0  0  0  0  0  0  0  0  0  0  0
  -33.8531   57.3604   62.0596 C   0  0  0  0  0  0  0  0  0  0  0  0
  -32.5931   58.0169   62.5958 C   0  0  0  0  0  0  0  0  0  0  0  0
  -32.5289   59.5129   62.3405 C   0  0  0  0  0  0  0  0  0  0  0  0
  -31.1734   60.0138   61.8702 C   0  0  0  0  0  0  0  0  0  0  0  0
  -31.0725   61.5306   61.8198 C   0  0  0  0  0  0  0  0  0  0  0  0
  -32.2849   62.2535   62.3724 C   0  0  0  0  0  0  0  0  0  0  0  0
  -32.3644   63.6850   61.9207 C   0  0  0  0  0  0  0  0  0  0  0  0
 21 22  1  0  0  0
  4  5  2  0  0  0
 25 24  1  0  0  0
 25 26  2  0  0  0
 25 27  1  0  0  0
 25 29  1  0  0  0
 22 20  1  0  0  0
  3  5  1  0  0  0
  3  2  1  0  0  0
 20 19  1  0  0  0
 24 23  1  0  0  0
 19 18  1  0  0  0
 18 17  1  0  0  0
 27 28  1  0  0  0
 17 16  1  0  0  0
 29 30  1  0  0  0
 16 15  1  0  0  0
 34 35  1  0  0  0
 34 36  1  0  0  0
 15 14  1  0  0  0
 31 32  1  0  0  0
 31 33  1  0  0  0
 14 13  1  0  0  0
 37  1  1  0  0  0
 37 39  1  0  0  0
 13 12  1  0  0  0
 38 39  2  0  0  0
 12 11  1  0  0  0
 11 10  1  0  0  0
 10  9  1  0  0  0
  9  8  1  0  0  0
  8  7  1  0  0  0
  7  6  1  0  0  0
  6  5  1  0  0  0
  2  1  1  0  0  0
  1 23  1  0  0  0
 30 32  1  0  0  0
 32 35  1  0  0  0
 39 40  1  0  0  0
 40 41  1  0  0  0
 41 42  1  0  0  0
 42 43  1  0  0  0
 43 44  1  0  0  0
 44 45  1  0  0  0
 45 46  1  0  0  0
 46 47  1  0  0  0
 47 48  2  0  0  0
 48 49  1  0  0  0
 49 50  1  0  0  0
 50 51  1  0  0  0
 51 52  1  0  0  0
 52 53  1  0  0  0
 53 54  1  0  0  0
 54 55  1  0  0  0
 55 56  1  0  0  0
M  CHG 1  26  -1
M  END
> <minimizedAffinity>
-8.87841

> <CNNscore>
0.5016109943

> <CNNaffinity>
7.3409285545

> <CNN_VS>
3.6822905540

> <CNNaffinity_variance>
0.8937574625

$$$$
/media/chris/experiments/cd1a-new-docking/inputs/ligands/7sh4_ligand.pdb


 56 55  0  0  0  0  0  0  0  0999 V2000
  -37.7460   60.6746   64.2477 C   0  0  0  0  0  0  0  0  0  0  0  0
  -38.2308   60.1781   65.5805 C   0  0  0  0  0  0  0  0  0  0  0  0
  -39.6512   60.0039   65.3925 O   0  0  0  0  0  0  0  0  0  0  0  0
  -39.3855   57.7897   65.2315 O   0  0  0  0  0  0  0  0  0  0  0  0
  -40.1012   58.7511   65.3154 C   0  0  0  0  0  0  0  0  0  0  0  0
  -41.5937   58.6999   65.4731 C   0  0  0  0  0  0  0  0  0  0  0  0
  -42.1102   59.3991   66.7191 C   0  0  0  0  0  0  0  0  0  0  0  0
  -43.5661   59.0940   67.0016 C   0  0  0  0  0  0  0  0  0  0  0  0
  -44.3650   58.7013   65.7795 C   0  0  0  0  0  0  0  0  0  0  0  0
  -45.8147   58.3910   66.0929 C   0  0  0  0  0  0  0  0  0  0  0  0
  -46.7820   59.0398   65.1331 C   0  0  0  0  0  0  0  0  0  0  0  0
  -47.9248   58.1374   64.7497 C   0  0  0  0  0  0  0  0  0  0  0  0
  -49.0182   58.0769   65.7932 C   0  0  0  0  0  0  0  0  0  0  0  0
  -50.4059   58.1841   65.1938 C   0  0  0  0  0  0  0  0  0  0  0  0
  -50.7568   59.5690   64.6919 C   0  0  0  0  0  0  0  0  0  0  0  0
  -50.9564   59.6450   63.1825 C   0  0  0  0  0  0  0  0  0  0  0  0
  -51.0602   58.2918   62.5057 C   0  0  0  0  0  0  0  0  0  0  0  0
  -49.9607   58.0383   61.4947 C   0  0  0  0  0  0  0  0  0  0  0  0
  -50.3785   57.1173   60.3568 C   0  0  0  0  0  0  0  0  0  0  0  0
  -49.2376   56.7438   59.4272 C   0  0  0  0  0  0  0  0  0  0  0  0
  -46.7811   57.1033   59.0129 C   0  0  0  0  0  0  0  0  0  0  0  0
  -48.0983   57.7444   59.3866 C   0  0  0  0  0  0  0  0  0  0  0  0
  -36.9032   61.9173   64.3790 C   0  0  0  0  0  0  0  0  0  0  0  0
  -36.1467   61.8385   65.6077 O   0  0  0  0  0  0  0  0  0  0  0  0
  -35.7086   63.1328   66.4412 P   0  0  0  0  0  0  0  0  0  0  0  0
  -36.9002   63.9915   66.6132 O   0  0  0  0  0  0  0  0  0  0  0  0
  -34.9776   62.6786   67.6486 O   0  0  0  0  0  0  0  0  0  0  0  0
  -35.5862   62.2028   68.2353 H   0  0  0  0  0  0  0  0  0  0  0  0
  -34.6757   63.9079   65.5058 O   0  0  0  0  0  0  0  0  0  0  0  0
  -33.2572   63.7650   65.7238 C   0  0  0  0  0  0  0  0  0  0  0  0
  -31.2587   65.0237   66.1290 O   0  0  0  0  0  0  0  0  0  0  0  0
  -32.6812   65.1285   66.0172 C   0  0  0  0  0  0  0  0  0  0  0  0
  -31.0352   64.3678   66.8078 H   0  0  0  0  0  0  0  0  0  0  0  0
  -32.0841   66.1559   63.9181 O   0  0  0  0  0  0  0  0  0  0  0  0
  -33.0475   66.1463   64.9638 C   0  0  0  0  0  0  0  0  0  0  0  0
  -32.3362   66.8147   63.2523 H   0  0  0  0  0  0  0  0  0  0  0  0
  -38.9116   60.8991   63.3870 O   0  0  0  0  0  0  0  0  0  0  0  0
  -39.7291   60.4622   61.3374 O   0  0  0  0  0  0  0  0  0  0  0  0
  -38.9431   60.2343   62.2161 C   0  0  0  0  0  0  0  0  0  0  0  0
  -37.8712   59.1921   62.1343 C   0  0  0  0  0  0  0  0  0  0  0  0
  -38.4620   57.7910   62.0139 C   0  0  0  0  0  0  0  0  0  0  0  0
  -37.5951   56.8221   61.2267 C   0  0  0  0  0  0  0  0  0  0  0  0
  -37.3427   57.2600   59.7884 C   0  0  0  0  0  0  0  0  0  0  0  0
  -36.4963   56.2884   58.9872 C   0  0  0  0  0  0  0  0  0  0  0  0
  -35.3846   56.9429   58.1622 C   0  0  0  0  0  0  0  0  0  0  0  0
  -34.0553   57.1342   58.8957 C   0  0  0  0  0  0  0  0  0  0  0  0
  -33.8743   56.1416   60.0048 C   0  0  0  0  0  0  0  0  0  0  0  0
  -33.8877   56.3959   61.2989 C   0  0  0  0  0  0  0  0  0  0  0  0
  -34.0891   57.7358   61.9332 C   0  0  0  0  0  0  0  0  0  0  0  0
  -32.8883   58.1715   62.7677 C   0  0  0  0  0  0  0  0  0  0  0  0
  -31.7782   58.8100   61.9514 C   0  0  0  0  0  0  0  0  0  0  0  0
  -31.2258   60.0849   62.5652 C   0  0  0  0  0  0  0  0  0  0  0  0
  -30.9307   61.1893   61.5639 C   0  0  0  0  0  0  0  0  0  0  0  0
  -30.9848   62.5844   62.1675 C   0  0  0  0  0  0  0  0  0  0  0  0
  -32.1718   63.4119   61.7160 C   0  0  0  0  0  0  0  0  0  0  0  0
  -33.4283   63.0892   62.4755 C   0  0  0  0  0  0  0  0  0  0  0  0
 21 22  1  0  0  0
  4  5  2  0  0  0
 25 24  1  0  0  0
 25 26  2  0  0  0
 25 27  1  0  0  0
 25 29  1  0  0  0
 22 20  1  0  0  0
  3  5  1  0  0  0
  3  2  1  0  0  0
 20 19  1  0  0  0
 24 23  1  0  0  0
 19 18  1  0  0  0
 18 17  1  0  0  0
 27 28  1  0  0  0
 17 16  1  0  0  0
 29 30  1  0  0  0
 16 15  1  0  0  0
 34 35  1  0  0  0
 34 36  1  0  0  0
 15 14  1  0  0  0
 31 32  1  0  0  0
 31 33  1  0  0  0
 14 13  1  0  0  0
 37  1  1  0  0  0
 37 39  1  0  0  0
 13 12  1  0  0  0
 38 39  2  0  0  0
 12 11  1  0  0  0
 11 10  1  0  0  0
 10  9  1  0  0  0
  9  8  1  0  0  0
  8  7  1  0  0  0
  7  6  1  0  0  0
  6  5  1  0  0  0
  2  1  1  0  0  0
  1 23  1  0  0  0
 30 32  1  0  0  0
 32 35  1  0  0  0
 39 40  1  0  0  0
 40 41  1  0  0  0
 41 42  1  0  0  0
 42 43  1  0  0  0
 43 44  1  0  0  0
 44 45  1  0  0  0
 45 46  1  0  0  0
 46 47  1  0  0  0
 47 48  2  0  0  0
 48 49  1  0  0  0
 49 50  1  0  0  0
 50 51  1  0  0  0
 51 52  1  0  0  0
 52 53  1  0  0  0
 53 54  1  0  0  0
 54 55  1  0  0  0
 55 56  1  0  0  0
M  CHG 1  26  -1
M  END
> <minimizedAffinity>
-8.73082

> <CNNscore>
0.4228337705

> <CNNaffinity>
6.9881219864

> <CNN_VS>
2.9548139572

> <CNNaffinity_variance>
0.7274837494

$$$$
/media/chris/experiments/cd1a-new-docking/inputs/ligands/7sh4_ligand.pdb


 56 55  0  0  0  0  0  0  0  0999 V2000
  -36.0602   61.3156   63.9553 C   0  0  0  0  0  0  0  0  0  0  0  0
  -34.6872   60.7068   63.9101 C   0  0  0  0  0  0  0  0  0  0  0  0
  -34.0479   61.3693   62.7985 O   0  0  0  0  0  0  0  0  0  0  0  0
  -32.2306   62.3511   63.6543 O   0  0  0  0  0  0  0  0  0  0  0  0
  -32.7332   61.5715   62.8907 C   0  0  0  0  0  0  0  0  0  0  0  0
  -31.9746   60.6165   62.0147 C   0  0  0  0  0  0  0  0  0  0  0  0
  -31.4964   59.3644   62.7302 C   0  0  0  0  0  0  0  0  0  0  0  0
  -32.5572   58.2860   62.7967 C   0  0  0  0  0  0  0  0  0  0  0  0
  -33.0953   57.8627   61.4487 C   0  0  0  0  0  0  0  0  0  0  0  0
  -33.4232   56.3849   61.3781 C   0  0  0  0  0  0  0  0  0  0  0  0
  -34.3997   56.0449   60.2788 C   0  0  0  0  0  0  0  0  0  0  0  0
  -33.7497   55.9464   58.9241 C   0  0  0  0  0  0  0  0  0  0  0  0
  -34.3383   56.8970   57.9054 C   0  0  0  0  0  0  0  0  0  0  0  0
  -35.8533   56.9178   57.9311 C   0  0  0  0  0  0  0  0  0  0  0  0
  -36.4535   58.3063   57.8597 C   0  0  0  0  0  0  0  0  0  0  0  0
  -37.8399   58.4110   58.4850 C   0  0  0  0  0  0  0  0  0  0  0  0
  -37.9435   59.4515   59.5835 C   0  0  0  0  0  0  0  0  0  0  0  0
  -38.5454   58.9149   60.8661 C   0  0  0  0  0  0  0  0  0  0  0  0
  -38.1238   57.4879   61.1877 C   0  0  0  0  0  0  0  0  0  0  0  0
  -37.8442   57.2544   62.6617 C   0  0  0  0  0  0  0  0  0  0  0  0
  -36.1818   57.2313   64.5515 C   0  0  0  0  0  0  0  0  0  0  0  0
  -36.3918   57.4211   63.0664 C   0  0  0  0  0  0  0  0  0  0  0  0
  -36.0205   62.7746   64.3315 C   0  0  0  0  0  0  0  0  0  0  0  0
  -34.9392   62.9844   65.2670 O   0  0  0  0  0  0  0  0  0  0  0  0
  -35.1303   63.7605   66.6537 P   0  0  0  0  0  0  0  0  0  0  0  0
  -36.5801   63.9459   66.8787 O   0  0  0  0  0  0  0  0  0  0  0  0
  -34.3328   63.0595   67.6886 O   0  0  0  0  0  0  0  0  0  0  0  0
  -34.7090   62.1793   67.8457 H   0  0  0  0  0  0  0  0  0  0  0  0
  -34.4810   65.1989   66.4258 O   0  0  0  0  0  0  0  0  0  0  0  0
  -33.1746   65.4938   66.9608 C   0  0  0  0  0  0  0  0  0  0  0  0
  -31.4195   64.7122   65.5285 O   0  0  0  0  0  0  0  0  0  0  0  0
  -32.2567   65.8369   65.8132 C   0  0  0  0  0  0  0  0  0  0  0  0
  -30.9379   64.4564   66.3308 H   0  0  0  0  0  0  0  0  0  0  0  0
  -33.3240   65.1151   63.7740 O   0  0  0  0  0  0  0  0  0  0  0  0
  -33.0148   66.2490   64.5742 C   0  0  0  0  0  0  0  0  0  0  0  0
  -33.8099   65.3995   62.9842 H   0  0  0  0  0  0  0  0  0  0  0  0
  -36.8795   60.5374   64.8896 O   0  0  0  0  0  0  0  0  0  0  0  0
  -38.7239   60.9706   63.6768 O   0  0  0  0  0  0  0  0  0  0  0  0
  -38.2021   60.4815   64.6414 C   0  0  0  0  0  0  0  0  0  0  0  0
  -38.9396   59.7220   65.7003 C   0  0  0  0  0  0  0  0  0  0  0  0
  -40.0845   58.9063   65.1083 C   0  0  0  0  0  0  0  0  0  0  0  0
  -41.4611   59.4928   65.3744 C   0  0  0  0  0  0  0  0  0  0  0  0
  -42.1538   58.8939   66.5932 C   0  0  0  0  0  0  0  0  0  0  0  0
  -43.5031   58.2691   66.2909 C   0  0  0  0  0  0  0  0  0  0  0  0
  -44.3755   59.0747   65.3240 C   0  0  0  0  0  0  0  0  0  0  0  0
  -45.7143   58.4284   64.9613 C   0  0  0  0  0  0  0  0  0  0  0  0
  -46.8731   59.3416   65.2284 C   0  0  0  0  0  0  0  0  0  0  0  0
  -48.0638   59.2886   64.6636 C   0  0  0  0  0  0  0  0  0  0  0  0
  -48.5090   58.2990   63.6337 C   0  0  0  0  0  0  0  0  0  0  0  0
  -50.0146   58.3485   63.3911 C   0  0  0  0  0  0  0  0  0  0  0  0
  -50.3905   58.5822   61.9383 C   0  0  0  0  0  0  0  0  0  0  0  0
  -50.3823   57.3185   61.0955 C   0  0  0  0  0  0  0  0  0  0  0  0
  -50.2517   57.5594   59.6007 C   0  0  0  0  0  0  0  0  0  0  0  0
  -49.0408   56.8788   58.9811 C   0  0  0  0  0  0  0  0  0  0  0  0
  -47.7113   57.3444   59.5409 C   0  0  0  0  0  0  0  0  0  0  0  0
  -46.7508   57.7821   58.4706 C   0  0  0  0  0  0  0  0  0  0  0  0
 21 22  1  0  0  0
  4  5  2  0  0  0
 25 24  1  0  0  0
 25 26  2  0  0  0
 25 27  1  0  0  0
 25 29  1  0  0  0
 22 20  1  0  0  0
  3  5  1  0  0  0
  3  2  1  0  0  0
 20 19  1  0  0  0
 24 23  1  0  0  0
 19 18  1  0  0  0
 18 17  1  0  0  0
 27 28  1  0  0  0
 17 16  1  0  0  0
 29 30  1  0  0  0
 16 15  1  0  0  0
 34 35  1  0  0  0
 34 36  1  0  0  0
 15 14  1  0  0  0
 31 32  1  0  0  0
 31 33  1  0  0  0
 14 13  1  0  0  0
 37  1  1  0  0  0
 37 39  1  0  0  0
 13 12  1  0  0  0
 38 39  2  0  0  0
 12 11  1  0  0  0
 11 10  1  0  0  0
 10  9  1  0  0  0
  9  8  1  0  0  0
  8  7  1  0  0  0
  7  6  1  0  0  0
  6  5  1  0  0  0
  2  1  1  0  0  0
  1 23  1  0  0  0
 30 32  1  0  0  0
 32 35  1  0  0  0
 39 40  1  0  0  0
 40 41  1  0  0  0
 41 42  1  0  0  0
 42 43  1  0  0  0
 43 44  1  0  0  0
 44 45  1  0  0  0
 45 46  1  0  0  0
 46 47  1  0  0  0
 47 48  2  0  0  0
 48 49  1  0  0  0
 49 50  1  0  0  0
 50 51  1  0  0  0
 51 52  1  0  0  0
 52 53  1  0  0  0
 53 54  1  0  0  0
 54 55  1  0  0  0
 55 56  1  0  0  0
M  CHG 1  26  -1
M  END
> <minimizedAffinity>
-8.65164

> <CNNscore>
0.4085400403

> <CNNaffinity>
7.0009217262

> <CNN_VS>
2.8601567745

> <CNNaffinity_variance>
1.1629793644

$$$$
/media/chris/experiments/cd1a-new-docking/inputs/ligands/7sh4_ligand.pdb


 56 55  0  0  0  0  0  0  0  0999 V2000
  -38.7895   59.5845   63.3706 C   0  0  0  0  0  0  0  0  0  0  0  0
  -39.3793   58.7156   64.4451 C   0  0  0  0  0  0  0  0  0  0  0  0
  -40.6919   59.2742   64.6646 O   0  0  0  0  0  0  0  0  0  0  0  0
  -40.3027   60.9399   66.1045 O   0  0  0  0  0  0  0  0  0  0  0  0
  -40.8851   59.9316   65.8085 C   0  0  0  0  0  0  0  0  0  0  0  0
  -42.0017   59.3193   66.6043 C   0  0  0  0  0  0  0  0  0  0  0  0
  -42.8972   58.3895   65.8031 C   0  0  0  0  0  0  0  0  0  0  0  0
  -44.1051   59.0947   65.2231 C   0  0  0  0  0  0  0  0  0  0  0  0
  -45.4265   58.4487   65.5728 C   0  0  0  0  0  0  0  0  0  0  0  0
  -46.6072   59.3832   65.4032 C   0  0  0  0  0  0  0  0  0  0  0  0
  -47.8439   58.9162   66.1313 C   0  0  0  0  0  0  0  0  0  0  0  0
  -49.0242   58.7164   65.2178 C   0  0  0  0  0  0  0  0  0  0  0  0
  -48.6720   58.8202   63.7504 C   0  0  0  0  0  0  0  0  0  0  0  0
  -49.4297   59.9258   63.0434 C   0  0  0  0  0  0  0  0  0  0  0  0
  -50.2072   59.4632   61.8291 C   0  0  0  0  0  0  0  0  0  0  0  0
  -50.9885   58.1734   62.0523 C   0  0  0  0  0  0  0  0  0  0  0  0
  -50.8234   57.1529   60.9426 C   0  0  0  0  0  0  0  0  0  0  0  0
  -50.2813   57.7437   59.6572 C   0  0  0  0  0  0  0  0  0  0  0  0
  -49.0682   57.0046   59.1099 C   0  0  0  0  0  0  0  0  0  0  0  0
  -47.7592   57.4237   59.7551 C   0  0  0  0  0  0  0  0  0  0  0  0
  -46.9252   57.0187   57.4151 C   0  0  0  0  0  0  0  0  0  0  0  0
  -46.5516   57.3618   58.8392 C   0  0  0  0  0  0  0  0  0  0  0  0
  -39.5955   59.5370   62.0979 C   0  0  0  0  0  0  0  0  0  0  0  0
  -38.9111   58.6930   61.1452 O   0  0  0  0  0  0  0  0  0  0  0  0
  -38.0298   59.2782   59.9441 P   0  0  0  0  0  0  0  0  0  0  0  0
  -38.7922   59.1029   58.6891 O   0  0  0  0  0  0  0  0  0  0  0  0
  -37.5823   60.6406   60.3212 O   0  0  0  0  0  0  0  0  0  0  0  0
  -38.3504   61.2307   60.3727 H   0  0  0  0  0  0  0  0  0  0  0  0
  -36.7411   58.3421   59.8705 O   0  0  0  0  0  0  0  0  0  0  0  0
  -36.8656   56.9238   60.1002 C   0  0  0  0  0  0  0  0  0  0  0  0
  -35.9149   54.8058   59.5058 O   0  0  0  0  0  0  0  0  0  0  0  0
  -35.7938   56.2174   59.3066 C   0  0  0  0  0  0  0  0  0  0  0  0
  -35.8711   54.6082   60.4545 H   0  0  0  0  0  0  0  0  0  0  0  0
  -37.2058   56.7523   57.4255 O   0  0  0  0  0  0  0  0  0  0  0  0
  -35.8600   56.5434   57.8339 C   0  0  0  0  0  0  0  0  0  0  0  0
  -37.2277   56.9601   56.4783 H   0  0  0  0  0  0  0  0  0  0  0  0
  -37.4018   59.1662   63.1487 O   0  0  0  0  0  0  0  0  0  0  0  0
  -36.2544   61.0582   62.7434 O   0  0  0  0  0  0  0  0  0  0  0  0
  -36.4415   60.0748   63.4066 C   0  0  0  0  0  0  0  0  0  0  0  0
  -35.6493   59.7220   64.6272 C   0  0  0  0  0  0  0  0  0  0  0  0
  -35.2377   60.9676   65.4056 C   0  0  0  0  0  0  0  0  0  0  0  0
  -36.3951   61.6787   66.0873 C   0  0  0  0  0  0  0  0  0  0  0  0
  -36.0829   63.1200   66.4732 C   0  0  0  0  0  0  0  0  0  0  0  0
  -34.6974   63.3152   67.0604 C   0  0  0  0  0  0  0  0  0  0  0  0
  -33.9259   64.5081   66.4888 C   0  0  0  0  0  0  0  0  0  0  0  0
  -34.4146   65.0086   65.1278 C   0  0  0  0  0  0  0  0  0  0  0  0
  -33.4332   65.9410   64.4831 C   0  0  0  0  0  0  0  0  0  0  0  0
  -32.3235   65.6045   63.8548 C   0  0  0  0  0  0  0  0  0  0  0  0
  -31.8108   64.2137   63.6521 C   0  0  0  0  0  0  0  0  0  0  0  0
  -32.3567   63.5714   62.3802 C   0  0  0  0  0  0  0  0  0  0  0  0
  -31.5399   62.3858   61.8972 C   0  0  0  0  0  0  0  0  0  0  0  0
  -31.9182   61.0733   62.5618 C   0  0  0  0  0  0  0  0  0  0  0  0
  -31.2901   59.8429   61.9288 C   0  0  0  0  0  0  0  0  0  0  0  0
  -32.3099   58.8258   61.4400 C   0  0  0  0  0  0  0  0  0  0  0  0
  -32.5741   57.6932   62.4122 C   0  0  0  0  0  0  0  0  0  0  0  0
  -34.0090   57.2451   62.4071 C   0  0  0  0  0  0  0  0  0  0  0  0
 21 22  1  0  0  0
  4  5  2  0  0  0
 25 24  1  0  0  0
 25 26  2  0  0  0
 25 27  1  0  0  0
 25 29  1  0  0  0
 22 20  1  0  0  0
  3  5  1  0  0  0
  3  2  1  0  0  0
 20 19  1  0  0  0
 24 23  1  0  0  0
 19 18  1  0  0  0
 18 17  1  0  0  0
 27 28  1  0  0  0
 17 16  1  0  0  0
 29 30  1  0  0  0
 16 15  1  0  0  0
 34 35  1  0  0  0
 34 36  1  0  0  0
 15 14  1  0  0  0
 31 32  1  0  0  0
 31 33  1  0  0  0
 14 13  1  0  0  0
 37  1  1  0  0  0
 37 39  1  0  0  0
 13 12  1  0  0  0
 38 39  2  0  0  0
 12 11  1  0  0  0
 11 10  1  0  0  0
 10  9  1  0  0  0
  9  8  1  0  0  0
  8  7  1  0  0  0
  7  6  1  0  0  0
  6  5  1  0  0  0
  2  1  1  0  0  0
  1 23  1  0  0  0
 30 32  1  0  0  0
 32 35  1  0  0  0
 39 40  1  0  0  0
 40 41  1  0  0  0
 41 42  1  0  0  0
 42 43  1  0  0  0
 43 44  1  0  0  0
 44 45  1  0  0  0
 45 46  1  0  0  0
 46 47  1  0  0  0
 47 48  2  0  0  0
 48 49  1  0  0  0
 49 50  1  0  0  0
 50 51  1  0  0  0
 51 52  1  0  0  0
 52 53  1  0  0  0
 53 54  1  0  0  0
 54 55  1  0  0  0
 55 56  1  0  0  0
M  CHG 1  26  -1
M  END
> <minimizedAffinity>
-8.31892

> <CNNscore>
0.3977707028

> <CNNaffinity>
7.2915430069

> <CNN_VS>
2.9003622532

> <CNNaffinity_variance>
0.4568158090

$$$$
