/media/chris/experiments/cd1a-new-docking/inputs/ligands/7sh4_ligand.pdb


 56 55  0  0  0  0  0  0  0  0999 V2000
  -39.0341   60.3719   63.7965 C   0  0  0  0  0  0  0  0  0  0  0  0
  -39.0799   58.9959   64.3983 C   0  0  0  0  0  0  0  0  0  0  0  0
  -39.2621   58.1240   63.2627 O   0  0  0  0  0  0  0  0  0  0  0  0
  -38.2160   56.6102   61.9926 O   0  0  0  0  0  0  0  0  0  0  0  0
  -38.2817   57.2588   63.0018 C   0  0  0  0  0  0  0  0  0  0  0  0
  -37.2238   57.3005   64.0666 C   0  0  0  0  0  0  0  0  0  0  0  0
  -35.8084   57.4321   63.5303 C   0  0  0  0  0  0  0  0  0  0  0  0
  -35.4273   58.8657   63.2268 C   0  0  0  0  0  0  0  0  0  0  0  0
  -33.9400   59.1336   63.2698 C   0  0  0  0  0  0  0  0  0  0  0  0
  -33.1179   57.8817   63.4997 C   0  0  0  0  0  0  0  0  0  0  0  0
  -32.2917   57.4852   62.3007 C   0  0  0  0  0  0  0  0  0  0  0  0
  -32.9944   56.5038   61.4003 C   0  0  0  0  0  0  0  0  0  0  0  0
  -33.6210   57.1477   60.1834 C   0  0  0  0  0  0  0  0  0  0  0  0
  -34.1070   56.1326   59.1688 C   0  0  0  0  0  0  0  0  0  0  0  0
  -35.2678   55.2865   59.6483 C   0  0  0  0  0  0  0  0  0  0  0  0
  -36.5994   55.6415   58.9964 C   0  0  0  0  0  0  0  0  0  0  0  0
  -36.4943   56.7040   57.9192 C   0  0  0  0  0  0  0  0  0  0  0  0
  -37.2392   57.9793   58.2568 C   0  0  0  0  0  0  0  0  0  0  0  0
  -36.9658   58.4915   59.6640 C   0  0  0  0  0  0  0  0  0  0  0  0
  -37.9367   59.5665   60.1187 C   0  0  0  0  0  0  0  0  0  0  0  0
  -40.3213   60.3726   60.1257 C   0  0  0  0  0  0  0  0  0  0  0  0
  -39.2725   59.5609   59.3998 C   0  0  0  0  0  0  0  0  0  0  0  0
  -37.8995   61.1949   64.3507 C   0  0  0  0  0  0  0  0  0  0  0  0
  -37.2567   61.8941   63.2615 O   0  0  0  0  0  0  0  0  0  0  0  0
  -35.9925   62.8528   63.4723 P   0  0  0  0  0  0  0  0  0  0  0  0
  -34.9412   62.4410   62.5174 O   0  0  0  0  0  0  0  0  0  0  0  0
  -36.4684   64.2568   63.4459 O   0  0  0  0  0  0  0  0  0  0  0  0
  -36.7941   64.4711   62.5576 H   0  0  0  0  0  0  0  0  0  0  0  0
  -35.4671   62.5414   64.9453 O   0  0  0  0  0  0  0  0  0  0  0  0
  -34.3810   63.3101   65.5015 C   0  0  0  0  0  0  0  0  0  0  0  0
  -33.9931   64.6631   67.4410 O   0  0  0  0  0  0  0  0  0  0  0  0
  -34.6129   63.4569   66.9853 C   0  0  0  0  0  0  0  0  0  0  0  0
  -33.0516   64.6509   67.2076 H   0  0  0  0  0  0  0  0  0  0  0  0
  -36.4930   62.1704   67.7782 O   0  0  0  0  0  0  0  0  0  0  0  0
  -36.0804   63.4588   67.3404 C   0  0  0  0  0  0  0  0  0  0  0  0
  -37.4367   62.1917   68.0013 H   0  0  0  0  0  0  0  0  0  0  0  0
  -40.3314   61.0173   64.0211 O   0  0  0  0  0  0  0  0  0  0  0  0
  -40.8029   60.9386   66.2192 O   0  0  0  0  0  0  0  0  0  0  0  0
  -41.0407   60.6068   65.0900 C   0  0  0  0  0  0  0  0  0  0  0  0
  -42.1699   59.7039   64.7003 C   0  0  0  0  0  0  0  0  0  0  0  0
  -42.9048   59.1678   65.9247 C   0  0  0  0  0  0  0  0  0  0  0  0
  -44.4117   59.0771   65.7483 C   0  0  0  0  0  0  0  0  0  0  0  0
  -45.0466   57.9214   66.5130 C   0  0  0  0  0  0  0  0  0  0  0  0
  -46.3019   57.3681   65.8643 C   0  0  0  0  0  0  0  0  0  0  0  0
  -46.7739   58.1406   64.6292 C   0  0  0  0  0  0  0  0  0  0  0  0
  -48.2754   58.0603   64.3450 C   0  0  0  0  0  0  0  0  0  0  0  0
  -48.7060   59.0461   63.3006 C   0  0  0  0  0  0  0  0  0  0  0  0
  -49.5415   58.8236   62.3048 C   0  0  0  0  0  0  0  0  0  0  0  0
  -50.2390   57.5334   62.0093 C   0  0  0  0  0  0  0  0  0  0  0  0
  -50.7817   57.4780   60.5842 C   0  0  0  0  0  0  0  0  0  0  0  0
  -49.7652   57.8774   59.5290 C   0  0  0  0  0  0  0  0  0  0  0  0
  -48.6928   56.8290   59.2877 C   0  0  0  0  0  0  0  0  0  0  0  0
  -48.4975   56.4522   57.8285 C   0  0  0  0  0  0  0  0  0  0  0  0
  -47.1558   56.8933   57.2634 C   0  0  0  0  0  0  0  0  0  0  0  0
  -46.5536   58.0977   57.9594 C   0  0  0  0  0  0  0  0  0  0  0  0
  -45.0506   58.0939   57.9317 C   0  0  0  0  0  0  0  0  0  0  0  0
 21 22  1  0  0  0
  4  5  2  0  0  0
 25 24  1  0  0  0
 25 26  2  0  0  0
 25 27  1  0  0  0
 25 29  1  0  0  0
 22 20  1  0  0  0
  3  5  1  0  0  0
  3  2  1  0  0  0
 20 19  1  0  0  0
 24 23  1  0  0  0
 19 18  1  0  0  0
 18 17  1  0  0  0
 27 28  1  0  0  0
 17 16  1  0  0  0
 29 30  1  0  0  0
 16 15  1  0  0  0
 34 35  1  0  0  0
 34 36  1  0  0  0
 15 14  1  0  0  0
 31 32  1  0  0  0
 31 33  1  0  0  0
 14 13  1  0  0  0
 37  1  1  0  0  0
 37 39  1  0  0  0
 13 12  1  0  0  0
 38 39  2  0  0  0
 12 11  1  0  0  0
 11 10  1  0  0  0
 10  9  1  0  0  0
  9  8  1  0  0  0
  8  7  1  0  0  0
  7  6  1  0  0  0
  6  5  1  0  0  0
  2  1  1  0  0  0
  1 23  1  0  0  0
 30 32  1  0  0  0
 32 35  1  0  0  0
 39 40  1  0  0  0
 40 41  1  0  0  0
 41 42  1  0  0  0
 42 43  1  0  0  0
 43 44  1  0  0  0
 44 45  1  0  0  0
 45 46  1  0  0  0
 46 47  1  0  0  0
 47 48  2  0  0  0
 48 49  1  0  0  0
 49 50  1  0  0  0
 50 51  1  0  0  0
 51 52  1  0  0  0
 52 53  1  0  0  0
 53 54  1  0  0  0
 54 55  1  0  0  0
 55 56  1  0  0  0
M  CHG 1  26  -1
M  END
> <minimizedAffinity>
-8.46903

> <CNNscore>
0.8246908784

> <CNNaffinity>
8.2550420761

> <CNN_VS>
6.8078579903

> <CNNaffinity_variance>
0.3380586207

$$$$
/media/chris/experiments/cd1a-new-docking/inputs/ligands/7sh4_ligand.pdb


 56 55  0  0  0  0  0  0  0  0999 V2000
  -38.3323   59.9418   62.2844 C   0  0  0  0  0  0  0  0  0  0  0  0
  -39.6103   59.8963   63.0733 C   0  0  0  0  0  0  0  0  0  0  0  0
  -39.1726   59.7182   64.4370 O   0  0  0  0  0  0  0  0  0  0  0  0
  -40.3455   60.7227   66.0540 O   0  0  0  0  0  0  0  0  0  0  0  0
  -40.1120   59.7541   65.3825 C   0  0  0  0  0  0  0  0  0  0  0  0
  -40.9084   58.4813   65.4046 C   0  0  0  0  0  0  0  0  0  0  0  0
  -42.3986   58.6854   65.6193 C   0  0  0  0  0  0  0  0  0  0  0  0
  -43.0658   57.4926   66.2710 C   0  0  0  0  0  0  0  0  0  0  0  0
  -44.3910   57.1095   65.6523 C   0  0  0  0  0  0  0  0  0  0  0  0
  -45.1045   58.2796   65.0060 C   0  0  0  0  0  0  0  0  0  0  0  0
  -46.5148   57.9530   64.5794 C   0  0  0  0  0  0  0  0  0  0  0  0
  -47.5543   58.7443   65.3283 C   0  0  0  0  0  0  0  0  0  0  0  0
  -47.8751   60.0749   64.6845 C   0  0  0  0  0  0  0  0  0  0  0  0
  -49.3062   60.1578   64.1934 C   0  0  0  0  0  0  0  0  0  0  0  0
  -49.4582   59.9714   62.6983 C   0  0  0  0  0  0  0  0  0  0  0  0
  -50.0638   58.6293   62.3032 C   0  0  0  0  0  0  0  0  0  0  0  0
  -49.8441   58.2581   60.8493 C   0  0  0  0  0  0  0  0  0  0  0  0
  -48.4624   57.7019   60.5721 C   0  0  0  0  0  0  0  0  0  0  0  0
  -48.4049   56.7891   59.3551 C   0  0  0  0  0  0  0  0  0  0  0  0
  -47.0227   56.6898   58.7349 C   0  0  0  0  0  0  0  0  0  0  0  0
  -45.1316   58.1816   58.0040 C   0  0  0  0  0  0  0  0  0  0  0  0
  -46.6118   57.8906   57.9040 C   0  0  0  0  0  0  0  0  0  0  0  0
  -37.2090   60.5781   63.0623 C   0  0  0  0  0  0  0  0  0  0  0  0
  -37.2047   61.9984   62.7956 O   0  0  0  0  0  0  0  0  0  0  0  0
  -35.9181   62.9211   63.0304 P   0  0  0  0  0  0  0  0  0  0  0  0
  -34.8178   62.0584   63.5121 O   0  0  0  0  0  0  0  0  0  0  0  0
  -35.7036   63.7337   61.8089 O   0  0  0  0  0  0  0  0  0  0  0  0
  -35.4578   63.1519   61.0726 H   0  0  0  0  0  0  0  0  0  0  0  0
  -36.3191   63.9119   64.2137 O   0  0  0  0  0  0  0  0  0  0  0  0
  -35.3534   64.2499   65.2301 C   0  0  0  0  0  0  0  0  0  0  0  0
  -37.0309   64.3239   66.9398 O   0  0  0  0  0  0  0  0  0  0  0  0
  -35.8216   63.6708   66.5426 C   0  0  0  0  0  0  0  0  0  0  0  0
  -36.8818   65.2815   66.9840 H   0  0  0  0  0  0  0  0  0  0  0  0
  -34.7912   61.4905   66.4896 O   0  0  0  0  0  0  0  0  0  0  0  0
  -36.0356   62.1780   66.4686 C   0  0  0  0  0  0  0  0  0  0  0  0
  -34.9492   60.5347   66.4413 H   0  0  0  0  0  0  0  0  0  0  0  0
  -38.5907   60.6515   61.0276 O   0  0  0  0  0  0  0  0  0  0  0  0
  -39.5947   60.0659   59.1016 O   0  0  0  0  0  0  0  0  0  0  0  0
  -38.7313   59.8992   59.9193 C   0  0  0  0  0  0  0  0  0  0  0  0
  -37.6732   58.8443   59.8200 C   0  0  0  0  0  0  0  0  0  0  0  0
  -37.6521   58.2027   58.4363 C   0  0  0  0  0  0  0  0  0  0  0  0
  -36.3075   58.2964   57.7339 C   0  0  0  0  0  0  0  0  0  0  0  0
  -35.4672   57.0303   57.8543 C   0  0  0  0  0  0  0  0  0  0  0  0
  -36.1412   55.9138   58.6302 C   0  0  0  0  0  0  0  0  0  0  0  0
  -35.4786   55.5793   59.9696 C   0  0  0  0  0  0  0  0  0  0  0  0
  -34.7848   56.7529   60.6645 C   0  0  0  0  0  0  0  0  0  0  0  0
  -33.3615   56.4396   61.0163 C   0  0  0  0  0  0  0  0  0  0  0  0
  -32.6680   56.9465   62.0170 C   0  0  0  0  0  0  0  0  0  0  0  0
  -33.1611   57.9446   63.0165 C   0  0  0  0  0  0  0  0  0  0  0  0
  -32.8418   59.3807   62.6114 C   0  0  0  0  0  0  0  0  0  0  0  0
  -31.6440   59.5009   61.6857 C   0  0  0  0  0  0  0  0  0  0  0  0
  -30.9506   60.8506   61.7578 C   0  0  0  0  0  0  0  0  0  0  0  0
  -31.6713   61.8841   62.6074 C   0  0  0  0  0  0  0  0  0  0  0  0
  -32.0349   63.1486   61.8441 C   0  0  0  0  0  0  0  0  0  0  0  0
  -32.2271   64.3705   62.7203 C   0  0  0  0  0  0  0  0  0  0  0  0
  -31.4384   65.5579   62.2431 C   0  0  0  0  0  0  0  0  0  0  0  0
 21 22  1  0  0  0
  4  5  2  0  0  0
 25 24  1  0  0  0
 25 26  2  0  0  0
 25 27  1  0  0  0
 25 29  1  0  0  0
 22 20  1  0  0  0
  3  5  1  0  0  0
  3  2  1  0  0  0
 20 19  1  0  0  0
 24 23  1  0  0  0
 19 18  1  0  0  0
 18 17  1  0  0  0
 27 28  1  0  0  0
 17 16  1  0  0  0
 29 30  1  0  0  0
 16 15  1  0  0  0
 34 35  1  0  0  0
 34 36  1  0  0  0
 15 14  1  0  0  0
 31 32  1  0  0  0
 31 33  1  0  0  0
 14 13  1  0  0  0
 37  1  1  0  0  0
 37 39  1  0  0  0
 13 12  1  0  0  0
 38 39  2  0  0  0
 12 11  1  0  0  0
 11 10  1  0  0  0
 10  9  1  0  0  0
  9  8  1  0  0  0
  8  7  1  0  0  0
  7  6  1  0  0  0
  6  5  1  0  0  0
  2  1  1  0  0  0
  1 23  1  0  0  0
 30 32  1  0  0  0
 32 35  1  0  0  0
 39 40  1  0  0  0
 40 41  1  0  0  0
 41 42  1  0  0  0
 42 43  1  0  0  0
 43 44  1  0  0  0
 44 45  1  0  0  0
 45 46  1  0  0  0
 46 47  1  0  0  0
 47 48  2  0  0  0
 48 49  1  0  0  0
 49 50  1  0  0  0
 50 51  1  0  0  0
 51 52  1  0  0  0
 52 53  1  0  0  0
 53 54  1  0  0  0
 54 55  1  0  0  0
 55 56  1  0  0  0
M  CHG 1  26  -1
M  END
> <minimizedAffinity>
-8.60761

> <CNNscore>
0.7649110556

> <CNNaffinity>
7.5864067078

> <CNN_VS>
5.8029265404

> <CNNaffinity_variance>
1.0493558645

$$$$
/media/chris/experiments/cd1a-new-docking/inputs/ligands/7sh4_ligand.pdb


 56 55  0  0  0  0  0  0  0  0999 V2000
  -35.9920   59.9092   63.5759 C   0  0  0  0  0  0  0  0  0  0  0  0
  -34.7521   59.0737   63.4267 C   0  0  0  0  0  0  0  0  0  0  0  0
  -34.8365   58.5610   62.0801 O   0  0  0  0  0  0  0  0  0  0  0  0
  -32.8441   57.5563   62.2223 O   0  0  0  0  0  0  0  0  0  0  0  0
  -33.9338   57.6466   61.7242 C   0  0  0  0  0  0  0  0  0  0  0  0
  -34.5032   56.6830   60.7232 C   0  0  0  0  0  0  0  0  0  0  0  0
  -35.7990   57.1489   60.0810 C   0  0  0  0  0  0  0  0  0  0  0  0
  -37.0279   56.6192   60.7892 C   0  0  0  0  0  0  0  0  0  0  0  0
  -38.1101   57.6520   61.0079 C   0  0  0  0  0  0  0  0  0  0  0  0
  -38.0590   58.7866   60.0048 C   0  0  0  0  0  0  0  0  0  0  0  0
  -38.5858   60.0896   60.5546 C   0  0  0  0  0  0  0  0  0  0  0  0
  -40.0730   60.2449   60.3768 C   0  0  0  0  0  0  0  0  0  0  0  0
  -40.5226   60.1151   58.9384 C   0  0  0  0  0  0  0  0  0  0  0  0
  -41.8743   59.4433   58.8059 C   0  0  0  0  0  0  0  0  0  0  0  0
  -42.3584   59.3049   57.3778 C   0  0  0  0  0  0  0  0  0  0  0  0
  -43.6224   58.4648   57.2344 C   0  0  0  0  0  0  0  0  0  0  0  0
  -44.3921   58.2837   58.5286 C   0  0  0  0  0  0  0  0  0  0  0  0
  -45.8379   57.8832   58.3183 C   0  0  0  0  0  0  0  0  0  0  0  0
  -46.1507   57.4529   56.8919 C   0  0  0  0  0  0  0  0  0  0  0  0
  -47.4843   56.7412   56.7505 C   0  0  0  0  0  0  0  0  0  0  0  0
  -48.0637   55.1827   58.6402 C   0  0  0  0  0  0  0  0  0  0  0  0
  -47.4944   55.3073   57.2452 C   0  0  0  0  0  0  0  0  0  0  0  0
  -35.6860   61.3849   63.5563 C   0  0  0  0  0  0  0  0  0  0  0  0
  -34.3093   61.5693   63.1574 O   0  0  0  0  0  0  0  0  0  0  0  0
  -33.6186   63.0102   63.0650 P   0  0  0  0  0  0  0  0  0  0  0  0
  -32.2249   62.8814   63.5420 O   0  0  0  0  0  0  0  0  0  0  0  0
  -33.8591   63.5511   61.7055 O   0  0  0  0  0  0  0  0  0  0  0  0
  -33.3865   63.0097   61.0540 H   0  0  0  0  0  0  0  0  0  0  0  0
  -34.4103   63.9255   64.1034 O   0  0  0  0  0  0  0  0  0  0  0  0
  -33.7945   64.2967   65.3536 C   0  0  0  0  0  0  0  0  0  0  0  0
  -34.3124   64.4703   67.6869 O   0  0  0  0  0  0  0  0  0  0  0  0
  -34.6583   63.7844   66.4799 C   0  0  0  0  0  0  0  0  0  0  0  0
  -33.3644   64.3602   67.8610 H   0  0  0  0  0  0  0  0  0  0  0  0
  -36.8619   62.8219   66.6694 O   0  0  0  0  0  0  0  0  0  0  0  0
  -36.1319   63.9453   66.1932 C   0  0  0  0  0  0  0  0  0  0  0  0
  -37.8046   62.9435   66.4764 H   0  0  0  0  0  0  0  0  0  0  0  0
  -36.6693   59.5129   64.8144 O   0  0  0  0  0  0  0  0  0  0  0  0
  -38.3957   60.8587   65.3327 O   0  0  0  0  0  0  0  0  0  0  0  0
  -37.9785   59.8123   64.9171 C   0  0  0  0  0  0  0  0  0  0  0  0
  -38.8489   58.6935   64.4346 C   0  0  0  0  0  0  0  0  0  0  0  0
  -40.3188   59.1003   64.4088 C   0  0  0  0  0  0  0  0  0  0  0  0
  -41.1890   58.3290   65.3875 C   0  0  0  0  0  0  0  0  0  0  0  0
  -41.7741   59.1954   66.4969 C   0  0  0  0  0  0  0  0  0  0  0  0
  -43.2782   59.0674   66.6514 C   0  0  0  0  0  0  0  0  0  0  0  0
  -43.8478   57.7086   66.2338 C   0  0  0  0  0  0  0  0  0  0  0  0
  -44.8310   57.7467   65.0618 C   0  0  0  0  0  0  0  0  0  0  0  0
  -45.7450   58.9333   65.1296 C   0  0  0  0  0  0  0  0  0  0  0  0
  -47.0633   58.9142   65.1012 C   0  0  0  0  0  0  0  0  0  0  0  0
  -47.9265   57.6967   64.9963 C   0  0  0  0  0  0  0  0  0  0  0  0
  -49.1153   57.7417   65.9519 C   0  0  0  0  0  0  0  0  0  0  0  0
  -50.1204   58.8317   65.6235 C   0  0  0  0  0  0  0  0  0  0  0  0
  -50.7159   58.7126   64.2312 C   0  0  0  0  0  0  0  0  0  0  0  0
  -50.2152   59.7512   63.2412 C   0  0  0  0  0  0  0  0  0  0  0  0
  -50.2061   59.2606   61.8014 C   0  0  0  0  0  0  0  0  0  0  0  0
  -50.8678   57.9118   61.5997 C   0  0  0  0  0  0  0  0  0  0  0  0
  -50.5704   57.3139   60.2530 C   0  0  0  0  0  0  0  0  0  0  0  0
 21 22  1  0  0  0
  4  5  2  0  0  0
 25 24  1  0  0  0
 25 26  2  0  0  0
 25 27  1  0  0  0
 25 29  1  0  0  0
 22 20  1  0  0  0
  3  5  1  0  0  0
  3  2  1  0  0  0
 20 19  1  0  0  0
 24 23  1  0  0  0
 19 18  1  0  0  0
 18 17  1  0  0  0
 27 28  1  0  0  0
 17 16  1  0  0  0
 29 30  1  0  0  0
 16 15  1  0  0  0
 34 35  1  0  0  0
 34 36  1  0  0  0
 15 14  1  0  0  0
 31 32  1  0  0  0
 31 33  1  0  0  0
 14 13  1  0  0  0
 37  1  1  0  0  0
 37 39  1  0  0  0
 13 12  1  0  0  0
 38 39  2  0  0  0
 12 11  1  0  0  0
 11 10  1  0  0  0
 10  9  1  0  0  0
  9  8  1  0  0  0
  8  7  1  0  0  0
  7  6  1  0  0  0
  6  5  1  0  0  0
  2  1  1  0  0  0
  1 23  1  0  0  0
 30 32  1  0  0  0
 32 35  1  0  0  0
 39 40  1  0  0  0
 40 41  1  0  0  0
 41 42  1  0  0  0
 42 43  1  0  0  0
 43 44  1  0  0  0
 44 45  1  0  0  0
 45 46  1  0  0  0
 46 47  1  0  0  0
 47 48  2  0  0  0
 48 49  1  0  0  0
 49 50  1  0  0  0
 50 51  1  0  0  0
 51 52  1  0  0  0
 52 53  1  0  0  0
 53 54  1  0  0  0
 54 55  1  0  0  0
 55 56  1  0  0  0
M  CHG 1  26  -1
M  END
> <minimizedAffinity>
-8.22404

> <CNNscore>
0.5895550251

> <CNNaffinity>
7.6167540550

> <CNN_VS>
4.4904956818

> <CNNaffinity_variance>
0.6836359501

$$$$
/media/chris/experiments/cd1a-new-docking/inputs/ligands/7sh4_ligand.pdb


 56 55  0  0  0  0  0  0  0  0999 V2000
  -37.2085   60.5855   65.1465 C   0  0  0  0  0  0  0  0  0  0  0  0
  -38.2229   60.5131   66.2526 C   0  0  0  0  0  0  0  0  0  0  0  0
  -39.1503   59.4996   65.8101 O   0  0  0  0  0  0  0  0  0  0  0  0
  -40.8505   60.9479   65.9147 O   0  0  0  0  0  0  0  0  0  0  0  0
  -40.4441   59.8218   65.8133 C   0  0  0  0  0  0  0  0  0  0  0  0
  -41.3033   58.6189   65.5495 C   0  0  0  0  0  0  0  0  0  0  0  0
  -42.7898   58.9235   65.4703 C   0  0  0  0  0  0  0  0  0  0  0  0
  -43.6410   57.8698   66.1469 C   0  0  0  0  0  0  0  0  0  0  0  0
  -44.7675   57.3392   65.2894 C   0  0  0  0  0  0  0  0  0  0  0  0
  -45.7841   58.4010   64.9217 C   0  0  0  0  0  0  0  0  0  0  0  0
  -46.4373   59.0392   66.1232 C   0  0  0  0  0  0  0  0  0  0  0  0
  -47.9398   58.9435   66.0964 C   0  0  0  0  0  0  0  0  0  0  0  0
  -48.4735   58.2142   64.8834 C   0  0  0  0  0  0  0  0  0  0  0  0
  -49.4982   59.0254   64.1166 C   0  0  0  0  0  0  0  0  0  0  0  0
  -50.3355   58.2111   63.1529 C   0  0  0  0  0  0  0  0  0  0  0  0
  -49.6453   57.9296   61.8230 C   0  0  0  0  0  0  0  0  0  0  0  0
  -50.5265   57.2277   60.8077 C   0  0  0  0  0  0  0  0  0  0  0  0
  -50.0711   57.4252   59.3764 C   0  0  0  0  0  0  0  0  0  0  0  0
  -48.5774   57.2101   59.1762 C   0  0  0  0  0  0  0  0  0  0  0  0
  -48.1844   55.7483   59.0583 C   0  0  0  0  0  0  0  0  0  0  0  0
  -47.5110   56.5100   56.7556 C   0  0  0  0  0  0  0  0  0  0  0  0
  -47.6945   55.3313   57.6845 C   0  0  0  0  0  0  0  0  0  0  0  0
  -35.8410   60.9624   65.6562 C   0  0  0  0  0  0  0  0  0  0  0  0
  -35.5940   62.3512   65.3422 O   0  0  0  0  0  0  0  0  0  0  0  0
  -35.3749   63.4690   66.4666 P   0  0  0  0  0  0  0  0  0  0  0  0
  -36.7048   63.9419   66.9075 O   0  0  0  0  0  0  0  0  0  0  0  0
  -34.4396   62.9261   67.4811 O   0  0  0  0  0  0  0  0  0  0  0  0
  -34.8616   62.1876   67.9474 H   0  0  0  0  0  0  0  0  0  0  0  0
  -34.6454   64.6773   65.7247 O   0  0  0  0  0  0  0  0  0  0  0  0
  -33.5976   65.4079   66.3942 C   0  0  0  0  0  0  0  0  0  0  0  0
  -31.3030   64.8556   65.9787 O   0  0  0  0  0  0  0  0  0  0  0  0
  -32.4341   65.5494   65.4438 C   0  0  0  0  0  0  0  0  0  0  0  0
  -31.1060   65.1942   66.8661 H   0  0  0  0  0  0  0  0  0  0  0  0
  -32.5218   63.6344   63.9799 O   0  0  0  0  0  0  0  0  0  0  0  0
  -32.7552   65.0346   64.0612 C   0  0  0  0  0  0  0  0  0  0  0  0
  -32.7334   63.3228   63.0860 H   0  0  0  0  0  0  0  0  0  0  0  0
  -37.6914   61.5347   64.1388 O   0  0  0  0  0  0  0  0  0  0  0  0
  -36.8206   61.2215   62.0884 O   0  0  0  0  0  0  0  0  0  0  0  0
  -37.7303   61.1039   62.8632 C   0  0  0  0  0  0  0  0  0  0  0  0
  -39.0342   60.4456   62.5335 C   0  0  0  0  0  0  0  0  0  0  0  0
  -38.9452   59.6484   61.2360 C   0  0  0  0  0  0  0  0  0  0  0  0
  -38.5538   58.1929   61.4326 C   0  0  0  0  0  0  0  0  0  0  0  0
  -37.5642   57.6818   60.3919 C   0  0  0  0  0  0  0  0  0  0  0  0
  -37.4667   58.5527   59.1531 C   0  0  0  0  0  0  0  0  0  0  0  0
  -37.2771   57.7798   57.8447 C   0  0  0  0  0  0  0  0  0  0  0  0
  -36.3686   56.5520   57.9391 C   0  0  0  0  0  0  0  0  0  0  0  0
  -34.9160   56.9231   57.9407 C   0  0  0  0  0  0  0  0  0  0  0  0
  -34.0268   56.6193   58.8660 C   0  0  0  0  0  0  0  0  0  0  0  0
  -34.2841   55.8349   60.1138 C   0  0  0  0  0  0  0  0  0  0  0  0
  -33.4235   56.3032   61.2837 C   0  0  0  0  0  0  0  0  0  0  0  0
  -33.0028   57.7591   61.1866 C   0  0  0  0  0  0  0  0  0  0  0  0
  -32.8830   58.4505   62.5338 C   0  0  0  0  0  0  0  0  0  0  0  0
  -34.2065   58.8976   63.1320 C   0  0  0  0  0  0  0  0  0  0  0  0
  -34.7490   57.9424   64.1842 C   0  0  0  0  0  0  0  0  0  0  0  0
  -35.9515   57.1375   63.7327 C   0  0  0  0  0  0  0  0  0  0  0  0
  -37.0615   57.1323   64.7464 C   0  0  0  0  0  0  0  0  0  0  0  0
 21 22  1  0  0  0
  4  5  2  0  0  0
 25 24  1  0  0  0
 25 26  2  0  0  0
 25 27  1  0  0  0
 25 29  1  0  0  0
 22 20  1  0  0  0
  3  5  1  0  0  0
  3  2  1  0  0  0
 20 19  1  0  0  0
 24 23  1  0  0  0
 19 18  1  0  0  0
 18 17  1  0  0  0
 27 28  1  0  0  0
 17 16  1  0  0  0
 29 30  1  0  0  0
 16 15  1  0  0  0
 34 35  1  0  0  0
 34 36  1  0  0  0
 15 14  1  0  0  0
 31 32  1  0  0  0
 31 33  1  0  0  0
 14 13  1  0  0  0
 37  1  1  0  0  0
 37 39  1  0  0  0
 13 12  1  0  0  0
 38 39  2  0  0  0
 12 11  1  0  0  0
 11 10  1  0  0  0
 10  9  1  0  0  0
  9  8  1  0  0  0
  8  7  1  0  0  0
  7  6  1  0  0  0
  6  5  1  0  0  0
  2  1  1  0  0  0
  1 23  1  0  0  0
 30 32  1  0  0  0
 32 35  1  0  0  0
 39 40  1  0  0  0
 40 41  1  0  0  0
 41 42  1  0  0  0
 42 43  1  0  0  0
 43 44  1  0  0  0
 44 45  1  0  0  0
 45 46  1  0  0  0
 46 47  1  0  0  0
 47 48  2  0  0  0
 48 49  1  0  0  0
 49 50  1  0  0  0
 50 51  1  0  0  0
 51 52  1  0  0  0
 52 53  1  0  0  0
 53 54  1  0  0  0
 54 55  1  0  0  0
 55 56  1  0  0  0
M  CHG 1  26  -1
M  END
> <minimizedAffinity>
-8.97844

> <CNNscore>
0.5094994307

> <CNNaffinity>
7.4117670059

> <CNN_VS>
3.7762911320

> <CNNaffinity_variance>
0.7348049879

$$$$
/media/chris/experiments/cd1a-new-docking/inputs/ligands/7sh4_ligand.pdb


 56 55  0  0  0  0  0  0  0  0999 V2000
  -38.1752   60.5258   63.9026 C   0  0  0  0  0  0  0  0  0  0  0  0
  -38.5992   59.9211   65.2111 C   0  0  0  0  0  0  0  0  0  0  0  0
  -39.9517   59.4789   64.9696 O   0  0  0  0  0  0  0  0  0  0  0  0
  -40.8776   61.0258   66.2921 O   0  0  0  0  0  0  0  0  0  0  0  0
  -40.8921   59.9297   65.8004 C   0  0  0  0  0  0  0  0  0  0  0  0
  -42.0164   58.9433   65.9335 C   0  0  0  0  0  0  0  0  0  0  0  0
  -43.3567   59.4595   65.4377 C   0  0  0  0  0  0  0  0  0  0  0  0
  -44.3051   58.3461   65.0459 C   0  0  0  0  0  0  0  0  0  0  0  0
  -45.6747   58.4480   65.6780 C   0  0  0  0  0  0  0  0  0  0  0  0
  -46.8022   58.2310   64.6893 C   0  0  0  0  0  0  0  0  0  0  0  0
  -47.9997   57.5414   65.2960 C   0  0  0  0  0  0  0  0  0  0  0  0
  -48.9996   58.5038   65.8804 C   0  0  0  0  0  0  0  0  0  0  0  0
  -50.3141   58.5317   65.1326 C   0  0  0  0  0  0  0  0  0  0  0  0
  -50.3494   59.5913   64.0500 C   0  0  0  0  0  0  0  0  0  0  0  0
  -51.1760   59.2108   62.8395 C   0  0  0  0  0  0  0  0  0  0  0  0
  -50.6464   57.9936   62.0899 C   0  0  0  0  0  0  0  0  0  0  0  0
  -49.8028   58.3358   60.8769 C   0  0  0  0  0  0  0  0  0  0  0  0
  -48.9450   57.1836   60.3957 C   0  0  0  0  0  0  0  0  0  0  0  0
  -48.8321   57.0984   58.8799 C   0  0  0  0  0  0  0  0  0  0  0  0
  -47.4241   56.8097   58.3906 C   0  0  0  0  0  0  0  0  0  0  0  0
  -45.1900   57.9691   58.3716 C   0  0  0  0  0  0  0  0  0  0  0  0
  -46.6411   58.0328   57.9522 C   0  0  0  0  0  0  0  0  0  0  0  0
  -37.2849   61.7265   64.0958 C   0  0  0  0  0  0  0  0  0  0  0  0
  -36.4168   61.8515   62.9472 O   0  0  0  0  0  0  0  0  0  0  0  0
  -35.3295   63.0174   62.8046 P   0  0  0  0  0  0  0  0  0  0  0  0
  -33.9931   62.4279   63.0360 O   0  0  0  0  0  0  0  0  0  0  0  0
  -35.5822   63.7310   61.5298 O   0  0  0  0  0  0  0  0  0  0  0  0
  -35.4034   63.1357   60.7851 H   0  0  0  0  0  0  0  0  0  0  0  0
  -35.6341   64.0276   64.0002 O   0  0  0  0  0  0  0  0  0  0  0  0
  -34.6301   64.2811   65.0040 C   0  0  0  0  0  0  0  0  0  0  0  0
  -33.5637   63.0872   66.7873 O   0  0  0  0  0  0  0  0  0  0  0  0
  -34.8155   63.2872   66.1241 C   0  0  0  0  0  0  0  0  0  0  0  0
  -32.8972   62.8048   66.1415 H   0  0  0  0  0  0  0  0  0  0  0  0
  -36.2669   62.6399   67.9387 O   0  0  0  0  0  0  0  0  0  0  0  0
  -35.8659   63.7275   67.1154 C   0  0  0  0  0  0  0  0  0  0  0  0
  -36.9407   62.9419   68.5677 H   0  0  0  0  0  0  0  0  0  0  0  0
  -39.3801   60.8624   63.1378 O   0  0  0  0  0  0  0  0  0  0  0  0
  -40.3370   60.6427   61.1138 O   0  0  0  0  0  0  0  0  0  0  0  0
  -39.4888   60.3315   61.9048 C   0  0  0  0  0  0  0  0  0  0  0  0
  -38.4164   59.3225   61.6324 C   0  0  0  0  0  0  0  0  0  0  0  0
  -38.9203   57.8992   61.8491 C   0  0  0  0  0  0  0  0  0  0  0  0
  -37.8126   56.8690   61.9966 C   0  0  0  0  0  0  0  0  0  0  0  0
  -36.4708   57.4700   62.3996 C   0  0  0  0  0  0  0  0  0  0  0  0
  -36.1414   57.3121   63.8724 C   0  0  0  0  0  0  0  0  0  0  0  0
  -35.2439   58.4125   64.4457 C   0  0  0  0  0  0  0  0  0  0  0  0
  -33.7498   58.2510   64.1568 C   0  0  0  0  0  0  0  0  0  0  0  0
  -33.3526   58.8920   62.8609 C   0  0  0  0  0  0  0  0  0  0  0  0
  -32.7328   58.3106   61.8524 C   0  0  0  0  0  0  0  0  0  0  0  0
  -32.2959   56.8811   61.7907 C   0  0  0  0  0  0  0  0  0  0  0  0
  -33.4492   55.9329   61.4753 C   0  0  0  0  0  0  0  0  0  0  0  0
  -34.0149   56.1053   60.0766 C   0  0  0  0  0  0  0  0  0  0  0  0
  -35.0939   55.0951   59.7264 C   0  0  0  0  0  0  0  0  0  0  0  0
  -36.2836   55.6773   58.9812 C   0  0  0  0  0  0  0  0  0  0  0  0
  -35.9108   56.8080   58.0344 C   0  0  0  0  0  0  0  0  0  0  0  0
  -36.4526   58.1640   58.4412 C   0  0  0  0  0  0  0  0  0  0  0  0
  -37.9237   58.3081   58.1679 C   0  0  0  0  0  0  0  0  0  0  0  0
 21 22  1  0  0  0
  4  5  2  0  0  0
 25 24  1  0  0  0
 25 26  2  0  0  0
 25 27  1  0  0  0
 25 29  1  0  0  0
 22 20  1  0  0  0
  3  5  1  0  0  0
  3  2  1  0  0  0
 20 19  1  0  0  0
 24 23  1  0  0  0
 19 18  1  0  0  0
 18 17  1  0  0  0
 27 28  1  0  0  0
 17 16  1  0  0  0
 29 30  1  0  0  0
 16 15  1  0  0  0
 34 35  1  0  0  0
 34 36  1  0  0  0
 15 14  1  0  0  0
 31 32  1  0  0  0
 31 33  1  0  0  0
 14 13  1  0  0  0
 37  1  1  0  0  0
 37 39  1  0  0  0
 13 12  1  0  0  0
 38 39  2  0  0  0
 12 11  1  0  0  0
 11 10  1  0  0  0
 10  9  1  0  0  0
  9  8  1  0  0  0
  8  7  1  0  0  0
  7  6  1  0  0  0
  6  5  1  0  0  0
  2  1  1  0  0  0
  1 23  1  0  0  0
 30 32  1  0  0  0
 32 35  1  0  0  0
 39 40  1  0  0  0
 40 41  1  0  0  0
 41 42  1  0  0  0
 42 43  1  0  0  0
 43 44  1  0  0  0
 44 45  1  0  0  0
 45 46  1  0  0  0
 46 47  1  0  0  0
 47 48  2  0  0  0
 48 49  1  0  0  0
 49 50  1  0  0  0
 50 51  1  0  0  0
 51 52  1  0  0  0
 52 53  1  0  0  0
 53 54  1  0  0  0
 54 55  1  0  0  0
 55 56  1  0  0  0
M  CHG 1  26  -1
M  END
> <minimizedAffinity>
-8.66292

> <CNNscore>
0.5055569410

> <CNNaffinity>
7.5547118187

> <CNN_VS>
3.8193368912

> <CNNaffinity_variance>
0.6743433475

$$$$
/media/chris/experiments/cd1a-new-docking/inputs/ligands/7sh4_ligand.pdb


 56 55  0  0  0  0  0  0  0  0999 V2000
  -36.6346   61.6593   63.2761 C   0  0  0  0  0  0  0  0  0  0  0  0
  -38.0496   61.3205   62.9008 C   0  0  0  0  0  0  0  0  0  0  0  0
  -38.6782   61.0021   64.1605 O   0  0  0  0  0  0  0  0  0  0  0  0
  -40.5305   60.3523   63.0900 O   0  0  0  0  0  0  0  0  0  0  0  0
  -39.9301   60.5459   64.1126 C   0  0  0  0  0  0  0  0  0  0  0  0
  -40.4319   60.1934   65.4832 C   0  0  0  0  0  0  0  0  0  0  0  0
  -41.8441   59.6332   65.5020 C   0  0  0  0  0  0  0  0  0  0  0  0
  -41.8769   58.1325   65.7005 C   0  0  0  0  0  0  0  0  0  0  0  0
  -43.2340   57.5879   66.0843 C   0  0  0  0  0  0  0  0  0  0  0  0
  -44.3683   58.5388   65.7600 C   0  0  0  0  0  0  0  0  0  0  0  0
  -45.3214   58.7414   66.9124 C   0  0  0  0  0  0  0  0  0  0  0  0
  -46.7665   58.6012   66.5126 C   0  0  0  0  0  0  0  0  0  0  0  0
  -47.0073   58.8382   65.0382 C   0  0  0  0  0  0  0  0  0  0  0  0
  -48.1639   58.0235   64.4956 C   0  0  0  0  0  0  0  0  0  0  0  0
  -48.8398   58.6379   63.2878 C   0  0  0  0  0  0  0  0  0  0  0  0
  -50.2680   58.1523   63.0676 C   0  0  0  0  0  0  0  0  0  0  0  0
  -50.6174   57.9051   61.6126 C   0  0  0  0  0  0  0  0  0  0  0  0
  -49.7053   58.6284   60.6431 C   0  0  0  0  0  0  0  0  0  0  0  0
  -49.1270   57.7270   59.5611 C   0  0  0  0  0  0  0  0  0  0  0  0
  -47.6636   57.3836   59.7743 C   0  0  0  0  0  0  0  0  0  0  0  0
  -47.6216   56.6316   57.3725 C   0  0  0  0  0  0  0  0  0  0  0  0
  -46.8458   57.2712   58.5016 C   0  0  0  0  0  0  0  0  0  0  0  0
  -36.2145   63.0053   62.7437 C   0  0  0  0  0  0  0  0  0  0  0  0
  -35.9705   63.8912   63.8592 O   0  0  0  0  0  0  0  0  0  0  0  0
  -34.5007   64.3480   64.2986 P   0  0  0  0  0  0  0  0  0  0  0  0
  -33.5476   63.8721   63.2729 O   0  0  0  0  0  0  0  0  0  0  0  0
  -34.5426   65.7960   64.6149 O   0  0  0  0  0  0  0  0  0  0  0  0
  -34.7245   66.2986   63.8054 H   0  0  0  0  0  0  0  0  0  0  0  0
  -34.2001   63.5595   65.6516 O   0  0  0  0  0  0  0  0  0  0  0  0
  -34.5920   64.1256   66.9188 C   0  0  0  0  0  0  0  0  0  0  0  0
  -36.9857   64.2060   66.8395 O   0  0  0  0  0  0  0  0  0  0  0  0
  -35.8763   63.4661   67.3578 C   0  0  0  0  0  0  0  0  0  0  0  0
  -36.9208   65.1301   67.1275 H   0  0  0  0  0  0  0  0  0  0  0  0
  -37.2563   61.7285   66.4119 O   0  0  0  0  0  0  0  0  0  0  0  0
  -35.9612   62.0239   66.9190 C   0  0  0  0  0  0  0  0  0  0  0  0
  -37.2911   60.7994   66.1357 H   0  0  0  0  0  0  0  0  0  0  0  0
  -35.7592   60.5877   62.7909 O   0  0  0  0  0  0  0  0  0  0  0  0
  -33.5897   60.9654   63.2501 O   0  0  0  0  0  0  0  0  0  0  0  0
  -34.6147   60.3799   63.4699 C   0  0  0  0  0  0  0  0  0  0  0  0
  -34.7783   59.3467   64.5413 C   0  0  0  0  0  0  0  0  0  0  0  0
  -34.2858   57.9791   64.0787 C   0  0  0  0  0  0  0  0  0  0  0  0
  -32.8474   57.9759   63.5876 C   0  0  0  0  0  0  0  0  0  0  0  0
  -32.6846   57.4110   62.1812 C   0  0  0  0  0  0  0  0  0  0  0  0
  -33.9631   57.4127   61.3637 C   0  0  0  0  0  0  0  0  0  0  0  0
  -34.4814   56.0212   60.9895 C   0  0  0  0  0  0  0  0  0  0  0  0
  -34.0184   55.4979   59.6280 C   0  0  0  0  0  0  0  0  0  0  0  0
  -33.8646   56.5991   58.6222 C   0  0  0  0  0  0  0  0  0  0  0  0
  -34.7964   57.0598   57.8106 C   0  0  0  0  0  0  0  0  0  0  0  0
  -36.2101   56.5775   57.7253 C   0  0  0  0  0  0  0  0  0  0  0  0
  -37.2152   57.7249   57.6838 C   0  0  0  0  0  0  0  0  0  0  0  0
  -37.4364   58.3905   59.0307 C   0  0  0  0  0  0  0  0  0  0  0  0
  -37.6430   57.4074   60.1702 C   0  0  0  0  0  0  0  0  0  0  0  0
  -38.3081   58.0009   61.4010 C   0  0  0  0  0  0  0  0  0  0  0  0
  -37.6253   57.6143   62.7041 C   0  0  0  0  0  0  0  0  0  0  0  0
  -38.5808   57.3167   63.8426 C   0  0  0  0  0  0  0  0  0  0  0  0
  -38.0012   57.6475   65.1896 C   0  0  0  0  0  0  0  0  0  0  0  0
 21 22  1  0  0  0
  4  5  2  0  0  0
 25 24  1  0  0  0
 25 26  2  0  0  0
 25 27  1  0  0  0
 25 29  1  0  0  0
 22 20  1  0  0  0
  3  5  1  0  0  0
  3  2  1  0  0  0
 20 19  1  0  0  0
 24 23  1  0  0  0
 19 18  1  0  0  0
 18 17  1  0  0  0
 27 28  1  0  0  0
 17 16  1  0  0  0
 29 30  1  0  0  0
 16 15  1  0  0  0
 34 35  1  0  0  0
 34 36  1  0  0  0
 15 14  1  0  0  0
 31 32  1  0  0  0
 31 33  1  0  0  0
 14 13  1  0  0  0
 37  1  1  0  0  0
 37 39  1  0  0  0
 13 12  1  0  0  0
 38 39  2  0  0  0
 12 11  1  0  0  0
 11 10  1  0  0  0
 10  9  1  0  0  0
  9  8  1  0  0  0
  8  7  1  0  0  0
  7  6  1  0  0  0
  6  5  1  0  0  0
  2  1  1  0  0  0
  1 23  1  0  0  0
 30 32  1  0  0  0
 32 35  1  0  0  0
 39 40  1  0  0  0
 40 41  1  0  0  0
 41 42  1  0  0  0
 42 43  1  0  0  0
 43 44  1  0  0  0
 44 45  1  0  0  0
 45 46  1  0  0  0
 46 47  1  0  0  0
 47 48  2  0  0  0
 48 49  1  0  0  0
 49 50  1  0  0  0
 50 51  1  0  0  0
 51 52  1  0  0  0
 52 53  1  0  0  0
 53 54  1  0  0  0
 54 55  1  0  0  0
 55 56  1  0  0  0
M  CHG 1  26  -1
M  END
> <minimizedAffinity>
-8.63876

> <CNNscore>
0.4952089489

> <CNNaffinity>
7.4783296585

> <CNN_VS>
3.7033357620

> <CNNaffinity_variance>
0.9377524257

$$$$
/media/chris/experiments/cd1a-new-docking/inputs/ligands/7sh4_ligand.pdb


 56 55  0  0  0  0  0  0  0  0999 V2000
  -39.5475   60.7412   63.1890 C   0  0  0  0  0  0  0  0  0  0  0  0
  -39.9225   59.4797   62.4639 C   0  0  0  0  0  0  0  0  0  0  0  0
  -40.0709   59.8974   61.0903 O   0  0  0  0  0  0  0  0  0  0  0  0
  -38.8357   60.1118   59.2390 O   0  0  0  0  0  0  0  0  0  0  0  0
  -39.1271   59.5050   60.2342 C   0  0  0  0  0  0  0  0  0  0  0  0
  -38.4047   58.2906   60.7423 C   0  0  0  0  0  0  0  0  0  0  0  0
  -37.1146   57.9809   60.0019 C   0  0  0  0  0  0  0  0  0  0  0  0
  -36.0026   57.5297   60.9252 C   0  0  0  0  0  0  0  0  0  0  0  0
  -34.7181   57.1654   60.2159 C   0  0  0  0  0  0  0  0  0  0  0  0
  -33.8613   56.1935   61.0016 C   0  0  0  0  0  0  0  0  0  0  0  0
  -32.8069   56.8744   61.8395 C   0  0  0  0  0  0  0  0  0  0  0  0
  -33.3769   57.8995   62.7839 C   0  0  0  0  0  0  0  0  0  0  0  0
  -32.4972   59.1189   62.9487 C   0  0  0  0  0  0  0  0  0  0  0  0
  -31.6384   59.3902   61.7302 C   0  0  0  0  0  0  0  0  0  0  0  0
  -31.0541   60.7865   61.6844 C   0  0  0  0  0  0  0  0  0  0  0  0
  -31.7570   61.7788   62.6037 C   0  0  0  0  0  0  0  0  0  0  0  0
  -32.2197   63.0438   61.9066 C   0  0  0  0  0  0  0  0  0  0  0  0
  -31.2133   64.1738   61.9793 C   0  0  0  0  0  0  0  0  0  0  0  0
  -31.7396   65.4151   62.6861 C   0  0  0  0  0  0  0  0  0  0  0  0
  -32.1329   65.1704   64.1319 C   0  0  0  0  0  0  0  0  0  0  0  0
  -32.6704   66.1833   66.3727 C   0  0  0  0  0  0  0  0  0  0  0  0
  -32.6074   66.4030   64.8782 C   0  0  0  0  0  0  0  0  0  0  0  0
  -38.0918   60.7585   63.5792 C   0  0  0  0  0  0  0  0  0  0  0  0
  -37.4466   61.8707   62.9195 O   0  0  0  0  0  0  0  0  0  0  0  0
  -36.1857   62.6353   63.5419 P   0  0  0  0  0  0  0  0  0  0  0  0
  -35.0228   61.7237   63.4834 O   0  0  0  0  0  0  0  0  0  0  0  0
  -36.0833   63.9632   62.8902 O   0  0  0  0  0  0  0  0  0  0  0  0
  -35.8623   63.8472   61.9529 H   0  0  0  0  0  0  0  0  0  0  0  0
  -36.5491   62.8696   65.0767 O   0  0  0  0  0  0  0  0  0  0  0  0
  -36.0614   64.0406   65.7630 C   0  0  0  0  0  0  0  0  0  0  0  0
  -36.2635   62.8567   67.8367 O   0  0  0  0  0  0  0  0  0  0  0  0
  -35.3518   63.5954   67.0182 C   0  0  0  0  0  0  0  0  0  0  0  0
  -37.0460   63.3999   68.0204 H   0  0  0  0  0  0  0  0  0  0  0  0
  -34.4855   61.4111   66.4738 O   0  0  0  0  0  0  0  0  0  0  0  0
  -34.1266   62.7643   66.7220 C   0  0  0  0  0  0  0  0  0  0  0  0
  -33.6866   60.8941   66.2859 H   0  0  0  0  0  0  0  0  0  0  0  0
  -40.4230   60.8798   64.3569 O   0  0  0  0  0  0  0  0  0  0  0  0
  -39.1392   60.5729   66.1784 O   0  0  0  0  0  0  0  0  0  0  0  0
  -40.0527   60.2315   65.4779 C   0  0  0  0  0  0  0  0  0  0  0  0
  -40.9265   59.0476   65.7553 C   0  0  0  0  0  0  0  0  0  0  0  0
  -42.3962   59.3653   65.4983 C   0  0  0  0  0  0  0  0  0  0  0  0
  -43.3284   58.1839   65.7112 C   0  0  0  0  0  0  0  0  0  0  0  0
  -44.6914   58.5757   66.2702 C   0  0  0  0  0  0  0  0  0  0  0  0
  -45.4963   59.4807   65.3559 C   0  0  0  0  0  0  0  0  0  0  0  0
  -47.0138   59.3033   65.4595 C   0  0  0  0  0  0  0  0  0  0  0  0
  -47.5357   57.9179   65.0724 C   0  0  0  0  0  0  0  0  0  0  0  0
  -48.8447   57.6028   65.7322 C   0  0  0  0  0  0  0  0  0  0  0  0
  -50.0286   58.0797   65.4003 C   0  0  0  0  0  0  0  0  0  0  0  0
  -50.3136   59.0391   64.2882 C   0  0  0  0  0  0  0  0  0  0  0  0
  -50.8741   58.3454   63.0500 C   0  0  0  0  0  0  0  0  0  0  0  0
  -49.9895   58.4801   61.8230 C   0  0  0  0  0  0  0  0  0  0  0  0
  -50.4627   57.6576   60.6369 C   0  0  0  0  0  0  0  0  0  0  0  0
  -49.4967   56.5687   60.2002 C   0  0  0  0  0  0  0  0  0  0  0  0
  -49.0829   56.6760   58.7404 C   0  0  0  0  0  0  0  0  0  0  0  0
  -47.7121   57.2862   58.5257 C   0  0  0  0  0  0  0  0  0  0  0  0
  -46.9435   57.4544   59.8066 C   0  0  0  0  0  0  0  0  0  0  0  0
 21 22  1  0  0  0
  4  5  2  0  0  0
 25 24  1  0  0  0
 25 26  2  0  0  0
 25 27  1  0  0  0
 25 29  1  0  0  0
 22 20  1  0  0  0
  3  5  1  0  0  0
  3  2  1  0  0  0
 20 19  1  0  0  0
 24 23  1  0  0  0
 19 18  1  0  0  0
 18 17  1  0  0  0
 27 28  1  0  0  0
 17 16  1  0  0  0
 29 30  1  0  0  0
 16 15  1  0  0  0
 34 35  1  0  0  0
 34 36  1  0  0  0
 15 14  1  0  0  0
 31 32  1  0  0  0
 31 33  1  0  0  0
 14 13  1  0  0  0
 37  1  1  0  0  0
 37 39  1  0  0  0
 13 12  1  0  0  0
 38 39  2  0  0  0
 12 11  1  0  0  0
 11 10  1  0  0  0
 10  9  1  0  0  0
  9  8  1  0  0  0
  8  7  1  0  0  0
  7  6  1  0  0  0
  6  5  1  0  0  0
  2  1  1  0  0  0
  1 23  1  0  0  0
 30 32  1  0  0  0
 32 35  1  0  0  0
 39 40  1  0  0  0
 40 41  1  0  0  0
 41 42  1  0  0  0
 42 43  1  0  0  0
 43 44  1  0  0  0
 44 45  1  0  0  0
 45 46  1  0  0  0
 46 47  1  0  0  0
 47 48  2  0  0  0
 48 49  1  0  0  0
 49 50  1  0  0  0
 50 51  1  0  0  0
 51 52  1  0  0  0
 52 53  1  0  0  0
 53 54  1  0  0  0
 54 55  1  0  0  0
 55 56  1  0  0  0
M  CHG 1  26  -1
M  END
> <minimizedAffinity>
-8.54054

> <CNNscore>
0.4893624187

> <CNNaffinity>
7.0141525269

> <CNN_VS>
3.4324626923

> <CNNaffinity_variance>
0.7183140516

$$$$
/media/chris/experiments/cd1a-new-docking/inputs/ligands/7sh4_ligand.pdb


 56 55  0  0  0  0  0  0  0  0999 V2000
  -38.3102   60.2099   65.5205 C   0  0  0  0  0  0  0  0  0  0  0  0
  -39.0308   60.2528   64.2027 C   0  0  0  0  0  0  0  0  0  0  0  0
  -40.2093   61.0404   64.4747 O   0  0  0  0  0  0  0  0  0  0  0  0
  -41.0897   61.0353   66.5299 O   0  0  0  0  0  0  0  0  0  0  0  0
  -41.0356   60.5856   65.4170 C   0  0  0  0  0  0  0  0  0  0  0  0
  -41.9612   59.5385   64.8677 C   0  0  0  0  0  0  0  0  0  0  0  0
  -42.5019   58.5780   65.9135 C   0  0  0  0  0  0  0  0  0  0  0  0
  -43.8970   58.9407   66.3770 C   0  0  0  0  0  0  0  0  0  0  0  0
  -44.8830   59.1691   65.2539 C   0  0  0  0  0  0  0  0  0  0  0  0
  -45.4522   57.8818   64.6930 C   0  0  0  0  0  0  0  0  0  0  0  0
  -46.7947   57.5206   65.2801 C   0  0  0  0  0  0  0  0  0  0  0  0
  -47.8657   58.5314   64.9658 C   0  0  0  0  0  0  0  0  0  0  0  0
  -48.7003   58.1662   63.7583 C   0  0  0  0  0  0  0  0  0  0  0  0
  -49.1671   59.3799   62.9805 C   0  0  0  0  0  0  0  0  0  0  0  0
  -50.2019   59.0729   61.9184 C   0  0  0  0  0  0  0  0  0  0  0  0
  -49.6074   58.7802   60.5454 C   0  0  0  0  0  0  0  0  0  0  0  0
  -50.1044   57.4907   59.9208 C   0  0  0  0  0  0  0  0  0  0  0  0
  -49.2415   56.2901   60.2511 C   0  0  0  0  0  0  0  0  0  0  0  0
  -48.4250   55.7822   59.0709 C   0  0  0  0  0  0  0  0  0  0  0  0
  -48.3705   56.7546   57.9063 C   0  0  0  0  0  0  0  0  0  0  0  0
  -46.1651   57.9664   57.9679 C   0  0  0  0  0  0  0  0  0  0  0  0
  -47.0001   56.9134   57.2753 C   0  0  0  0  0  0  0  0  0  0  0  0
  -37.2979   61.3191   65.6487 C   0  0  0  0  0  0  0  0  0  0  0  0
  -37.1470   61.9620   64.3632 O   0  0  0  0  0  0  0  0  0  0  0  0
  -36.0106   63.0490   64.0651 P   0  0  0  0  0  0  0  0  0  0  0  0
  -35.5015   62.8156   62.6964 O   0  0  0  0  0  0  0  0  0  0  0  0
  -36.5510   64.3871   64.4055 O   0  0  0  0  0  0  0  0  0  0  0  0
  -37.2708   64.6101   63.7947 H   0  0  0  0  0  0  0  0  0  0  0  0
  -34.8333   62.7211   65.0893 O   0  0  0  0  0  0  0  0  0  0  0  0
  -33.7251   63.6332   65.2308 C   0  0  0  0  0  0  0  0  0  0  0  0
  -34.2080   63.9823   67.5519 O   0  0  0  0  0  0  0  0  0  0  0  0
  -34.0758   64.6470   66.2920 C   0  0  0  0  0  0  0  0  0  0  0  0
  -34.8673   63.2746   67.4764 H   0  0  0  0  0  0  0  0  0  0  0  0
  -32.7491   66.0360   67.7510 O   0  0  0  0  0  0  0  0  0  0  0  0
  -33.0525   65.7528   66.3911 C   0  0  0  0  0  0  0  0  0  0  0  0
  -32.0913   66.7475   67.7941 H   0  0  0  0  0  0  0  0  0  0  0  0
  -37.6882   58.8898   65.6637 O   0  0  0  0  0  0  0  0  0  0  0  0
  -39.2513   57.5392   64.7732 O   0  0  0  0  0  0  0  0  0  0  0  0
  -38.1142   57.9206   64.8310 C   0  0  0  0  0  0  0  0  0  0  0  0
  -37.0061   57.3900   63.9751 C   0  0  0  0  0  0  0  0  0  0  0  0
  -35.7028   58.1449   64.2168 C   0  0  0  0  0  0  0  0  0  0  0  0
  -35.3312   59.1062   63.0997 C   0  0  0  0  0  0  0  0  0  0  0  0
  -33.9513   59.7319   63.2677 C   0  0  0  0  0  0  0  0  0  0  0  0
  -32.8747   59.0903   62.4122 C   0  0  0  0  0  0  0  0  0  0  0  0
  -32.4593   57.6857   62.8591 C   0  0  0  0  0  0  0  0  0  0  0  0
  -32.5467   56.6058   61.7784 C   0  0  0  0  0  0  0  0  0  0  0  0
  -33.9606   56.1803   61.5182 C   0  0  0  0  0  0  0  0  0  0  0  0
  -34.5223   55.9936   60.3397 C   0  0  0  0  0  0  0  0  0  0  0  0
  -33.8609   56.1672   59.0090 C   0  0  0  0  0  0  0  0  0  0  0  0
  -34.7015   56.9996   58.0451 C   0  0  0  0  0  0  0  0  0  0  0  0
  -36.0484   56.3787   57.7188 C   0  0  0  0  0  0  0  0  0  0  0  0
  -37.2003   57.3684   57.7527 C   0  0  0  0  0  0  0  0  0  0  0  0
  -37.5109   57.9260   59.1319 C   0  0  0  0  0  0  0  0  0  0  0  0
  -37.6898   59.4365   59.1482 C   0  0  0  0  0  0  0  0  0  0  0  0
  -38.5023   59.9540   60.3186 C   0  0  0  0  0  0  0  0  0  0  0  0
  -38.9563   58.8575   61.2411 C   0  0  0  0  0  0  0  0  0  0  0  0
 21 22  1  0  0  0
  4  5  2  0  0  0
 25 24  1  0  0  0
 25 26  2  0  0  0
 25 27  1  0  0  0
 25 29  1  0  0  0
 22 20  1  0  0  0
  3  5  1  0  0  0
  3  2  1  0  0  0
 20 19  1  0  0  0
 24 23  1  0  0  0
 19 18  1  0  0  0
 18 17  1  0  0  0
 27 28  1  0  0  0
 17 16  1  0  0  0
 29 30  1  0  0  0
 16 15  1  0  0  0
 34 35  1  0  0  0
 34 36  1  0  0  0
 15 14  1  0  0  0
 31 32  1  0  0  0
 31 33  1  0  0  0
 14 13  1  0  0  0
 37  1  1  0  0  0
 37 39  1  0  0  0
 13 12  1  0  0  0
 38 39  2  0  0  0
 12 11  1  0  0  0
 11 10  1  0  0  0
 10  9  1  0  0  0
  9  8  1  0  0  0
  8  7  1  0  0  0
  7  6  1  0  0  0
  6  5  1  0  0  0
  2  1  1  0  0  0
  1 23  1  0  0  0
 30 32  1  0  0  0
 32 35  1  0  0  0
 39 40  1  0  0  0
 40 41  1  0  0  0
 41 42  1  0  0  0
 42 43  1  0  0  0
 43 44  1  0  0  0
 44 45  1  0  0  0
 45 46  1  0  0  0
 46 47  1  0  0  0
 47 48  2  0  0  0
 48 49  1  0  0  0
 49 50  1  0  0  0
 50 51  1  0  0  0
 51 52  1  0  0  0
 52 53  1  0  0  0
 53 54  1  0  0  0
 54 55  1  0  0  0
 55 56  1  0  0  0
M  CHG 1  26  -1
M  END
> <minimizedAffinity>
-8.68169

> <CNNscore>
0.4761320353

> <CNNaffinity>
7.4580793381

> <CNN_VS>
3.5510303974

> <CNNaffinity_variance>
0.9230257869

$$$$
/media/chris/experiments/cd1a-new-docking/inputs/ligands/7sh4_ligand.pdb


 56 55  0  0  0  0  0  0  0  0999 V2000
  -38.0685   60.5096   62.3064 C   0  0  0  0  0  0  0  0  0  0  0  0
  -39.5692   60.5251   62.3790 C   0  0  0  0  0  0  0  0  0  0  0  0
  -39.8488   60.7746   63.7728 O   0  0  0  0  0  0  0  0  0  0  0  0
  -41.7934   61.8216   64.1212 O   0  0  0  0  0  0  0  0  0  0  0  0
  -41.1318   60.8188   64.1330 C   0  0  0  0  0  0  0  0  0  0  0  0
  -41.6601   59.4445   64.4280 C   0  0  0  0  0  0  0  0  0  0  0  0
  -42.7449   59.4117   65.4914 C   0  0  0  0  0  0  0  0  0  0  0  0
  -43.0568   58.0087   65.9676 C   0  0  0  0  0  0  0  0  0  0  0  0
  -44.4854   57.5763   65.7274 C   0  0  0  0  0  0  0  0  0  0  0  0
  -45.4852   58.6989   65.9180 C   0  0  0  0  0  0  0  0  0  0  0  0
  -46.4879   58.7983   64.7946 C   0  0  0  0  0  0  0  0  0  0  0  0
  -47.7422   58.0064   65.0534 C   0  0  0  0  0  0  0  0  0  0  0  0
  -48.9987   58.8483   65.0340 C   0  0  0  0  0  0  0  0  0  0  0  0
  -50.0683   58.2828   64.1218 C   0  0  0  0  0  0  0  0  0  0  0  0
  -50.6345   59.2851   63.1379 C   0  0  0  0  0  0  0  0  0  0  0  0
  -50.0922   59.1318   61.7214 C   0  0  0  0  0  0  0  0  0  0  0  0
  -49.1135   57.9850   61.5570 C   0  0  0  0  0  0  0  0  0  0  0  0
  -48.7790   57.6816   60.1109 C   0  0  0  0  0  0  0  0  0  0  0  0
  -47.2918   57.4756   59.8589 C   0  0  0  0  0  0  0  0  0  0  0  0
  -46.9492   57.2463   58.3977 C   0  0  0  0  0  0  0  0  0  0  0  0
  -47.4972   55.2154   57.0153 C   0  0  0  0  0  0  0  0  0  0  0  0
  -48.0116   56.5093   57.6045 C   0  0  0  0  0  0  0  0  0  0  0  0
  -37.4488   61.5772   63.1713 C   0  0  0  0  0  0  0  0  0  0  0  0
  -36.0709   61.7560   62.7740 O   0  0  0  0  0  0  0  0  0  0  0  0
  -35.2765   63.1284   62.9919 P   0  0  0  0  0  0  0  0  0  0  0  0
  -34.3919   63.3357   61.8252 O   0  0  0  0  0  0  0  0  0  0  0  0
  -36.2614   64.1823   63.3353 O   0  0  0  0  0  0  0  0  0  0  0  0
  -36.8357   64.3493   62.5716 H   0  0  0  0  0  0  0  0  0  0  0  0
  -34.3545   62.8844   64.2698 O   0  0  0  0  0  0  0  0  0  0  0  0
  -34.1675   63.9384   65.2363 C   0  0  0  0  0  0  0  0  0  0  0  0
  -34.3414   64.4322   67.5748 O   0  0  0  0  0  0  0  0  0  0  0  0
  -34.5682   63.4157   66.5940 C   0  0  0  0  0  0  0  0  0  0  0  0
  -33.4137   64.7139   67.5399 H   0  0  0  0  0  0  0  0  0  0  0  0
  -36.8586   64.0336   67.0302 O   0  0  0  0  0  0  0  0  0  0  0  0
  -36.0086   62.9648   66.6342 C   0  0  0  0  0  0  0  0  0  0  0  0
  -37.7780   63.7251   67.0501 H   0  0  0  0  0  0  0  0  0  0  0  0
  -37.6728   60.6532   60.9019 O   0  0  0  0  0  0  0  0  0  0  0  0
  -39.2425   60.4624   59.3019 O   0  0  0  0  0  0  0  0  0  0  0  0
  -38.3925   59.9692   59.9918 C   0  0  0  0  0  0  0  0  0  0  0  0
  -37.9936   58.5272   59.9306 C   0  0  0  0  0  0  0  0  0  0  0  0
  -37.8519   58.0473   58.4897 C   0  0  0  0  0  0  0  0  0  0  0  0
  -36.4176   58.0195   57.9876 C   0  0  0  0  0  0  0  0  0  0  0  0
  -35.8608   56.6116   57.8101 C   0  0  0  0  0  0  0  0  0  0  0  0
  -36.2532   55.6490   58.9156 C   0  0  0  0  0  0  0  0  0  0  0  0
  -35.0996   55.2232   59.8283 C   0  0  0  0  0  0  0  0  0  0  0  0
  -33.9789   56.2532   59.9855 C   0  0  0  0  0  0  0  0  0  0  0  0
  -33.1348   55.9892   61.1961 C   0  0  0  0  0  0  0  0  0  0  0  0
  -32.5281   56.8897   61.9446 C   0  0  0  0  0  0  0  0  0  0  0  0
  -32.5575   58.3716   61.7408 C   0  0  0  0  0  0  0  0  0  0  0  0
  -32.8982   59.1287   63.0211 C   0  0  0  0  0  0  0  0  0  0  0  0
  -34.2405   58.7439   63.6180 C   0  0  0  0  0  0  0  0  0  0  0  0
  -35.3160   58.4775   62.5788 C   0  0  0  0  0  0  0  0  0  0  0  0
  -36.2146   57.2927   62.8922 C   0  0  0  0  0  0  0  0  0  0  0  0
  -36.7053   57.2689   64.3319 C   0  0  0  0  0  0  0  0  0  0  0  0
  -38.1679   57.6314   64.4966 C   0  0  0  0  0  0  0  0  0  0  0  0
  -38.4111   58.5527   65.6593 C   0  0  0  0  0  0  0  0  0  0  0  0
 21 22  1  0  0  0
  4  5  2  0  0  0
 25 24  1  0  0  0
 25 26  2  0  0  0
 25 27  1  0  0  0
 25 29  1  0  0  0
 22 20  1  0  0  0
  3  5  1  0  0  0
  3  2  1  0  0  0
 20 19  1  0  0  0
 24 23  1  0  0  0
 19 18  1  0  0  0
 18 17  1  0  0  0
 27 28  1  0  0  0
 17 16  1  0  0  0
 29 30  1  0  0  0
 16 15  1  0  0  0
 34 35  1  0  0  0
 34 36  1  0  0  0
 15 14  1  0  0  0
 31 32  1  0  0  0
 31 33  1  0  0  0
 14 13  1  0  0  0
 37  1  1  0  0  0
 37 39  1  0  0  0
 13 12  1  0  0  0
 38 39  2  0  0  0
 12 11  1  0  0  0
 11 10  1  0  0  0
 10  9  1  0  0  0
  9  8  1  0  0  0
  8  7  1  0  0  0
  7  6  1  0  0  0
  6  5  1  0  0  0
  2  1  1  0  0  0
  1 23  1  0  0  0
 30 32  1  0  0  0
 32 35  1  0  0  0
 39 40  1  0  0  0
 40 41  1  0  0  0
 41 42  1  0  0  0
 42 43  1  0  0  0
 43 44  1  0  0  0
 44 45  1  0  0  0
 45 46  1  0  0  0
 46 47  1  0  0  0
 47 48  2  0  0  0
 48 49  1  0  0  0
 49 50  1  0  0  0
 50 51  1  0  0  0
 51 52  1  0  0  0
 52 53  1  0  0  0
 53 54  1  0  0  0
 54 55  1  0  0  0
 55 56  1  0  0  0
M  CHG 1  26  -1
M  END
> <minimizedAffinity>
-8.66588

> <CNNscore>
0.4718017578

> <CNNaffinity>
7.5774087906

> <CNN_VS>
3.5750348568

> <CNNaffinity_variance>
0.9192129970

$$$$
