/media/chris/experiments/cd1a-new-docking/inputs/ligands/7sh4_ligand.pdb


 56 55  0  0  0  0  0  0  0  0999 V2000
  -38.3915   60.4146   64.9325 C   0  0  0  0  0  0  0  0  0  0  0  0
  -37.8691   59.0133   65.0774 C   0  0  0  0  0  0  0  0  0  0  0  0
  -36.6371   59.0205   64.3255 O   0  0  0  0  0  0  0  0  0  0  0  0
  -36.4281   56.8045   64.1135 O   0  0  0  0  0  0  0  0  0  0  0  0
  -35.9379   57.8853   64.3007 C   0  0  0  0  0  0  0  0  0  0  0  0
  -34.4645   58.1532   64.4102 C   0  0  0  0  0  0  0  0  0  0  0  0
  -33.9526   59.2100   63.4462 C   0  0  0  0  0  0  0  0  0  0  0  0
  -33.3815   58.6170   62.1754 C   0  0  0  0  0  0  0  0  0  0  0  0
  -32.4399   57.4562   62.4024 C   0  0  0  0  0  0  0  0  0  0  0  0
  -32.7985   56.2324   61.5839 C   0  0  0  0  0  0  0  0  0  0  0  0
  -34.2842   56.0757   61.3696 C   0  0  0  0  0  0  0  0  0  0  0  0
  -34.6305   55.5785   59.9910 C   0  0  0  0  0  0  0  0  0  0  0  0
  -33.6522   56.0266   58.9279 C   0  0  0  0  0  0  0  0  0  0  0  0
  -34.2791   56.9593   57.9113 C   0  0  0  0  0  0  0  0  0  0  0  0
  -35.7914   56.8959   57.8646 C   0  0  0  0  0  0  0  0  0  0  0  0
  -36.4730   58.2285   58.1537 C   0  0  0  0  0  0  0  0  0  0  0  0
  -37.7368   58.1070   58.9835 C   0  0  0  0  0  0  0  0  0  0  0  0
  -37.4797   57.6730   60.4119 C   0  0  0  0  0  0  0  0  0  0  0  0
  -38.5160   58.1868   61.4017 C   0  0  0  0  0  0  0  0  0  0  0  0
  -38.6443   59.6996   61.4169 C   0  0  0  0  0  0  0  0  0  0  0  0
  -40.4761   60.3421   59.8145 C   0  0  0  0  0  0  0  0  0  0  0  0
  -40.0615   60.2182   61.2631 C   0  0  0  0  0  0  0  0  0  0  0  0
  -37.3146   61.4460   65.1525 C   0  0  0  0  0  0  0  0  0  0  0  0
  -37.1835   62.2444   63.9551 O   0  0  0  0  0  0  0  0  0  0  0  0
  -35.9031   63.1574   63.6572 P   0  0  0  0  0  0  0  0  0  0  0  0
  -34.7031   62.2952   63.7118 O   0  0  0  0  0  0  0  0  0  0  0  0
  -36.1671   63.9335   62.4216 O   0  0  0  0  0  0  0  0  0  0  0  0
  -36.2192   63.3287   61.6649 H   0  0  0  0  0  0  0  0  0  0  0  0
  -35.8250   64.1852   64.8740 O   0  0  0  0  0  0  0  0  0  0  0  0
  -34.6530   65.0070   65.0501 C   0  0  0  0  0  0  0  0  0  0  0  0
  -33.3065   65.5316   66.9617 O   0  0  0  0  0  0  0  0  0  0  0  0
  -33.8494   64.4496   66.1992 C   0  0  0  0  0  0  0  0  0  0  0  0
  -32.7827   66.1056   66.3809 H   0  0  0  0  0  0  0  0  0  0  0  0
  -34.3400   62.1813   66.8569 O   0  0  0  0  0  0  0  0  0  0  0  0
  -34.6685   63.5452   67.0883 C   0  0  0  0  0  0  0  0  0  0  0  0
  -34.8755   61.6169   67.4362 H   0  0  0  0  0  0  0  0  0  0  0  0
  -39.5081   60.5898   65.8665 O   0  0  0  0  0  0  0  0  0  0  0  0
  -41.1151   61.2151   64.4219 O   0  0  0  0  0  0  0  0  0  0  0  0
  -40.7505   60.5439   65.3483 C   0  0  0  0  0  0  0  0  0  0  0  0
  -41.6149   59.5444   66.0525 C   0  0  0  0  0  0  0  0  0  0  0  0
  -42.7360   59.0404   65.1493 C   0  0  0  0  0  0  0  0  0  0  0  0
  -44.0989   59.0030   65.8211 C   0  0  0  0  0  0  0  0  0  0  0  0
  -44.9699   57.8367   65.3687 C   0  0  0  0  0  0  0  0  0  0  0  0
  -46.3714   58.2396   64.9493 C   0  0  0  0  0  0  0  0  0  0  0  0
  -46.7973   59.6363   65.4109 C   0  0  0  0  0  0  0  0  0  0  0  0
  -48.1824   59.7150   66.0564 C   0  0  0  0  0  0  0  0  0  0  0  0
  -48.9913   58.4767   65.8107 C   0  0  0  0  0  0  0  0  0  0  0  0
  -50.1245   58.3967   65.1408 C   0  0  0  0  0  0  0  0  0  0  0  0
  -50.8423   59.5318   64.4814 C   0  0  0  0  0  0  0  0  0  0  0  0
  -51.1773   59.2394   63.0217 C   0  0  0  0  0  0  0  0  0  0  0  0
  -49.9564   58.9818   62.1560 C   0  0  0  0  0  0  0  0  0  0  0  0
  -49.8971   57.5740   61.5887 C   0  0  0  0  0  0  0  0  0  0  0  0
  -49.6062   57.5073   60.0987 C   0  0  0  0  0  0  0  0  0  0  0  0
  -48.1511   57.2005   59.7788 C   0  0  0  0  0  0  0  0  0  0  0  0
  -47.8289   57.1880   58.2976 C   0  0  0  0  0  0  0  0  0  0  0  0
  -46.5922   57.9751   57.9650 C   0  0  0  0  0  0  0  0  0  0  0  0
 21 22  1  0  0  0
  4  5  2  0  0  0
 25 24  1  0  0  0
 25 26  2  0  0  0
 25 27  1  0  0  0
 25 29  1  0  0  0
 22 20  1  0  0  0
  3  5  1  0  0  0
  3  2  1  0  0  0
 20 19  1  0  0  0
 24 23  1  0  0  0
 19 18  1  0  0  0
 18 17  1  0  0  0
 27 28  1  0  0  0
 17 16  1  0  0  0
 29 30  1  0  0  0
 16 15  1  0  0  0
 34 35  1  0  0  0
 34 36  1  0  0  0
 15 14  1  0  0  0
 31 32  1  0  0  0
 31 33  1  0  0  0
 14 13  1  0  0  0
 37  1  1  0  0  0
 37 39  1  0  0  0
 13 12  1  0  0  0
 38 39  2  0  0  0
 12 11  1  0  0  0
 11 10  1  0  0  0
 10  9  1  0  0  0
  9  8  1  0  0  0
  8  7  1  0  0  0
  7  6  1  0  0  0
  6  5  1  0  0  0
  2  1  1  0  0  0
  1 23  1  0  0  0
 30 32  1  0  0  0
 32 35  1  0  0  0
 39 40  1  0  0  0
 40 41  1  0  0  0
 41 42  1  0  0  0
 42 43  1  0  0  0
 43 44  1  0  0  0
 44 45  1  0  0  0
 45 46  1  0  0  0
 46 47  1  0  0  0
 47 48  2  0  0  0
 48 49  1  0  0  0
 49 50  1  0  0  0
 50 51  1  0  0  0
 51 52  1  0  0  0
 52 53  1  0  0  0
 53 54  1  0  0  0
 54 55  1  0  0  0
 55 56  1  0  0  0
M  CHG 1  26  -1
M  END
> <minimizedAffinity>
-8.73613

> <CNNscore>
0.6741408706

> <CNNaffinity>
7.6376810074

> <CNN_VS>
5.1488728523

> <CNNaffinity_variance>
0.7634157538

$$$$
/media/chris/experiments/cd1a-new-docking/inputs/ligands/7sh4_ligand.pdb


 56 55  0  0  0  0  0  0  0  0999 V2000
  -39.4125   59.7452   64.7204 C   0  0  0  0  0  0  0  0  0  0  0  0
  -39.8275   60.1990   63.3495 C   0  0  0  0  0  0  0  0  0  0  0  0
  -39.0092   59.4119   62.4585 O   0  0  0  0  0  0  0  0  0  0  0  0
  -37.8289   61.0052   61.4253 O   0  0  0  0  0  0  0  0  0  0  0  0
  -38.5263   60.0280   61.3790 C   0  0  0  0  0  0  0  0  0  0  0  0
  -38.8636   59.2718   60.1264 C   0  0  0  0  0  0  0  0  0  0  0  0
  -37.7876   58.2954   59.6822 C   0  0  0  0  0  0  0  0  0  0  0  0
  -37.5860   58.2879   58.1816 C   0  0  0  0  0  0  0  0  0  0  0  0
  -36.8472   57.0754   57.6621 C   0  0  0  0  0  0  0  0  0  0  0  0
  -36.0344   56.3729   58.7308 C   0  0  0  0  0  0  0  0  0  0  0  0
  -34.5452   56.4785   58.5098 C   0  0  0  0  0  0  0  0  0  0  0  0
  -33.7399   55.8769   59.6310 C   0  0  0  0  0  0  0  0  0  0  0  0
  -33.9766   56.5466   60.9665 C   0  0  0  0  0  0  0  0  0  0  0  0
  -32.7442   56.5458   61.8483 C   0  0  0  0  0  0  0  0  0  0  0  0
  -32.5780   57.8008   62.6792 C   0  0  0  0  0  0  0  0  0  0  0  0
  -32.2815   59.0496   61.8566 C   0  0  0  0  0  0  0  0  0  0  0  0
  -30.9620   59.7143   62.1994 C   0  0  0  0  0  0  0  0  0  0  0  0
  -30.9896   61.2213   62.0469 C   0  0  0  0  0  0  0  0  0  0  0  0
  -32.1986   61.8785   62.6979 C   0  0  0  0  0  0  0  0  0  0  0  0
  -31.9259   63.2823   63.2082 C   0  0  0  0  0  0  0  0  0  0  0  0
  -32.0067   64.7415   65.2575 C   0  0  0  0  0  0  0  0  0  0  0  0
  -31.6704   63.3769   64.7004 C   0  0  0  0  0  0  0  0  0  0  0  0
  -38.1244   58.9631   64.6921 C   0  0  0  0  0  0  0  0  0  0  0  0
  -37.0398   59.8392   65.0720 O   0  0  0  0  0  0  0  0  0  0  0  0
  -35.6804   59.9503   64.2344 P   0  0  0  0  0  0  0  0  0  0  0  0
  -34.5842   59.4096   65.0665 O   0  0  0  0  0  0  0  0  0  0  0  0
  -35.9147   59.3608   62.8941 O   0  0  0  0  0  0  0  0  0  0  0  0
  -36.0714   58.4077   62.9830 H   0  0  0  0  0  0  0  0  0  0  0  0
  -35.4277   61.5134   64.0447 O   0  0  0  0  0  0  0  0  0  0  0  0
  -36.4578   62.4588   64.3983 C   0  0  0  0  0  0  0  0  0  0  0  0
  -36.6668   64.6818   65.2683 O   0  0  0  0  0  0  0  0  0  0  0  0
  -35.8534   63.5053   65.3018 C   0  0  0  0  0  0  0  0  0  0  0  0
  -36.7587   64.9853   64.3516 H   0  0  0  0  0  0  0  0  0  0  0  0
  -36.4172   63.8552   67.6209 O   0  0  0  0  0  0  0  0  0  0  0  0
  -35.6996   63.0186   66.7228 C   0  0  0  0  0  0  0  0  0  0  0  0
  -36.3064   63.5271   68.5270 H   0  0  0  0  0  0  0  0  0  0  0  0
  -40.5089   58.9622   65.2989 O   0  0  0  0  0  0  0  0  0  0  0  0
  -41.2652   60.7696   66.4042 O   0  0  0  0  0  0  0  0  0  0  0  0
  -41.3065   59.5899   66.1844 C   0  0  0  0  0  0  0  0  0  0  0  0
  -42.2610   58.6454   66.8468 C   0  0  0  0  0  0  0  0  0  0  0  0
  -42.8305   57.6381   65.8530 C   0  0  0  0  0  0  0  0  0  0  0  0
  -44.2554   57.9395   65.4182 C   0  0  0  0  0  0  0  0  0  0  0  0
  -45.2814   57.7727   66.5332 C   0  0  0  0  0  0  0  0  0  0  0  0
  -46.2274   58.9496   66.6823 C   0  0  0  0  0  0  0  0  0  0  0  0
  -46.6816   59.5729   65.3592 C   0  0  0  0  0  0  0  0  0  0  0  0
  -47.9993   59.0303   64.8018 C   0  0  0  0  0  0  0  0  0  0  0  0
  -48.6212   59.9668   63.8097 C   0  0  0  0  0  0  0  0  0  0  0  0
  -49.6057   59.6910   62.9766 C   0  0  0  0  0  0  0  0  0  0  0  0
  -50.3121   58.3784   62.8485 C   0  0  0  0  0  0  0  0  0  0  0  0
  -50.5017   57.9588   61.3936 C   0  0  0  0  0  0  0  0  0  0  0  0
  -49.3064   58.2683   60.5094 C   0  0  0  0  0  0  0  0  0  0  0  0
  -48.8228   57.0779   59.6992 C   0  0  0  0  0  0  0  0  0  0  0  0
  -47.3558   57.1373   59.3070 C   0  0  0  0  0  0  0  0  0  0  0  0
  -47.1341   57.4823   57.8422 C   0  0  0  0  0  0  0  0  0  0  0  0
  -47.8488   56.5631   56.8715 C   0  0  0  0  0  0  0  0  0  0  0  0
  -47.4649   55.1203   57.0471 C   0  0  0  0  0  0  0  0  0  0  0  0
 21 22  1  0  0  0
  4  5  2  0  0  0
 25 24  1  0  0  0
 25 26  2  0  0  0
 25 27  1  0  0  0
 25 29  1  0  0  0
 22 20  1  0  0  0
  3  5  1  0  0  0
  3  2  1  0  0  0
 20 19  1  0  0  0
 24 23  1  0  0  0
 19 18  1  0  0  0
 18 17  1  0  0  0
 27 28  1  0  0  0
 17 16  1  0  0  0
 29 30  1  0  0  0
 16 15  1  0  0  0
 34 35  1  0  0  0
 34 36  1  0  0  0
 15 14  1  0  0  0
 31 32  1  0  0  0
 31 33  1  0  0  0
 14 13  1  0  0  0
 37  1  1  0  0  0
 37 39  1  0  0  0
 13 12  1  0  0  0
 38 39  2  0  0  0
 12 11  1  0  0  0
 11 10  1  0  0  0
 10  9  1  0  0  0
  9  8  1  0  0  0
  8  7  1  0  0  0
  7  6  1  0  0  0
  6  5  1  0  0  0
  2  1  1  0  0  0
  1 23  1  0  0  0
 30 32  1  0  0  0
 32 35  1  0  0  0
 39 40  1  0  0  0
 40 41  1  0  0  0
 41 42  1  0  0  0
 42 43  1  0  0  0
 43 44  1  0  0  0
 44 45  1  0  0  0
 45 46  1  0  0  0
 46 47  1  0  0  0
 47 48  2  0  0  0
 48 49  1  0  0  0
 49 50  1  0  0  0
 50 51  1  0  0  0
 51 52  1  0  0  0
 52 53  1  0  0  0
 53 54  1  0  0  0
 54 55  1  0  0  0
 55 56  1  0  0  0
M  CHG 1  26  -1
M  END
> <minimizedAffinity>
-8.50104

> <CNNscore>
0.5141912103

> <CNNaffinity>
7.1869277954

> <CNN_VS>
3.6954550743

> <CNNaffinity_variance>
0.5903186798

$$$$
/media/chris/experiments/cd1a-new-docking/inputs/ligands/7sh4_ligand.pdb


 56 55  0  0  0  0  0  0  0  0999 V2000
  -37.7036   61.0019   65.0920 C   0  0  0  0  0  0  0  0  0  0  0  0
  -37.0935   60.8142   63.7318 C   0  0  0  0  0  0  0  0  0  0  0  0
  -38.1938   61.0297   62.8229 O   0  0  0  0  0  0  0  0  0  0  0  0
  -37.5544   60.5178   60.7424 O   0  0  0  0  0  0  0  0  0  0  0  0
  -38.2181   60.2857   61.7166 C   0  0  0  0  0  0  0  0  0  0  0  0
  -39.0780   59.0685   61.9003 C   0  0  0  0  0  0  0  0  0  0  0  0
  -38.3351   57.7533   61.7368 C   0  0  0  0  0  0  0  0  0  0  0  0
  -37.7259   57.2592   63.0320 C   0  0  0  0  0  0  0  0  0  0  0  0
  -36.2142   57.2737   63.0505 C   0  0  0  0  0  0  0  0  0  0  0  0
  -35.6399   57.4984   64.4346 C   0  0  0  0  0  0  0  0  0  0  0  0
  -34.3020   58.1965   64.4164 C   0  0  0  0  0  0  0  0  0  0  0  0
  -34.1412   59.1298   63.2456 C   0  0  0  0  0  0  0  0  0  0  0  0
  -32.9555   58.7938   62.3686 C   0  0  0  0  0  0  0  0  0  0  0  0
  -32.3939   57.4141   62.6469 C   0  0  0  0  0  0  0  0  0  0  0  0
  -32.8193   56.3603   61.6460 C   0  0  0  0  0  0  0  0  0  0  0  0
  -33.5788   56.9193   60.4482 C   0  0  0  0  0  0  0  0  0  0  0  0
  -34.0817   55.8586   59.4879 C   0  0  0  0  0  0  0  0  0  0  0  0
  -35.4308   55.2878   59.8739 C   0  0  0  0  0  0  0  0  0  0  0  0
  -36.5766   55.7895   59.0062 C   0  0  0  0  0  0  0  0  0  0  0  0
  -36.1202   56.5983   57.8050 C   0  0  0  0  0  0  0  0  0  0  0  0
  -37.8993   58.3276   58.2298 C   0  0  0  0  0  0  0  0  0  0  0  0
  -36.4518   58.0770   57.8722 C   0  0  0  0  0  0  0  0  0  0  0  0
  -36.6690   61.3398   66.1348 C   0  0  0  0  0  0  0  0  0  0  0  0
  -35.7661   62.3284   65.5910 O   0  0  0  0  0  0  0  0  0  0  0  0
  -35.9079   63.8933   65.8953 P   0  0  0  0  0  0  0  0  0  0  0  0
  -36.1572   64.5883   64.6142 O   0  0  0  0  0  0  0  0  0  0  0  0
  -36.8837   64.0623   66.9990 O   0  0  0  0  0  0  0  0  0  0  0  0
  -37.7642   63.7899   66.6966 H   0  0  0  0  0  0  0  0  0  0  0  0
  -34.4775   64.3506   66.4318 O   0  0  0  0  0  0  0  0  0  0  0  0
  -33.2911   64.0498   65.6691 C   0  0  0  0  0  0  0  0  0  0  0  0
  -31.0312   64.7664   65.3194 O   0  0  0  0  0  0  0  0  0  0  0  0
  -32.2754   65.1372   65.9205 C   0  0  0  0  0  0  0  0  0  0  0  0
  -30.7504   63.9038   65.6631 H   0  0  0  0  0  0  0  0  0  0  0  0
  -33.7015   66.3161   64.3730 O   0  0  0  0  0  0  0  0  0  0  0  0
  -32.7279   66.4788   65.3963 C   0  0  0  0  0  0  0  0  0  0  0  0
  -33.9794   67.1873   64.0494 H   0  0  0  0  0  0  0  0  0  0  0  0
  -38.4437   59.7844   65.4380 O   0  0  0  0  0  0  0  0  0  0  0  0
  -40.2982   60.8729   66.0984 O   0  0  0  0  0  0  0  0  0  0  0  0
  -39.7733   59.9075   65.6146 C   0  0  0  0  0  0  0  0  0  0  0  0
  -40.5180   58.7065   65.1193 C   0  0  0  0  0  0  0  0  0  0  0  0
  -41.7557   58.4281   65.9661 C   0  0  0  0  0  0  0  0  0  0  0  0
  -43.0413   58.9904   65.3821 C   0  0  0  0  0  0  0  0  0  0  0  0
  -44.2457   58.8435   66.3049 C   0  0  0  0  0  0  0  0  0  0  0  0
  -45.5811   59.0454   65.6133 C   0  0  0  0  0  0  0  0  0  0  0  0
  -46.7973   58.9604   66.5400 C   0  0  0  0  0  0  0  0  0  0  0  0
  -47.9613   59.8837   66.1737 C   0  0  0  0  0  0  0  0  0  0  0  0
  -47.9597   60.2446   64.7185 C   0  0  0  0  0  0  0  0  0  0  0  0
  -48.9133   59.9909   63.8434 C   0  0  0  0  0  0  0  0  0  0  0  0
  -50.2037   59.2873   64.1230 C   0  0  0  0  0  0  0  0  0  0  0  0
  -50.6078   58.3423   62.9951 C   0  0  0  0  0  0  0  0  0  0  0  0
  -49.4680   57.9942   62.0538 C   0  0  0  0  0  0  0  0  0  0  0  0
  -49.6790   58.4864   60.6324 C   0  0  0  0  0  0  0  0  0  0  0  0
  -49.2041   57.5246   59.5560 C   0  0  0  0  0  0  0  0  0  0  0  0
  -47.7038   57.2756   59.5854 C   0  0  0  0  0  0  0  0  0  0  0  0
  -47.2104   56.3222   58.5151 C   0  0  0  0  0  0  0  0  0  0  0  0
  -47.0091   56.9943   57.1856 C   0  0  0  0  0  0  0  0  0  0  0  0
 21 22  1  0  0  0
  4  5  2  0  0  0
 25 24  1  0  0  0
 25 26  2  0  0  0
 25 27  1  0  0  0
 25 29  1  0  0  0
 22 20  1  0  0  0
  3  5  1  0  0  0
  3  2  1  0  0  0
 20 19  1  0  0  0
 24 23  1  0  0  0
 19 18  1  0  0  0
 18 17  1  0  0  0
 27 28  1  0  0  0
 17 16  1  0  0  0
 29 30  1  0  0  0
 16 15  1  0  0  0
 34 35  1  0  0  0
 34 36  1  0  0  0
 15 14  1  0  0  0
 31 32  1  0  0  0
 31 33  1  0  0  0
 14 13  1  0  0  0
 37  1  1  0  0  0
 37 39  1  0  0  0
 13 12  1  0  0  0
 38 39  2  0  0  0
 12 11  1  0  0  0
 11 10  1  0  0  0
 10  9  1  0  0  0
  9  8  1  0  0  0
  8  7  1  0  0  0
  7  6  1  0  0  0
  6  5  1  0  0  0
  2  1  1  0  0  0
  1 23  1  0  0  0
 30 32  1  0  0  0
 32 35  1  0  0  0
 39 40  1  0  0  0
 40 41  1  0  0  0
 41 42  1  0  0  0
 42 43  1  0  0  0
 43 44  1  0  0  0
 44 45  1  0  0  0
 45 46  1  0  0  0
 46 47  1  0  0  0
 47 48  2  0  0  0
 48 49  1  0  0  0
 49 50  1  0  0  0
 50 51  1  0  0  0
 51 52  1  0  0  0
 52 53  1  0  0  0
 53 54  1  0  0  0
 54 55  1  0  0  0
 55 56  1  0  0  0
M  CHG 1  26  -1
M  END
> <minimizedAffinity>
-9.02286

> <CNNscore>
0.5141477585

> <CNNaffinity>
7.3887815475

> <CNN_VS>
3.7989253998

> <CNNaffinity_variance>
0.8421429396

$$$$
/media/chris/experiments/cd1a-new-docking/inputs/ligands/7sh4_ligand.pdb


 56 55  0  0  0  0  0  0  0  0999 V2000
  -36.9554   59.9794   65.4067 C   0  0  0  0  0  0  0  0  0  0  0  0
  -38.3371   59.5066   65.7603 C   0  0  0  0  0  0  0  0  0  0  0  0
  -39.1812   60.6378   65.4584 O   0  0  0  0  0  0  0  0  0  0  0  0
  -41.1721   61.1437   64.5755 O   0  0  0  0  0  0  0  0  0  0  0  0
  -40.4554   60.3789   65.1628 C   0  0  0  0  0  0  0  0  0  0  0  0
  -40.8268   58.9754   65.5460 C   0  0  0  0  0  0  0  0  0  0  0  0
  -42.2393   58.8331   66.0873 C   0  0  0  0  0  0  0  0  0  0  0  0
  -42.6825   57.3894   66.1969 C   0  0  0  0  0  0  0  0  0  0  0  0
  -44.1087   57.1445   65.7590 C   0  0  0  0  0  0  0  0  0  0  0  0
  -44.6890   58.2928   64.9584 C   0  0  0  0  0  0  0  0  0  0  0  0
  -46.1968   58.3434   64.9997 C   0  0  0  0  0  0  0  0  0  0  0  0
  -46.7299   59.7009   65.3745 C   0  0  0  0  0  0  0  0  0  0  0  0
  -48.2343   59.8079   65.2587 C   0  0  0  0  0  0  0  0  0  0  0  0
  -48.7294   59.5903   63.8431 C   0  0  0  0  0  0  0  0  0  0  0  0
  -50.0817   60.2099   63.5592 C   0  0  0  0  0  0  0  0  0  0  0  0
  -51.0024   59.3248   62.7270 C   0  0  0  0  0  0  0  0  0  0  0  0
  -50.4053   57.9768   62.3712 C   0  0  0  0  0  0  0  0  0  0  0  0
  -51.0149   57.3568   61.1307 C   0  0  0  0  0  0  0  0  0  0  0  0
  -50.1981   57.5903   59.8674 C   0  0  0  0  0  0  0  0  0  0  0  0
  -48.7055   57.7046   60.1213 C   0  0  0  0  0  0  0  0  0  0  0  0
  -46.3616   57.4481   59.2401 C   0  0  0  0  0  0  0  0  0  0  0  0
  -47.8346   57.4766   58.9004 C   0  0  0  0  0  0  0  0  0  0  0  0
  -36.8980   61.4744   65.2242 C   0  0  0  0  0  0  0  0  0  0  0  0
  -35.6030   61.9466   65.6584 O   0  0  0  0  0  0  0  0  0  0  0  0
  -35.4202   63.1987   66.6385 P   0  0  0  0  0  0  0  0  0  0  0  0
  -36.7645   63.6974   67.0000 O   0  0  0  0  0  0  0  0  0  0  0  0
  -34.4915   62.8029   67.7246 O   0  0  0  0  0  0  0  0  0  0  0  0
  -34.9079   62.1200   68.2733 H   0  0  0  0  0  0  0  0  0  0  0  0
  -34.7000   64.3195   65.7621 O   0  0  0  0  0  0  0  0  0  0  0  0
  -33.4129   64.0541   65.1680 C   0  0  0  0  0  0  0  0  0  0  0  0
  -31.0930   64.6088   65.3988 O   0  0  0  0  0  0  0  0  0  0  0  0
  -32.4168   65.0373   65.7320 C   0  0  0  0  0  0  0  0  0  0  0  0
  -30.9541   63.7055   65.7240 H   0  0  0  0  0  0  0  0  0  0  0  0
  -33.7756   66.4871   64.3645 O   0  0  0  0  0  0  0  0  0  0  0  0
  -32.6505   66.4429   65.2327 C   0  0  0  0  0  0  0  0  0  0  0  0
  -33.9094   67.3965   64.0546 H   0  0  0  0  0  0  0  0  0  0  0  0
  -36.5194   59.2693   64.2002 O   0  0  0  0  0  0  0  0  0  0  0  0
  -36.2425   57.0422   64.3538 O   0  0  0  0  0  0  0  0  0  0  0  0
  -35.7874   58.1530   64.3796 C   0  0  0  0  0  0  0  0  0  0  0  0
  -34.3383   58.4619   64.5962 C   0  0  0  0  0  0  0  0  0  0  0  0
  -33.8405   59.5213   63.6183 C   0  0  0  0  0  0  0  0  0  0  0  0
  -33.1359   58.9513   62.3982 C   0  0  0  0  0  0  0  0  0  0  0  0
  -32.3786   57.6586   62.6798 C   0  0  0  0  0  0  0  0  0  0  0  0
  -32.8216   56.4855   61.8255 C   0  0  0  0  0  0  0  0  0  0  0  0
  -33.9676   56.7984   60.8591 C   0  0  0  0  0  0  0  0  0  0  0  0
  -34.2391   55.7264   59.8015 C   0  0  0  0  0  0  0  0  0  0  0  0
  -35.6912   55.3601   59.7283 C   0  0  0  0  0  0  0  0  0  0  0  0
  -36.5469   55.7169   58.7903 C   0  0  0  0  0  0  0  0  0  0  0  0
  -36.2442   56.5655   57.5959 C   0  0  0  0  0  0  0  0  0  0  0  0
  -36.4324   58.0537   57.8763 C   0  0  0  0  0  0  0  0  0  0  0  0
  -37.8690   58.4393   58.1825 C   0  0  0  0  0  0  0  0  0  0  0  0
  -38.0394   59.1475   59.5154 C   0  0  0  0  0  0  0  0  0  0  0  0
  -39.3111   59.9711   59.6328 C   0  0  0  0  0  0  0  0  0  0  0  0
  -39.9740   59.8705   60.9981 C   0  0  0  0  0  0  0  0  0  0  0  0
  -39.0245   59.5184   62.1262 C   0  0  0  0  0  0  0  0  0  0  0  0
  -39.0544   58.0569   62.4766 C   0  0  0  0  0  0  0  0  0  0  0  0
 21 22  1  0  0  0
  4  5  2  0  0  0
 25 24  1  0  0  0
 25 26  2  0  0  0
 25 27  1  0  0  0
 25 29  1  0  0  0
 22 20  1  0  0  0
  3  5  1  0  0  0
  3  2  1  0  0  0
 20 19  1  0  0  0
 24 23  1  0  0  0
 19 18  1  0  0  0
 18 17  1  0  0  0
 27 28  1  0  0  0
 17 16  1  0  0  0
 29 30  1  0  0  0
 16 15  1  0  0  0
 34 35  1  0  0  0
 34 36  1  0  0  0
 15 14  1  0  0  0
 31 32  1  0  0  0
 31 33  1  0  0  0
 14 13  1  0  0  0
 37  1  1  0  0  0
 37 39  1  0  0  0
 13 12  1  0  0  0
 38 39  2  0  0  0
 12 11  1  0  0  0
 11 10  1  0  0  0
 10  9  1  0  0  0
  9  8  1  0  0  0
  8  7  1  0  0  0
  7  6  1  0  0  0
  6  5  1  0  0  0
  2  1  1  0  0  0
  1 23  1  0  0  0
 30 32  1  0  0  0
 32 35  1  0  0  0
 39 40  1  0  0  0
 40 41  1  0  0  0
 41 42  1  0  0  0
 42 43  1  0  0  0
 43 44  1  0  0  0
 44 45  1  0  0  0
 45 46  1  0  0  0
 46 47  1  0  0  0
 47 48  2  0  0  0
 48 49  1  0  0  0
 49 50  1  0  0  0
 50 51  1  0  0  0
 51 52  1  0  0  0
 52 53  1  0  0  0
 53 54  1  0  0  0
 54 55  1  0  0  0
 55 56  1  0  0  0
M  CHG 1  26  -1
M  END
> <minimizedAffinity>
-8.94579

> <CNNscore>
0.4963604212

> <CNNaffinity>
7.4481010437

> <CNN_VS>
3.6969425678

> <CNNaffinity_variance>
0.9319803119

$$$$
/media/chris/experiments/cd1a-new-docking/inputs/ligands/7sh4_ligand.pdb


 56 55  0  0  0  0  0  0  0  0999 V2000
  -39.8470   59.2049   65.4683 C   0  0  0  0  0  0  0  0  0  0  0  0
  -41.1040   59.0954   66.2842 C   0  0  0  0  0  0  0  0  0  0  0  0
  -41.7800   57.9462   65.7315 O   0  0  0  0  0  0  0  0  0  0  0  0
  -43.4322   56.6641   66.5225 O   0  0  0  0  0  0  0  0  0  0  0  0
  -43.0317   57.7291   66.1365 C   0  0  0  0  0  0  0  0  0  0  0  0
  -43.8223   59.0054   66.1633 C   0  0  0  0  0  0  0  0  0  0  0  0
  -45.2839   58.8223   66.5358 C   0  0  0  0  0  0  0  0  0  0  0  0
  -46.2275   59.2196   65.4204 C   0  0  0  0  0  0  0  0  0  0  0  0
  -47.5360   58.4623   65.4170 C   0  0  0  0  0  0  0  0  0  0  0  0
  -48.6894   59.2682   65.9796 C   0  0  0  0  0  0  0  0  0  0  0  0
  -50.0368   58.8023   65.4846 C   0  0  0  0  0  0  0  0  0  0  0  0
  -50.0182   58.3775   64.0400 C   0  0  0  0  0  0  0  0  0  0  0  0
  -49.8742   59.5342   63.0760 C   0  0  0  0  0  0  0  0  0  0  0  0
  -49.9801   59.1048   61.6266 C   0  0  0  0  0  0  0  0  0  0  0  0
  -50.8463   57.8824   61.4059 C   0  0  0  0  0  0  0  0  0  0  0  0
  -50.1626   56.7790   60.6065 C   0  0  0  0  0  0  0  0  0  0  0  0
  -48.9627   57.2501   59.8074 C   0  0  0  0  0  0  0  0  0  0  0  0
  -48.2598   56.1340   59.0622 C   0  0  0  0  0  0  0  0  0  0  0  0
  -47.4741   56.6109   57.8486 C   0  0  0  0  0  0  0  0  0  0  0  0
  -46.7524   57.9281   58.0711 C   0  0  0  0  0  0  0  0  0  0  0  0
  -44.2757   58.2928   57.8089 C   0  0  0  0  0  0  0  0  0  0  0  0
  -45.3837   57.8016   58.7127 C   0  0  0  0  0  0  0  0  0  0  0  0
  -39.0227   60.4055   65.8566 C   0  0  0  0  0  0  0  0  0  0  0  0
  -37.6455   60.1615   65.4932 O   0  0  0  0  0  0  0  0  0  0  0  0
  -36.5688   61.3353   65.3358 P   0  0  0  0  0  0  0  0  0  0  0  0
  -35.2472   60.7158   65.0990 O   0  0  0  0  0  0  0  0  0  0  0  0
  -37.0878   62.3077   64.3439 O   0  0  0  0  0  0  0  0  0  0  0  0
  -37.1247   61.8891   63.4696 H   0  0  0  0  0  0  0  0  0  0  0  0
  -36.5239   62.0603   66.7555 O   0  0  0  0  0  0  0  0  0  0  0  0
  -36.3407   63.4889   66.8304 C   0  0  0  0  0  0  0  0  0  0  0  0
  -34.2012   62.5967   67.4382 O   0  0  0  0  0  0  0  0  0  0  0  0
  -34.8648   63.7728   66.9657 C   0  0  0  0  0  0  0  0  0  0  0  0
  -34.6061   62.3097   68.2717 H   0  0  0  0  0  0  0  0  0  0  0  0
  -35.2328   64.8027   64.8158 O   0  0  0  0  0  0  0  0  0  0  0  0
  -34.2468   64.2338   65.6676 C   0  0  0  0  0  0  0  0  0  0  0  0
  -34.8173   65.0924   63.9885 H   0  0  0  0  0  0  0  0  0  0  0  0
  -40.2187   59.2389   64.0503 O   0  0  0  0  0  0  0  0  0  0  0  0
  -41.1140   61.3001   63.9498 O   0  0  0  0  0  0  0  0  0  0  0  0
  -40.3953   60.4529   63.4943 C   0  0  0  0  0  0  0  0  0  0  0  0
  -39.5757   60.6255   62.2531 C   0  0  0  0  0  0  0  0  0  0  0  0
  -40.2928   60.0679   61.0278 C   0  0  0  0  0  0  0  0  0  0  0  0
  -39.5307   60.2604   59.7270 C   0  0  0  0  0  0  0  0  0  0  0  0
  -38.1151   59.6958   59.7604 C   0  0  0  0  0  0  0  0  0  0  0  0
  -37.8304   58.6792   58.6705 C   0  0  0  0  0  0  0  0  0  0  0  0
  -36.9184   57.5257   59.0983 C   0  0  0  0  0  0  0  0  0  0  0  0
  -36.2529   56.7617   57.9516 C   0  0  0  0  0  0  0  0  0  0  0  0
  -34.7993   57.1026   57.8144 C   0  0  0  0  0  0  0  0  0  0  0  0
  -33.7994   56.5750   58.4936 C   0  0  0  0  0  0  0  0  0  0  0  0
  -33.9083   55.5190   59.5477 C   0  0  0  0  0  0  0  0  0  0  0  0
  -33.9710   56.1055   60.9551 C   0  0  0  0  0  0  0  0  0  0  0  0
  -33.5583   57.5653   61.0259 C   0  0  0  0  0  0  0  0  0  0  0  0
  -33.5703   58.1348   62.4341 C   0  0  0  0  0  0  0  0  0  0  0  0
  -34.7467   57.6858   63.2849 C   0  0  0  0  0  0  0  0  0  0  0  0
  -36.0879   58.1979   62.7822 C   0  0  0  0  0  0  0  0  0  0  0  0
  -37.2867   57.4668   63.3535 C   0  0  0  0  0  0  0  0  0  0  0  0
  -38.2708   57.0491   62.2967 C   0  0  0  0  0  0  0  0  0  0  0  0
 21 22  1  0  0  0
  4  5  2  0  0  0
 25 24  1  0  0  0
 25 26  2  0  0  0
 25 27  1  0  0  0
 25 29  1  0  0  0
 22 20  1  0  0  0
  3  5  1  0  0  0
  3  2  1  0  0  0
 20 19  1  0  0  0
 24 23  1  0  0  0
 19 18  1  0  0  0
 18 17  1  0  0  0
 27 28  1  0  0  0
 17 16  1  0  0  0
 29 30  1  0  0  0
 16 15  1  0  0  0
 34 35  1  0  0  0
 34 36  1  0  0  0
 15 14  1  0  0  0
 31 32  1  0  0  0
 31 33  1  0  0  0
 14 13  1  0  0  0
 37  1  1  0  0  0
 37 39  1  0  0  0
 13 12  1  0  0  0
 38 39  2  0  0  0
 12 11  1  0  0  0
 11 10  1  0  0  0
 10  9  1  0  0  0
  9  8  1  0  0  0
  8  7  1  0  0  0
  7  6  1  0  0  0
  6  5  1  0  0  0
  2  1  1  0  0  0
  1 23  1  0  0  0
 30 32  1  0  0  0
 32 35  1  0  0  0
 39 40  1  0  0  0
 40 41  1  0  0  0
 41 42  1  0  0  0
 42 43  1  0  0  0
 43 44  1  0  0  0
 44 45  1  0  0  0
 45 46  1  0  0  0
 46 47  1  0  0  0
 47 48  2  0  0  0
 48 49  1  0  0  0
 49 50  1  0  0  0
 50 51  1  0  0  0
 51 52  1  0  0  0
 52 53  1  0  0  0
 53 54  1  0  0  0
 54 55  1  0  0  0
 55 56  1  0  0  0
M  CHG 1  26  -1
M  END
> <minimizedAffinity>
-8.95665

> <CNNscore>
0.4898774624

> <CNNaffinity>
7.6114015579

> <CNN_VS>
3.7286541462

> <CNNaffinity_variance>
0.7786790133

$$$$
/media/chris/experiments/cd1a-new-docking/inputs/ligands/7sh4_ligand.pdb


 56 55  0  0  0  0  0  0  0  0999 V2000
  -37.7679   60.8629   64.5088 C   0  0  0  0  0  0  0  0  0  0  0  0
  -36.6051   60.7151   63.5687 C   0  0  0  0  0  0  0  0  0  0  0  0
  -36.7380   61.8365   62.6699 O   0  0  0  0  0  0  0  0  0  0  0  0
  -36.3111   64.0177   62.9135 O   0  0  0  0  0  0  0  0  0  0  0  0
  -35.9324   62.8780   62.8801 C   0  0  0  0  0  0  0  0  0  0  0  0
  -34.5337   62.4281   63.1899 C   0  0  0  0  0  0  0  0  0  0  0  0
  -33.4511   63.2957   62.5704 C   0  0  0  0  0  0  0  0  0  0  0  0
  -32.3117   62.4856   61.9890 C   0  0  0  0  0  0  0  0  0  0  0  0
  -32.0290   61.1964   62.7266 C   0  0  0  0  0  0  0  0  0  0  0  0
  -31.2629   60.1907   61.8913 C   0  0  0  0  0  0  0  0  0  0  0  0
  -31.9359   58.8417   61.8208 C   0  0  0  0  0  0  0  0  0  0  0  0
  -33.3156   58.8403   62.4242 C   0  0  0  0  0  0  0  0  0  0  0  0
  -34.1483   57.6454   62.0155 C   0  0  0  0  0  0  0  0  0  0  0  0
  -33.3114   56.5124   61.4566 C   0  0  0  0  0  0  0  0  0  0  0  0
  -33.8232   55.9549   60.1449 C   0  0  0  0  0  0  0  0  0  0  0  0
  -34.0522   57.0143   59.0728 C   0  0  0  0  0  0  0  0  0  0  0  0
  -35.1361   56.6562   58.0743 C   0  0  0  0  0  0  0  0  0  0  0  0
  -36.4347   56.2248   58.7242 C   0  0  0  0  0  0  0  0  0  0  0  0
  -37.0802   57.3086   59.5764 C   0  0  0  0  0  0  0  0  0  0  0  0
  -37.3829   56.8652   60.9966 C   0  0  0  0  0  0  0  0  0  0  0  0
  -38.7573   58.9738   60.9687 C   0  0  0  0  0  0  0  0  0  0  0  0
  -38.4268   57.7003   61.7135 C   0  0  0  0  0  0  0  0  0  0  0  0
  -37.3314   60.8767   65.9514 C   0  0  0  0  0  0  0  0  0  0  0  0
  -36.1009   61.6270   66.0579 O   0  0  0  0  0  0  0  0  0  0  0  0
  -35.9891   62.9982   66.8759 P   0  0  0  0  0  0  0  0  0  0  0  0
  -36.8452   64.0014   66.2072 O   0  0  0  0  0  0  0  0  0  0  0  0
  -36.2262   62.7012   68.3092 O   0  0  0  0  0  0  0  0  0  0  0  0
  -37.1450   62.4156   68.4325 H   0  0  0  0  0  0  0  0  0  0  0  0
  -34.4719   63.4627   66.7162 O   0  0  0  0  0  0  0  0  0  0  0  0
  -34.0845   64.8014   67.0871 C   0  0  0  0  0  0  0  0  0  0  0  0
  -32.1946   64.0832   65.8006 O   0  0  0  0  0  0  0  0  0  0  0  0
  -32.9499   65.2338   66.1912 C   0  0  0  0  0  0  0  0  0  0  0  0
  -31.8894   63.6128   66.5922 H   0  0  0  0  0  0  0  0  0  0  0  0
  -34.7890   65.6557   64.6885 O   0  0  0  0  0  0  0  0  0  0  0  0
  -33.4333   65.9788   64.9701 C   0  0  0  0  0  0  0  0  0  0  0  0
  -35.0810   66.1431   63.9023 H   0  0  0  0  0  0  0  0  0  0  0  0
  -38.7185   59.7792   64.2410 O   0  0  0  0  0  0  0  0  0  0  0  0
  -40.4968   61.1565   64.2710 O   0  0  0  0  0  0  0  0  0  0  0  0
  -40.0259   60.0599   64.4028 C   0  0  0  0  0  0  0  0  0  0  0  0
  -40.8225   58.8399   64.7479 C   0  0  0  0  0  0  0  0  0  0  0  0
  -41.3319   58.8931   66.1847 C   0  0  0  0  0  0  0  0  0  0  0  0
  -42.7752   59.3526   66.3103 C   0  0  0  0  0  0  0  0  0  0  0  0
  -43.6699   58.8695   65.1745 C   0  0  0  0  0  0  0  0  0  0  0  0
  -44.9751   58.2499   65.6381 C   0  0  0  0  0  0  0  0  0  0  0  0
  -46.2262   59.0561   65.2772 C   0  0  0  0  0  0  0  0  0  0  0  0
  -47.2789   58.2972   64.4665 C   0  0  0  0  0  0  0  0  0  0  0  0
  -48.4186   57.8275   65.3199 C   0  0  0  0  0  0  0  0  0  0  0  0
  -49.6725   58.2307   65.2505 C   0  0  0  0  0  0  0  0  0  0  0  0
  -50.2219   59.2458   64.2986 C   0  0  0  0  0  0  0  0  0  0  0  0
  -50.9558   58.6052   63.1240 C   0  0  0  0  0  0  0  0  0  0  0  0
  -50.1432   58.5743   61.8414 C   0  0  0  0  0  0  0  0  0  0  0  0
  -50.3964   57.3432   60.9885 C   0  0  0  0  0  0  0  0  0  0  0  0
  -50.1823   57.5542   59.4989 C   0  0  0  0  0  0  0  0  0  0  0  0
  -48.9558   56.8369   58.9558 C   0  0  0  0  0  0  0  0  0  0  0  0
  -47.6477   57.5576   59.2155 C   0  0  0  0  0  0  0  0  0  0  0  0
  -46.8069   57.7005   57.9776 C   0  0  0  0  0  0  0  0  0  0  0  0
 21 22  1  0  0  0
  4  5  2  0  0  0
 25 24  1  0  0  0
 25 26  2  0  0  0
 25 27  1  0  0  0
 25 29  1  0  0  0
 22 20  1  0  0  0
  3  5  1  0  0  0
  3  2  1  0  0  0
 20 19  1  0  0  0
 24 23  1  0  0  0
 19 18  1  0  0  0
 18 17  1  0  0  0
 27 28  1  0  0  0
 17 16  1  0  0  0
 29 30  1  0  0  0
 16 15  1  0  0  0
 34 35  1  0  0  0
 34 36  1  0  0  0
 15 14  1  0  0  0
 31 32  1  0  0  0
 31 33  1  0  0  0
 14 13  1  0  0  0
 37  1  1  0  0  0
 37 39  1  0  0  0
 13 12  1  0  0  0
 38 39  2  0  0  0
 12 11  1  0  0  0
 11 10  1  0  0  0
 10  9  1  0  0  0
  9  8  1  0  0  0
  8  7  1  0  0  0
  7  6  1  0  0  0
  6  5  1  0  0  0
  2  1  1  0  0  0
  1 23  1  0  0  0
 30 32  1  0  0  0
 32 35  1  0  0  0
 39 40  1  0  0  0
 40 41  1  0  0  0
 41 42  1  0  0  0
 42 43  1  0  0  0
 43 44  1  0  0  0
 44 45  1  0  0  0
 45 46  1  0  0  0
 46 47  1  0  0  0
 47 48  2  0  0  0
 48 49  1  0  0  0
 49 50  1  0  0  0
 50 51  1  0  0  0
 51 52  1  0  0  0
 52 53  1  0  0  0
 53 54  1  0  0  0
 54 55  1  0  0  0
 55 56  1  0  0  0
M  CHG 1  26  -1
M  END
> <minimizedAffinity>
-8.64012

> <CNNscore>
0.4830167890

> <CNNaffinity>
7.1936211586

> <CNN_VS>
3.4746398926

> <CNNaffinity_variance>
0.6369293332

$$$$
/media/chris/experiments/cd1a-new-docking/inputs/ligands/7sh4_ligand.pdb


 56 55  0  0  0  0  0  0  0  0999 V2000
  -37.2001   61.0425   64.9417 C   0  0  0  0  0  0  0  0  0  0  0  0
  -36.1349   60.8475   63.9001 C   0  0  0  0  0  0  0  0  0  0  0  0
  -36.4968   61.7726   62.8530 O   0  0  0  0  0  0  0  0  0  0  0  0
  -36.1120   63.9325   62.4215 O   0  0  0  0  0  0  0  0  0  0  0  0
  -35.7057   62.8325   62.6832 C   0  0  0  0  0  0  0  0  0  0  0  0
  -34.2739   62.4945   62.9838 C   0  0  0  0  0  0  0  0  0  0  0  0
  -33.2667   63.4345   62.3433 C   0  0  0  0  0  0  0  0  0  0  0  0
  -32.0390   62.7146   61.8266 C   0  0  0  0  0  0  0  0  0  0  0  0
  -31.6839   61.4639   62.5983 C   0  0  0  0  0  0  0  0  0  0  0  0
  -31.1833   60.3417   61.7117 C   0  0  0  0  0  0  0  0  0  0  0  0
  -31.6767   58.9812   62.1400 C   0  0  0  0  0  0  0  0  0  0  0  0
  -33.1518   58.9585   62.4417 C   0  0  0  0  0  0  0  0  0  0  0  0
  -33.4953   58.1938   63.7008 C   0  0  0  0  0  0  0  0  0  0  0  0
  -34.8260   57.4752   63.6045 C   0  0  0  0  0  0  0  0  0  0  0  0
  -35.5199   57.6361   62.2683 C   0  0  0  0  0  0  0  0  0  0  0  0
  -37.0383   57.5235   62.3451 C   0  0  0  0  0  0  0  0  0  0  0  0
  -37.6611   56.7830   61.1772 C   0  0  0  0  0  0  0  0  0  0  0  0
  -37.3557   57.4123   59.8335 C   0  0  0  0  0  0  0  0  0  0  0  0
  -36.5545   56.5102   58.9051 C   0  0  0  0  0  0  0  0  0  0  0  0
  -35.4619   57.2391   58.1432 C   0  0  0  0  0  0  0  0  0  0  0  0
  -34.0212   55.6837   59.4999 C   0  0  0  0  0  0  0  0  0  0  0  0
  -34.0542   56.7536   58.4322 C   0  0  0  0  0  0  0  0  0  0  0  0
  -36.6164   61.3101   66.3053 C   0  0  0  0  0  0  0  0  0  0  0  0
  -35.6025   62.3328   66.1847 O   0  0  0  0  0  0  0  0  0  0  0  0
  -35.8284   63.8401   66.6736 P   0  0  0  0  0  0  0  0  0  0  0  0
  -36.5164   64.5746   65.5904 O   0  0  0  0  0  0  0  0  0  0  0  0
  -36.4548   63.8005   68.0171 O   0  0  0  0  0  0  0  0  0  0  0  0
  -37.3479   63.4285   67.9465 H   0  0  0  0  0  0  0  0  0  0  0  0
  -34.3661   64.4560   66.8329 O   0  0  0  0  0  0  0  0  0  0  0  0
  -33.3201   64.0779   65.9148 C   0  0  0  0  0  0  0  0  0  0  0  0
  -31.0751   64.7017   65.3553 O   0  0  0  0  0  0  0  0  0  0  0  0
  -32.3232   65.2080   65.8377 C   0  0  0  0  0  0  0  0  0  0  0  0
  -30.7773   63.9770   65.9273 H   0  0  0  0  0  0  0  0  0  0  0  0
  -34.1042   66.0666   64.4560 O   0  0  0  0  0  0  0  0  0  0  0  0
  -32.8020   66.3380   64.9582 C   0  0  0  0  0  0  0  0  0  0  0  0
  -34.3940   66.8025   63.8943 H   0  0  0  0  0  0  0  0  0  0  0  0
  -38.0643   59.8580   64.9454 O   0  0  0  0  0  0  0  0  0  0  0  0
  -39.7513   60.8254   66.0759 O   0  0  0  0  0  0  0  0  0  0  0  0
  -39.3633   60.0508   65.2446 C   0  0  0  0  0  0  0  0  0  0  0  0
  -40.2642   59.1989   64.4051 C   0  0  0  0  0  0  0  0  0  0  0  0
  -40.8707   58.0586   65.2165 C   0  0  0  0  0  0  0  0  0  0  0  0
  -42.1053   58.4552   66.0094 C   0  0  0  0  0  0  0  0  0  0  0  0
  -43.2165   59.0489   65.1512 C   0  0  0  0  0  0  0  0  0  0  0  0
  -44.4884   58.2217   65.1298 C   0  0  0  0  0  0  0  0  0  0  0  0
  -44.6836   57.3223   66.3539 C   0  0  0  0  0  0  0  0  0  0  0  0
  -46.0697   57.3910   66.9983 C   0  0  0  0  0  0  0  0  0  0  0  0
  -47.0556   56.4916   66.3149 C   0  0  0  0  0  0  0  0  0  0  0  0
  -48.2063   56.8483   65.7782 C   0  0  0  0  0  0  0  0  0  0  0  0
  -48.7699   58.2336   65.7381 C   0  0  0  0  0  0  0  0  0  0  0  0
  -50.2836   58.2410   65.5450 C   0  0  0  0  0  0  0  0  0  0  0  0
  -50.7903   59.4289   64.7459 C   0  0  0  0  0  0  0  0  0  0  0  0
  -51.0350   59.1177   63.2795 C   0  0  0  0  0  0  0  0  0  0  0  0
  -50.0416   59.7596   62.3252 C   0  0  0  0  0  0  0  0  0  0  0  0
  -49.7206   58.8967   61.1144 C   0  0  0  0  0  0  0  0  0  0  0  0
  -49.4445   57.4427   61.4423 C   0  0  0  0  0  0  0  0  0  0  0  0
  -49.7591   56.5189   60.2989 C   0  0  0  0  0  0  0  0  0  0  0  0
 21 22  1  0  0  0
  4  5  2  0  0  0
 25 24  1  0  0  0
 25 26  2  0  0  0
 25 27  1  0  0  0
 25 29  1  0  0  0
 22 20  1  0  0  0
  3  5  1  0  0  0
  3  2  1  0  0  0
 20 19  1  0  0  0
 24 23  1  0  0  0
 19 18  1  0  0  0
 18 17  1  0  0  0
 27 28  1  0  0  0
 17 16  1  0  0  0
 29 30  1  0  0  0
 16 15  1  0  0  0
 34 35  1  0  0  0
 34 36  1  0  0  0
 15 14  1  0  0  0
 31 32  1  0  0  0
 31 33  1  0  0  0
 14 13  1  0  0  0
 37  1  1  0  0  0
 37 39  1  0  0  0
 13 12  1  0  0  0
 38 39  2  0  0  0
 12 11  1  0  0  0
 11 10  1  0  0  0
 10  9  1  0  0  0
  9  8  1  0  0  0
  8  7  1  0  0  0
  7  6  1  0  0  0
  6  5  1  0  0  0
  2  1  1  0  0  0
  1 23  1  0  0  0
 30 32  1  0  0  0
 32 35  1  0  0  0
 39 40  1  0  0  0
 40 41  1  0  0  0
 41 42  1  0  0  0
 42 43  1  0  0  0
 43 44  1  0  0  0
 44 45  1  0  0  0
 45 46  1  0  0  0
 46 47  1  0  0  0
 47 48  2  0  0  0
 48 49  1  0  0  0
 49 50  1  0  0  0
 50 51  1  0  0  0
 51 52  1  0  0  0
 52 53  1  0  0  0
 53 54  1  0  0  0
 54 55  1  0  0  0
 55 56  1  0  0  0
M  CHG 1  26  -1
M  END
> <minimizedAffinity>
-8.60908

> <CNNscore>
0.4368649423

> <CNNaffinity>
7.1675462723

> <CNN_VS>
3.1312496662

> <CNNaffinity_variance>
0.6875215769

$$$$
/media/chris/experiments/cd1a-new-docking/inputs/ligands/7sh4_ligand.pdb


 56 55  0  0  0  0  0  0  0  0999 V2000
  -40.5808   60.3557   65.4867 C   0  0  0  0  0  0  0  0  0  0  0  0
  -41.0220   60.0690   64.0793 C   0  0  0  0  0  0  0  0  0  0  0  0
  -39.8168   60.2159   63.2988 O   0  0  0  0  0  0  0  0  0  0  0  0
  -40.9377   61.0583   61.5572 O   0  0  0  0  0  0  0  0  0  0  0  0
  -39.9658   60.5143   62.0078 C   0  0  0  0  0  0  0  0  0  0  0  0
  -38.7208   60.1973   61.2305 C   0  0  0  0  0  0  0  0  0  0  0  0
  -38.9762   59.7859   59.7904 C   0  0  0  0  0  0  0  0  0  0  0  0
  -37.7093   59.3962   59.0585 C   0  0  0  0  0  0  0  0  0  0  0  0
  -37.4569   57.9064   59.0074 C   0  0  0  0  0  0  0  0  0  0  0  0
  -36.8262   57.4558   57.7054 C   0  0  0  0  0  0  0  0  0  0  0  0
  -35.6307   56.5564   57.9045 C   0  0  0  0  0  0  0  0  0  0  0  0
  -34.8187   56.9176   59.1201 C   0  0  0  0  0  0  0  0  0  0  0  0
  -34.5826   55.7504   60.0528 C   0  0  0  0  0  0  0  0  0  0  0  0
  -33.5138   56.0356   61.0885 C   0  0  0  0  0  0  0  0  0  0  0  0
  -33.2610   57.5097   61.3258 C   0  0  0  0  0  0  0  0  0  0  0  0
  -32.5833   57.8120   62.6574 C   0  0  0  0  0  0  0  0  0  0  0  0
  -33.5378   58.2638   63.7460 C   0  0  0  0  0  0  0  0  0  0  0  0
  -34.9579   58.4622   63.2574 C   0  0  0  0  0  0  0  0  0  0  0  0
  -35.8992   57.3288   63.6409 C   0  0  0  0  0  0  0  0  0  0  0  0
  -37.2964   57.7968   64.0070 C   0  0  0  0  0  0  0  0  0  0  0  0
  -38.0128   56.7605   61.8279 C   0  0  0  0  0  0  0  0  0  0  0  0
  -38.4149   57.1159   63.2413 C   0  0  0  0  0  0  0  0  0  0  0  0
  -39.2048   59.8103   65.7709 C   0  0  0  0  0  0  0  0  0  0  0  0
  -38.3786   60.8781   66.2865 O   0  0  0  0  0  0  0  0  0  0  0  0
  -37.1228   61.4663   65.4873 P   0  0  0  0  0  0  0  0  0  0  0  0
  -35.9541   60.6071   65.7741 O   0  0  0  0  0  0  0  0  0  0  0  0
  -37.5283   61.6695   64.0755 O   0  0  0  0  0  0  0  0  0  0  0  0
  -37.7018   60.8093   63.6620 H   0  0  0  0  0  0  0  0  0  0  0  0
  -36.8476   62.9000   66.1291 O   0  0  0  0  0  0  0  0  0  0  0  0
  -35.6450   63.6218   65.7936 C   0  0  0  0  0  0  0  0  0  0  0  0
  -33.9442   62.4953   67.0510 O   0  0  0  0  0  0  0  0  0  0  0  0
  -34.7617   63.6689   67.0161 C   0  0  0  0  0  0  0  0  0  0  0  0
  -34.5090   61.7070   67.0262 H   0  0  0  0  0  0  0  0  0  0  0  0
  -33.8267   65.4295   68.3743 O   0  0  0  0  0  0  0  0  0  0  0  0
  -33.8980   64.9068   67.0539 C   0  0  0  0  0  0  0  0  0  0  0  0
  -33.2686   66.2229   68.3783 H   0  0  0  0  0  0  0  0  0  0  0  0
  -41.5821   59.8051   66.4055 O   0  0  0  0  0  0  0  0  0  0  0  0
  -41.7919   57.6604   65.7603 O   0  0  0  0  0  0  0  0  0  0  0  0
  -42.2802   58.7354   65.9781 C   0  0  0  0  0  0  0  0  0  0  0  0
  -43.7378   59.0421   65.8252 C   0  0  0  0  0  0  0  0  0  0  0  0
  -44.6020   57.8315   66.1629 C   0  0  0  0  0  0  0  0  0  0  0  0
  -45.9309   58.1845   66.8107 C   0  0  0  0  0  0  0  0  0  0  0  0
  -46.9033   57.0128   66.8850 C   0  0  0  0  0  0  0  0  0  0  0  0
  -47.9521   57.0109   65.7885 C   0  0  0  0  0  0  0  0  0  0  0  0
  -48.6659   58.3508   65.5879 C   0  0  0  0  0  0  0  0  0  0  0  0
  -50.1828   58.2605   65.4085 C   0  0  0  0  0  0  0  0  0  0  0  0
  -50.7052   59.3126   64.4768 C   0  0  0  0  0  0  0  0  0  0  0  0
  -51.0183   59.1534   63.2056 C   0  0  0  0  0  0  0  0  0  0  0  0
  -50.9181   57.8814   62.4244 C   0  0  0  0  0  0  0  0  0  0  0  0
  -49.7358   57.8822   61.4597 C   0  0  0  0  0  0  0  0  0  0  0  0
  -50.1280   58.1391   60.0152 C   0  0  0  0  0  0  0  0  0  0  0  0
  -49.5253   57.1484   59.0342 C   0  0  0  0  0  0  0  0  0  0  0  0
  -48.1887   56.5685   59.4660 C   0  0  0  0  0  0  0  0  0  0  0  0
  -47.3758   55.9974   58.3141 C   0  0  0  0  0  0  0  0  0  0  0  0
  -46.8715   57.0371   57.3329 C   0  0  0  0  0  0  0  0  0  0  0  0
  -45.8863   57.9899   57.9506 C   0  0  0  0  0  0  0  0  0  0  0  0
 21 22  1  0  0  0
  4  5  2  0  0  0
 25 24  1  0  0  0
 25 26  2  0  0  0
 25 27  1  0  0  0
 25 29  1  0  0  0
 22 20  1  0  0  0
  3  5  1  0  0  0
  3  2  1  0  0  0
 20 19  1  0  0  0
 24 23  1  0  0  0
 19 18  1  0  0  0
 18 17  1  0  0  0
 27 28  1  0  0  0
 17 16  1  0  0  0
 29 30  1  0  0  0
 16 15  1  0  0  0
 34 35  1  0  0  0
 34 36  1  0  0  0
 15 14  1  0  0  0
 31 32  1  0  0  0
 31 33  1  0  0  0
 14 13  1  0  0  0
 37  1  1  0  0  0
 37 39  1  0  0  0
 13 12  1  0  0  0
 38 39  2  0  0  0
 12 11  1  0  0  0
 11 10  1  0  0  0
 10  9  1  0  0  0
  9  8  1  0  0  0
  8  7  1  0  0  0
  7  6  1  0  0  0
  6  5  1  0  0  0
  2  1  1  0  0  0
  1 23  1  0  0  0
 30 32  1  0  0  0
 32 35  1  0  0  0
 39 40  1  0  0  0
 40 41  1  0  0  0
 41 42  1  0  0  0
 42 43  1  0  0  0
 43 44  1  0  0  0
 44 45  1  0  0  0
 45 46  1  0  0  0
 46 47  1  0  0  0
 47 48  2  0  0  0
 48 49  1  0  0  0
 49 50  1  0  0  0
 50 51  1  0  0  0
 51 52  1  0  0  0
 52 53  1  0  0  0
 53 54  1  0  0  0
 54 55  1  0  0  0
 55 56  1  0  0  0
M  CHG 1  26  -1
M  END
> <minimizedAffinity>
-8.66043

> <CNNscore>
0.3902289569

> <CNNaffinity>
7.3809700012

> <CNN_VS>
2.8802683353

> <CNNaffinity_variance>
0.6323901415

$$$$
/media/chris/experiments/cd1a-new-docking/inputs/ligands/7sh4_ligand.pdb


 56 55  0  0  0  0  0  0  0  0999 V2000
  -38.6971   59.4576   65.7419 C   0  0  0  0  0  0  0  0  0  0  0  0
  -37.7915   60.6555   65.7931 C   0  0  0  0  0  0  0  0  0  0  0  0
  -38.0439   61.3376   64.5464 O   0  0  0  0  0  0  0  0  0  0  0  0
  -36.8764   62.1730   62.8323 O   0  0  0  0  0  0  0  0  0  0  0  0
  -37.0285   62.0185   64.0140 C   0  0  0  0  0  0  0  0  0  0  0  0
  -36.1879   62.6606   65.0797 C   0  0  0  0  0  0  0  0  0  0  0  0
  -34.8176   63.1106   64.6021 C   0  0  0  0  0  0  0  0  0  0  0  0
  -34.5646   64.5828   64.8498 C   0  0  0  0  0  0  0  0  0  0  0  0
  -33.1295   64.9159   65.1893 C   0  0  0  0  0  0  0  0  0  0  0  0
  -32.2524   63.6881   65.3289 C   0  0  0  0  0  0  0  0  0  0  0  0
  -31.0847   63.6805   64.3727 C   0  0  0  0  0  0  0  0  0  0  0  0
  -30.9286   62.3714   63.6452 C   0  0  0  0  0  0  0  0  0  0  0  0
  -31.8220   62.2493   62.4307 C   0  0  0  0  0  0  0  0  0  0  0  0
  -32.6363   60.9713   62.4292 C   0  0  0  0  0  0  0  0  0  0  0  0
  -31.8611   59.7451   61.9949 C   0  0  0  0  0  0  0  0  0  0  0  0
  -32.1178   58.5159   62.8593 C   0  0  0  0  0  0  0  0  0  0  0  0
  -32.4054   57.2548   62.0674 C   0  0  0  0  0  0  0  0  0  0  0  0
  -33.4476   57.4481   60.9851 C   0  0  0  0  0  0  0  0  0  0  0  0
  -33.8134   56.1640   60.2539 C   0  0  0  0  0  0  0  0  0  0  0  0
  -35.1610   56.2243   59.5569 C   0  0  0  0  0  0  0  0  0  0  0  0
  -33.7278   57.0056   57.6408 C   0  0  0  0  0  0  0  0  0  0  0  0
  -35.1335   56.8493   58.1749 C   0  0  0  0  0  0  0  0  0  0  0  0
  -37.9822   58.2283   65.2425 C   0  0  0  0  0  0  0  0  0  0  0  0
  -36.8311   58.6404   64.4721 O   0  0  0  0  0  0  0  0  0  0  0  0
  -36.6149   58.2200   62.9430 P   0  0  0  0  0  0  0  0  0  0  0  0
  -35.7313   59.2241   62.3125 O   0  0  0  0  0  0  0  0  0  0  0  0
  -36.2104   56.7938   62.9092 O   0  0  0  0  0  0  0  0  0  0  0  0
  -35.3357   56.6960   63.3170 H   0  0  0  0  0  0  0  0  0  0  0  0
  -38.0536   58.3374   62.2653 O   0  0  0  0  0  0  0  0  0  0  0  0
  -38.1940   58.1800   60.8386 C   0  0  0  0  0  0  0  0  0  0  0  0
  -39.0865   59.2667   58.8981 O   0  0  0  0  0  0  0  0  0  0  0  0
  -38.7264   59.4714   60.2676 C   0  0  0  0  0  0  0  0  0  0  0  0
  -38.3200   58.9280   58.4094 H   0  0  0  0  0  0  0  0  0  0  0  0
  -39.4755   60.7550   62.1674 O   0  0  0  0  0  0  0  0  0  0  0  0
  -39.9089   59.9990   61.0440 C   0  0  0  0  0  0  0  0  0  0  0  0
  -40.2479   61.0849   62.6527 H   0  0  0  0  0  0  0  0  0  0  0  0
  -39.8540   59.7892   64.9043 O   0  0  0  0  0  0  0  0  0  0  0  0
  -40.9269   57.8479   65.2791 O   0  0  0  0  0  0  0  0  0  0  0  0
  -40.9544   59.0269   65.0535 C   0  0  0  0  0  0  0  0  0  0  0  0
  -42.2129   59.8277   64.9231 C   0  0  0  0  0  0  0  0  0  0  0  0
  -43.3489   59.2204   65.7399 C   0  0  0  0  0  0  0  0  0  0  0  0
  -44.4272   58.5577   64.8983 C   0  0  0  0  0  0  0  0  0  0  0  0
  -44.7543   57.1348   65.3366 C   0  0  0  0  0  0  0  0  0  0  0  0
  -45.9465   57.0354   66.2699 C   0  0  0  0  0  0  0  0  0  0  0  0
  -47.0927   57.9972   65.9434 C   0  0  0  0  0  0  0  0  0  0  0  0
  -48.3739   57.3344   65.4330 C   0  0  0  0  0  0  0  0  0  0  0  0
  -49.5807   58.1979   65.6476 C   0  0  0  0  0  0  0  0  0  0  0  0
  -50.4335   58.6021   64.7262 C   0  0  0  0  0  0  0  0  0  0  0  0
  -50.3744   58.2797   63.2665 C   0  0  0  0  0  0  0  0  0  0  0  0
  -49.9251   59.4707   62.4249 C   0  0  0  0  0  0  0  0  0  0  0  0
  -49.7167   59.1366   60.9582 C   0  0  0  0  0  0  0  0  0  0  0  0
  -49.9916   57.6816   60.6192 C   0  0  0  0  0  0  0  0  0  0  0  0
  -49.5453   57.2641   59.2279 C   0  0  0  0  0  0  0  0  0  0  0  0
  -48.4526   56.2059   59.2344 C   0  0  0  0  0  0  0  0  0  0  0  0
  -47.4889   56.2995   58.0681 C   0  0  0  0  0  0  0  0  0  0  0  0
  -46.8623   57.6598   57.9392 C   0  0  0  0  0  0  0  0  0  0  0  0
 21 22  1  0  0  0
  4  5  2  0  0  0
 25 24  1  0  0  0
 25 26  2  0  0  0
 25 27  1  0  0  0
 25 29  1  0  0  0
 22 20  1  0  0  0
  3  5  1  0  0  0
  3  2  1  0  0  0
 20 19  1  0  0  0
 24 23  1  0  0  0
 19 18  1  0  0  0
 18 17  1  0  0  0
 27 28  1  0  0  0
 17 16  1  0  0  0
 29 30  1  0  0  0
 16 15  1  0  0  0
 34 35  1  0  0  0
 34 36  1  0  0  0
 15 14  1  0  0  0
 31 32  1  0  0  0
 31 33  1  0  0  0
 14 13  1  0  0  0
 37  1  1  0  0  0
 37 39  1  0  0  0
 13 12  1  0  0  0
 38 39  2  0  0  0
 12 11  1  0  0  0
 11 10  1  0  0  0
 10  9  1  0  0  0
  9  8  1  0  0  0
  8  7  1  0  0  0
  7  6  1  0  0  0
  6  5  1  0  0  0
  2  1  1  0  0  0
  1 23  1  0  0  0
 30 32  1  0  0  0
 32 35  1  0  0  0
 39 40  1  0  0  0
 40 41  1  0  0  0
 41 42  1  0  0  0
 42 43  1  0  0  0
 43 44  1  0  0  0
 44 45  1  0  0  0
 45 46  1  0  0  0
 46 47  1  0  0  0
 47 48  2  0  0  0
 48 49  1  0  0  0
 49 50  1  0  0  0
 50 51  1  0  0  0
 51 52  1  0  0  0
 52 53  1  0  0  0
 53 54  1  0  0  0
 54 55  1  0  0  0
 55 56  1  0  0  0
M  CHG 1  26  -1
M  END
> <minimizedAffinity>
-8.07838

> <CNNscore>
0.3880289197

> <CNNaffinity>
7.0701079369

> <CNN_VS>
2.7434062958

> <CNNaffinity_variance>
0.4646444321

$$$$
