/media/chris/experiments/cd1a-new-docking/inputs/ligands/7sh4_ligand.pdb


 56 55  0  0  0  0  0  0  0  0999 V2000
  -37.9689   60.0531   62.2048 C   0  0  0  0  0  0  0  0  0  0  0  0
  -39.3609   60.4578   62.5998 C   0  0  0  0  0  0  0  0  0  0  0  0
  -39.8024   59.3907   63.4656 O   0  0  0  0  0  0  0  0  0  0  0  0
  -40.4168   60.8794   65.0164 O   0  0  0  0  0  0  0  0  0  0  0  0
  -40.3453   59.7437   64.6311 C   0  0  0  0  0  0  0  0  0  0  0  0
  -40.9576   58.5610   65.3249 C   0  0  0  0  0  0  0  0  0  0  0  0
  -41.9492   58.9268   66.4164 C   0  0  0  0  0  0  0  0  0  0  0  0
  -43.2122   58.0933   66.3643 C   0  0  0  0  0  0  0  0  0  0  0  0
  -44.1912   58.5188   65.2936 C   0  0  0  0  0  0  0  0  0  0  0  0
  -45.5034   57.7636   65.3555 C   0  0  0  0  0  0  0  0  0  0  0  0
  -46.6780   58.5723   64.8614 C   0  0  0  0  0  0  0  0  0  0  0  0
  -47.9974   57.8729   65.0560 C   0  0  0  0  0  0  0  0  0  0  0  0
  -49.0565   58.7527   65.6823 C   0  0  0  0  0  0  0  0  0  0  0  0
  -50.4310   58.5296   65.0847 C   0  0  0  0  0  0  0  0  0  0  0  0
  -50.9539   59.7026   64.2823 C   0  0  0  0  0  0  0  0  0  0  0  0
  -51.5660   59.3088   62.9428 C   0  0  0  0  0  0  0  0  0  0  0  0
  -50.8262   58.1921   62.2316 C   0  0  0  0  0  0  0  0  0  0  0  0
  -49.5337   58.6438   61.5831 C   0  0  0  0  0  0  0  0  0  0  0  0
  -48.8821   57.5776   60.7136 C   0  0  0  0  0  0  0  0  0  0  0  0
  -49.3349   57.6147   59.2649 C   0  0  0  0  0  0  0  0  0  0  0  0
  -48.0199   55.4779   59.0629 C   0  0  0  0  0  0  0  0  0  0  0  0
  -48.5768   56.6825   58.3388 C   0  0  0  0  0  0  0  0  0  0  0  0
  -36.9303   60.6011   63.1498 C   0  0  0  0  0  0  0  0  0  0  0  0
  -37.0429   62.0416   63.1800 O   0  0  0  0  0  0  0  0  0  0  0  0
  -35.7699   63.0116   63.1651 P   0  0  0  0  0  0  0  0  0  0  0  0
  -34.5535   62.1710   63.1803 O   0  0  0  0  0  0  0  0  0  0  0  0
  -35.9469   63.9886   62.0638 O   0  0  0  0  0  0  0  0  0  0  0  0
  -35.9131   63.5254   61.2123 H   0  0  0  0  0  0  0  0  0  0  0  0
  -35.8317   63.8109   64.5436 O   0  0  0  0  0  0  0  0  0  0  0  0
  -35.0055   63.4015   65.6526 C   0  0  0  0  0  0  0  0  0  0  0  0
  -36.9547   64.1068   66.8551 O   0  0  0  0  0  0  0  0  0  0  0  0
  -35.8988   63.1415   66.8407 C   0  0  0  0  0  0  0  0  0  0  0  0
  -36.5762   64.9999   66.8584 H   0  0  0  0  0  0  0  0  0  0  0  0
  -37.6804   61.6990   66.0900 O   0  0  0  0  0  0  0  0  0  0  0  0
  -36.4704   61.7441   66.8354 C   0  0  0  0  0  0  0  0  0  0  0  0
  -38.0318   60.7950   66.0981 H   0  0  0  0  0  0  0  0  0  0  0  0
  -37.7336   60.4943   60.8265 O   0  0  0  0  0  0  0  0  0  0  0  0
  -39.1742   60.0718   59.1513 O   0  0  0  0  0  0  0  0  0  0  0  0
  -38.2541   59.7334   59.8446 C   0  0  0  0  0  0  0  0  0  0  0  0
  -37.5373   58.4257   59.7091 C   0  0  0  0  0  0  0  0  0  0  0  0
  -37.1284   58.1596   58.2639 C   0  0  0  0  0  0  0  0  0  0  0  0
  -36.2909   56.9043   58.0816 C   0  0  0  0  0  0  0  0  0  0  0  0
  -34.8079   57.1863   57.8696 C   0  0  0  0  0  0  0  0  0  0  0  0
  -33.8898   56.3448   58.7366 C   0  0  0  0  0  0  0  0  0  0  0  0
  -34.5253   55.8420   60.0360 C   0  0  0  0  0  0  0  0  0  0  0  0
  -33.8234   56.2890   61.3201 C   0  0  0  0  0  0  0  0  0  0  0  0
  -34.4419   57.5251   61.9010 C   0  0  0  0  0  0  0  0  0  0  0  0
  -33.8069   58.5274   62.4767 C   0  0  0  0  0  0  0  0  0  0  0  0
  -32.3276   58.6408   62.6696 C   0  0  0  0  0  0  0  0  0  0  0  0
  -31.7120   59.7453   61.8153 C   0  0  0  0  0  0  0  0  0  0  0  0
  -30.2040   59.8557   61.9560 C   0  0  0  0  0  0  0  0  0  0  0  0
  -29.7337   61.2208   62.4278 C   0  0  0  0  0  0  0  0  0  0  0  0
  -30.8538   62.1996   62.7394 C   0  0  0  0  0  0  0  0  0  0  0  0
  -30.4723   63.2466   63.7749 C   0  0  0  0  0  0  0  0  0  0  0  0
  -31.5841   63.5970   64.7438 C   0  0  0  0  0  0  0  0  0  0  0  0
  -32.0367   65.0250   64.6176 C   0  0  0  0  0  0  0  0  0  0  0  0
 21 22  1  0  0  0
  4  5  2  0  0  0
 25 24  1  0  0  0
 25 26  2  0  0  0
 25 27  1  0  0  0
 25 29  1  0  0  0
 22 20  1  0  0  0
  3  5  1  0  0  0
  3  2  1  0  0  0
 20 19  1  0  0  0
 24 23  1  0  0  0
 19 18  1  0  0  0
 18 17  1  0  0  0
 27 28  1  0  0  0
 17 16  1  0  0  0
 29 30  1  0  0  0
 16 15  1  0  0  0
 34 35  1  0  0  0
 34 36  1  0  0  0
 15 14  1  0  0  0
 31 32  1  0  0  0
 31 33  1  0  0  0
 14 13  1  0  0  0
 37  1  1  0  0  0
 37 39  1  0  0  0
 13 12  1  0  0  0
 38 39  2  0  0  0
 12 11  1  0  0  0
 11 10  1  0  0  0
 10  9  1  0  0  0
  9  8  1  0  0  0
  8  7  1  0  0  0
  7  6  1  0  0  0
  6  5  1  0  0  0
  2  1  1  0  0  0
  1 23  1  0  0  0
 30 32  1  0  0  0
 32 35  1  0  0  0
 39 40  1  0  0  0
 40 41  1  0  0  0
 41 42  1  0  0  0
 42 43  1  0  0  0
 43 44  1  0  0  0
 44 45  1  0  0  0
 45 46  1  0  0  0
 46 47  1  0  0  0
 47 48  2  0  0  0
 48 49  1  0  0  0
 49 50  1  0  0  0
 50 51  1  0  0  0
 51 52  1  0  0  0
 52 53  1  0  0  0
 53 54  1  0  0  0
 54 55  1  0  0  0
 55 56  1  0  0  0
M  CHG 1  26  -1
M  END
> <minimizedAffinity>
-9.04829

> <CNNscore>
0.7342260480

> <CNNaffinity>
7.3215308189

> <CNN_VS>
5.3756585121

> <CNNaffinity_variance>
1.0319349766

$$$$
/media/chris/experiments/cd1a-new-docking/inputs/ligands/7sh4_ligand.pdb


 56 55  0  0  0  0  0  0  0  0999 V2000
  -37.9031   59.4505   62.5895 C   0  0  0  0  0  0  0  0  0  0  0  0
  -37.8668   58.3189   61.6016 C   0  0  0  0  0  0  0  0  0  0  0  0
  -37.1546   58.8649   60.4712 O   0  0  0  0  0  0  0  0  0  0  0  0
  -38.8509   59.5947   59.2106 O   0  0  0  0  0  0  0  0  0  0  0  0
  -37.8297   58.9725   59.3264 C   0  0  0  0  0  0  0  0  0  0  0  0
  -37.0842   58.3265   58.1942 C   0  0  0  0  0  0  0  0  0  0  0  0
  -36.5331   56.9486   58.5201 C   0  0  0  0  0  0  0  0  0  0  0  0
  -35.0452   56.8365   58.2630 C   0  0  0  0  0  0  0  0  0  0  0  0
  -34.3146   55.9392   59.2361 C   0  0  0  0  0  0  0  0  0  0  0  0
  -34.6974   56.1936   60.6800 C   0  0  0  0  0  0  0  0  0  0  0  0
  -34.0750   57.4458   61.2478 C   0  0  0  0  0  0  0  0  0  0  0  0
  -32.8014   57.1784   62.0055 C   0  0  0  0  0  0  0  0  0  0  0  0
  -32.4417   58.2767   62.9814 C   0  0  0  0  0  0  0  0  0  0  0  0
  -32.3471   59.6378   62.3220 C   0  0  0  0  0  0  0  0  0  0  0  0
  -30.9848   59.9485   61.7384 C   0  0  0  0  0  0  0  0  0  0  0  0
  -30.2125   61.0129   62.5093 C   0  0  0  0  0  0  0  0  0  0  0  0
  -30.9578   62.3247   62.6634 C   0  0  0  0  0  0  0  0  0  0  0  0
  -30.5322   63.1197   63.8808 C   0  0  0  0  0  0  0  0  0  0  0  0
  -31.6739   63.8756   64.5458 C   0  0  0  0  0  0  0  0  0  0  0  0
  -32.0095   65.1909   63.8656 C   0  0  0  0  0  0  0  0  0  0  0  0
  -32.3727   66.0930   66.1873 C   0  0  0  0  0  0  0  0  0  0  0  0
  -32.7706   66.1772   64.7312 C   0  0  0  0  0  0  0  0  0  0  0  0
  -36.5763   60.1586   62.6882 C   0  0  0  0  0  0  0  0  0  0  0  0
  -36.7679   61.5532   62.3612 O   0  0  0  0  0  0  0  0  0  0  0  0
  -35.7749   62.7053   62.8597 P   0  0  0  0  0  0  0  0  0  0  0  0
  -34.5533   62.0604   63.3872 O   0  0  0  0  0  0  0  0  0  0  0  0
  -35.6405   63.7021   61.7701 O   0  0  0  0  0  0  0  0  0  0  0  0
  -35.1868   63.2962   61.0149 H   0  0  0  0  0  0  0  0  0  0  0  0
  -36.5237   63.4101   64.0786 O   0  0  0  0  0  0  0  0  0  0  0  0
  -35.7780   64.2126   65.0165 C   0  0  0  0  0  0  0  0  0  0  0  0
  -37.0850   62.7003   66.3384 O   0  0  0  0  0  0  0  0  0  0  0  0
  -36.1090   63.7439   66.4122 C   0  0  0  0  0  0  0  0  0  0  0  0
  -37.8632   63.0191   65.8551 H   0  0  0  0  0  0  0  0  0  0  0  0
  -34.0516   62.4884   66.3151 O   0  0  0  0  0  0  0  0  0  0  0  0
  -34.8894   63.2646   67.1621 C   0  0  0  0  0  0  0  0  0  0  0  0
  -33.2750   62.1901   66.8137 H   0  0  0  0  0  0  0  0  0  0  0  0
  -38.3301   58.9170   63.8868 O   0  0  0  0  0  0  0  0  0  0  0  0
  -38.8566   60.5005   65.3952 O   0  0  0  0  0  0  0  0  0  0  0  0
  -39.1928   59.6654   64.6007 C   0  0  0  0  0  0  0  0  0  0  0  0
  -40.6180   59.3449   64.2719 C   0  0  0  0  0  0  0  0  0  0  0  0
  -41.2586   58.4763   65.3499 C   0  0  0  0  0  0  0  0  0  0  0  0
  -42.2253   59.2262   66.2518 C   0  0  0  0  0  0  0  0  0  0  0  0
  -43.6009   58.5760   66.3454 C   0  0  0  0  0  0  0  0  0  0  0  0
  -44.6286   59.1677   65.3987 C   0  0  0  0  0  0  0  0  0  0  0  0
  -46.0596   59.1870   65.9435 C   0  0  0  0  0  0  0  0  0  0  0  0
  -47.1571   59.3323   64.8871 C   0  0  0  0  0  0  0  0  0  0  0  0
  -47.9924   58.0931   64.7662 C   0  0  0  0  0  0  0  0  0  0  0  0
  -49.1267   57.9696   64.1049 C   0  0  0  0  0  0  0  0  0  0  0  0
  -49.8194   59.0469   63.3316 C   0  0  0  0  0  0  0  0  0  0  0  0
  -51.0363   58.5274   62.5715 C   0  0  0  0  0  0  0  0  0  0  0  0
  -50.6839   57.7458   61.3180 C   0  0  0  0  0  0  0  0  0  0  0  0
  -49.6415   58.4265   60.4478 C   0  0  0  0  0  0  0  0  0  0  0  0
  -48.3669   57.6234   60.2473 C   0  0  0  0  0  0  0  0  0  0  0  0
  -48.4193   56.6948   59.0437 C   0  0  0  0  0  0  0  0  0  0  0  0
  -47.2707   56.8723   58.0706 C   0  0  0  0  0  0  0  0  0  0  0  0
  -47.6682   56.6014   56.6464 C   0  0  0  0  0  0  0  0  0  0  0  0
 21 22  1  0  0  0
  4  5  2  0  0  0
 25 24  1  0  0  0
 25 26  2  0  0  0
 25 27  1  0  0  0
 25 29  1  0  0  0
 22 20  1  0  0  0
  3  5  1  0  0  0
  3  2  1  0  0  0
 20 19  1  0  0  0
 24 23  1  0  0  0
 19 18  1  0  0  0
 18 17  1  0  0  0
 27 28  1  0  0  0
 17 16  1  0  0  0
 29 30  1  0  0  0
 16 15  1  0  0  0
 34 35  1  0  0  0
 34 36  1  0  0  0
 15 14  1  0  0  0
 31 32  1  0  0  0
 31 33  1  0  0  0
 14 13  1  0  0  0
 37  1  1  0  0  0
 37 39  1  0  0  0
 13 12  1  0  0  0
 38 39  2  0  0  0
 12 11  1  0  0  0
 11 10  1  0  0  0
 10  9  1  0  0  0
  9  8  1  0  0  0
  8  7  1  0  0  0
  7  6  1  0  0  0
  6  5  1  0  0  0
  2  1  1  0  0  0
  1 23  1  0  0  0
 30 32  1  0  0  0
 32 35  1  0  0  0
 39 40  1  0  0  0
 40 41  1  0  0  0
 41 42  1  0  0  0
 42 43  1  0  0  0
 43 44  1  0  0  0
 44 45  1  0  0  0
 45 46  1  0  0  0
 46 47  1  0  0  0
 47 48  2  0  0  0
 48 49  1  0  0  0
 49 50  1  0  0  0
 50 51  1  0  0  0
 51 52  1  0  0  0
 52 53  1  0  0  0
 53 54  1  0  0  0
 54 55  1  0  0  0
 55 56  1  0  0  0
M  CHG 1  26  -1
M  END
> <minimizedAffinity>
-8.66695

> <CNNscore>
0.7226771116

> <CNNaffinity>
7.3135771751

> <CNN_VS>
5.2853546143

> <CNNaffinity_variance>
0.5888281465

$$$$
/media/chris/experiments/cd1a-new-docking/inputs/ligands/7sh4_ligand.pdb


 56 55  0  0  0  0  0  0  0  0999 V2000
  -37.8188   59.7863   62.1070 C   0  0  0  0  0  0  0  0  0  0  0  0
  -39.2906   59.7929   62.4090 C   0  0  0  0  0  0  0  0  0  0  0  0
  -39.3537   60.0114   63.8342 O   0  0  0  0  0  0  0  0  0  0  0  0
  -41.2297   61.2057   64.0652 O   0  0  0  0  0  0  0  0  0  0  0  0
  -40.5567   60.2538   64.3556 C   0  0  0  0  0  0  0  0  0  0  0  0
  -41.0002   59.1269   65.2436 C   0  0  0  0  0  0  0  0  0  0  0  0
  -41.9037   59.5567   66.3871 C   0  0  0  0  0  0  0  0  0  0  0  0
  -42.6387   58.3950   67.0218 C   0  0  0  0  0  0  0  0  0  0  0  0
  -43.0485   57.3145   66.0469 C   0  0  0  0  0  0  0  0  0  0  0  0
  -44.5471   57.2444   65.8344 C   0  0  0  0  0  0  0  0  0  0  0  0
  -45.0463   58.2202   64.7969 C   0  0  0  0  0  0  0  0  0  0  0  0
  -45.9013   59.3137   65.3807 C   0  0  0  0  0  0  0  0  0  0  0  0
  -46.7295   58.8615   66.5629 C   0  0  0  0  0  0  0  0  0  0  0  0
  -48.0670   58.2796   66.1523 C   0  0  0  0  0  0  0  0  0  0  0  0
  -48.9094   59.2068   65.3016 C   0  0  0  0  0  0  0  0  0  0  0  0
  -50.3125   58.6808   65.0210 C   0  0  0  0  0  0  0  0  0  0  0  0
  -51.2489   59.7122   64.4215 C   0  0  0  0  0  0  0  0  0  0  0  0
  -51.4086   59.5802   62.9207 C   0  0  0  0  0  0  0  0  0  0  0  0
  -50.3263   58.7349   62.2639 C   0  0  0  0  0  0  0  0  0  0  0  0
  -50.8689   57.5430   61.4956 C   0  0  0  0  0  0  0  0  0  0  0  0
  -49.3529   56.4556   59.8057 C   0  0  0  0  0  0  0  0  0  0  0  0
  -50.4419   57.4774   60.0414 C   0  0  0  0  0  0  0  0  0  0  0  0
  -37.0289   60.5716   63.1224 C   0  0  0  0  0  0  0  0  0  0  0  0
  -36.9851   61.9555   62.7085 O   0  0  0  0  0  0  0  0  0  0  0  0
  -35.7222   62.9015   62.9765 P   0  0  0  0  0  0  0  0  0  0  0  0
  -34.6046   62.0523   63.4418 O   0  0  0  0  0  0  0  0  0  0  0  0
  -35.5199   63.7518   61.7786 O   0  0  0  0  0  0  0  0  0  0  0  0
  -35.2562   63.1961   61.0286 H   0  0  0  0  0  0  0  0  0  0  0  0
  -36.1536   63.8503   64.1834 O   0  0  0  0  0  0  0  0  0  0  0  0
  -35.1471   64.5152   64.9737 C   0  0  0  0  0  0  0  0  0  0  0  0
  -36.7975   64.0820   66.6563 O   0  0  0  0  0  0  0  0  0  0  0  0
  -35.3893   64.1869   66.4266 C   0  0  0  0  0  0  0  0  0  0  0  0
  -37.2322   64.9038   66.3797 H   0  0  0  0  0  0  0  0  0  0  0  0
  -35.4449   61.7755   66.4491 O   0  0  0  0  0  0  0  0  0  0  0  0
  -34.6958   62.9149   66.8519 C   0  0  0  0  0  0  0  0  0  0  0  0
  -34.9844   60.9696   66.7307 H   0  0  0  0  0  0  0  0  0  0  0  0
  -37.6238   60.3056   60.7497 O   0  0  0  0  0  0  0  0  0  0  0  0
  -39.2159   60.2003   59.1641 O   0  0  0  0  0  0  0  0  0  0  0  0
  -38.3031   59.6961   59.7593 C   0  0  0  0  0  0  0  0  0  0  0  0
  -37.7727   58.3245   59.4774 C   0  0  0  0  0  0  0  0  0  0  0  0
  -36.8709   58.3158   58.2472 C   0  0  0  0  0  0  0  0  0  0  0  0
  -36.1959   56.9791   57.9872 C   0  0  0  0  0  0  0  0  0  0  0  0
  -34.6812   57.0780   57.8465 C   0  0  0  0  0  0  0  0  0  0  0  0
  -33.9125   56.2259   58.8393 C   0  0  0  0  0  0  0  0  0  0  0  0
  -34.7614   55.6515   59.9770 C   0  0  0  0  0  0  0  0  0  0  0  0
  -34.3236   56.0577   61.3858 C   0  0  0  0  0  0  0  0  0  0  0  0
  -34.8421   57.4109   61.7703 C   0  0  0  0  0  0  0  0  0  0  0  0
  -34.1977   58.3357   62.4550 C   0  0  0  0  0  0  0  0  0  0  0  0
  -32.8057   58.2267   62.9923 C   0  0  0  0  0  0  0  0  0  0  0  0
  -31.7651   58.7983   62.0337 C   0  0  0  0  0  0  0  0  0  0  0  0
  -31.6972   60.3154   62.0420 C   0  0  0  0  0  0  0  0  0  0  0  0
  -30.3423   60.8675   61.6336 C   0  0  0  0  0  0  0  0  0  0  0  0
  -30.1786   62.3621   61.8546 C   0  0  0  0  0  0  0  0  0  0  0  0
  -31.4992   63.1156   61.9003 C   0  0  0  0  0  0  0  0  0  0  0  0
  -31.6976   63.9479   63.1515 C   0  0  0  0  0  0  0  0  0  0  0  0
  -30.8475   63.4820   64.3005 C   0  0  0  0  0  0  0  0  0  0  0  0
 21 22  1  0  0  0
  4  5  2  0  0  0
 25 24  1  0  0  0
 25 26  2  0  0  0
 25 27  1  0  0  0
 25 29  1  0  0  0
 22 20  1  0  0  0
  3  5  1  0  0  0
  3  2  1  0  0  0
 20 19  1  0  0  0
 24 23  1  0  0  0
 19 18  1  0  0  0
 18 17  1  0  0  0
 27 28  1  0  0  0
 17 16  1  0  0  0
 29 30  1  0  0  0
 16 15  1  0  0  0
 34 35  1  0  0  0
 34 36  1  0  0  0
 15 14  1  0  0  0
 31 32  1  0  0  0
 31 33  1  0  0  0
 14 13  1  0  0  0
 37  1  1  0  0  0
 37 39  1  0  0  0
 13 12  1  0  0  0
 38 39  2  0  0  0
 12 11  1  0  0  0
 11 10  1  0  0  0
 10  9  1  0  0  0
  9  8  1  0  0  0
  8  7  1  0  0  0
  7  6  1  0  0  0
  6  5  1  0  0  0
  2  1  1  0  0  0
  1 23  1  0  0  0
 30 32  1  0  0  0
 32 35  1  0  0  0
 39 40  1  0  0  0
 40 41  1  0  0  0
 41 42  1  0  0  0
 42 43  1  0  0  0
 43 44  1  0  0  0
 44 45  1  0  0  0
 45 46  1  0  0  0
 46 47  1  0  0  0
 47 48  2  0  0  0
 48 49  1  0  0  0
 49 50  1  0  0  0
 50 51  1  0  0  0
 51 52  1  0  0  0
 52 53  1  0  0  0
 53 54  1  0  0  0
 54 55  1  0  0  0
 55 56  1  0  0  0
M  CHG 1  26  -1
M  END
> <minimizedAffinity>
-9.04102

> <CNNscore>
0.6616219282

> <CNNaffinity>
7.2355475426

> <CNN_VS>
4.7871971130

> <CNNaffinity_variance>
1.0314378738

$$$$
/media/chris/experiments/cd1a-new-docking/inputs/ligands/7sh4_ligand.pdb


 56 55  0  0  0  0  0  0  0  0999 V2000
  -39.6664   59.4050   65.0516 C   0  0  0  0  0  0  0  0  0  0  0  0
  -39.2991   57.9742   64.7768 C   0  0  0  0  0  0  0  0  0  0  0  0
  -39.0134   57.9525   63.3622 O   0  0  0  0  0  0  0  0  0  0  0  0
  -36.9675   57.1416   63.7570 O   0  0  0  0  0  0  0  0  0  0  0  0
  -37.8476   57.4235   62.9893 C   0  0  0  0  0  0  0  0  0  0  0  0
  -37.8365   57.1165   61.5194 C   0  0  0  0  0  0  0  0  0  0  0  0
  -38.3162   58.2610   60.6428 C   0  0  0  0  0  0  0  0  0  0  0  0
  -37.2741   58.7070   59.6389 C   0  0  0  0  0  0  0  0  0  0  0  0
  -37.3723   58.0180   58.2968 C   0  0  0  0  0  0  0  0  0  0  0  0
  -36.2296   57.0572   58.0380 C   0  0  0  0  0  0  0  0  0  0  0  0
  -36.5337   55.6429   58.4678 C   0  0  0  0  0  0  0  0  0  0  0  0
  -35.6123   55.1459   59.5503 C   0  0  0  0  0  0  0  0  0  0  0  0
  -34.2208   55.7336   59.4708 C   0  0  0  0  0  0  0  0  0  0  0  0
  -33.7068   56.2050   60.8161 C   0  0  0  0  0  0  0  0  0  0  0  0
  -34.0843   57.6314   61.1565 C   0  0  0  0  0  0  0  0  0  0  0  0
  -33.8846   57.9878   62.6253 C   0  0  0  0  0  0  0  0  0  0  0  0
  -32.5185   58.5672   62.9386 C   0  0  0  0  0  0  0  0  0  0  0  0
  -31.8385   59.1900   61.7365 C   0  0  0  0  0  0  0  0  0  0  0  0
  -30.6356   60.0516   62.0942 C   0  0  0  0  0  0  0  0  0  0  0  0
  -30.7055   61.4583   61.5271 C   0  0  0  0  0  0  0  0  0  0  0  0
  -30.5304   62.7097   63.7042 C   0  0  0  0  0  0  0  0  0  0  0  0
  -29.9475   62.5026   62.3247 C   0  0  0  0  0  0  0  0  0  0  0  0
  -38.5212   60.1777   65.6543 C   0  0  0  0  0  0  0  0  0  0  0  0
  -38.1095   61.2022   64.7218 O   0  0  0  0  0  0  0  0  0  0  0  0
  -36.7539   61.1109   63.8758 P   0  0  0  0  0  0  0  0  0  0  0  0
  -35.8854   60.0964   64.5107 O   0  0  0  0  0  0  0  0  0  0  0  0
  -37.1121   60.9480   62.4461 O   0  0  0  0  0  0  0  0  0  0  0  0
  -37.5412   60.0878   62.3165 H   0  0  0  0  0  0  0  0  0  0  0  0
  -36.0531   62.5332   64.0461 O   0  0  0  0  0  0  0  0  0  0  0  0
  -35.1793   62.7773   65.1671 C   0  0  0  0  0  0  0  0  0  0  0  0
  -36.6724   64.6496   65.0787 O   0  0  0  0  0  0  0  0  0  0  0  0
  -35.6006   64.0675   65.8267 C   0  0  0  0  0  0  0  0  0  0  0  0
  -36.3945   64.7723   64.1576 H   0  0  0  0  0  0  0  0  0  0  0  0
  -36.0310   62.4867   67.5971 O   0  0  0  0  0  0  0  0  0  0  0  0
  -36.0162   63.8691   67.2645 C   0  0  0  0  0  0  0  0  0  0  0  0
  -36.2999   62.3796   68.5228 H   0  0  0  0  0  0  0  0  0  0  0  0
  -40.8468   59.4196   65.9213 O   0  0  0  0  0  0  0  0  0  0  0  0
  -42.2917   60.1512   64.3601 O   0  0  0  0  0  0  0  0  0  0  0  0
  -42.0496   59.4678   65.3173 C   0  0  0  0  0  0  0  0  0  0  0  0
  -43.0414   58.5550   65.9695 C   0  0  0  0  0  0  0  0  0  0  0  0
  -44.3061   58.4116   65.1288 C   0  0  0  0  0  0  0  0  0  0  0  0
  -45.5825   58.7777   65.8684 C   0  0  0  0  0  0  0  0  0  0  0  0
  -46.6711   57.7153   65.7684 C   0  0  0  0  0  0  0  0  0  0  0  0
  -47.8290   58.1014   64.8669 C   0  0  0  0  0  0  0  0  0  0  0  0
  -48.7917   59.1277   65.4710 C   0  0  0  0  0  0  0  0  0  0  0  0
  -50.2733   58.7524   65.3994 C   0  0  0  0  0  0  0  0  0  0  0  0
  -51.0845   59.7887   64.6811 C   0  0  0  0  0  0  0  0  0  0  0  0
  -51.4964   59.7379   63.4293 C   0  0  0  0  0  0  0  0  0  0  0  0
  -51.2396   58.6275   62.4600 C   0  0  0  0  0  0  0  0  0  0  0  0
  -50.0767   58.9324   61.5201 C   0  0  0  0  0  0  0  0  0  0  0  0
  -49.1413   57.7554   61.3061 C   0  0  0  0  0  0  0  0  0  0  0  0
  -49.6335   56.7672   60.2627 C   0  0  0  0  0  0  0  0  0  0  0  0
  -48.8673   56.8029   58.9508 C   0  0  0  0  0  0  0  0  0  0  0  0
  -47.4958   57.4502   59.0679 C   0  0  0  0  0  0  0  0  0  0  0  0
  -46.7856   57.6467   57.7433 C   0  0  0  0  0  0  0  0  0  0  0  0
  -47.2567   56.6904   56.6834 C   0  0  0  0  0  0  0  0  0  0  0  0
 21 22  1  0  0  0
  4  5  2  0  0  0
 25 24  1  0  0  0
 25 26  2  0  0  0
 25 27  1  0  0  0
 25 29  1  0  0  0
 22 20  1  0  0  0
  3  5  1  0  0  0
  3  2  1  0  0  0
 20 19  1  0  0  0
 24 23  1  0  0  0
 19 18  1  0  0  0
 18 17  1  0  0  0
 27 28  1  0  0  0
 17 16  1  0  0  0
 29 30  1  0  0  0
 16 15  1  0  0  0
 34 35  1  0  0  0
 34 36  1  0  0  0
 15 14  1  0  0  0
 31 32  1  0  0  0
 31 33  1  0  0  0
 14 13  1  0  0  0
 37  1  1  0  0  0
 37 39  1  0  0  0
 13 12  1  0  0  0
 38 39  2  0  0  0
 12 11  1  0  0  0
 11 10  1  0  0  0
 10  9  1  0  0  0
  9  8  1  0  0  0
  8  7  1  0  0  0
  7  6  1  0  0  0
  6  5  1  0  0  0
  2  1  1  0  0  0
  1 23  1  0  0  0
 30 32  1  0  0  0
 32 35  1  0  0  0
 39 40  1  0  0  0
 40 41  1  0  0  0
 41 42  1  0  0  0
 42 43  1  0  0  0
 43 44  1  0  0  0
 44 45  1  0  0  0
 45 46  1  0  0  0
 46 47  1  0  0  0
 47 48  2  0  0  0
 48 49  1  0  0  0
 49 50  1  0  0  0
 50 51  1  0  0  0
 51 52  1  0  0  0
 52 53  1  0  0  0
 53 54  1  0  0  0
 54 55  1  0  0  0
 55 56  1  0  0  0
M  CHG 1  26  -1
M  END
> <minimizedAffinity>
-8.84402

> <CNNscore>
0.6482495070

> <CNNaffinity>
7.3017745018

> <CNN_VS>
4.7333717346

> <CNNaffinity_variance>
0.7576487660

$$$$
/media/chris/experiments/cd1a-new-docking/inputs/ligands/7sh4_ligand.pdb


 56 55  0  0  0  0  0  0  0  0999 V2000
  -39.4288   59.6905   62.5391 C   0  0  0  0  0  0  0  0  0  0  0  0
  -40.4954   60.5728   63.1236 C   0  0  0  0  0  0  0  0  0  0  0  0
  -41.3211   59.6657   63.8841 O   0  0  0  0  0  0  0  0  0  0  0  0
  -40.9966   60.8846   65.7301 O   0  0  0  0  0  0  0  0  0  0  0  0
  -41.4396   59.9071   65.1900 C   0  0  0  0  0  0  0  0  0  0  0  0
  -42.2972   58.8709   65.8577 C   0  0  0  0  0  0  0  0  0  0  0  0
  -43.7869   59.1624   65.7922 C   0  0  0  0  0  0  0  0  0  0  0  0
  -44.5424   58.1652   64.9393 C   0  0  0  0  0  0  0  0  0  0  0  0
  -46.0437   58.2165   65.1099 C   0  0  0  0  0  0  0  0  0  0  0  0
  -46.5297   59.5259   65.6977 C   0  0  0  0  0  0  0  0  0  0  0  0
  -47.9725   59.4801   66.1381 C   0  0  0  0  0  0  0  0  0  0  0  0
  -48.8655   58.7698   65.1555 C   0  0  0  0  0  0  0  0  0  0  0  0
  -49.1547   59.5810   63.9120 C   0  0  0  0  0  0  0  0  0  0  0  0
  -48.8985   58.8064   62.6351 C   0  0  0  0  0  0  0  0  0  0  0  0
  -50.1494   58.2491   61.9888 C   0  0  0  0  0  0  0  0  0  0  0  0
  -50.0426   58.0890   60.4765 C   0  0  0  0  0  0  0  0  0  0  0  0
  -49.8035   56.6617   60.0232 C   0  0  0  0  0  0  0  0  0  0  0  0
  -48.4237   56.4387   59.4387 C   0  0  0  0  0  0  0  0  0  0  0  0
  -48.3820   56.5314   57.9198 C   0  0  0  0  0  0  0  0  0  0  0  0
  -47.0309   56.9578   57.3739 C   0  0  0  0  0  0  0  0  0  0  0  0
  -44.8783   58.1736   57.8471 C   0  0  0  0  0  0  0  0  0  0  0  0
  -46.3560   58.0729   58.1500 C   0  0  0  0  0  0  0  0  0  0  0  0
  -38.3613   59.3491   63.5469 C   0  0  0  0  0  0  0  0  0  0  0  0
  -38.0156   60.5447   64.2814 O   0  0  0  0  0  0  0  0  0  0  0  0
  -36.6686   61.3672   64.0152 P   0  0  0  0  0  0  0  0  0  0  0  0
  -35.5729   60.7027   64.7530 O   0  0  0  0  0  0  0  0  0  0  0  0
  -36.5274   61.5605   62.5518 O   0  0  0  0  0  0  0  0  0  0  0  0
  -36.3797   60.7020   62.1252 H   0  0  0  0  0  0  0  0  0  0  0  0
  -36.9095   62.7979   64.6772 O   0  0  0  0  0  0  0  0  0  0  0  0
  -35.8337   63.7566   64.7346 C   0  0  0  0  0  0  0  0  0  0  0  0
  -36.9482   63.9998   66.8420 O   0  0  0  0  0  0  0  0  0  0  0  0
  -35.7230   64.2632   66.1517 C   0  0  0  0  0  0  0  0  0  0  0  0
  -37.6856   64.4014   66.3565 H   0  0  0  0  0  0  0  0  0  0  0  0
  -34.7095   62.2321   66.9680 O   0  0  0  0  0  0  0  0  0  0  0  0
  -34.5631   63.6446   66.8944 C   0  0  0  0  0  0  0  0  0  0  0  0
  -33.9563   61.8535   67.4477 H   0  0  0  0  0  0  0  0  0  0  0  0
  -38.8679   60.3620   61.3625 O   0  0  0  0  0  0  0  0  0  0  0  0
  -39.8205   60.1311   59.3377 O   0  0  0  0  0  0  0  0  0  0  0  0
  -39.0429   59.7562   60.1724 C   0  0  0  0  0  0  0  0  0  0  0  0
  -38.1404   58.5727   60.0078 C   0  0  0  0  0  0  0  0  0  0  0  0
  -37.2993   58.6833   58.7400 C   0  0  0  0  0  0  0  0  0  0  0  0
  -37.2151   57.3926   57.9418 C   0  0  0  0  0  0  0  0  0  0  0  0
  -35.8233   56.7709   57.9330 C   0  0  0  0  0  0  0  0  0  0  0  0
  -35.5729   55.8025   59.0740 C   0  0  0  0  0  0  0  0  0  0  0  0
  -34.2274   55.9862   59.7816 C   0  0  0  0  0  0  0  0  0  0  0  0
  -34.3053   56.1264   61.3033 C   0  0  0  0  0  0  0  0  0  0  0  0
  -34.9259   57.4261   61.7198 C   0  0  0  0  0  0  0  0  0  0  0  0
  -34.3676   58.3638   62.4603 C   0  0  0  0  0  0  0  0  0  0  0  0
  -32.9893   58.3260   63.0409 C   0  0  0  0  0  0  0  0  0  0  0  0
  -31.9154   58.6758   62.0147 C   0  0  0  0  0  0  0  0  0  0  0  0
  -31.6139   60.1618   61.9305 C   0  0  0  0  0  0  0  0  0  0  0  0
  -30.1397   60.4752   61.7414 C   0  0  0  0  0  0  0  0  0  0  0  0
  -29.5666   61.4460   62.7606 C   0  0  0  0  0  0  0  0  0  0  0  0
  -30.5684   62.4879   63.2344 C   0  0  0  0  0  0  0  0  0  0  0  0
  -30.5942   63.7517   62.3977 C   0  0  0  0  0  0  0  0  0  0  0  0
  -29.2187   64.2330   62.0289 C   0  0  0  0  0  0  0  0  0  0  0  0
 21 22  1  0  0  0
  4  5  2  0  0  0
 25 24  1  0  0  0
 25 26  2  0  0  0
 25 27  1  0  0  0
 25 29  1  0  0  0
 22 20  1  0  0  0
  3  5  1  0  0  0
  3  2  1  0  0  0
 20 19  1  0  0  0
 24 23  1  0  0  0
 19 18  1  0  0  0
 18 17  1  0  0  0
 27 28  1  0  0  0
 17 16  1  0  0  0
 29 30  1  0  0  0
 16 15  1  0  0  0
 34 35  1  0  0  0
 34 36  1  0  0  0
 15 14  1  0  0  0
 31 32  1  0  0  0
 31 33  1  0  0  0
 14 13  1  0  0  0
 37  1  1  0  0  0
 37 39  1  0  0  0
 13 12  1  0  0  0
 38 39  2  0  0  0
 12 11  1  0  0  0
 11 10  1  0  0  0
 10  9  1  0  0  0
  9  8  1  0  0  0
  8  7  1  0  0  0
  7  6  1  0  0  0
  6  5  1  0  0  0
  2  1  1  0  0  0
  1 23  1  0  0  0
 30 32  1  0  0  0
 32 35  1  0  0  0
 39 40  1  0  0  0
 40 41  1  0  0  0
 41 42  1  0  0  0
 42 43  1  0  0  0
 43 44  1  0  0  0
 44 45  1  0  0  0
 45 46  1  0  0  0
 46 47  1  0  0  0
 47 48  2  0  0  0
 48 49  1  0  0  0
 49 50  1  0  0  0
 50 51  1  0  0  0
 51 52  1  0  0  0
 52 53  1  0  0  0
 53 54  1  0  0  0
 54 55  1  0  0  0
 55 56  1  0  0  0
M  CHG 1  26  -1
M  END
> <minimizedAffinity>
-8.63615

> <CNNscore>
0.6392565966

> <CNNaffinity>
7.3276534081

> <CNN_VS>
4.6842508316

> <CNNaffinity_variance>
0.8500744700

$$$$
/media/chris/experiments/cd1a-new-docking/inputs/ligands/7sh4_ligand.pdb


 56 55  0  0  0  0  0  0  0  0999 V2000
  -37.7160   59.9562   64.5542 C   0  0  0  0  0  0  0  0  0  0  0  0
  -39.1086   60.5150   64.4761 C   0  0  0  0  0  0  0  0  0  0  0  0
  -39.8209   59.8256   65.5251 O   0  0  0  0  0  0  0  0  0  0  0  0
  -40.3122   57.7178   64.9640 O   0  0  0  0  0  0  0  0  0  0  0  0
  -40.6543   58.8540   65.1519 C   0  0  0  0  0  0  0  0  0  0  0  0
  -42.0752   59.3392   65.1232 C   0  0  0  0  0  0  0  0  0  0  0  0
  -43.0782   58.3570   65.7041 C   0  0  0  0  0  0  0  0  0  0  0  0
  -44.4271   58.9886   65.9763 C   0  0  0  0  0  0  0  0  0  0  0  0
  -45.5746   58.3425   65.2337 C   0  0  0  0  0  0  0  0  0  0  0  0
  -46.7674   59.2623   65.0686 C   0  0  0  0  0  0  0  0  0  0  0  0
  -47.9828   58.8025   65.8361 C   0  0  0  0  0  0  0  0  0  0  0  0
  -48.8071   57.7923   65.0828 C   0  0  0  0  0  0  0  0  0  0  0  0
  -49.1469   58.2254   63.6739 C   0  0  0  0  0  0  0  0  0  0  0  0
  -50.6214   58.5243   63.4930 C   0  0  0  0  0  0  0  0  0  0  0  0
  -51.1020   58.4202   62.0608 C   0  0  0  0  0  0  0  0  0  0  0  0
  -50.6702   57.1384   61.3577 C   0  0  0  0  0  0  0  0  0  0  0  0
  -50.1123   57.3575   59.9646 C   0  0  0  0  0  0  0  0  0  0  0  0
  -48.7404   58.0002   59.9597 C   0  0  0  0  0  0  0  0  0  0  0  0
  -47.6481   57.1029   59.3947 C   0  0  0  0  0  0  0  0  0  0  0  0
  -48.1539   55.7489   58.9299 C   0  0  0  0  0  0  0  0  0  0  0  0
  -47.4886   56.6459   56.6741 C   0  0  0  0  0  0  0  0  0  0  0  0
  -47.8448   55.4187   57.4819 C   0  0  0  0  0  0  0  0  0  0  0  0
  -36.7238   60.9761   65.0514 C   0  0  0  0  0  0  0  0  0  0  0  0
  -36.8843   62.1922   64.2873 O   0  0  0  0  0  0  0  0  0  0  0  0
  -35.6511   62.9734   63.6310 P   0  0  0  0  0  0  0  0  0  0  0  0
  -34.6898   61.9697   63.1260 O   0  0  0  0  0  0  0  0  0  0  0  0
  -36.1925   63.9799   62.6862 O   0  0  0  0  0  0  0  0  0  0  0  0
  -36.6207   63.5276   61.9426 H   0  0  0  0  0  0  0  0  0  0  0  0
  -34.9575   63.7554   64.8353 O   0  0  0  0  0  0  0  0  0  0  0  0
  -33.6438   63.3670   65.2862 C   0  0  0  0  0  0  0  0  0  0  0  0
  -31.5611   64.4698   65.7208 O   0  0  0  0  0  0  0  0  0  0  0  0
  -32.9766   64.5722   65.9022 C   0  0  0  0  0  0  0  0  0  0  0  0
  -31.2466   63.6332   66.0976 H   0  0  0  0  0  0  0  0  0  0  0  0
  -33.1941   65.9451   63.9308 O   0  0  0  0  0  0  0  0  0  0  0  0
  -33.4839   65.8700   65.3208 C   0  0  0  0  0  0  0  0  0  0  0  0
  -33.5270   66.7842   63.5759 H   0  0  0  0  0  0  0  0  0  0  0  0
  -37.3491   59.4444   63.2301 O   0  0  0  0  0  0  0  0  0  0  0  0
  -36.7285   57.3324   63.6936 O   0  0  0  0  0  0  0  0  0  0  0  0
  -37.3889   58.1090   63.0592 C   0  0  0  0  0  0  0  0  0  0  0  0
  -38.3670   57.7086   61.9984 C   0  0  0  0  0  0  0  0  0  0  0  0
  -37.6581   57.1851   60.7534 C   0  0  0  0  0  0  0  0  0  0  0  0
  -37.2958   58.2674   59.7496 C   0  0  0  0  0  0  0  0  0  0  0  0
  -37.3052   57.7855   58.3034 C   0  0  0  0  0  0  0  0  0  0  0  0
  -36.2927   56.6940   58.0102 C   0  0  0  0  0  0  0  0  0  0  0  0
  -34.8517   57.1877   57.8530 C   0  0  0  0  0  0  0  0  0  0  0  0
  -33.7932   56.3480   58.5713 C   0  0  0  0  0  0  0  0  0  0  0  0
  -34.3455   55.6592   59.7831 C   0  0  0  0  0  0  0  0  0  0  0  0
  -34.4088   56.1480   61.0064 C   0  0  0  0  0  0  0  0  0  0  0  0
  -33.9410   57.5008   61.4416 C   0  0  0  0  0  0  0  0  0  0  0  0
  -32.7235   57.4288   62.3587 C   0  0  0  0  0  0  0  0  0  0  0  0
  -32.1751   58.7893   62.7515 C   0  0  0  0  0  0  0  0  0  0  0  0
  -31.4340   59.4954   61.6292 C   0  0  0  0  0  0  0  0  0  0  0  0
  -30.1714   60.2195   62.0662 C   0  0  0  0  0  0  0  0  0  0  0  0
  -30.1621   61.6957   61.6992 C   0  0  0  0  0  0  0  0  0  0  0  0
  -31.5216   62.3626   61.7696 C   0  0  0  0  0  0  0  0  0  0  0  0
  -31.4392   63.8103   62.1663 C   0  0  0  0  0  0  0  0  0  0  0  0
 21 22  1  0  0  0
  4  5  2  0  0  0
 25 24  1  0  0  0
 25 26  2  0  0  0
 25 27  1  0  0  0
 25 29  1  0  0  0
 22 20  1  0  0  0
  3  5  1  0  0  0
  3  2  1  0  0  0
 20 19  1  0  0  0
 24 23  1  0  0  0
 19 18  1  0  0  0
 18 17  1  0  0  0
 27 28  1  0  0  0
 17 16  1  0  0  0
 29 30  1  0  0  0
 16 15  1  0  0  0
 34 35  1  0  0  0
 34 36  1  0  0  0
 15 14  1  0  0  0
 31 32  1  0  0  0
 31 33  1  0  0  0
 14 13  1  0  0  0
 37  1  1  0  0  0
 37 39  1  0  0  0
 13 12  1  0  0  0
 38 39  2  0  0  0
 12 11  1  0  0  0
 11 10  1  0  0  0
 10  9  1  0  0  0
  9  8  1  0  0  0
  8  7  1  0  0  0
  7  6  1  0  0  0
  6  5  1  0  0  0
  2  1  1  0  0  0
  1 23  1  0  0  0
 30 32  1  0  0  0
 32 35  1  0  0  0
 39 40  1  0  0  0
 40 41  1  0  0  0
 41 42  1  0  0  0
 42 43  1  0  0  0
 43 44  1  0  0  0
 44 45  1  0  0  0
 45 46  1  0  0  0
 46 47  1  0  0  0
 47 48  2  0  0  0
 48 49  1  0  0  0
 49 50  1  0  0  0
 50 51  1  0  0  0
 51 52  1  0  0  0
 52 53  1  0  0  0
 53 54  1  0  0  0
 54 55  1  0  0  0
 55 56  1  0  0  0
M  CHG 1  26  -1
M  END
> <minimizedAffinity>
-8.74741

> <CNNscore>
0.6304289103

> <CNNaffinity>
7.0592794418

> <CNN_VS>
4.4503736496

> <CNNaffinity_variance>
0.7321125269

$$$$
/media/chris/experiments/cd1a-new-docking/inputs/ligands/7sh4_ligand.pdb


 56 55  0  0  0  0  0  0  0  0999 V2000
  -39.7109   59.7307   63.2775 C   0  0  0  0  0  0  0  0  0  0  0  0
  -40.0142   60.1860   61.8781 C   0  0  0  0  0  0  0  0  0  0  0  0
  -38.7354   60.1389   61.2106 O   0  0  0  0  0  0  0  0  0  0  0  0
  -39.3975   60.2206   59.0765 O   0  0  0  0  0  0  0  0  0  0  0  0
  -38.7302   59.7239   59.9435 C   0  0  0  0  0  0  0  0  0  0  0  0
  -37.6998   58.6531   59.7275 C   0  0  0  0  0  0  0  0  0  0  0  0
  -37.3935   58.3725   58.2660 C   0  0  0  0  0  0  0  0  0  0  0  0
  -36.1943   57.4664   58.0819 C   0  0  0  0  0  0  0  0  0  0  0  0
  -36.5198   55.9909   58.1311 C   0  0  0  0  0  0  0  0  0  0  0  0
  -36.0438   55.3203   59.4038 C   0  0  0  0  0  0  0  0  0  0  0  0
  -34.6186   55.6659   59.7601 C   0  0  0  0  0  0  0  0  0  0  0  0
  -34.4714   56.1755   61.1695 C   0  0  0  0  0  0  0  0  0  0  0  0
  -33.9364   57.5884   61.2442 C   0  0  0  0  0  0  0  0  0  0  0  0
  -32.8421   57.7458   62.2805 C   0  0  0  0  0  0  0  0  0  0  0  0
  -32.6047   59.1765   62.7162 C   0  0  0  0  0  0  0  0  0  0  0  0
  -31.7002   59.9649   61.7758 C   0  0  0  0  0  0  0  0  0  0  0  0
  -30.2360   59.9477   62.1706 C   0  0  0  0  0  0  0  0  0  0  0  0
  -29.6963   61.3138   62.5415 C   0  0  0  0  0  0  0  0  0  0  0  0
  -30.3105   62.4514   61.7378 C   0  0  0  0  0  0  0  0  0  0  0  0
  -30.5354   63.7156   62.5480 C   0  0  0  0  0  0  0  0  0  0  0  0
  -32.9529   63.5942   61.8573 C   0  0  0  0  0  0  0  0  0  0  0  0
  -31.9767   63.9631   62.9512 C   0  0  0  0  0  0  0  0  0  0  0  0
  -38.8859   58.4695   63.2961 C   0  0  0  0  0  0  0  0  0  0  0  0
  -37.9202   58.5611   64.3674 O   0  0  0  0  0  0  0  0  0  0  0  0
  -36.4649   59.1977   64.1712 P   0  0  0  0  0  0  0  0  0  0  0  0
  -35.4642   58.1818   64.5627 O   0  0  0  0  0  0  0  0  0  0  0  0
  -36.3950   59.7784   62.8086 O   0  0  0  0  0  0  0  0  0  0  0  0
  -36.4428   59.0669   62.1512 H   0  0  0  0  0  0  0  0  0  0  0  0
  -36.3835   60.3967   65.2194 O   0  0  0  0  0  0  0  0  0  0  0  0
  -35.1719   61.1699   65.3384 C   0  0  0  0  0  0  0  0  0  0  0  0
  -33.9224   62.3283   67.0235 O   0  0  0  0  0  0  0  0  0  0  0  0
  -35.2468   61.9790   66.6100 C   0  0  0  0  0  0  0  0  0  0  0  0
  -33.3915   61.5227   67.1220 H   0  0  0  0  0  0  0  0  0  0  0  0
  -36.2301   63.8953   67.6960 O   0  0  0  0  0  0  0  0  0  0  0  0
  -36.0883   63.2225   66.4514 C   0  0  0  0  0  0  0  0  0  0  0  0
  -36.7727   64.6900   67.5740 H   0  0  0  0  0  0  0  0  0  0  0  0
  -40.9796   59.5586   63.9920 O   0  0  0  0  0  0  0  0  0  0  0  0
  -40.1713   60.6496   65.7855 O   0  0  0  0  0  0  0  0  0  0  0  0
  -41.0196   59.9713   65.2734 C   0  0  0  0  0  0  0  0  0  0  0  0
  -42.2549   59.4996   65.9760 C   0  0  0  0  0  0  0  0  0  0  0  0
  -42.1662   58.0181   66.3285 C   0  0  0  0  0  0  0  0  0  0  0  0
  -43.4180   57.2271   65.9858 C   0  0  0  0  0  0  0  0  0  0  0  0
  -44.5089   58.0661   65.3300 C   0  0  0  0  0  0  0  0  0  0  0  0
  -45.7674   58.2044   66.1665 C   0  0  0  0  0  0  0  0  0  0  0  0
  -46.8304   59.1308   65.5692 C   0  0  0  0  0  0  0  0  0  0  0  0
  -47.7794   58.4720   64.5658 C   0  0  0  0  0  0  0  0  0  0  0  0
  -49.0432   57.9925   65.2145 C   0  0  0  0  0  0  0  0  0  0  0  0
  -50.2474   58.5106   65.0714 C   0  0  0  0  0  0  0  0  0  0  0  0
  -50.6054   59.6913   64.2250 C   0  0  0  0  0  0  0  0  0  0  0  0
  -51.4259   59.3014   62.9989 C   0  0  0  0  0  0  0  0  0  0  0  0
  -50.5868   58.7862   61.8427 C   0  0  0  0  0  0  0  0  0  0  0  0
  -51.0655   57.4561   61.2869 C   0  0  0  0  0  0  0  0  0  0  0  0
  -50.0867   56.7799   60.3412 C   0  0  0  0  0  0  0  0  0  0  0  0
  -48.7518   57.5013   60.2340 C   0  0  0  0  0  0  0  0  0  0  0  0
  -47.7902   56.8853   59.2372 C   0  0  0  0  0  0  0  0  0  0  0  0
  -46.4096   57.4743   59.3209 C   0  0  0  0  0  0  0  0  0  0  0  0
 21 22  1  0  0  0
  4  5  2  0  0  0
 25 24  1  0  0  0
 25 26  2  0  0  0
 25 27  1  0  0  0
 25 29  1  0  0  0
 22 20  1  0  0  0
  3  5  1  0  0  0
  3  2  1  0  0  0
 20 19  1  0  0  0
 24 23  1  0  0  0
 19 18  1  0  0  0
 18 17  1  0  0  0
 27 28  1  0  0  0
 17 16  1  0  0  0
 29 30  1  0  0  0
 16 15  1  0  0  0
 34 35  1  0  0  0
 34 36  1  0  0  0
 15 14  1  0  0  0
 31 32  1  0  0  0
 31 33  1  0  0  0
 14 13  1  0  0  0
 37  1  1  0  0  0
 37 39  1  0  0  0
 13 12  1  0  0  0
 38 39  2  0  0  0
 12 11  1  0  0  0
 11 10  1  0  0  0
 10  9  1  0  0  0
  9  8  1  0  0  0
  8  7  1  0  0  0
  7  6  1  0  0  0
  6  5  1  0  0  0
  2  1  1  0  0  0
  1 23  1  0  0  0
 30 32  1  0  0  0
 32 35  1  0  0  0
 39 40  1  0  0  0
 40 41  1  0  0  0
 41 42  1  0  0  0
 42 43  1  0  0  0
 43 44  1  0  0  0
 44 45  1  0  0  0
 45 46  1  0  0  0
 46 47  1  0  0  0
 47 48  2  0  0  0
 48 49  1  0  0  0
 49 50  1  0  0  0
 50 51  1  0  0  0
 51 52  1  0  0  0
 52 53  1  0  0  0
 53 54  1  0  0  0
 54 55  1  0  0  0
 55 56  1  0  0  0
M  CHG 1  26  -1
M  END
> <minimizedAffinity>
-8.84821

> <CNNscore>
0.5766069889

> <CNNaffinity>
7.3000440598

> <CNN_VS>
4.2092566490

> <CNNaffinity_variance>
0.7843374014

$$$$
/media/chris/experiments/cd1a-new-docking/inputs/ligands/7sh4_ligand.pdb


 56 55  0  0  0  0  0  0  0  0999 V2000
  -39.2603   57.8668   64.6389 C   0  0  0  0  0  0  0  0  0  0  0  0
  -40.3795   58.8672   64.5746 C   0  0  0  0  0  0  0  0  0  0  0  0
  -41.0432   58.7311   65.8490 O   0  0  0  0  0  0  0  0  0  0  0  0
  -42.5703   57.1599   66.2942 O   0  0  0  0  0  0  0  0  0  0  0  0
  -42.2794   58.2318   65.8360 C   0  0  0  0  0  0  0  0  0  0  0  0
  -43.2621   59.2297   65.2943 C   0  0  0  0  0  0  0  0  0  0  0  0
  -44.6087   58.6340   64.9197 C   0  0  0  0  0  0  0  0  0  0  0  0
  -45.7719   59.5177   65.3183 C   0  0  0  0  0  0  0  0  0  0  0  0
  -46.9102   58.7795   65.9853 C   0  0  0  0  0  0  0  0  0  0  0  0
  -48.0732   59.6820   66.3442 C   0  0  0  0  0  0  0  0  0  0  0  0
  -49.4181   59.0615   66.0545 C   0  0  0  0  0  0  0  0  0  0  0  0
  -49.6253   58.7617   64.5933 C   0  0  0  0  0  0  0  0  0  0  0  0
  -50.4043   59.8344   63.8650 C   0  0  0  0  0  0  0  0  0  0  0  0
  -50.9239   59.3690   62.5198 C   0  0  0  0  0  0  0  0  0  0  0  0
  -50.9577   57.8639   62.3574 C   0  0  0  0  0  0  0  0  0  0  0  0
  -51.1019   57.4033   60.9113 C   0  0  0  0  0  0  0  0  0  0  0  0
  -49.9338   56.5770   60.4083 C   0  0  0  0  0  0  0  0  0  0  0  0
  -48.6136   57.3194   60.4392 C   0  0  0  0  0  0  0  0  0  0  0  0
  -48.2197   57.9200   59.0970 C   0  0  0  0  0  0  0  0  0  0  0  0
  -47.9984   56.8841   58.0092 C   0  0  0  0  0  0  0  0  0  0  0  0
  -45.7729   58.0507   57.8590 C   0  0  0  0  0  0  0  0  0  0  0  0
  -46.7169   57.0598   57.2166 C   0  0  0  0  0  0  0  0  0  0  0  0
  -37.9484   58.5081   65.0126 C   0  0  0  0  0  0  0  0  0  0  0  0
  -38.0756   59.9412   64.8759 O   0  0  0  0  0  0  0  0  0  0  0  0
  -37.0503   60.8254   64.0223 P   0  0  0  0  0  0  0  0  0  0  0  0
  -35.7891   60.0648   63.8907 O   0  0  0  0  0  0  0  0  0  0  0  0
  -37.7429   61.2749   62.7906 O   0  0  0  0  0  0  0  0  0  0  0  0
  -37.9330   60.5077   62.2284 H   0  0  0  0  0  0  0  0  0  0  0  0
  -36.7565   62.1126   64.9166 O   0  0  0  0  0  0  0  0  0  0  0  0
  -35.3989   62.4597   65.2575 C   0  0  0  0  0  0  0  0  0  0  0  0
  -33.9581   62.2574   67.1616 O   0  0  0  0  0  0  0  0  0  0  0  0
  -35.2969   62.5622   66.7595 C   0  0  0  0  0  0  0  0  0  0  0  0
  -33.7119   61.3807   66.8277 H   0  0  0  0  0  0  0  0  0  0  0  0
  -37.0358   64.2281   66.8997 O   0  0  0  0  0  0  0  0  0  0  0  0
  -35.6972   63.9251   67.2713 C   0  0  0  0  0  0  0  0  0  0  0  0
  -37.2742   65.1058   67.2367 H   0  0  0  0  0  0  0  0  0  0  0  0
  -39.1790   57.1814   63.3453 O   0  0  0  0  0  0  0  0  0  0  0  0
  -39.1717   58.7978   61.7809 O   0  0  0  0  0  0  0  0  0  0  0  0
  -38.6362   57.8697   62.3227 C   0  0  0  0  0  0  0  0  0  0  0  0
  -37.2801   57.3516   61.9555 C   0  0  0  0  0  0  0  0  0  0  0  0
  -37.2884   56.6882   60.5819 C   0  0  0  0  0  0  0  0  0  0  0  0
  -36.5993   57.5032   59.4997 C   0  0  0  0  0  0  0  0  0  0  0  0
  -35.5904   56.7034   58.6835 C   0  0  0  0  0  0  0  0  0  0  0  0
  -34.1656   56.8019   59.1961 C   0  0  0  0  0  0  0  0  0  0  0  0
  -33.8563   55.9004   60.3947 C   0  0  0  0  0  0  0  0  0  0  0  0
  -33.0343   56.5548   61.5071 C   0  0  0  0  0  0  0  0  0  0  0  0
  -33.6021   57.8779   61.9254 C   0  0  0  0  0  0  0  0  0  0  0  0
  -32.9213   58.9500   62.2808 C   0  0  0  0  0  0  0  0  0  0  0  0
  -31.4312   59.0701   62.3394 C   0  0  0  0  0  0  0  0  0  0  0  0
  -30.9210   60.3309   61.6474 C   0  0  0  0  0  0  0  0  0  0  0  0
  -29.7027   60.9427   62.3165 C   0  0  0  0  0  0  0  0  0  0  0  0
  -29.5221   62.4214   62.0196 C   0  0  0  0  0  0  0  0  0  0  0  0
  -30.5522   63.3259   62.6757 C   0  0  0  0  0  0  0  0  0  0  0  0
  -30.5278   63.2685   64.1955 C   0  0  0  0  0  0  0  0  0  0  0  0
  -31.8718   63.5214   64.8492 C   0  0  0  0  0  0  0  0  0  0  0  0
  -32.0672   64.9599   65.2395 C   0  0  0  0  0  0  0  0  0  0  0  0
 21 22  1  0  0  0
  4  5  2  0  0  0
 25 24  1  0  0  0
 25 26  2  0  0  0
 25 27  1  0  0  0
 25 29  1  0  0  0
 22 20  1  0  0  0
  3  5  1  0  0  0
  3  2  1  0  0  0
 20 19  1  0  0  0
 24 23  1  0  0  0
 19 18  1  0  0  0
 18 17  1  0  0  0
 27 28  1  0  0  0
 17 16  1  0  0  0
 29 30  1  0  0  0
 16 15  1  0  0  0
 34 35  1  0  0  0
 34 36  1  0  0  0
 15 14  1  0  0  0
 31 32  1  0  0  0
 31 33  1  0  0  0
 14 13  1  0  0  0
 37  1  1  0  0  0
 37 39  1  0  0  0
 13 12  1  0  0  0
 38 39  2  0  0  0
 12 11  1  0  0  0
 11 10  1  0  0  0
 10  9  1  0  0  0
  9  8  1  0  0  0
  8  7  1  0  0  0
  7  6  1  0  0  0
  6  5  1  0  0  0
  2  1  1  0  0  0
  1 23  1  0  0  0
 30 32  1  0  0  0
 32 35  1  0  0  0
 39 40  1  0  0  0
 40 41  1  0  0  0
 41 42  1  0  0  0
 42 43  1  0  0  0
 43 44  1  0  0  0
 44 45  1  0  0  0
 45 46  1  0  0  0
 46 47  1  0  0  0
 47 48  2  0  0  0
 48 49  1  0  0  0
 49 50  1  0  0  0
 50 51  1  0  0  0
 51 52  1  0  0  0
 52 53  1  0  0  0
 53 54  1  0  0  0
 54 55  1  0  0  0
 55 56  1  0  0  0
M  CHG 1  26  -1
M  END
> <minimizedAffinity>
-8.76807

> <CNNscore>
0.5615807176

> <CNNaffinity>
6.9556784630

> <CNN_VS>
3.9061748981

> <CNNaffinity_variance>
0.5236994624

$$$$
/media/chris/experiments/cd1a-new-docking/inputs/ligands/7sh4_ligand.pdb


 56 55  0  0  0  0  0  0  0  0999 V2000
  -39.1531   59.9392   65.2472 C   0  0  0  0  0  0  0  0  0  0  0  0
  -40.4635   59.8433   65.9761 C   0  0  0  0  0  0  0  0  0  0  0  0
  -40.9784   58.5485   65.6000 O   0  0  0  0  0  0  0  0  0  0  0  0
  -42.5401   57.5295   66.8336 O   0  0  0  0  0  0  0  0  0  0  0  0
  -42.2380   58.2765   65.9424 C   0  0  0  0  0  0  0  0  0  0  0  0
  -43.2065   59.1149   65.1587 C   0  0  0  0  0  0  0  0  0  0  0  0
  -44.6624   58.8945   65.5330 C   0  0  0  0  0  0  0  0  0  0  0  0
  -45.3241   57.8146   64.7032 C   0  0  0  0  0  0  0  0  0  0  0  0
  -46.7498   58.1245   64.3070 C   0  0  0  0  0  0  0  0  0  0  0  0
  -47.7388   57.9113   65.4350 C   0  0  0  0  0  0  0  0  0  0  0  0
  -48.7590   59.0178   65.5476 C   0  0  0  0  0  0  0  0  0  0  0  0
  -48.4589   60.1885   64.6492 C   0  0  0  0  0  0  0  0  0  0  0  0
  -49.4449   60.3411   63.5124 C   0  0  0  0  0  0  0  0  0  0  0  0
  -50.7859   59.7018   63.8109 C   0  0  0  0  0  0  0  0  0  0  0  0
  -51.3344   58.8586   62.6789 C   0  0  0  0  0  0  0  0  0  0  0  0
  -50.2801   58.4258   61.6664 C   0  0  0  0  0  0  0  0  0  0  0  0
  -50.7376   57.3198   60.7349 C   0  0  0  0  0  0  0  0  0  0  0  0
  -49.7649   57.0416   59.6072 C   0  0  0  0  0  0  0  0  0  0  0  0
  -48.4487   57.7953   59.7367 C   0  0  0  0  0  0  0  0  0  0  0  0
  -47.2782   57.0928   59.0720 C   0  0  0  0  0  0  0  0  0  0  0  0
  -47.4764   55.7103   56.9779 C   0  0  0  0  0  0  0  0  0  0  0  0
  -47.3130   57.0979   57.5555 C   0  0  0  0  0  0  0  0  0  0  0  0
  -38.0020   60.2021   66.1840 C   0  0  0  0  0  0  0  0  0  0  0  0
  -37.5133   61.5428   65.9556 O   0  0  0  0  0  0  0  0  0  0  0  0
  -36.0575   61.8462   65.3637 P   0  0  0  0  0  0  0  0  0  0  0  0
  -35.1650   60.7321   65.7495 O   0  0  0  0  0  0  0  0  0  0  0  0
  -36.2036   62.1766   63.9256 O   0  0  0  0  0  0  0  0  0  0  0  0
  -36.5067   61.3918   63.4428 H   0  0  0  0  0  0  0  0  0  0  0  0
  -35.5593   63.1589   66.1197 O   0  0  0  0  0  0  0  0  0  0  0  0
  -34.1597   63.5068   66.1151 C   0  0  0  0  0  0  0  0  0  0  0  0
  -33.9782   65.0276   67.9581 O   0  0  0  0  0  0  0  0  0  0  0  0
  -34.0272   64.9515   66.5303 C   0  0  0  0  0  0  0  0  0  0  0  0
  -34.7647   64.6003   68.3318 H   0  0  0  0  0  0  0  0  0  0  0  0
  -31.6610   64.7887   66.0906 O   0  0  0  0  0  0  0  0  0  0  0  0
  -32.8090   65.6124   65.9311 C   0  0  0  0  0  0  0  0  0  0  0  0
  -30.8901   65.2294   65.7002 H   0  0  0  0  0  0  0  0  0  0  0  0
  -39.2690   60.9840   64.2250 O   0  0  0  0  0  0  0  0  0  0  0  0
  -41.3283   61.5354   63.5071 O   0  0  0  0  0  0  0  0  0  0  0  0
  -40.3166   60.9007   63.3827 C   0  0  0  0  0  0  0  0  0  0  0  0
  -40.0618   59.9377   62.2647 C   0  0  0  0  0  0  0  0  0  0  0  0
  -40.4425   60.5358   60.9141 C   0  0  0  0  0  0  0  0  0  0  0  0
  -39.7111   59.9132   59.7362 C   0  0  0  0  0  0  0  0  0  0  0  0
  -38.2161   59.7325   59.9732 C   0  0  0  0  0  0  0  0  0  0  0  0
  -37.6959   58.3543   59.6093 C   0  0  0  0  0  0  0  0  0  0  0  0
  -36.9347   58.2909   58.2821 C   0  0  0  0  0  0  0  0  0  0  0  0
  -36.3721   56.9151   57.9187 C   0  0  0  0  0  0  0  0  0  0  0  0
  -36.4776   55.9435   59.0557 C   0  0  0  0  0  0  0  0  0  0  0  0
  -35.4822   55.4600   59.7731 C   0  0  0  0  0  0  0  0  0  0  0  0
  -34.0317   55.7839   59.6015 C   0  0  0  0  0  0  0  0  0  0  0  0
  -33.3460   56.1043   60.9266 C   0  0  0  0  0  0  0  0  0  0  0  0
  -33.4167   57.5720   61.3101 C   0  0  0  0  0  0  0  0  0  0  0  0
  -33.1620   57.8298   62.7852 C   0  0  0  0  0  0  0  0  0  0  0  0
  -34.3509   58.4029   63.5388 C   0  0  0  0  0  0  0  0  0  0  0  0
  -35.5840   58.5942   62.6689 C   0  0  0  0  0  0  0  0  0  0  0  0
  -36.7515   57.7014   63.0399 C   0  0  0  0  0  0  0  0  0  0  0  0
  -36.6713   57.1969   64.4538 C   0  0  0  0  0  0  0  0  0  0  0  0
 21 22  1  0  0  0
  4  5  2  0  0  0
 25 24  1  0  0  0
 25 26  2  0  0  0
 25 27  1  0  0  0
 25 29  1  0  0  0
 22 20  1  0  0  0
  3  5  1  0  0  0
  3  2  1  0  0  0
 20 19  1  0  0  0
 24 23  1  0  0  0
 19 18  1  0  0  0
 18 17  1  0  0  0
 27 28  1  0  0  0
 17 16  1  0  0  0
 29 30  1  0  0  0
 16 15  1  0  0  0
 34 35  1  0  0  0
 34 36  1  0  0  0
 15 14  1  0  0  0
 31 32  1  0  0  0
 31 33  1  0  0  0
 14 13  1  0  0  0
 37  1  1  0  0  0
 37 39  1  0  0  0
 13 12  1  0  0  0
 38 39  2  0  0  0
 12 11  1  0  0  0
 11 10  1  0  0  0
 10  9  1  0  0  0
  9  8  1  0  0  0
  8  7  1  0  0  0
  7  6  1  0  0  0
  6  5  1  0  0  0
  2  1  1  0  0  0
  1 23  1  0  0  0
 30 32  1  0  0  0
 32 35  1  0  0  0
 39 40  1  0  0  0
 40 41  1  0  0  0
 41 42  1  0  0  0
 42 43  1  0  0  0
 43 44  1  0  0  0
 44 45  1  0  0  0
 45 46  1  0  0  0
 46 47  1  0  0  0
 47 48  2  0  0  0
 48 49  1  0  0  0
 49 50  1  0  0  0
 50 51  1  0  0  0
 51 52  1  0  0  0
 52 53  1  0  0  0
 53 54  1  0  0  0
 54 55  1  0  0  0
 55 56  1  0  0  0
M  CHG 1  26  -1
M  END
> <minimizedAffinity>
-8.81898

> <CNNscore>
0.5440340638

> <CNNaffinity>
7.4718079567

> <CNN_VS>
4.0649180412

> <CNNaffinity_variance>
0.7432180643

$$$$
