/media/chris/experiments/cd1a-new-docking/inputs/ligands/7sh4_ligand.pdb


 56 55  0  0  0  0  0  0  0  0999 V2000
  -35.0589   59.4199   63.7663 C   0  0  0  0  0  0  0  0  0  0  0  0
  -36.5523   59.2567   63.7936 C   0  0  0  0  0  0  0  0  0  0  0  0
  -36.9412   59.8123   65.0676 O   0  0  0  0  0  0  0  0  0  0  0  0
  -38.6227   60.9794   65.9673 O   0  0  0  0  0  0  0  0  0  0  0  0
  -38.2287   60.1215   65.2241 C   0  0  0  0  0  0  0  0  0  0  0  0
  -39.0921   59.3510   64.2671 C   0  0  0  0  0  0  0  0  0  0  0  0
  -40.4063   60.0343   63.9289 C   0  0  0  0  0  0  0  0  0  0  0  0
  -41.5372   59.6160   64.8446 C   0  0  0  0  0  0  0  0  0  0  0  0
  -41.3012   58.3061   65.5616 C   0  0  0  0  0  0  0  0  0  0  0  0
  -42.5857   57.5981   65.9422 C   0  0  0  0  0  0  0  0  0  0  0  0
  -43.5902   58.5069   66.6075 C   0  0  0  0  0  0  0  0  0  0  0  0
  -44.5915   59.0840   65.6422 C   0  0  0  0  0  0  0  0  0  0  0  0
  -45.2802   58.0376   64.7945 C   0  0  0  0  0  0  0  0  0  0  0  0
  -46.3259   57.2563   65.5641 C   0  0  0  0  0  0  0  0  0  0  0  0
  -47.7497   57.5374   65.1317 C   0  0  0  0  0  0  0  0  0  0  0  0
  -47.8826   58.7229   64.1826 C   0  0  0  0  0  0  0  0  0  0  0  0
  -49.2309   59.4143   64.2454 C   0  0  0  0  0  0  0  0  0  0  0  0
  -49.7785   59.7907   62.8839 C   0  0  0  0  0  0  0  0  0  0  0  0
  -51.1092   59.1278   62.5566 C   0  0  0  0  0  0  0  0  0  0  0  0
  -50.9656   57.7425   61.9521 C   0  0  0  0  0  0  0  0  0  0  0  0
  -50.1782   57.5892   59.5662 C   0  0  0  0  0  0  0  0  0  0  0  0
  -49.7774   57.5751   61.0239 C   0  0  0  0  0  0  0  0  0  0  0  0
  -34.6378   60.8318   64.0841 C   0  0  0  0  0  0  0  0  0  0  0  0
  -35.1495   61.7118   63.0583 O   0  0  0  0  0  0  0  0  0  0  0  0
  -34.7715   63.2652   62.9804 P   0  0  0  0  0  0  0  0  0  0  0  0
  -33.8457   63.4546   61.8428 O   0  0  0  0  0  0  0  0  0  0  0  0
  -36.0300   64.0486   63.0125 O   0  0  0  0  0  0  0  0  0  0  0  0
  -36.5378   63.8783   62.2037 H   0  0  0  0  0  0  0  0  0  0  0  0
  -33.9687   63.5725   64.3234 O   0  0  0  0  0  0  0  0  0  0  0  0
  -34.5378   64.4455   65.3204 C   0  0  0  0  0  0  0  0  0  0  0  0
  -34.2914   64.6713   67.6933 O   0  0  0  0  0  0  0  0  0  0  0  0
  -34.5261   63.7250   66.6461 C   0  0  0  0  0  0  0  0  0  0  0  0
  -33.4655   65.1489   67.5183 H   0  0  0  0  0  0  0  0  0  0  0  0
  -36.7718   63.2625   65.8971 O   0  0  0  0  0  0  0  0  0  0  0  0
  -35.8093   62.9718   66.9025 C   0  0  0  0  0  0  0  0  0  0  0  0
  -37.5878   62.7704   66.0786 H   0  0  0  0  0  0  0  0  0  0  0  0
  -34.5718   58.9925   62.4510 O   0  0  0  0  0  0  0  0  0  0  0  0
  -32.7821   57.9409   63.3178 O   0  0  0  0  0  0  0  0  0  0  0  0
  -33.5830   58.0783   62.4337 C   0  0  0  0  0  0  0  0  0  0  0  0
  -33.6132   57.2434   61.1911 C   0  0  0  0  0  0  0  0  0  0  0  0
  -34.9267   56.4783   61.0636 C   0  0  0  0  0  0  0  0  0  0  0  0
  -35.5114   56.4870   59.6608 C   0  0  0  0  0  0  0  0  0  0  0  0
  -36.6914   57.4383   59.4979 C   0  0  0  0  0  0  0  0  0  0  0  0
  -37.7116   57.3532   60.6178 C   0  0  0  0  0  0  0  0  0  0  0  0
  -38.4807   58.6515   60.8785 C   0  0  0  0  0  0  0  0  0  0  0  0
  -38.8141   59.4729   59.6313 C   0  0  0  0  0  0  0  0  0  0  0  0
  -40.0784   60.2619   59.7958 C   0  0  0  0  0  0  0  0  0  0  0  0
  -41.1974   60.1070   59.1152 C   0  0  0  0  0  0  0  0  0  0  0  0
  -41.4398   59.1043   58.0316 C   0  0  0  0  0  0  0  0  0  0  0  0
  -42.6124   59.4888   57.1341 C   0  0  0  0  0  0  0  0  0  0  0  0
  -43.7706   58.5080   57.1909 C   0  0  0  0  0  0  0  0  0  0  0  0
  -44.3527   58.3316   58.5827 C   0  0  0  0  0  0  0  0  0  0  0  0
  -45.5360   57.3808   58.6545 C   0  0  0  0  0  0  0  0  0  0  0  0
  -46.6584   57.7369   57.6916 C   0  0  0  0  0  0  0  0  0  0  0  0
  -47.2945   56.5426   57.0085 C   0  0  0  0  0  0  0  0  0  0  0  0
  -47.5729   55.4103   57.9572 C   0  0  0  0  0  0  0  0  0  0  0  0
 21 22  1  0  0  0
  4  5  2  0  0  0
 25 24  1  0  0  0
 25 26  2  0  0  0
 25 27  1  0  0  0
 25 29  1  0  0  0
 22 20  1  0  0  0
  3  5  1  0  0  0
  3  2  1  0  0  0
 20 19  1  0  0  0
 24 23  1  0  0  0
 19 18  1  0  0  0
 18 17  1  0  0  0
 27 28  1  0  0  0
 17 16  1  0  0  0
 29 30  1  0  0  0
 16 15  1  0  0  0
 34 35  1  0  0  0
 34 36  1  0  0  0
 15 14  1  0  0  0
 31 32  1  0  0  0
 31 33  1  0  0  0
 14 13  1  0  0  0
 37  1  1  0  0  0
 37 39  1  0  0  0
 13 12  1  0  0  0
 38 39  2  0  0  0
 12 11  1  0  0  0
 11 10  1  0  0  0
 10  9  1  0  0  0
  9  8  1  0  0  0
  8  7  1  0  0  0
  7  6  1  0  0  0
  6  5  1  0  0  0
  2  1  1  0  0  0
  1 23  1  0  0  0
 30 32  1  0  0  0
 32 35  1  0  0  0
 39 40  1  0  0  0
 40 41  1  0  0  0
 41 42  1  0  0  0
 42 43  1  0  0  0
 43 44  1  0  0  0
 44 45  1  0  0  0
 45 46  1  0  0  0
 46 47  1  0  0  0
 47 48  2  0  0  0
 48 49  1  0  0  0
 49 50  1  0  0  0
 50 51  1  0  0  0
 51 52  1  0  0  0
 52 53  1  0  0  0
 53 54  1  0  0  0
 54 55  1  0  0  0
 55 56  1  0  0  0
M  CHG 1  26  -1
M  END
> <minimizedAffinity>
-8.23194

> <CNNscore>
0.6560119987

> <CNNaffinity>
7.9503602982

> <CNN_VS>
5.2155318260

> <CNNaffinity_variance>
0.5731811523

$$$$
/media/chris/experiments/cd1a-new-docking/inputs/ligands/7sh4_ligand.pdb


 56 55  0  0  0  0  0  0  0  0999 V2000
  -38.3233   59.7742   64.4569 C   0  0  0  0  0  0  0  0  0  0  0  0
  -39.1235   59.5906   65.7153 C   0  0  0  0  0  0  0  0  0  0  0  0
  -40.1286   60.6239   65.6439 O   0  0  0  0  0  0  0  0  0  0  0  0
  -41.8212   60.8333   64.1982 O   0  0  0  0  0  0  0  0  0  0  0  0
  -41.3127   60.2808   65.1362 C   0  0  0  0  0  0  0  0  0  0  0  0
  -41.8542   59.0504   65.8054 C   0  0  0  0  0  0  0  0  0  0  0  0
  -43.2803   58.7058   65.4105 C   0  0  0  0  0  0  0  0  0  0  0  0
  -44.2719   58.9423   66.5301 C   0  0  0  0  0  0  0  0  0  0  0  0
  -45.2882   57.8361   66.7010 C   0  0  0  0  0  0  0  0  0  0  0  0
  -46.6809   58.3511   67.0028 C   0  0  0  0  0  0  0  0  0  0  0  0
  -47.2941   59.1137   65.8539 C   0  0  0  0  0  0  0  0  0  0  0  0
  -47.9939   58.2220   64.8626 C   0  0  0  0  0  0  0  0  0  0  0  0
  -49.5016   58.2665   64.9749 C   0  0  0  0  0  0  0  0  0  0  0  0
  -50.0911   59.5536   64.4344 C   0  0  0  0  0  0  0  0  0  0  0  0
  -51.1718   59.3491   63.3935 C   0  0  0  0  0  0  0  0  0  0  0  0
  -50.6348   59.0612   61.9962 C   0  0  0  0  0  0  0  0  0  0  0  0
  -50.9882   57.6825   61.4723 C   0  0  0  0  0  0  0  0  0  0  0  0
  -50.3289   57.3544   60.1484 C   0  0  0  0  0  0  0  0  0  0  0  0
  -49.3448   56.1956   60.2272 C   0  0  0  0  0  0  0  0  0  0  0  0
  -48.5177   56.0138   58.9671 C   0  0  0  0  0  0  0  0  0  0  0  0
  -46.9962   57.9119   58.3204 C   0  0  0  0  0  0  0  0  0  0  0  0
  -47.1153   56.5876   59.0399 C   0  0  0  0  0  0  0  0  0  0  0  0
  -38.3429   61.2028   63.9769 C   0  0  0  0  0  0  0  0  0  0  0  0
  -37.1287   61.8558   64.4103 O   0  0  0  0  0  0  0  0  0  0  0  0
  -36.0377   62.4259   63.3873 P   0  0  0  0  0  0  0  0  0  0  0  0
  -34.7716   61.6963   63.6147 O   0  0  0  0  0  0  0  0  0  0  0  0
  -36.6304   62.4173   62.0282 O   0  0  0  0  0  0  0  0  0  0  0  0
  -36.7776   61.5012   61.7454 H   0  0  0  0  0  0  0  0  0  0  0  0
  -35.8121   63.9457   63.8138 O   0  0  0  0  0  0  0  0  0  0  0  0
  -35.7832   64.3066   65.2099 C   0  0  0  0  0  0  0  0  0  0  0  0
  -33.7602   65.2324   66.1003 O   0  0  0  0  0  0  0  0  0  0  0  0
  -34.4072   64.0051   65.7509 C   0  0  0  0  0  0  0  0  0  0  0  0
  -33.7396   65.8184   65.3276 H   0  0  0  0  0  0  0  0  0  0  0  0
  -35.7063   62.4223   67.0258 O   0  0  0  0  0  0  0  0  0  0  0  0
  -34.4484   63.0799   66.9434 C   0  0  0  0  0  0  0  0  0  0  0  0
  -35.7136   61.8335   67.7966 H   0  0  0  0  0  0  0  0  0  0  0  0
  -38.8437   58.8542   63.4407 O   0  0  0  0  0  0  0  0  0  0  0  0
  -40.0228   59.8450   61.8011 O   0  0  0  0  0  0  0  0  0  0  0  0
  -39.0050   59.3458   62.1973 C   0  0  0  0  0  0  0  0  0  0  0  0
  -37.7602   59.2126   61.3759 C   0  0  0  0  0  0  0  0  0  0  0  0
  -37.1000   57.8524   61.5783 C   0  0  0  0  0  0  0  0  0  0  0  0
  -37.3022   56.8905   60.4191 C   0  0  0  0  0  0  0  0  0  0  0  0
  -37.4804   57.5854   59.0741 C   0  0  0  0  0  0  0  0  0  0  0  0
  -36.1760   57.9191   58.3744 C   0  0  0  0  0  0  0  0  0  0  0  0
  -35.4327   56.7087   57.8020 C   0  0  0  0  0  0  0  0  0  0  0  0
  -33.9531   56.6142   58.1803 C   0  0  0  0  0  0  0  0  0  0  0  0
  -33.7254   55.6996   59.3463 C   0  0  0  0  0  0  0  0  0  0  0  0
  -33.6019   56.0521   60.6112 C   0  0  0  0  0  0  0  0  0  0  0  0
  -33.6652   57.4467   61.1490 C   0  0  0  0  0  0  0  0  0  0  0  0
  -32.6134   57.7047   62.2240 C   0  0  0  0  0  0  0  0  0  0  0  0
  -32.3724   59.1785   62.4997 C   0  0  0  0  0  0  0  0  0  0  0  0
  -30.9901   59.6574   62.0908 C   0  0  0  0  0  0  0  0  0  0  0  0
  -30.9290   61.1152   61.6658 C   0  0  0  0  0  0  0  0  0  0  0  0
  -31.4167   62.0792   62.7366 C   0  0  0  0  0  0  0  0  0  0  0  0
  -31.0071   63.5208   62.5091 C   0  0  0  0  0  0  0  0  0  0  0  0
  -32.1767   64.4650   62.5120 C   0  0  0  0  0  0  0  0  0  0  0  0
 21 22  1  0  0  0
  4  5  2  0  0  0
 25 24  1  0  0  0
 25 26  2  0  0  0
 25 27  1  0  0  0
 25 29  1  0  0  0
 22 20  1  0  0  0
  3  5  1  0  0  0
  3  2  1  0  0  0
 20 19  1  0  0  0
 24 23  1  0  0  0
 19 18  1  0  0  0
 18 17  1  0  0  0
 27 28  1  0  0  0
 17 16  1  0  0  0
 29 30  1  0  0  0
 16 15  1  0  0  0
 34 35  1  0  0  0
 34 36  1  0  0  0
 15 14  1  0  0  0
 31 32  1  0  0  0
 31 33  1  0  0  0
 14 13  1  0  0  0
 37  1  1  0  0  0
 37 39  1  0  0  0
 13 12  1  0  0  0
 38 39  2  0  0  0
 12 11  1  0  0  0
 11 10  1  0  0  0
 10  9  1  0  0  0
  9  8  1  0  0  0
  8  7  1  0  0  0
  7  6  1  0  0  0
  6  5  1  0  0  0
  2  1  1  0  0  0
  1 23  1  0  0  0
 30 32  1  0  0  0
 32 35  1  0  0  0
 39 40  1  0  0  0
 40 41  1  0  0  0
 41 42  1  0  0  0
 42 43  1  0  0  0
 43 44  1  0  0  0
 44 45  1  0  0  0
 45 46  1  0  0  0
 46 47  1  0  0  0
 47 48  2  0  0  0
 48 49  1  0  0  0
 49 50  1  0  0  0
 50 51  1  0  0  0
 51 52  1  0  0  0
 52 53  1  0  0  0
 53 54  1  0  0  0
 54 55  1  0  0  0
 55 56  1  0  0  0
M  CHG 1  26  -1
M  END
> <minimizedAffinity>
-8.06814

> <CNNscore>
0.5985772610

> <CNNaffinity>
7.3291893005

> <CNN_VS>
4.3870859146

> <CNNaffinity_variance>
0.4774406552

$$$$
/media/chris/experiments/cd1a-new-docking/inputs/ligands/7sh4_ligand.pdb


 56 55  0  0  0  0  0  0  0  0999 V2000
  -38.3901   60.9474   64.2092 C   0  0  0  0  0  0  0  0  0  0  0  0
  -38.1543   60.5309   62.7850 C   0  0  0  0  0  0  0  0  0  0  0  0
  -39.4625   60.6009   62.1795 O   0  0  0  0  0  0  0  0  0  0  0  0
  -40.5875   60.2272   60.2837 O   0  0  0  0  0  0  0  0  0  0  0  0
  -39.5651   60.1939   60.9139 C   0  0  0  0  0  0  0  0  0  0  0  0
  -38.2238   59.8142   60.3556 C   0  0  0  0  0  0  0  0  0  0  0  0
  -38.2816   58.7547   59.2682 C   0  0  0  0  0  0  0  0  0  0  0  0
  -37.0058   58.6778   58.4563 C   0  0  0  0  0  0  0  0  0  0  0  0
  -36.9660   57.5303   57.4728 C   0  0  0  0  0  0  0  0  0  0  0  0
  -35.9422   56.4735   57.8349 C   0  0  0  0  0  0  0  0  0  0  0  0
  -36.5231   55.3332   58.6349 C   0  0  0  0  0  0  0  0  0  0  0  0
  -35.6200   54.8766   59.7499 C   0  0  0  0  0  0  0  0  0  0  0  0
  -34.5239   55.8659   60.0780 C   0  0  0  0  0  0  0  0  0  0  0  0
  -34.7539   56.5789   61.3952 C   0  0  0  0  0  0  0  0  0  0  0  0
  -36.2101   56.8640   61.6975 C   0  0  0  0  0  0  0  0  0  0  0  0
  -36.4275   57.6804   62.9664 C   0  0  0  0  0  0  0  0  0  0  0  0
  -35.5156   57.2904   64.1137 C   0  0  0  0  0  0  0  0  0  0  0  0
  -34.3986   58.2839   64.3594 C   0  0  0  0  0  0  0  0  0  0  0  0
  -34.5331   59.5660   63.5498 C   0  0  0  0  0  0  0  0  0  0  0  0
  -33.2114   60.0898   63.0169 C   0  0  0  0  0  0  0  0  0  0  0  0
  -30.9476   59.5491   62.0583 C   0  0  0  0  0  0  0  0  0  0  0  0
  -32.3503   59.0511   62.3234 C   0  0  0  0  0  0  0  0  0  0  0  0
  -37.1572   61.5475   64.8351 C   0  0  0  0  0  0  0  0  0  0  0  0
  -36.9753   62.8837   64.3157 O   0  0  0  0  0  0  0  0  0  0  0  0
  -35.5432   63.5935   64.2297 P   0  0  0  0  0  0  0  0  0  0  0  0
  -35.0956   63.5521   62.8208 O   0  0  0  0  0  0  0  0  0  0  0  0
  -35.6382   64.9083   64.9085 O   0  0  0  0  0  0  0  0  0  0  0  0
  -36.2311   65.4893   64.4066 H   0  0  0  0  0  0  0  0  0  0  0  0
  -34.5625   62.6708   65.0839 O   0  0  0  0  0  0  0  0  0  0  0  0
  -33.6462   63.2682   66.0238 C   0  0  0  0  0  0  0  0  0  0  0  0
  -32.4489   63.1117   63.9538 O   0  0  0  0  0  0  0  0  0  0  0  0
  -32.3690   63.6053   65.2943 C   0  0  0  0  0  0  0  0  0  0  0  0
  -32.6315   62.1592   63.9704 H   0  0  0  0  0  0  0  0  0  0  0  0
  -31.4649   65.4866   66.5033 O   0  0  0  0  0  0  0  0  0  0  0  0
  -32.0851   65.0882   65.2875 C   0  0  0  0  0  0  0  0  0  0  0  0
  -31.2907   66.4405   66.4801 H   0  0  0  0  0  0  0  0  0  0  0  0
  -38.8646   59.7801   64.9590 O   0  0  0  0  0  0  0  0  0  0  0  0
  -40.4222   60.8787   66.1538 O   0  0  0  0  0  0  0  0  0  0  0  0
  -40.0581   59.8928   65.5730 C   0  0  0  0  0  0  0  0  0  0  0  0
  -40.8820   58.6508   65.4289 C   0  0  0  0  0  0  0  0  0  0  0  0
  -42.1763   58.7426   66.2309 C   0  0  0  0  0  0  0  0  0  0  0  0
  -42.9009   57.4157   66.3858 C   0  0  0  0  0  0  0  0  0  0  0  0
  -44.2893   57.4020   65.7566 C   0  0  0  0  0  0  0  0  0  0  0  0
  -45.2429   58.4259   66.3438 C   0  0  0  0  0  0  0  0  0  0  0  0
  -45.9670   59.2897   65.3071 C   0  0  0  0  0  0  0  0  0  0  0  0
  -47.4803   59.4076   65.4999 C   0  0  0  0  0  0  0  0  0  0  0  0
  -48.1091   60.3200   64.4899 C   0  0  0  0  0  0  0  0  0  0  0  0
  -49.0639   60.0094   63.6348 C   0  0  0  0  0  0  0  0  0  0  0  0
  -49.7235   58.6739   63.4951 C   0  0  0  0  0  0  0  0  0  0  0  0
  -50.8493   58.6852   62.4651 C   0  0  0  0  0  0  0  0  0  0  0  0
  -50.8756   57.4533   61.5774 C   0  0  0  0  0  0  0  0  0  0  0  0
  -50.2263   57.6651   60.2206 C   0  0  0  0  0  0  0  0  0  0  0  0
  -48.7381   57.9680   60.2752 C   0  0  0  0  0  0  0  0  0  0  0  0
  -48.0388   57.8128   58.9334 C   0  0  0  0  0  0  0  0  0  0  0  0
  -46.8344   56.8927   58.9622 C   0  0  0  0  0  0  0  0  0  0  0  0
  -45.5516   57.6229   59.2466 C   0  0  0  0  0  0  0  0  0  0  0  0
 21 22  1  0  0  0
  4  5  2  0  0  0
 25 24  1  0  0  0
 25 26  2  0  0  0
 25 27  1  0  0  0
 25 29  1  0  0  0
 22 20  1  0  0  0
  3  5  1  0  0  0
  3  2  1  0  0  0
 20 19  1  0  0  0
 24 23  1  0  0  0
 19 18  1  0  0  0
 18 17  1  0  0  0
 27 28  1  0  0  0
 17 16  1  0  0  0
 29 30  1  0  0  0
 16 15  1  0  0  0
 34 35  1  0  0  0
 34 36  1  0  0  0
 15 14  1  0  0  0
 31 32  1  0  0  0
 31 33  1  0  0  0
 14 13  1  0  0  0
 37  1  1  0  0  0
 37 39  1  0  0  0
 13 12  1  0  0  0
 38 39  2  0  0  0
 12 11  1  0  0  0
 11 10  1  0  0  0
 10  9  1  0  0  0
  9  8  1  0  0  0
  8  7  1  0  0  0
  7  6  1  0  0  0
  6  5  1  0  0  0
  2  1  1  0  0  0
  1 23  1  0  0  0
 30 32  1  0  0  0
 32 35  1  0  0  0
 39 40  1  0  0  0
 40 41  1  0  0  0
 41 42  1  0  0  0
 42 43  1  0  0  0
 43 44  1  0  0  0
 44 45  1  0  0  0
 45 46  1  0  0  0
 46 47  1  0  0  0
 47 48  2  0  0  0
 48 49  1  0  0  0
 49 50  1  0  0  0
 50 51  1  0  0  0
 51 52  1  0  0  0
 52 53  1  0  0  0
 53 54  1  0  0  0
 54 55  1  0  0  0
 55 56  1  0  0  0
M  CHG 1  26  -1
M  END
> <minimizedAffinity>
-8.28026

> <CNNscore>
0.5850100517

> <CNNaffinity>
7.5004072189

> <CNN_VS>
4.3878135681

> <CNNaffinity_variance>
0.8652411699

$$$$
/media/chris/experiments/cd1a-new-docking/inputs/ligands/7sh4_ligand.pdb


 56 55  0  0  0  0  0  0  0  0999 V2000
  -38.1384   60.8729   64.0133 C   0  0  0  0  0  0  0  0  0  0  0  0
  -37.7330   60.6389   62.5855 C   0  0  0  0  0  0  0  0  0  0  0  0
  -37.2565   59.2766   62.5765 O   0  0  0  0  0  0  0  0  0  0  0  0
  -37.9403   57.2821   61.8325 O   0  0  0  0  0  0  0  0  0  0  0  0
  -37.7783   58.4601   61.6606 C   0  0  0  0  0  0  0  0  0  0  0  0
  -38.2443   59.2243   60.4549 C   0  0  0  0  0  0  0  0  0  0  0  0
  -37.3681   59.0412   59.2272 C   0  0  0  0  0  0  0  0  0  0  0  0
  -37.9762   58.1012   58.2079 C   0  0  0  0  0  0  0  0  0  0  0  0
  -36.9619   57.3277   57.3963 C   0  0  0  0  0  0  0  0  0  0  0  0
  -35.8158   56.7942   58.2316 C   0  0  0  0  0  0  0  0  0  0  0  0
  -36.2411   55.7285   59.2120 C   0  0  0  0  0  0  0  0  0  0  0  0
  -35.2429   55.5151   60.3190 C   0  0  0  0  0  0  0  0  0  0  0  0
  -33.8842   56.1117   60.0255 C   0  0  0  0  0  0  0  0  0  0  0  0
  -33.7429   57.5288   60.5433 C   0  0  0  0  0  0  0  0  0  0  0  0
  -33.8834   57.6545   62.0458 C   0  0  0  0  0  0  0  0  0  0  0  0
  -32.9113   58.6463   62.6746 C   0  0  0  0  0  0  0  0  0  0  0  0
  -31.8313   59.1345   61.7284 C   0  0  0  0  0  0  0  0  0  0  0  0
  -31.3643   60.5450   62.0244 C   0  0  0  0  0  0  0  0  0  0  0  0
  -32.4612   61.4496   62.5683 C   0  0  0  0  0  0  0  0  0  0  0  0
  -32.4657   62.8372   61.9522 C   0  0  0  0  0  0  0  0  0  0  0  0
  -30.9378   64.8152   61.6538 C   0  0  0  0  0  0  0  0  0  0  0  0
  -31.5478   63.8361   62.6311 C   0  0  0  0  0  0  0  0  0  0  0  0
  -36.9543   60.8700   64.9458 C   0  0  0  0  0  0  0  0  0  0  0  0
  -37.1282   61.9217   65.9216 O   0  0  0  0  0  0  0  0  0  0  0  0
  -36.3157   63.2997   65.8659 P   0  0  0  0  0  0  0  0  0  0  0  0
  -36.3065   63.7694   64.4637 O   0  0  0  0  0  0  0  0  0  0  0  0
  -36.8573   64.1975   66.9143 O   0  0  0  0  0  0  0  0  0  0  0  0
  -37.7696   64.4409   66.6920 H   0  0  0  0  0  0  0  0  0  0  0  0
  -34.8190   62.9241   66.2678 O   0  0  0  0  0  0  0  0  0  0  0  0
  -33.7212   63.3385   65.4293 C   0  0  0  0  0  0  0  0  0  0  0  0
  -31.6310   64.3687   65.9883 O   0  0  0  0  0  0  0  0  0  0  0  0
  -33.0505   64.5255   66.0758 C   0  0  0  0  0  0  0  0  0  0  0  0
  -31.3734   63.5256   66.3929 H   0  0  0  0  0  0  0  0  0  0  0  0
  -34.1503   65.6083   64.2220 O   0  0  0  0  0  0  0  0  0  0  0  0
  -33.4696   65.8341   65.4498 C   0  0  0  0  0  0  0  0  0  0  0  0
  -34.4111   66.4590   63.8357 H   0  0  0  0  0  0  0  0  0  0  0  0
  -39.1239   59.8533   64.3862 O   0  0  0  0  0  0  0  0  0  0  0  0
  -41.0136   61.0525   64.1596 O   0  0  0  0  0  0  0  0  0  0  0  0
  -40.3321   60.2906   64.7898 C   0  0  0  0  0  0  0  0  0  0  0  0
  -40.7310   59.7000   66.1066 C   0  0  0  0  0  0  0  0  0  0  0  0
  -42.1779   59.2175   66.0874 C   0  0  0  0  0  0  0  0  0  0  0  0
  -42.3231   57.7048   66.0663 C   0  0  0  0  0  0  0  0  0  0  0  0
  -43.7574   57.2327   65.8574 C   0  0  0  0  0  0  0  0  0  0  0  0
  -44.7024   58.3213   65.3835 C   0  0  0  0  0  0  0  0  0  0  0  0
  -45.7550   57.8553   64.3736 C   0  0  0  0  0  0  0  0  0  0  0  0
  -47.2079   58.0151   64.8263 C   0  0  0  0  0  0  0  0  0  0  0  0
  -47.6534   59.4464   64.8004 C   0  0  0  0  0  0  0  0  0  0  0  0
  -48.7511   59.9195   64.2430 C   0  0  0  0  0  0  0  0  0  0  0  0
  -49.7872   59.1208   63.5172 C   0  0  0  0  0  0  0  0  0  0  0  0
  -50.1079   59.6965   62.1409 C   0  0  0  0  0  0  0  0  0  0  0  0
  -49.6600   58.8118   60.9907 C   0  0  0  0  0  0  0  0  0  0  0  0
  -50.1218   57.3700   61.1147 C   0  0  0  0  0  0  0  0  0  0  0  0
  -49.4798   56.4157   60.1214 C   0  0  0  0  0  0  0  0  0  0  0  0
  -48.7553   57.1211   58.9852 C   0  0  0  0  0  0  0  0  0  0  0  0
  -47.2456   56.9944   59.0363 C   0  0  0  0  0  0  0  0  0  0  0  0
  -46.5559   57.8374   58.0003 C   0  0  0  0  0  0  0  0  0  0  0  0
 21 22  1  0  0  0
  4  5  2  0  0  0
 25 24  1  0  0  0
 25 26  2  0  0  0
 25 27  1  0  0  0
 25 29  1  0  0  0
 22 20  1  0  0  0
  3  5  1  0  0  0
  3  2  1  0  0  0
 20 19  1  0  0  0
 24 23  1  0  0  0
 19 18  1  0  0  0
 18 17  1  0  0  0
 27 28  1  0  0  0
 17 16  1  0  0  0
 29 30  1  0  0  0
 16 15  1  0  0  0
 34 35  1  0  0  0
 34 36  1  0  0  0
 15 14  1  0  0  0
 31 32  1  0  0  0
 31 33  1  0  0  0
 14 13  1  0  0  0
 37  1  1  0  0  0
 37 39  1  0  0  0
 13 12  1  0  0  0
 38 39  2  0  0  0
 12 11  1  0  0  0
 11 10  1  0  0  0
 10  9  1  0  0  0
  9  8  1  0  0  0
  8  7  1  0  0  0
  7  6  1  0  0  0
  6  5  1  0  0  0
  2  1  1  0  0  0
  1 23  1  0  0  0
 30 32  1  0  0  0
 32 35  1  0  0  0
 39 40  1  0  0  0
 40 41  1  0  0  0
 41 42  1  0  0  0
 42 43  1  0  0  0
 43 44  1  0  0  0
 44 45  1  0  0  0
 45 46  1  0  0  0
 46 47  1  0  0  0
 47 48  2  0  0  0
 48 49  1  0  0  0
 49 50  1  0  0  0
 50 51  1  0  0  0
 51 52  1  0  0  0
 52 53  1  0  0  0
 53 54  1  0  0  0
 54 55  1  0  0  0
 55 56  1  0  0  0
M  CHG 1  26  -1
M  END
> <minimizedAffinity>
-8.19160

> <CNNscore>
0.5493159294

> <CNNaffinity>
7.3219528198

> <CNN_VS>
4.0220651627

> <CNNaffinity_variance>
0.8100609779

$$$$
/media/chris/experiments/cd1a-new-docking/inputs/ligands/7sh4_ligand.pdb


 56 55  0  0  0  0  0  0  0  0999 V2000
  -37.6016   60.5291   65.2843 C   0  0  0  0  0  0  0  0  0  0  0  0
  -38.7477   59.7438   65.8565 C   0  0  0  0  0  0  0  0  0  0  0  0
  -39.8219   60.7041   65.9400 O   0  0  0  0  0  0  0  0  0  0  0  0
  -41.4976   60.6001   64.4635 O   0  0  0  0  0  0  0  0  0  0  0  0
  -41.0245   60.3029   65.5272 C   0  0  0  0  0  0  0  0  0  0  0  0
  -41.6407   59.3423   66.5032 C   0  0  0  0  0  0  0  0  0  0  0  0
  -42.0581   58.0165   65.8896 C   0  0  0  0  0  0  0  0  0  0  0  0
  -43.2944   57.4328   66.5403 C   0  0  0  0  0  0  0  0  0  0  0  0
  -44.3643   57.0027   65.5627 C   0  0  0  0  0  0  0  0  0  0  0  0
  -44.8772   58.1419   64.7053 C   0  0  0  0  0  0  0  0  0  0  0  0
  -45.6396   59.1805   65.4914 C   0  0  0  0  0  0  0  0  0  0  0  0
  -47.1330   59.0279   65.3743 C   0  0  0  0  0  0  0  0  0  0  0  0
  -47.8342   60.2972   64.9439 C   0  0  0  0  0  0  0  0  0  0  0  0
  -49.0142   60.0332   64.0307 C   0  0  0  0  0  0  0  0  0  0  0  0
  -49.3257   58.5645   63.8324 C   0  0  0  0  0  0  0  0  0  0  0  0
  -50.5166   58.3055   62.9166 C   0  0  0  0  0  0  0  0  0  0  0  0
  -50.2117   58.4897   61.4424 C   0  0  0  0  0  0  0  0  0  0  0  0
  -50.6152   57.3030   60.5915 C   0  0  0  0  0  0  0  0  0  0  0  0
  -49.8856   57.2325   59.2572 C   0  0  0  0  0  0  0  0  0  0  0  0
  -48.3736   57.2039   59.3921 C   0  0  0  0  0  0  0  0  0  0  0  0
  -46.4321   57.9549   57.9771 C   0  0  0  0  0  0  0  0  0  0  0  0
  -47.6229   57.0298   58.0854 C   0  0  0  0  0  0  0  0  0  0  0  0
  -36.8800   61.3279   66.3391 C   0  0  0  0  0  0  0  0  0  0  0  0
  -36.0182   62.2876   65.6874 O   0  0  0  0  0  0  0  0  0  0  0  0
  -35.8235   63.7831   66.2235 P   0  0  0  0  0  0  0  0  0  0  0  0
  -36.2560   64.7118   65.1570 O   0  0  0  0  0  0  0  0  0  0  0  0
  -36.4639   63.8823   67.5572 O   0  0  0  0  0  0  0  0  0  0  0  0
  -37.4237   63.7777   67.4637 H   0  0  0  0  0  0  0  0  0  0  0  0
  -34.2511   63.9598   66.4208 O   0  0  0  0  0  0  0  0  0  0  0  0
  -33.3414   63.5270   65.3887 C   0  0  0  0  0  0  0  0  0  0  0  0
  -30.9909   63.7569   64.9826 O   0  0  0  0  0  0  0  0  0  0  0  0
  -32.1688   64.4763   65.3593 C   0  0  0  0  0  0  0  0  0  0  0  0
  -30.8571   63.0140   65.5917 H   0  0  0  0  0  0  0  0  0  0  0  0
  -33.7826   65.8764   64.2396 O   0  0  0  0  0  0  0  0  0  0  0  0
  -32.3927   65.6376   64.4206 C   0  0  0  0  0  0  0  0  0  0  0  0
  -33.9061   66.6245   63.6346 H   0  0  0  0  0  0  0  0  0  0  0  0
  -38.1191   61.3876   64.2142 O   0  0  0  0  0  0  0  0  0  0  0  0
  -36.8921   61.6435   62.3462 O   0  0  0  0  0  0  0  0  0  0  0  0
  -37.7590   61.0770   62.9542 C   0  0  0  0  0  0  0  0  0  0  0  0
  -38.5545   59.9310   62.4101 C   0  0  0  0  0  0  0  0  0  0  0  0
  -39.6329   60.4086   61.4429 C   0  0  0  0  0  0  0  0  0  0  0  0
  -39.4637   59.8880   60.0251 C   0  0  0  0  0  0  0  0  0  0  0  0
  -38.0083   59.6857   59.6194 C   0  0  0  0  0  0  0  0  0  0  0  0
  -37.6258   58.2342   59.3974 C   0  0  0  0  0  0  0  0  0  0  0  0
  -36.6097   58.0082   58.2741 C   0  0  0  0  0  0  0  0  0  0  0  0
  -36.4676   56.5583   57.8061 C   0  0  0  0  0  0  0  0  0  0  0  0
  -36.4914   55.5904   58.9509 C   0  0  0  0  0  0  0  0  0  0  0  0
  -35.4607   55.2051   59.6779 C   0  0  0  0  0  0  0  0  0  0  0  0
  -34.0445   55.6580   59.5112 C   0  0  0  0  0  0  0  0  0  0  0  0
  -33.4818   56.2896   60.7813 C   0  0  0  0  0  0  0  0  0  0  0  0
  -34.0993   57.6356   61.1178 C   0  0  0  0  0  0  0  0  0  0  0  0
  -33.5517   58.2566   62.3913 C   0  0  0  0  0  0  0  0  0  0  0  0
  -34.5899   58.9711   63.2404 C   0  0  0  0  0  0  0  0  0  0  0  0
  -34.9218   58.2411   64.5329 C   0  0  0  0  0  0  0  0  0  0  0  0
  -35.8780   57.0773   64.3623 C   0  0  0  0  0  0  0  0  0  0  0  0
  -36.9326   57.3389   63.3235 C   0  0  0  0  0  0  0  0  0  0  0  0
 21 22  1  0  0  0
  4  5  2  0  0  0
 25 24  1  0  0  0
 25 26  2  0  0  0
 25 27  1  0  0  0
 25 29  1  0  0  0
 22 20  1  0  0  0
  3  5  1  0  0  0
  3  2  1  0  0  0
 20 19  1  0  0  0
 24 23  1  0  0  0
 19 18  1  0  0  0
 18 17  1  0  0  0
 27 28  1  0  0  0
 17 16  1  0  0  0
 29 30  1  0  0  0
 16 15  1  0  0  0
 34 35  1  0  0  0
 34 36  1  0  0  0
 15 14  1  0  0  0
 31 32  1  0  0  0
 31 33  1  0  0  0
 14 13  1  0  0  0
 37  1  1  0  0  0
 37 39  1  0  0  0
 13 12  1  0  0  0
 38 39  2  0  0  0
 12 11  1  0  0  0
 11 10  1  0  0  0
 10  9  1  0  0  0
  9  8  1  0  0  0
  8  7  1  0  0  0
  7  6  1  0  0  0
  6  5  1  0  0  0
  2  1  1  0  0  0
  1 23  1  0  0  0
 30 32  1  0  0  0
 32 35  1  0  0  0
 39 40  1  0  0  0
 40 41  1  0  0  0
 41 42  1  0  0  0
 42 43  1  0  0  0
 43 44  1  0  0  0
 44 45  1  0  0  0
 45 46  1  0  0  0
 46 47  1  0  0  0
 47 48  2  0  0  0
 48 49  1  0  0  0
 49 50  1  0  0  0
 50 51  1  0  0  0
 51 52  1  0  0  0
 52 53  1  0  0  0
 53 54  1  0  0  0
 54 55  1  0  0  0
 55 56  1  0  0  0
M  CHG 1  26  -1
M  END
> <minimizedAffinity>
-9.14206

> <CNNscore>
0.5202037692

> <CNNaffinity>
7.5462632179

> <CNN_VS>
3.9255945683

> <CNNaffinity_variance>
0.9790649414

$$$$
/media/chris/experiments/cd1a-new-docking/inputs/ligands/7sh4_ligand.pdb


 56 55  0  0  0  0  0  0  0  0999 V2000
  -37.0983   61.0669   64.8879 C   0  0  0  0  0  0  0  0  0  0  0  0
  -36.0008   60.9419   63.8693 C   0  0  0  0  0  0  0  0  0  0  0  0
  -36.3792   61.8718   62.8324 O   0  0  0  0  0  0  0  0  0  0  0  0
  -36.0912   64.0706   62.5473 O   0  0  0  0  0  0  0  0  0  0  0  0
  -35.6347   62.9705   62.7050 C   0  0  0  0  0  0  0  0  0  0  0  0
  -34.1785   62.6659   62.9094 C   0  0  0  0  0  0  0  0  0  0  0  0
  -33.2475   63.4433   61.9944 C   0  0  0  0  0  0  0  0  0  0  0  0
  -31.8358   62.8958   61.9923 C   0  0  0  0  0  0  0  0  0  0  0  0
  -31.6888   61.5597   62.6843 C   0  0  0  0  0  0  0  0  0  0  0  0
  -31.0402   60.5063   61.8091 C   0  0  0  0  0  0  0  0  0  0  0  0
  -31.9384   59.3243   61.5377 C   0  0  0  0  0  0  0  0  0  0  0  0
  -32.7070   58.8779   62.7532 C   0  0  0  0  0  0  0  0  0  0  0  0
  -33.8490   57.9401   62.4304 C   0  0  0  0  0  0  0  0  0  0  0  0
  -34.8502   57.8255   63.5621 C   0  0  0  0  0  0  0  0  0  0  0  0
  -36.0080   56.8939   63.2709 C   0  0  0  0  0  0  0  0  0  0  0  0
  -37.1692   57.5629   62.5442 C   0  0  0  0  0  0  0  0  0  0  0  0
  -37.5219   56.9151   61.2190 C   0  0  0  0  0  0  0  0  0  0  0  0
  -37.5488   57.8907   60.0603 C   0  0  0  0  0  0  0  0  0  0  0  0
  -36.5272   57.5786   58.9758 C   0  0  0  0  0  0  0  0  0  0  0  0
  -35.8562   56.2271   59.1437 C   0  0  0  0  0  0  0  0  0  0  0  0
  -33.8620   57.0810   57.8670 C   0  0  0  0  0  0  0  0  0  0  0  0
  -34.3432   56.2518   59.0360 C   0  0  0  0  0  0  0  0  0  0  0  0
  -36.5634   61.3871   66.2601 C   0  0  0  0  0  0  0  0  0  0  0  0
  -35.5550   62.4150   66.1380 O   0  0  0  0  0  0  0  0  0  0  0  0
  -35.7739   63.9115   66.6619 P   0  0  0  0  0  0  0  0  0  0  0  0
  -36.5005   64.6615   65.6148 O   0  0  0  0  0  0  0  0  0  0  0  0
  -36.3569   63.8432   68.0235 O   0  0  0  0  0  0  0  0  0  0  0  0
  -37.2496   63.4668   67.9745 H   0  0  0  0  0  0  0  0  0  0  0  0
  -34.3110   64.5338   66.7861 O   0  0  0  0  0  0  0  0  0  0  0  0
  -33.2492   64.0564   65.9349 C   0  0  0  0  0  0  0  0  0  0  0  0
  -31.0048   64.6442   65.3351 O   0  0  0  0  0  0  0  0  0  0  0  0
  -32.2745   65.1863   65.7109 C   0  0  0  0  0  0  0  0  0  0  0  0
  -30.7059   64.0199   66.0146 H   0  0  0  0  0  0  0  0  0  0  0  0
  -34.1036   65.8877   64.3036 O   0  0  0  0  0  0  0  0  0  0  0  0
  -32.7555   66.1613   64.6632 C   0  0  0  0  0  0  0  0  0  0  0  0
  -34.3942   66.5231   63.6308 H   0  0  0  0  0  0  0  0  0  0  0  0
  -37.8739   59.8225   64.8857 O   0  0  0  0  0  0  0  0  0  0  0  0
  -39.5584   60.8391   65.9764 O   0  0  0  0  0  0  0  0  0  0  0  0
  -39.0970   59.8644   65.4481 C   0  0  0  0  0  0  0  0  0  0  0  0
  -39.8180   58.5584   65.3196 C   0  0  0  0  0  0  0  0  0  0  0  0
  -41.2998   58.7650   65.0221 C   0  0  0  0  0  0  0  0  0  0  0  0
  -42.2284   58.0711   66.0049 C   0  0  0  0  0  0  0  0  0  0  0  0
  -43.4561   58.8972   66.3711 C   0  0  0  0  0  0  0  0  0  0  0  0
  -44.4142   59.1237   65.2166 C   0  0  0  0  0  0  0  0  0  0  0  0
  -45.4120   57.9854   64.9845 C   0  0  0  0  0  0  0  0  0  0  0  0
  -46.5064   57.8519   66.0455 C   0  0  0  0  0  0  0  0  0  0  0  0
  -47.2098   59.1517   66.2982 C   0  0  0  0  0  0  0  0  0  0  0  0
  -48.5097   59.3674   66.2422 C   0  0  0  0  0  0  0  0  0  0  0  0
  -49.5594   58.3531   65.9145 C   0  0  0  0  0  0  0  0  0  0  0  0
  -50.4218   58.7703   64.7267 C   0  0  0  0  0  0  0  0  0  0  0  0
  -49.8713   58.3186   63.3853 C   0  0  0  0  0  0  0  0  0  0  0  0
  -50.8753   58.4168   62.2497 C   0  0  0  0  0  0  0  0  0  0  0  0
  -50.2779   58.2382   60.8639 C   0  0  0  0  0  0  0  0  0  0  0  0
  -50.2645   56.7923   60.3918 C   0  0  0  0  0  0  0  0  0  0  0  0
  -48.9516   56.3511   59.7758 C   0  0  0  0  0  0  0  0  0  0  0  0
  -48.0130   57.4980   59.5239 C   0  0  0  0  0  0  0  0  0  0  0  0
 21 22  1  0  0  0
  4  5  2  0  0  0
 25 24  1  0  0  0
 25 26  2  0  0  0
 25 27  1  0  0  0
 25 29  1  0  0  0
 22 20  1  0  0  0
  3  5  1  0  0  0
  3  2  1  0  0  0
 20 19  1  0  0  0
 24 23  1  0  0  0
 19 18  1  0  0  0
 18 17  1  0  0  0
 27 28  1  0  0  0
 17 16  1  0  0  0
 29 30  1  0  0  0
 16 15  1  0  0  0
 34 35  1  0  0  0
 34 36  1  0  0  0
 15 14  1  0  0  0
 31 32  1  0  0  0
 31 33  1  0  0  0
 14 13  1  0  0  0
 37  1  1  0  0  0
 37 39  1  0  0  0
 13 12  1  0  0  0
 38 39  2  0  0  0
 12 11  1  0  0  0
 11 10  1  0  0  0
 10  9  1  0  0  0
  9  8  1  0  0  0
  8  7  1  0  0  0
  7  6  1  0  0  0
  6  5  1  0  0  0
  2  1  1  0  0  0
  1 23  1  0  0  0
 30 32  1  0  0  0
 32 35  1  0  0  0
 39 40  1  0  0  0
 40 41  1  0  0  0
 41 42  1  0  0  0
 42 43  1  0  0  0
 43 44  1  0  0  0
 44 45  1  0  0  0
 45 46  1  0  0  0
 46 47  1  0  0  0
 47 48  2  0  0  0
 48 49  1  0  0  0
 49 50  1  0  0  0
 50 51  1  0  0  0
 51 52  1  0  0  0
 52 53  1  0  0  0
 53 54  1  0  0  0
 54 55  1  0  0  0
 55 56  1  0  0  0
M  CHG 1  26  -1
M  END
> <minimizedAffinity>
-8.73327

> <CNNscore>
0.4828562140

> <CNNaffinity>
7.1458406448

> <CNN_VS>
3.4504134655

> <CNNaffinity_variance>
0.8189151883

$$$$
/media/chris/experiments/cd1a-new-docking/inputs/ligands/7sh4_ligand.pdb


 56 55  0  0  0  0  0  0  0  0999 V2000
  -38.0564   60.7256   63.5354 C   0  0  0  0  0  0  0  0  0  0  0  0
  -37.4350   60.7508   64.9032 C   0  0  0  0  0  0  0  0  0  0  0  0
  -36.8207   59.4511   65.0316 O   0  0  0  0  0  0  0  0  0  0  0  0
  -38.7588   58.4777   65.5751 O   0  0  0  0  0  0  0  0  0  0  0  0
  -37.6390   58.4046   65.1459 C   0  0  0  0  0  0  0  0  0  0  0  0
  -37.0239   57.1680   64.5566 C   0  0  0  0  0  0  0  0  0  0  0  0
  -36.7153   57.2750   63.0727 C   0  0  0  0  0  0  0  0  0  0  0  0
  -37.9572   57.2054   62.2092 C   0  0  0  0  0  0  0  0  0  0  0  0
  -37.6792   57.2121   60.7232 C   0  0  0  0  0  0  0  0  0  0  0  0
  -38.0963   58.5025   60.0472 C   0  0  0  0  0  0  0  0  0  0  0  0
  -37.3739   58.7518   58.7458 C   0  0  0  0  0  0  0  0  0  0  0  0
  -37.5701   57.6461   57.7427 C   0  0  0  0  0  0  0  0  0  0  0  0
  -36.3636   56.7452   57.5985 C   0  0  0  0  0  0  0  0  0  0  0  0
  -35.0570   57.4737   57.8395 C   0  0  0  0  0  0  0  0  0  0  0  0
  -33.8536   56.5619   57.9568 C   0  0  0  0  0  0  0  0  0  0  0  0
  -33.7730   55.8159   59.2837 C   0  0  0  0  0  0  0  0  0  0  0  0
  -34.0921   56.6735   60.4932 C   0  0  0  0  0  0  0  0  0  0  0  0
  -33.3443   56.2547   61.7424 C   0  0  0  0  0  0  0  0  0  0  0  0
  -32.3948   57.3204   62.2716 C   0  0  0  0  0  0  0  0  0  0  0  0
  -33.0980   58.5803   62.7441 C   0  0  0  0  0  0  0  0  0  0  0  0
  -30.9485   59.6847   62.0397 C   0  0  0  0  0  0  0  0  0  0  0  0
  -32.4172   59.8754   62.3433 C   0  0  0  0  0  0  0  0  0  0  0  0
  -37.1906   61.4080   62.5076 C   0  0  0  0  0  0  0  0  0  0  0  0
  -35.9283   61.7552   63.1194 O   0  0  0  0  0  0  0  0  0  0  0  0
  -35.2169   63.1716   62.8966 P   0  0  0  0  0  0  0  0  0  0  0  0
  -33.7670   62.9975   63.1299 O   0  0  0  0  0  0  0  0  0  0  0  0
  -35.6683   63.7148   61.5928 O   0  0  0  0  0  0  0  0  0  0  0  0
  -35.3320   63.1552   60.8754 H   0  0  0  0  0  0  0  0  0  0  0  0
  -35.7891   64.1173   64.0458 O   0  0  0  0  0  0  0  0  0  0  0  0
  -34.9490   64.4925   65.1565 C   0  0  0  0  0  0  0  0  0  0  0  0
  -33.5501   63.3017   66.6952 O   0  0  0  0  0  0  0  0  0  0  0  0
  -34.8494   63.3162   66.0963 C   0  0  0  0  0  0  0  0  0  0  0  0
  -32.8739   63.2850   65.9999 H   0  0  0  0  0  0  0  0  0  0  0  0
  -36.9850   64.1997   66.7870 O   0  0  0  0  0  0  0  0  0  0  0  0
  -35.9155   63.3424   67.1652 C   0  0  0  0  0  0  0  0  0  0  0  0
  -37.6587   64.2035   67.4849 H   0  0  0  0  0  0  0  0  0  0  0  0
  -39.3842   61.3418   63.6203 O   0  0  0  0  0  0  0  0  0  0  0  0
  -40.5930   59.8739   62.4184 O   0  0  0  0  0  0  0  0  0  0  0  0
  -40.4446   60.5392   63.4070 C   0  0  0  0  0  0  0  0  0  0  0  0
  -41.4046   60.5617   64.5558 C   0  0  0  0  0  0  0  0  0  0  0  0
  -42.2774   59.3109   64.5794 C   0  0  0  0  0  0  0  0  0  0  0  0
  -43.2294   59.2458   65.7623 C   0  0  0  0  0  0  0  0  0  0  0  0
  -44.2234   58.0929   65.6823 C   0  0  0  0  0  0  0  0  0  0  0  0
  -45.5994   58.4978   65.1874 C   0  0  0  0  0  0  0  0  0  0  0  0
  -46.4789   59.1804   66.2391 C   0  0  0  0  0  0  0  0  0  0  0  0
  -47.8014   59.7445   65.7157 C   0  0  0  0  0  0  0  0  0  0  0  0
  -48.9416   58.7923   65.9191 C   0  0  0  0  0  0  0  0  0  0  0  0
  -50.0025   58.6578   65.1473 C   0  0  0  0  0  0  0  0  0  0  0  0
  -50.2897   59.4314   63.8993 C   0  0  0  0  0  0  0  0  0  0  0  0
  -50.8607   58.5542   62.7889 C   0  0  0  0  0  0  0  0  0  0  0  0
  -49.7989   57.8777   61.9397 C   0  0  0  0  0  0  0  0  0  0  0  0
  -49.7229   58.4107   60.5193 C   0  0  0  0  0  0  0  0  0  0  0  0
  -50.0559   57.3890   59.4447 C   0  0  0  0  0  0  0  0  0  0  0  0
  -48.8587   56.9924   58.5943 C   0  0  0  0  0  0  0  0  0  0  0  0
  -47.5164   57.2746   59.2396 C   0  0  0  0  0  0  0  0  0  0  0  0
  -46.5245   57.8718   58.2808 C   0  0  0  0  0  0  0  0  0  0  0  0
 21 22  1  0  0  0
  4  5  2  0  0  0
 25 24  1  0  0  0
 25 26  2  0  0  0
 25 27  1  0  0  0
 25 29  1  0  0  0
 22 20  1  0  0  0
  3  5  1  0  0  0
  3  2  1  0  0  0
 20 19  1  0  0  0
 24 23  1  0  0  0
 19 18  1  0  0  0
 18 17  1  0  0  0
 27 28  1  0  0  0
 17 16  1  0  0  0
 29 30  1  0  0  0
 16 15  1  0  0  0
 34 35  1  0  0  0
 34 36  1  0  0  0
 15 14  1  0  0  0
 31 32  1  0  0  0
 31 33  1  0  0  0
 14 13  1  0  0  0
 37  1  1  0  0  0
 37 39  1  0  0  0
 13 12  1  0  0  0
 38 39  2  0  0  0
 12 11  1  0  0  0
 11 10  1  0  0  0
 10  9  1  0  0  0
  9  8  1  0  0  0
  8  7  1  0  0  0
  7  6  1  0  0  0
  6  5  1  0  0  0
  2  1  1  0  0  0
  1 23  1  0  0  0
 30 32  1  0  0  0
 32 35  1  0  0  0
 39 40  1  0  0  0
 40 41  1  0  0  0
 41 42  1  0  0  0
 42 43  1  0  0  0
 43 44  1  0  0  0
 44 45  1  0  0  0
 45 46  1  0  0  0
 46 47  1  0  0  0
 47 48  2  0  0  0
 48 49  1  0  0  0
 49 50  1  0  0  0
 50 51  1  0  0  0
 51 52  1  0  0  0
 52 53  1  0  0  0
 53 54  1  0  0  0
 54 55  1  0  0  0
 55 56  1  0  0  0
M  CHG 1  26  -1
M  END
> <minimizedAffinity>
-8.77372

> <CNNscore>
0.4651021063

> <CNNaffinity>
7.3625884056

> <CNN_VS>
3.4243552685

> <CNNaffinity_variance>
0.8067943454

$$$$
/media/chris/experiments/cd1a-new-docking/inputs/ligands/7sh4_ligand.pdb


 56 55  0  0  0  0  0  0  0  0999 V2000
  -37.7168   60.1826   65.2859 C   0  0  0  0  0  0  0  0  0  0  0  0
  -39.0975   60.7546   65.1308 C   0  0  0  0  0  0  0  0  0  0  0  0
  -39.8981   59.9904   66.0572 O   0  0  0  0  0  0  0  0  0  0  0  0
  -41.6212   60.0407   64.6332 O   0  0  0  0  0  0  0  0  0  0  0  0
  -41.1452   59.7027   65.6833 C   0  0  0  0  0  0  0  0  0  0  0  0
  -41.8181   58.8061   66.6824 C   0  0  0  0  0  0  0  0  0  0  0  0
  -43.2901   58.5570   66.4003 C   0  0  0  0  0  0  0  0  0  0  0  0
  -43.5879   57.1083   66.0760 C   0  0  0  0  0  0  0  0  0  0  0  0
  -44.9808   56.8676   65.5396 C   0  0  0  0  0  0  0  0  0  0  0  0
  -45.3941   57.8768   64.4876 C   0  0  0  0  0  0  0  0  0  0  0  0
  -46.8773   58.1557   64.4824 C   0  0  0  0  0  0  0  0  0  0  0  0
  -47.5931   57.5555   65.6634 C   0  0  0  0  0  0  0  0  0  0  0  0
  -49.0759   57.8538   65.6817 C   0  0  0  0  0  0  0  0  0  0  0  0
  -49.4380   59.0730   64.8581 C   0  0  0  0  0  0  0  0  0  0  0  0
  -50.8126   59.0061   64.2263 C   0  0  0  0  0  0  0  0  0  0  0  0
  -50.8030   58.5257   62.7796 C   0  0  0  0  0  0  0  0  0  0  0  0
  -49.8605   59.3010   61.8792 C   0  0  0  0  0  0  0  0  0  0  0  0
  -49.6607   58.6591   60.5216 C   0  0  0  0  0  0  0  0  0  0  0  0
  -48.4848   57.6937   60.4700 C   0  0  0  0  0  0  0  0  0  0  0  0
  -48.3211   57.0066   59.1261 C   0  0  0  0  0  0  0  0  0  0  0  0
  -47.0966   56.8589   56.9319 C   0  0  0  0  0  0  0  0  0  0  0  0
  -47.1451   57.4958   58.3022 C   0  0  0  0  0  0  0  0  0  0  0  0
  -36.6544   61.2513   65.2537 C   0  0  0  0  0  0  0  0  0  0  0  0
  -37.0435   62.3208   66.1443 O   0  0  0  0  0  0  0  0  0  0  0  0
  -36.1581   63.6371   66.3578 P   0  0  0  0  0  0  0  0  0  0  0  0
  -36.5515   64.6251   65.3302 O   0  0  0  0  0  0  0  0  0  0  0  0
  -36.2429   64.0236   67.7868 O   0  0  0  0  0  0  0  0  0  0  0  0
  -37.1492   64.3006   67.9937 H   0  0  0  0  0  0  0  0  0  0  0  0
  -34.6570   63.1895   66.0596 O   0  0  0  0  0  0  0  0  0  0  0  0
  -33.5792   64.1365   66.2062 C   0  0  0  0  0  0  0  0  0  0  0  0
  -31.4420   63.6838   65.2211 O   0  0  0  0  0  0  0  0  0  0  0  0
  -32.7687   64.1357   64.9333 C   0  0  0  0  0  0  0  0  0  0  0  0
  -31.0535   64.2416   65.9131 H   0  0  0  0  0  0  0  0  0  0  0  0
  -34.4156   63.9890   63.1770 O   0  0  0  0  0  0  0  0  0  0  0  0
  -33.3894   63.2776   63.8571 C   0  0  0  0  0  0  0  0  0  0  0  0
  -34.8016   63.4225   62.4908 H   0  0  0  0  0  0  0  0  0  0  0  0
  -37.5108   59.1823   64.2338 O   0  0  0  0  0  0  0  0  0  0  0  0
  -38.1921   57.3870   65.4056 O   0  0  0  0  0  0  0  0  0  0  0  0
  -37.4373   57.8946   64.6216 C   0  0  0  0  0  0  0  0  0  0  0  0
  -36.3158   57.1687   63.9454 C   0  0  0  0  0  0  0  0  0  0  0  0
  -35.0141   57.9606   64.0167 C   0  0  0  0  0  0  0  0  0  0  0  0
  -34.3738   58.2173   62.6624 C   0  0  0  0  0  0  0  0  0  0  0  0
  -32.8924   57.8618   62.6111 C   0  0  0  0  0  0  0  0  0  0  0  0
  -32.5795   56.6422   61.7644 C   0  0  0  0  0  0  0  0  0  0  0  0
  -33.7953   56.0178   61.0736 C   0  0  0  0  0  0  0  0  0  0  0  0
  -33.6059   55.6919   59.5906 C   0  0  0  0  0  0  0  0  0  0  0  0
  -33.7921   56.8977   58.7191 C   0  0  0  0  0  0  0  0  0  0  0  0
  -34.8459   57.1778   57.9772 C   0  0  0  0  0  0  0  0  0  0  0  0
  -36.0831   56.3461   57.8514 C   0  0  0  0  0  0  0  0  0  0  0  0
  -37.2639   56.9396   58.6144 C   0  0  0  0  0  0  0  0  0  0  0  0
  -37.0420   57.0195   60.1146 C   0  0  0  0  0  0  0  0  0  0  0  0
  -38.0814   57.8556   60.8412 C   0  0  0  0  0  0  0  0  0  0  0  0
  -37.9241   59.3557   60.6563 C   0  0  0  0  0  0  0  0  0  0  0  0
  -38.8726   59.9411   59.6212 C   0  0  0  0  0  0  0  0  0  0  0  0
  -40.2556   60.2593   60.1541 C   0  0  0  0  0  0  0  0  0  0  0  0
  -40.2720   60.4639   61.6432 C   0  0  0  0  0  0  0  0  0  0  0  0
 21 22  1  0  0  0
  4  5  2  0  0  0
 25 24  1  0  0  0
 25 26  2  0  0  0
 25 27  1  0  0  0
 25 29  1  0  0  0
 22 20  1  0  0  0
  3  5  1  0  0  0
  3  2  1  0  0  0
 20 19  1  0  0  0
 24 23  1  0  0  0
 19 18  1  0  0  0
 18 17  1  0  0  0
 27 28  1  0  0  0
 17 16  1  0  0  0
 29 30  1  0  0  0
 16 15  1  0  0  0
 34 35  1  0  0  0
 34 36  1  0  0  0
 15 14  1  0  0  0
 31 32  1  0  0  0
 31 33  1  0  0  0
 14 13  1  0  0  0
 37  1  1  0  0  0
 37 39  1  0  0  0
 13 12  1  0  0  0
 38 39  2  0  0  0
 12 11  1  0  0  0
 11 10  1  0  0  0
 10  9  1  0  0  0
  9  8  1  0  0  0
  8  7  1  0  0  0
  7  6  1  0  0  0
  6  5  1  0  0  0
  2  1  1  0  0  0
  1 23  1  0  0  0
 30 32  1  0  0  0
 32 35  1  0  0  0
 39 40  1  0  0  0
 40 41  1  0  0  0
 41 42  1  0  0  0
 42 43  1  0  0  0
 43 44  1  0  0  0
 44 45  1  0  0  0
 45 46  1  0  0  0
 46 47  1  0  0  0
 47 48  2  0  0  0
 48 49  1  0  0  0
 49 50  1  0  0  0
 50 51  1  0  0  0
 51 52  1  0  0  0
 52 53  1  0  0  0
 53 54  1  0  0  0
 54 55  1  0  0  0
 55 56  1  0  0  0
M  CHG 1  26  -1
M  END
> <minimizedAffinity>
-8.71217

> <CNNscore>
0.4062957764

> <CNNaffinity>
7.3618407249

> <CNN_VS>
2.9910848141

> <CNNaffinity_variance>
0.9293826818

$$$$
/media/chris/experiments/cd1a-new-docking/inputs/ligands/7sh4_ligand.pdb


 56 55  0  0  0  0  0  0  0  0999 V2000
  -35.5927   59.8365   64.6826 C   0  0  0  0  0  0  0  0  0  0  0  0
  -36.8799   60.3454   64.0979 C   0  0  0  0  0  0  0  0  0  0  0  0
  -37.8531   59.3487   64.4752 O   0  0  0  0  0  0  0  0  0  0  0  0
  -39.2610   60.9507   65.1461 O   0  0  0  0  0  0  0  0  0  0  0  0
  -38.9843   59.7876   65.0278 C   0  0  0  0  0  0  0  0  0  0  0  0
  -39.9038   58.6478   65.3600 C   0  0  0  0  0  0  0  0  0  0  0  0
  -41.3793   58.9752   65.2043 C   0  0  0  0  0  0  0  0  0  0  0  0
  -42.0569   59.2701   66.5258 C   0  0  0  0  0  0  0  0  0  0  0  0
  -43.5451   59.0037   66.5317 C   0  0  0  0  0  0  0  0  0  0  0  0
  -44.1080   58.7506   65.1478 C   0  0  0  0  0  0  0  0  0  0  0  0
  -45.2971   57.8212   65.1510 C   0  0  0  0  0  0  0  0  0  0  0  0
  -45.5884   57.2431   66.5106 C   0  0  0  0  0  0  0  0  0  0  0  0
  -47.0418   56.8728   66.7066 C   0  0  0  0  0  0  0  0  0  0  0  0
  -47.8811   57.1212   65.4697 C   0  0  0  0  0  0  0  0  0  0  0  0
  -49.2871   57.6011   65.7630 C   0  0  0  0  0  0  0  0  0  0  0  0
  -49.4171   59.1182   65.8380 C   0  0  0  0  0  0  0  0  0  0  0  0
  -49.5134   59.7959   64.4846 C   0  0  0  0  0  0  0  0  0  0  0  0
  -50.9184   59.8121   63.9181 C   0  0  0  0  0  0  0  0  0  0  0  0
  -51.1018   58.8984   62.7144 C   0  0  0  0  0  0  0  0  0  0  0  0
  -49.8410   58.7228   61.8870 C   0  0  0  0  0  0  0  0  0  0  0  0
  -50.3026   57.4259   59.7797 C   0  0  0  0  0  0  0  0  0  0  0  0
  -49.7282   57.3866   61.1776 C   0  0  0  0  0  0  0  0  0  0  0  0
  -34.9193   60.8672   65.5520 C   0  0  0  0  0  0  0  0  0  0  0  0
  -35.8222   61.9800   65.7384 O   0  0  0  0  0  0  0  0  0  0  0  0
  -35.4654   63.2423   66.6557 P   0  0  0  0  0  0  0  0  0  0  0  0
  -36.7265   63.7683   67.2214 O   0  0  0  0  0  0  0  0  0  0  0  0
  -34.3791   62.8460   67.5839 O   0  0  0  0  0  0  0  0  0  0  0  0
  -34.7110   62.1777   68.2037 H   0  0  0  0  0  0  0  0  0  0  0  0
  -34.8804   64.3387   65.6566 O   0  0  0  0  0  0  0  0  0  0  0  0
  -34.3387   63.9371   64.3817 C   0  0  0  0  0  0  0  0  0  0  0  0
  -33.6986   66.2445   64.2879 O   0  0  0  0  0  0  0  0  0  0  0  0
  -33.2570   64.9156   63.9949 C   0  0  0  0  0  0  0  0  0  0  0  0
  -34.5383   66.4140   63.8328 H   0  0  0  0  0  0  0  0  0  0  0  0
  -32.1379   64.5750   66.1043 O   0  0  0  0  0  0  0  0  0  0  0  0
  -31.9498   64.6343   64.6962 C   0  0  0  0  0  0  0  0  0  0  0  0
  -31.2887   64.3939   66.5367 H   0  0  0  0  0  0  0  0  0  0  0  0
  -34.7246   59.4053   63.5825 O   0  0  0  0  0  0  0  0  0  0  0  0
  -35.2798   57.2487   63.9008 O   0  0  0  0  0  0  0  0  0  0  0  0
  -34.7990   58.1111   63.2173 C   0  0  0  0  0  0  0  0  0  0  0  0
  -34.2285   57.8801   61.8523 C   0  0  0  0  0  0  0  0  0  0  0  0
  -34.6472   56.5238   61.2938 C   0  0  0  0  0  0  0  0  0  0  0  0
  -35.2136   56.5856   59.8848 C   0  0  0  0  0  0  0  0  0  0  0  0
  -36.7212   56.8072   59.8429 C   0  0  0  0  0  0  0  0  0  0  0  0
  -37.4262   56.5031   61.1516 C   0  0  0  0  0  0  0  0  0  0  0  0
  -38.3252   57.6304   61.6676 C   0  0  0  0  0  0  0  0  0  0  0  0
  -38.1668   58.9713   60.9476 C   0  0  0  0  0  0  0  0  0  0  0  0
  -39.2966   59.9102   61.2473 C   0  0  0  0  0  0  0  0  0  0  0  0
  -40.2409   60.2978   60.4121 C   0  0  0  0  0  0  0  0  0  0  0  0
  -40.3828   59.8771   58.9834 C   0  0  0  0  0  0  0  0  0  0  0  0
  -41.8174   59.4979   58.6277 C   0  0  0  0  0  0  0  0  0  0  0  0
  -42.0580   59.3560   57.1349 C   0  0  0  0  0  0  0  0  0  0  0  0
  -43.3367   58.6115   56.7913 C   0  0  0  0  0  0  0  0  0  0  0  0
  -44.2076   58.2700   57.9889 C   0  0  0  0  0  0  0  0  0  0  0  0
  -45.6611   58.0071   57.6255 C   0  0  0  0  0  0  0  0  0  0  0  0
  -46.5054   57.4893   58.7730 C   0  0  0  0  0  0  0  0  0  0  0  0
  -45.7639   57.4755   60.0805 C   0  0  0  0  0  0  0  0  0  0  0  0
 21 22  1  0  0  0
  4  5  2  0  0  0
 25 24  1  0  0  0
 25 26  2  0  0  0
 25 27  1  0  0  0
 25 29  1  0  0  0
 22 20  1  0  0  0
  3  5  1  0  0  0
  3  2  1  0  0  0
 20 19  1  0  0  0
 24 23  1  0  0  0
 19 18  1  0  0  0
 18 17  1  0  0  0
 27 28  1  0  0  0
 17 16  1  0  0  0
 29 30  1  0  0  0
 16 15  1  0  0  0
 34 35  1  0  0  0
 34 36  1  0  0  0
 15 14  1  0  0  0
 31 32  1  0  0  0
 31 33  1  0  0  0
 14 13  1  0  0  0
 37  1  1  0  0  0
 37 39  1  0  0  0
 13 12  1  0  0  0
 38 39  2  0  0  0
 12 11  1  0  0  0
 11 10  1  0  0  0
 10  9  1  0  0  0
  9  8  1  0  0  0
  8  7  1  0  0  0
  7  6  1  0  0  0
  6  5  1  0  0  0
  2  1  1  0  0  0
  1 23  1  0  0  0
 30 32  1  0  0  0
 32 35  1  0  0  0
 39 40  1  0  0  0
 40 41  1  0  0  0
 41 42  1  0  0  0
 42 43  1  0  0  0
 43 44  1  0  0  0
 44 45  1  0  0  0
 45 46  1  0  0  0
 46 47  1  0  0  0
 47 48  2  0  0  0
 48 49  1  0  0  0
 49 50  1  0  0  0
 50 51  1  0  0  0
 51 52  1  0  0  0
 52 53  1  0  0  0
 53 54  1  0  0  0
 54 55  1  0  0  0
 55 56  1  0  0  0
M  CHG 1  26  -1
M  END
> <minimizedAffinity>
-8.19074

> <CNNscore>
0.4008693695

> <CNNaffinity>
7.3250274658

> <CNN_VS>
2.9363791943

> <CNNaffinity_variance>
1.0151368380

$$$$
