/media/chris/experiments/cd1a-new-docking/inputs/ligands/7sh4_ligand.pdb


 56 55  0  0  0  0  0  0  0  0999 V2000
  -38.5101   60.0572   63.0462 C   0  0  0  0  0  0  0  0  0  0  0  0
  -39.8850   60.5878   63.3389 C   0  0  0  0  0  0  0  0  0  0  0  0
  -40.5441   59.4960   64.0147 O   0  0  0  0  0  0  0  0  0  0  0  0
  -40.5321   60.3862   66.0657 O   0  0  0  0  0  0  0  0  0  0  0  0
  -41.0877   59.7611   65.2030 C   0  0  0  0  0  0  0  0  0  0  0  0
  -42.5117   59.2888   65.2659 C   0  0  0  0  0  0  0  0  0  0  0  0
  -43.0071   58.9971   66.6722 C   0  0  0  0  0  0  0  0  0  0  0  0
  -44.4694   58.6058   66.7093 C   0  0  0  0  0  0  0  0  0  0  0  0
  -45.1774   58.7293   65.3791 C   0  0  0  0  0  0  0  0  0  0  0  0
  -46.3379   59.7031   65.4129 C   0  0  0  0  0  0  0  0  0  0  0  0
  -47.5196   59.1918   66.1999 C   0  0  0  0  0  0  0  0  0  0  0  0
  -48.2047   58.0239   65.5410 C   0  0  0  0  0  0  0  0  0  0  0  0
  -49.7087   58.0413   65.7017 C   0  0  0  0  0  0  0  0  0  0  0  0
  -50.4135   58.7139   64.5410 C   0  0  0  0  0  0  0  0  0  0  0  0
  -50.1175   58.0903   63.1931 C   0  0  0  0  0  0  0  0  0  0  0  0
  -51.2179   58.3048   62.1601 C   0  0  0  0  0  0  0  0  0  0  0  0
  -51.1794   57.3219   61.0056 C   0  0  0  0  0  0  0  0  0  0  0  0
  -49.7830   56.8369   60.6744 C   0  0  0  0  0  0  0  0  0  0  0  0
  -49.0486   57.7249   59.6797 C   0  0  0  0  0  0  0  0  0  0  0  0
  -47.8133   57.0754   59.0818 C   0  0  0  0  0  0  0  0  0  0  0  0
  -47.3709   55.2283   57.4300 C   0  0  0  0  0  0  0  0  0  0  0  0
  -47.9598   55.5975   58.7726 C   0  0  0  0  0  0  0  0  0  0  0  0
  -37.6697   61.0509   62.2859 C   0  0  0  0  0  0  0  0  0  0  0  0
  -36.3408   61.0667   62.8535 O   0  0  0  0  0  0  0  0  0  0  0  0
  -35.6374   62.4055   63.3777 P   0  0  0  0  0  0  0  0  0  0  0  0
  -34.3392   62.0347   63.9810 O   0  0  0  0  0  0  0  0  0  0  0  0
  -35.6533   63.3972   62.2755 O   0  0  0  0  0  0  0  0  0  0  0  0
  -35.0845   63.0873   61.5534 H   0  0  0  0  0  0  0  0  0  0  0  0
  -36.5816   62.9511   64.5411 O   0  0  0  0  0  0  0  0  0  0  0  0
  -36.3366   62.5664   65.9093 C   0  0  0  0  0  0  0  0  0  0  0  0
  -36.6138   63.8618   67.9062 O   0  0  0  0  0  0  0  0  0  0  0  0
  -35.8900   63.7880   66.6743 C   0  0  0  0  0  0  0  0  0  0  0  0
  -37.5662   63.8616   67.7222 H   0  0  0  0  0  0  0  0  0  0  0  0
  -33.9160   62.4573   67.0621 O   0  0  0  0  0  0  0  0  0  0  0  0
  -34.4041   63.7873   66.9421 C   0  0  0  0  0  0  0  0  0  0  0  0
  -32.9616   62.4774   67.2337 H   0  0  0  0  0  0  0  0  0  0  0  0
  -38.6489   58.7938   62.3152 O   0  0  0  0  0  0  0  0  0  0  0  0
  -37.0821   57.8017   63.5885 O   0  0  0  0  0  0  0  0  0  0  0  0
  -37.7555   57.8254   62.5946 C   0  0  0  0  0  0  0  0  0  0  0  0
  -37.7161   56.7747   61.5286 C   0  0  0  0  0  0  0  0  0  0  0  0
  -37.3982   57.3755   60.1631 C   0  0  0  0  0  0  0  0  0  0  0  0
  -36.6741   56.4242   59.2246 C   0  0  0  0  0  0  0  0  0  0  0  0
  -35.5840   57.0959   58.3972 C   0  0  0  0  0  0  0  0  0  0  0  0
  -34.1744   56.7022   58.7979 C   0  0  0  0  0  0  0  0  0  0  0  0
  -34.0959   55.7366   59.9838 C   0  0  0  0  0  0  0  0  0  0  0  0
  -33.3944   56.2874   61.2272 C   0  0  0  0  0  0  0  0  0  0  0  0
  -34.0895   57.4955   61.7795 C   0  0  0  0  0  0  0  0  0  0  0  0
  -33.5216   58.5306   62.3674 C   0  0  0  0  0  0  0  0  0  0  0  0
  -32.0562   58.7163   62.6052 C   0  0  0  0  0  0  0  0  0  0  0  0
  -31.4280   59.7042   61.6265 C   0  0  0  0  0  0  0  0  0  0  0  0
  -30.3852   60.6090   62.2589 C   0  0  0  0  0  0  0  0  0  0  0  0
  -30.2961   61.9812   61.6136 C   0  0  0  0  0  0  0  0  0  0  0  0
  -30.1806   63.1334   62.5976 C   0  0  0  0  0  0  0  0  0  0  0  0
  -30.7848   62.8293   63.9600 C   0  0  0  0  0  0  0  0  0  0  0  0
  -31.3559   64.0399   64.6715 C   0  0  0  0  0  0  0  0  0  0  0  0
  -32.2262   64.8812   63.7802 C   0  0  0  0  0  0  0  0  0  0  0  0
 21 22  1  0  0  0
  4  5  2  0  0  0
 25 24  1  0  0  0
 25 26  2  0  0  0
 25 27  1  0  0  0
 25 29  1  0  0  0
 22 20  1  0  0  0
  3  5  1  0  0  0
  3  2  1  0  0  0
 20 19  1  0  0  0
 24 23  1  0  0  0
 19 18  1  0  0  0
 18 17  1  0  0  0
 27 28  1  0  0  0
 17 16  1  0  0  0
 29 30  1  0  0  0
 16 15  1  0  0  0
 34 35  1  0  0  0
 34 36  1  0  0  0
 15 14  1  0  0  0
 31 32  1  0  0  0
 31 33  1  0  0  0
 14 13  1  0  0  0
 37  1  1  0  0  0
 37 39  1  0  0  0
 13 12  1  0  0  0
 38 39  2  0  0  0
 12 11  1  0  0  0
 11 10  1  0  0  0
 10  9  1  0  0  0
  9  8  1  0  0  0
  8  7  1  0  0  0
  7  6  1  0  0  0
  6  5  1  0  0  0
  2  1  1  0  0  0
  1 23  1  0  0  0
 30 32  1  0  0  0
 32 35  1  0  0  0
 39 40  1  0  0  0
 40 41  1  0  0  0
 41 42  1  0  0  0
 42 43  1  0  0  0
 43 44  1  0  0  0
 44 45  1  0  0  0
 45 46  1  0  0  0
 46 47  1  0  0  0
 47 48  2  0  0  0
 48 49  1  0  0  0
 49 50  1  0  0  0
 50 51  1  0  0  0
 51 52  1  0  0  0
 52 53  1  0  0  0
 53 54  1  0  0  0
 54 55  1  0  0  0
 55 56  1  0  0  0
M  CHG 1  26  -1
M  END
> <minimizedAffinity>
-8.86160

> <CNNscore>
0.6220728755

> <CNNaffinity>
7.1151819229

> <CNN_VS>
4.4261617661

> <CNNaffinity_variance>
0.3381044269

$$$$
/media/chris/experiments/cd1a-new-docking/inputs/ligands/7sh4_ligand.pdb


 56 55  0  0  0  0  0  0  0  0999 V2000
  -39.4698   59.6695   65.0501 C   0  0  0  0  0  0  0  0  0  0  0  0
  -40.7360   60.0628   65.7569 C   0  0  0  0  0  0  0  0  0  0  0  0
  -41.4485   58.8177   65.9156 O   0  0  0  0  0  0  0  0  0  0  0  0
  -43.1498   59.5577   64.6677 O   0  0  0  0  0  0  0  0  0  0  0  0
  -42.7028   58.7777   65.4648 C   0  0  0  0  0  0  0  0  0  0  0  0
  -43.4279   57.5699   65.9845 C   0  0  0  0  0  0  0  0  0  0  0  0
  -44.7938   57.8733   66.5767 C   0  0  0  0  0  0  0  0  0  0  0  0
  -45.9258   57.2439   65.7924 C   0  0  0  0  0  0  0  0  0  0  0  0
  -46.2851   57.9823   64.5229 C   0  0  0  0  0  0  0  0  0  0  0  0
  -47.7256   58.4518   64.4972 C   0  0  0  0  0  0  0  0  0  0  0  0
  -48.6368   57.6211   65.3673 C   0  0  0  0  0  0  0  0  0  0  0  0
  -50.0603   58.1119   65.3659 C   0  0  0  0  0  0  0  0  0  0  0  0
  -50.2248   59.4750   64.7312 C   0  0  0  0  0  0  0  0  0  0  0  0
  -51.2091   59.4691   63.5790 C   0  0  0  0  0  0  0  0  0  0  0  0
  -50.5618   59.3661   62.2138 C   0  0  0  0  0  0  0  0  0  0  0  0
  -50.6829   57.9862   61.5772 C   0  0  0  0  0  0  0  0  0  0  0  0
  -49.3526   57.3616   61.2024 C   0  0  0  0  0  0  0  0  0  0  0  0
  -49.0676   57.3995   59.7149 C   0  0  0  0  0  0  0  0  0  0  0  0
  -47.6514   56.9734   59.3540 C   0  0  0  0  0  0  0  0  0  0  0  0
  -47.1565   57.5581   58.0430 C   0  0  0  0  0  0  0  0  0  0  0  0
  -47.4812   55.2307   57.1410 C   0  0  0  0  0  0  0  0  0  0  0  0
  -47.4435   56.7076   56.8201 C   0  0  0  0  0  0  0  0  0  0  0  0
  -38.2428   60.1829   65.7590 C   0  0  0  0  0  0  0  0  0  0  0  0
  -37.6731   61.2599   64.9817 O   0  0  0  0  0  0  0  0  0  0  0  0
  -36.2552   61.1444   64.2482 P   0  0  0  0  0  0  0  0  0  0  0  0
  -35.3464   60.3766   65.1264 O   0  0  0  0  0  0  0  0  0  0  0  0
  -36.4885   60.6596   62.8665 O   0  0  0  0  0  0  0  0  0  0  0  0
  -36.8251   59.7503   62.8953 H   0  0  0  0  0  0  0  0  0  0  0  0
  -35.7041   62.6379   64.1567 O   0  0  0  0  0  0  0  0  0  0  0  0
  -34.8560   63.1592   65.2003 C   0  0  0  0  0  0  0  0  0  0  0  0
  -36.6255   64.7687   65.0548 O   0  0  0  0  0  0  0  0  0  0  0  0
  -35.6023   64.2588   65.9150 C   0  0  0  0  0  0  0  0  0  0  0  0
  -36.2287   65.0651   64.2207 H   0  0  0  0  0  0  0  0  0  0  0  0
  -35.9365   62.4116   67.4296 O   0  0  0  0  0  0  0  0  0  0  0  0
  -36.2028   63.7923   67.2194 C   0  0  0  0  0  0  0  0  0  0  0  0
  -36.3294   62.1309   68.2709 H   0  0  0  0  0  0  0  0  0  0  0  0
  -39.5414   60.1573   63.6692 O   0  0  0  0  0  0  0  0  0  0  0  0
  -39.7411   59.4726   61.5357 O   0  0  0  0  0  0  0  0  0  0  0  0
  -39.5298   59.2299   62.6926 C   0  0  0  0  0  0  0  0  0  0  0  0
  -39.2043   57.8662   63.2185 C   0  0  0  0  0  0  0  0  0  0  0  0
  -37.7819   57.4521   62.8556 C   0  0  0  0  0  0  0  0  0  0  0  0
  -37.6571   56.8142   61.4817 C   0  0  0  0  0  0  0  0  0  0  0  0
  -36.5810   57.4506   60.6094 C   0  0  0  0  0  0  0  0  0  0  0  0
  -35.3100   56.6290   60.4997 C   0  0  0  0  0  0  0  0  0  0  0  0
  -34.3949   56.7052   61.7252 C   0  0  0  0  0  0  0  0  0  0  0  0
  -33.9451   58.1147   62.1159 C   0  0  0  0  0  0  0  0  0  0  0  0
  -32.4823   58.3300   61.8676 C   0  0  0  0  0  0  0  0  0  0  0  0
  -31.7988   59.4343   62.0974 C   0  0  0  0  0  0  0  0  0  0  0  0
  -32.3443   60.7093   62.6588 C   0  0  0  0  0  0  0  0  0  0  0  0
  -31.6301   61.9404   62.1086 C   0  0  0  0  0  0  0  0  0  0  0  0
  -30.3598   62.2952   62.8614 C   0  0  0  0  0  0  0  0  0  0  0  0
  -30.4072   63.6586   63.5294 C   0  0  0  0  0  0  0  0  0  0  0  0
  -31.7758   64.0528   64.0594 C   0  0  0  0  0  0  0  0  0  0  0  0
  -32.2410   65.4188   63.5784 C   0  0  0  0  0  0  0  0  0  0  0  0
  -32.5661   66.3932   64.6932 C   0  0  0  0  0  0  0  0  0  0  0  0
  -32.2435   65.8464   66.0558 C   0  0  0  0  0  0  0  0  0  0  0  0
 21 22  1  0  0  0
  4  5  2  0  0  0
 25 24  1  0  0  0
 25 26  2  0  0  0
 25 27  1  0  0  0
 25 29  1  0  0  0
 22 20  1  0  0  0
  3  5  1  0  0  0
  3  2  1  0  0  0
 20 19  1  0  0  0
 24 23  1  0  0  0
 19 18  1  0  0  0
 18 17  1  0  0  0
 27 28  1  0  0  0
 17 16  1  0  0  0
 29 30  1  0  0  0
 16 15  1  0  0  0
 34 35  1  0  0  0
 34 36  1  0  0  0
 15 14  1  0  0  0
 31 32  1  0  0  0
 31 33  1  0  0  0
 14 13  1  0  0  0
 37  1  1  0  0  0
 37 39  1  0  0  0
 13 12  1  0  0  0
 38 39  2  0  0  0
 12 11  1  0  0  0
 11 10  1  0  0  0
 10  9  1  0  0  0
  9  8  1  0  0  0
  8  7  1  0  0  0
  7  6  1  0  0  0
  6  5  1  0  0  0
  2  1  1  0  0  0
  1 23  1  0  0  0
 30 32  1  0  0  0
 32 35  1  0  0  0
 39 40  1  0  0  0
 40 41  1  0  0  0
 41 42  1  0  0  0
 42 43  1  0  0  0
 43 44  1  0  0  0
 44 45  1  0  0  0
 45 46  1  0  0  0
 46 47  1  0  0  0
 47 48  2  0  0  0
 48 49  1  0  0  0
 49 50  1  0  0  0
 50 51  1  0  0  0
 51 52  1  0  0  0
 52 53  1  0  0  0
 53 54  1  0  0  0
 54 55  1  0  0  0
 55 56  1  0  0  0
M  CHG 1  26  -1
M  END
> <minimizedAffinity>
-8.42876

> <CNNscore>
0.6117510200

> <CNNaffinity>
7.0254120827

> <CNN_VS>
4.2978029251

> <CNNaffinity_variance>
0.5627343059

$$$$
/media/chris/experiments/cd1a-new-docking/inputs/ligands/7sh4_ligand.pdb


 56 55  0  0  0  0  0  0  0  0999 V2000
  -37.2201   60.4111   65.3070 C   0  0  0  0  0  0  0  0  0  0  0  0
  -38.4923   60.9194   64.6900 C   0  0  0  0  0  0  0  0  0  0  0  0
  -39.4995   60.6384   65.6849 O   0  0  0  0  0  0  0  0  0  0  0  0
  -41.0860   60.4425   64.1216 O   0  0  0  0  0  0  0  0  0  0  0  0
  -40.6949   60.2487   65.2410 C   0  0  0  0  0  0  0  0  0  0  0  0
  -41.4200   59.4375   66.2760 C   0  0  0  0  0  0  0  0  0  0  0  0
  -41.8791   58.0746   65.7864 C   0  0  0  0  0  0  0  0  0  0  0  0
  -43.2730   57.7205   66.2598 C   0  0  0  0  0  0  0  0  0  0  0  0
  -44.2521   58.8719   66.2190 C   0  0  0  0  0  0  0  0  0  0  0  0
  -45.2309   58.7777   65.0662 C   0  0  0  0  0  0  0  0  0  0  0  0
  -46.5711   59.4003   65.3725 C   0  0  0  0  0  0  0  0  0  0  0  0
  -47.6636   58.3816   65.5625 C   0  0  0  0  0  0  0  0  0  0  0  0
  -48.4132   58.0602   64.2886 C   0  0  0  0  0  0  0  0  0  0  0  0
  -49.7935   58.6843   64.2486 C   0  0  0  0  0  0  0  0  0  0  0  0
  -50.6232   58.2728   63.0504 C   0  0  0  0  0  0  0  0  0  0  0  0
  -49.7993   57.7346   61.8861 C   0  0  0  0  0  0  0  0  0  0  0  0
  -50.5779   57.5972   60.5918 C   0  0  0  0  0  0  0  0  0  0  0  0
  -49.7491   57.0546   59.4455 C   0  0  0  0  0  0  0  0  0  0  0  0
  -48.9128   55.8387   59.8194 C   0  0  0  0  0  0  0  0  0  0  0  0
  -47.8280   55.5131   58.8082 C   0  0  0  0  0  0  0  0  0  0  0  0
  -47.1689   56.8296   56.7666 C   0  0  0  0  0  0  0  0  0  0  0  0
  -48.1685   55.8720   57.3742 C   0  0  0  0  0  0  0  0  0  0  0  0
  -36.5829   61.4327   66.2137 C   0  0  0  0  0  0  0  0  0  0  0  0
  -35.7667   62.3185   65.4151 O   0  0  0  0  0  0  0  0  0  0  0  0
  -35.5087   63.8488   65.8066 P   0  0  0  0  0  0  0  0  0  0  0  0
  -36.5841   64.6639   65.2015 O   0  0  0  0  0  0  0  0  0  0  0  0
  -35.2993   63.9212   67.2727 O   0  0  0  0  0  0  0  0  0  0  0  0
  -36.1224   63.6862   67.7290 H   0  0  0  0  0  0  0  0  0  0  0  0
  -34.1362   64.2410   65.0958 O   0  0  0  0  0  0  0  0  0  0  0  0
  -32.8797   63.8717   65.6996 C   0  0  0  0  0  0  0  0  0  0  0  0
  -31.7153   65.4480   64.3204 O   0  0  0  0  0  0  0  0  0  0  0  0
  -31.9695   65.0751   65.6781 C   0  0  0  0  0  0  0  0  0  0  0  0
  -31.3465   64.6899   63.8405 H   0  0  0  0  0  0  0  0  0  0  0  0
  -33.0306   65.8263   67.7097 O   0  0  0  0  0  0  0  0  0  0  0  0
  -32.5445   66.2444   66.4408 C   0  0  0  0  0  0  0  0  0  0  0  0
  -33.3954   66.5898   68.1839 H   0  0  0  0  0  0  0  0  0  0  0  0
  -36.3142   60.0045   64.2282 O   0  0  0  0  0  0  0  0  0  0  0  0
  -34.5074   58.9166   65.0108 O   0  0  0  0  0  0  0  0  0  0  0  0
  -35.5647   58.9060   64.4416 C   0  0  0  0  0  0  0  0  0  0  0  0
  -36.2152   57.6701   63.9018 C   0  0  0  0  0  0  0  0  0  0  0  0
  -37.4754   57.3146   64.6840 C   0  0  0  0  0  0  0  0  0  0  0  0
  -38.7477   57.3528   63.8535 C   0  0  0  0  0  0  0  0  0  0  0  0
  -38.4939   57.4363   62.3526 C   0  0  0  0  0  0  0  0  0  0  0  0
  -39.0430   58.6928   61.7030 C   0  0  0  0  0  0  0  0  0  0  0  0
  -37.9823   59.7327   61.3308 C   0  0  0  0  0  0  0  0  0  0  0  0
  -37.8575   60.0295   59.8349 C   0  0  0  0  0  0  0  0  0  0  0  0
  -38.4621   58.9472   58.9918 C   0  0  0  0  0  0  0  0  0  0  0  0
  -37.8189   58.1261   58.1845 C   0  0  0  0  0  0  0  0  0  0  0  0
  -36.3428   58.1027   57.9422 C   0  0  0  0  0  0  0  0  0  0  0  0
  -35.7526   56.7020   58.0768 C   0  0  0  0  0  0  0  0  0  0  0  0
  -34.2447   56.6907   58.2563 C   0  0  0  0  0  0  0  0  0  0  0  0
  -33.7673   55.7471   59.3467 C   0  0  0  0  0  0  0  0  0  0  0  0
  -34.2918   56.0729   60.7353 C   0  0  0  0  0  0  0  0  0  0  0  0
  -33.2399   56.6758   61.6539 C   0  0  0  0  0  0  0  0  0  0  0  0
  -33.2311   58.1914   61.6790 C   0  0  0  0  0  0  0  0  0  0  0  0
  -32.0286   58.7543   62.3839 C   0  0  0  0  0  0  0  0  0  0  0  0
 21 22  1  0  0  0
  4  5  2  0  0  0
 25 24  1  0  0  0
 25 26  2  0  0  0
 25 27  1  0  0  0
 25 29  1  0  0  0
 22 20  1  0  0  0
  3  5  1  0  0  0
  3  2  1  0  0  0
 20 19  1  0  0  0
 24 23  1  0  0  0
 19 18  1  0  0  0
 18 17  1  0  0  0
 27 28  1  0  0  0
 17 16  1  0  0  0
 29 30  1  0  0  0
 16 15  1  0  0  0
 34 35  1  0  0  0
 34 36  1  0  0  0
 15 14  1  0  0  0
 31 32  1  0  0  0
 31 33  1  0  0  0
 14 13  1  0  0  0
 37  1  1  0  0  0
 37 39  1  0  0  0
 13 12  1  0  0  0
 38 39  2  0  0  0
 12 11  1  0  0  0
 11 10  1  0  0  0
 10  9  1  0  0  0
  9  8  1  0  0  0
  8  7  1  0  0  0
  7  6  1  0  0  0
  6  5  1  0  0  0
  2  1  1  0  0  0
  1 23  1  0  0  0
 30 32  1  0  0  0
 32 35  1  0  0  0
 39 40  1  0  0  0
 40 41  1  0  0  0
 41 42  1  0  0  0
 42 43  1  0  0  0
 43 44  1  0  0  0
 44 45  1  0  0  0
 45 46  1  0  0  0
 46 47  1  0  0  0
 47 48  2  0  0  0
 48 49  1  0  0  0
 49 50  1  0  0  0
 50 51  1  0  0  0
 51 52  1  0  0  0
 52 53  1  0  0  0
 53 54  1  0  0  0
 54 55  1  0  0  0
 55 56  1  0  0  0
M  CHG 1  26  -1
M  END
> <minimizedAffinity>
-8.66521

> <CNNscore>
0.5900247693

> <CNNaffinity>
7.4812364578

> <CNN_VS>
4.4141149521

> <CNNaffinity_variance>
0.4409771860

$$$$
/media/chris/experiments/cd1a-new-docking/inputs/ligands/7sh4_ligand.pdb


 56 55  0  0  0  0  0  0  0  0999 V2000
  -37.7917   60.5921   65.3794 C   0  0  0  0  0  0  0  0  0  0  0  0
  -38.7306   59.7296   66.1744 C   0  0  0  0  0  0  0  0  0  0  0  0
  -39.7911   59.4197   65.2457 O   0  0  0  0  0  0  0  0  0  0  0  0
  -41.1374   61.0784   64.5860 O   0  0  0  0  0  0  0  0  0  0  0  0
  -40.8972   60.1603   65.3228 C   0  0  0  0  0  0  0  0  0  0  0  0
  -41.8421   59.6185   66.3565 C   0  0  0  0  0  0  0  0  0  0  0  0
  -42.1492   58.1387   66.2014 C   0  0  0  0  0  0  0  0  0  0  0  0
  -43.6346   57.8517   66.1381 C   0  0  0  0  0  0  0  0  0  0  0  0
  -44.4131   58.8069   65.2620 C   0  0  0  0  0  0  0  0  0  0  0  0
  -45.8347   58.3504   65.0038 C   0  0  0  0  0  0  0  0  0  0  0  0
  -46.8366   59.4784   65.0400 C   0  0  0  0  0  0  0  0  0  0  0  0
  -48.1974   59.0732   64.5386 C   0  0  0  0  0  0  0  0  0  0  0  0
  -49.0134   60.2332   64.0127 C   0  0  0  0  0  0  0  0  0  0  0  0
  -50.4432   59.8456   63.6933 C   0  0  0  0  0  0  0  0  0  0  0  0
  -50.6338   58.3716   63.4032 C   0  0  0  0  0  0  0  0  0  0  0  0
  -51.0131   58.0724   61.9573 C   0  0  0  0  0  0  0  0  0  0  0  0
  -49.8629   58.2074   60.9779 C   0  0  0  0  0  0  0  0  0  0  0  0
  -50.1611   57.6183   59.6144 C   0  0  0  0  0  0  0  0  0  0  0  0
  -48.9799   56.8842   58.9953 C   0  0  0  0  0  0  0  0  0  0  0  0
  -47.7258   57.7334   58.8868 C   0  0  0  0  0  0  0  0  0  0  0  0
  -47.4973   56.5796   56.6615 C   0  0  0  0  0  0  0  0  0  0  0  0
  -46.7902   57.3425   57.7586 C   0  0  0  0  0  0  0  0  0  0  0  0
  -36.7076   59.7842   64.7132 C   0  0  0  0  0  0  0  0  0  0  0  0
  -37.2370   59.2081   63.4981 O   0  0  0  0  0  0  0  0  0  0  0  0
  -37.5977   60.0843   62.2081 P   0  0  0  0  0  0  0  0  0  0  0  0
  -39.0686   60.0926   62.0568 O   0  0  0  0  0  0  0  0  0  0  0  0
  -36.8855   61.3803   62.3167 O   0  0  0  0  0  0  0  0  0  0  0  0
  -37.2435   61.8844   63.0642 H   0  0  0  0  0  0  0  0  0  0  0  0
  -36.9811   59.2888   60.9713 O   0  0  0  0  0  0  0  0  0  0  0  0
  -37.6863   58.1602   60.4155 C   0  0  0  0  0  0  0  0  0  0  0  0
  -38.5232   59.8879   58.9813 O   0  0  0  0  0  0  0  0  0  0  0  0
  -38.1233   58.5147   59.0154 C   0  0  0  0  0  0  0  0  0  0  0  0
  -39.2183   60.0388   59.6409 H   0  0  0  0  0  0  0  0  0  0  0  0
  -37.4022   57.1889   57.1339 O   0  0  0  0  0  0  0  0  0  0  0  0
  -37.0406   58.2618   57.9939 C   0  0  0  0  0  0  0  0  0  0  0  0
  -36.6956   57.0417   56.4858 H   0  0  0  0  0  0  0  0  0  0  0  0
  -37.2349   61.6132   66.2723 O   0  0  0  0  0  0  0  0  0  0  0  0
  -36.5862   63.1299   64.7429 O   0  0  0  0  0  0  0  0  0  0  0  0
  -36.3638   62.4871   65.7325 C   0  0  0  0  0  0  0  0  0  0  0  0
  -35.0951   62.5746   66.5228 C   0  0  0  0  0  0  0  0  0  0  0  0
  -33.9378   63.0807   65.6679 C   0  0  0  0  0  0  0  0  0  0  0  0
  -33.6579   64.5661   65.8264 C   0  0  0  0  0  0  0  0  0  0  0  0
  -32.1787   64.9218   65.7297 C   0  0  0  0  0  0  0  0  0  0  0  0
  -31.6031   64.7920   64.3317 C   0  0  0  0  0  0  0  0  0  0  0  0
  -30.5995   63.6482   64.1601 C   0  0  0  0  0  0  0  0  0  0  0  0
  -30.3621   63.2008   62.7162 C   0  0  0  0  0  0  0  0  0  0  0  0
  -31.5704   62.5401   62.1235 C   0  0  0  0  0  0  0  0  0  0  0  0
  -31.7325   61.2504   61.8997 C   0  0  0  0  0  0  0  0  0  0  0  0
  -30.7385   60.1717   62.1942 C   0  0  0  0  0  0  0  0  0  0  0  0
  -31.3738   58.7845   62.2154 C   0  0  0  0  0  0  0  0  0  0  0  0
  -32.8863   58.8089   62.3492 C   0  0  0  0  0  0  0  0  0  0  0  0
  -33.4882   57.4624   62.7126 C   0  0  0  0  0  0  0  0  0  0  0  0
  -34.5192   56.9458   61.7229 C   0  0  0  0  0  0  0  0  0  0  0  0
  -34.0592   57.0206   60.2749 C   0  0  0  0  0  0  0  0  0  0  0  0
  -34.2338   55.7298   59.4995 C   0  0  0  0  0  0  0  0  0  0  0  0
  -35.6063   55.1375   59.6577 C   0  0  0  0  0  0  0  0  0  0  0  0
 21 22  1  0  0  0
  4  5  2  0  0  0
 25 24  1  0  0  0
 25 26  2  0  0  0
 25 27  1  0  0  0
 25 29  1  0  0  0
 22 20  1  0  0  0
  3  5  1  0  0  0
  3  2  1  0  0  0
 20 19  1  0  0  0
 24 23  1  0  0  0
 19 18  1  0  0  0
 18 17  1  0  0  0
 27 28  1  0  0  0
 17 16  1  0  0  0
 29 30  1  0  0  0
 16 15  1  0  0  0
 34 35  1  0  0  0
 34 36  1  0  0  0
 15 14  1  0  0  0
 31 32  1  0  0  0
 31 33  1  0  0  0
 14 13  1  0  0  0
 37  1  1  0  0  0
 37 39  1  0  0  0
 13 12  1  0  0  0
 38 39  2  0  0  0
 12 11  1  0  0  0
 11 10  1  0  0  0
 10  9  1  0  0  0
  9  8  1  0  0  0
  8  7  1  0  0  0
  7  6  1  0  0  0
  6  5  1  0  0  0
  2  1  1  0  0  0
  1 23  1  0  0  0
 30 32  1  0  0  0
 32 35  1  0  0  0
 39 40  1  0  0  0
 40 41  1  0  0  0
 41 42  1  0  0  0
 42 43  1  0  0  0
 43 44  1  0  0  0
 44 45  1  0  0  0
 45 46  1  0  0  0
 46 47  1  0  0  0
 47 48  2  0  0  0
 48 49  1  0  0  0
 49 50  1  0  0  0
 50 51  1  0  0  0
 51 52  1  0  0  0
 52 53  1  0  0  0
 53 54  1  0  0  0
 54 55  1  0  0  0
 55 56  1  0  0  0
M  CHG 1  26  -1
M  END
> <minimizedAffinity>
-8.43676

> <CNNscore>
0.5599045753

> <CNNaffinity>
7.1599149704

> <CNN_VS>
4.0088691711

> <CNNaffinity_variance>
0.4688443244

$$$$
/media/chris/experiments/cd1a-new-docking/inputs/ligands/7sh4_ligand.pdb


 56 55  0  0  0  0  0  0  0  0999 V2000
  -35.1557   57.8835   63.2397 C   0  0  0  0  0  0  0  0  0  0  0  0
  -36.0919   57.1632   64.1683 C   0  0  0  0  0  0  0  0  0  0  0  0
  -37.3768   57.2681   63.5192 O   0  0  0  0  0  0  0  0  0  0  0  0
  -38.3081   57.9872   65.4205 O   0  0  0  0  0  0  0  0  0  0  0  0
  -38.3787   57.7720   64.2406 C   0  0  0  0  0  0  0  0  0  0  0  0
  -39.5419   58.1451   63.3673 C   0  0  0  0  0  0  0  0  0  0  0  0
  -39.9422   59.6079   63.4586 C   0  0  0  0  0  0  0  0  0  0  0  0
  -41.3654   59.7974   63.9394 C   0  0  0  0  0  0  0  0  0  0  0  0
  -41.4869   60.0748   65.4207 C   0  0  0  0  0  0  0  0  0  0  0  0
  -41.9754   58.8774   66.2104 C   0  0  0  0  0  0  0  0  0  0  0  0
  -43.4448   58.9472   66.5472 C   0  0  0  0  0  0  0  0  0  0  0  0
  -44.3323   58.8284   65.3365 C   0  0  0  0  0  0  0  0  0  0  0  0
  -45.8070   58.8105   65.6725 C   0  0  0  0  0  0  0  0  0  0  0  0
  -46.5172   57.5889   65.1249 C   0  0  0  0  0  0  0  0  0  0  0  0
  -48.0240   57.7260   65.0632 C   0  0  0  0  0  0  0  0  0  0  0  0
  -48.5553   58.9907   65.7283 C   0  0  0  0  0  0  0  0  0  0  0  0
  -49.9394   59.3980   65.2606 C   0  0  0  0  0  0  0  0  0  0  0  0
  -50.0082   59.7032   63.7783 C   0  0  0  0  0  0  0  0  0  0  0  0
  -51.2516   59.1476   63.0981 C   0  0  0  0  0  0  0  0  0  0  0  0
  -50.9568   58.0342   62.1087 C   0  0  0  0  0  0  0  0  0  0  0  0
  -49.3017   58.1813   60.2180 C   0  0  0  0  0  0  0  0  0  0  0  0
  -49.5020   57.9223   61.6940 C   0  0  0  0  0  0  0  0  0  0  0  0
  -35.8351   59.0206   62.5206 C   0  0  0  0  0  0  0  0  0  0  0  0
  -35.3994   60.2678   63.1063 O   0  0  0  0  0  0  0  0  0  0  0  0
  -36.3962   61.2661   63.8625 P   0  0  0  0  0  0  0  0  0  0  0  0
  -37.3456   61.8071   62.8661 O   0  0  0  0  0  0  0  0  0  0  0  0
  -36.9354   60.5658   65.0531 O   0  0  0  0  0  0  0  0  0  0  0  0
  -37.4964   59.8276   64.7676 H   0  0  0  0  0  0  0  0  0  0  0  0
  -35.4824   62.4687   64.3737 O   0  0  0  0  0  0  0  0  0  0  0  0
  -36.0683   63.7610   64.6315 C   0  0  0  0  0  0  0  0  0  0  0  0
  -36.6791   63.9481   66.9411 O   0  0  0  0  0  0  0  0  0  0  0  0
  -35.6328   64.2158   66.0028 C   0  0  0  0  0  0  0  0  0  0  0  0
  -37.4967   64.3782   66.6452 H   0  0  0  0  0  0  0  0  0  0  0  0
  -34.5530   62.8303   67.6559 O   0  0  0  0  0  0  0  0  0  0  0  0
  -34.3514   63.5532   66.4482 C   0  0  0  0  0  0  0  0  0  0  0  0
  -33.7202   62.4126   67.9256 H   0  0  0  0  0  0  0  0  0  0  0  0
  -34.5950   56.9069   62.3007 O   0  0  0  0  0  0  0  0  0  0  0  0
  -32.8098   58.1138   61.6549 O   0  0  0  0  0  0  0  0  0  0  0  0
  -33.7145   57.3691   61.3923 C   0  0  0  0  0  0  0  0  0  0  0  0
  -33.9871   56.8296   60.0224 C   0  0  0  0  0  0  0  0  0  0  0  0
  -34.8738   55.5897   60.0763 C   0  0  0  0  0  0  0  0  0  0  0  0
  -36.1626   55.7186   59.2812 C   0  0  0  0  0  0  0  0  0  0  0  0
  -36.0876   56.7499   58.1610 C   0  0  0  0  0  0  0  0  0  0  0  0
  -37.3774   57.5188   57.9429 C   0  0  0  0  0  0  0  0  0  0  0  0
  -37.4778   58.8295   58.7284 C   0  0  0  0  0  0  0  0  0  0  0  0
  -38.6067   58.8860   59.7599 C   0  0  0  0  0  0  0  0  0  0  0  0
  -39.2986   60.2161   59.7679 C   0  0  0  0  0  0  0  0  0  0  0  0
  -40.5536   60.4528   59.4387 C   0  0  0  0  0  0  0  0  0  0  0  0
  -41.5546   59.4365   58.9876 C   0  0  0  0  0  0  0  0  0  0  0  0
  -41.6458   59.3441   57.4672 C   0  0  0  0  0  0  0  0  0  0  0  0
  -43.0575   59.1212   56.9538 C   0  0  0  0  0  0  0  0  0  0  0  0
  -43.9116   58.2629   57.8708 C   0  0  0  0  0  0  0  0  0  0  0  0
  -45.4046   58.5285   57.7718 C   0  0  0  0  0  0  0  0  0  0  0  0
  -46.2592   57.3184   58.1169 C   0  0  0  0  0  0  0  0  0  0  0  0
  -47.0461   56.7590   56.9482 C   0  0  0  0  0  0  0  0  0  0  0  0
  -47.4470   55.3244   57.1506 C   0  0  0  0  0  0  0  0  0  0  0  0
 21 22  1  0  0  0
  4  5  2  0  0  0
 25 24  1  0  0  0
 25 26  2  0  0  0
 25 27  1  0  0  0
 25 29  1  0  0  0
 22 20  1  0  0  0
  3  5  1  0  0  0
  3  2  1  0  0  0
 20 19  1  0  0  0
 24 23  1  0  0  0
 19 18  1  0  0  0
 18 17  1  0  0  0
 27 28  1  0  0  0
 17 16  1  0  0  0
 29 30  1  0  0  0
 16 15  1  0  0  0
 34 35  1  0  0  0
 34 36  1  0  0  0
 15 14  1  0  0  0
 31 32  1  0  0  0
 31 33  1  0  0  0
 14 13  1  0  0  0
 37  1  1  0  0  0
 37 39  1  0  0  0
 13 12  1  0  0  0
 38 39  2  0  0  0
 12 11  1  0  0  0
 11 10  1  0  0  0
 10  9  1  0  0  0
  9  8  1  0  0  0
  8  7  1  0  0  0
  7  6  1  0  0  0
  6  5  1  0  0  0
  2  1  1  0  0  0
  1 23  1  0  0  0
 30 32  1  0  0  0
 32 35  1  0  0  0
 39 40  1  0  0  0
 40 41  1  0  0  0
 41 42  1  0  0  0
 42 43  1  0  0  0
 43 44  1  0  0  0
 44 45  1  0  0  0
 45 46  1  0  0  0
 46 47  1  0  0  0
 47 48  2  0  0  0
 48 49  1  0  0  0
 49 50  1  0  0  0
 50 51  1  0  0  0
 51 52  1  0  0  0
 52 53  1  0  0  0
 53 54  1  0  0  0
 54 55  1  0  0  0
 55 56  1  0  0  0
M  CHG 1  26  -1
M  END
> <minimizedAffinity>
-8.02814

> <CNNscore>
0.5038162470

> <CNNaffinity>
7.5622954369

> <CNN_VS>
3.8100073338

> <CNNaffinity_variance>
0.8019527197

$$$$
/media/chris/experiments/cd1a-new-docking/inputs/ligands/7sh4_ligand.pdb


 56 55  0  0  0  0  0  0  0  0999 V2000
  -36.3321   61.9463   65.6837 C   0  0  0  0  0  0  0  0  0  0  0  0
  -35.1038   61.0810   65.6781 C   0  0  0  0  0  0  0  0  0  0  0  0
  -35.0901   60.5026   64.3558 O   0  0  0  0  0  0  0  0  0  0  0  0
  -34.5219   58.4352   64.9903 O   0  0  0  0  0  0  0  0  0  0  0  0
  -35.1477   59.1727   64.2775 C   0  0  0  0  0  0  0  0  0  0  0  0
  -36.1796   58.7322   63.2795 C   0  0  0  0  0  0  0  0  0  0  0  0
  -37.0771   57.6087   63.7699 C   0  0  0  0  0  0  0  0  0  0  0  0
  -38.3749   57.5147   62.9956 C   0  0  0  0  0  0  0  0  0  0  0  0
  -38.2112   57.6257   61.4967 C   0  0  0  0  0  0  0  0  0  0  0  0
  -38.7507   58.9258   60.9356 C   0  0  0  0  0  0  0  0  0  0  0  0
  -38.3499   59.1650   59.5005 C   0  0  0  0  0  0  0  0  0  0  0  0
  -37.0999   58.4234   59.1070 C   0  0  0  0  0  0  0  0  0  0  0  0
  -37.2449   57.6430   57.8194 C   0  0  0  0  0  0  0  0  0  0  0  0
  -36.4605   56.3464   57.8295 C   0  0  0  0  0  0  0  0  0  0  0  0
  -36.5406   55.5859   59.1366 C   0  0  0  0  0  0  0  0  0  0  0  0
  -35.1821   55.1841   59.6997 C   0  0  0  0  0  0  0  0  0  0  0  0
  -34.0207   55.9773   59.1320 C   0  0  0  0  0  0  0  0  0  0  0  0
  -33.6456   57.1805   59.9726 C   0  0  0  0  0  0  0  0  0  0  0  0
  -33.7141   56.9230   61.4715 C   0  0  0  0  0  0  0  0  0  0  0  0
  -32.5058   57.4390   62.2326 C   0  0  0  0  0  0  0  0  0  0  0  0
  -31.0113   59.4460   61.9611 C   0  0  0  0  0  0  0  0  0  0  0  0
  -32.3980   58.9504   62.3031 C   0  0  0  0  0  0  0  0  0  0  0  0
  -36.1476   63.1860   66.5208 C   0  0  0  0  0  0  0  0  0  0  0  0
  -34.7333   63.4068   66.7194 O   0  0  0  0  0  0  0  0  0  0  0  0
  -33.9347   64.6020   66.0153 P   0  0  0  0  0  0  0  0  0  0  0  0
  -34.8302   65.2258   65.0175 O   0  0  0  0  0  0  0  0  0  0  0  0
  -33.3485   65.4542   67.0776 O   0  0  0  0  0  0  0  0  0  0  0  0
  -34.0602   65.8913   67.5711 H   0  0  0  0  0  0  0  0  0  0  0  0
  -32.7354   63.9037   65.2300 O   0  0  0  0  0  0  0  0  0  0  0  0
  -32.5218   64.1933   63.8335 C   0  0  0  0  0  0  0  0  0  0  0  0
  -33.5235   62.4311   62.5553 O   0  0  0  0  0  0  0  0  0  0  0  0
  -32.2867   62.8912   63.1081 C   0  0  0  0  0  0  0  0  0  0  0  0
  -34.1842   62.3533   63.2613 H   0  0  0  0  0  0  0  0  0  0  0  0
  -31.5097   64.1498   61.2028 O   0  0  0  0  0  0  0  0  0  0  0  0
  -31.2457   63.0181   62.0219 C   0  0  0  0  0  0  0  0  0  0  0  0
  -30.8316   64.2144   60.5122 H   0  0  0  0  0  0  0  0  0  0  0  0
  -37.4630   61.1394   66.1527 O   0  0  0  0  0  0  0  0  0  0  0  0
  -38.4106   61.2197   64.1141 O   0  0  0  0  0  0  0  0  0  0  0  0
  -38.3885   60.7948   65.2370 C   0  0  0  0  0  0  0  0  0  0  0  0
  -39.3736   59.8065   65.7801 C   0  0  0  0  0  0  0  0  0  0  0  0
  -40.7260   59.9257   65.0850 C   0  0  0  0  0  0  0  0  0  0  0  0
  -41.6424   58.7345   65.3112 C   0  0  0  0  0  0  0  0  0  0  0  0
  -42.2504   58.6895   66.7085 C   0  0  0  0  0  0  0  0  0  0  0  0
  -43.7371   58.9907   66.7444 C   0  0  0  0  0  0  0  0  0  0  0  0
  -44.4287   58.9471   65.3789 C   0  0  0  0  0  0  0  0  0  0  0  0
  -45.9110   58.5686   65.4110 C   0  0  0  0  0  0  0  0  0  0  0  0
  -46.8029   59.7638   65.2569 C   0  0  0  0  0  0  0  0  0  0  0  0
  -48.1012   59.8119   65.4837 C   0  0  0  0  0  0  0  0  0  0  0  0
  -48.9591   58.6770   65.9466 C   0  0  0  0  0  0  0  0  0  0  0  0
  -50.0197   58.2920   64.9193 C   0  0  0  0  0  0  0  0  0  0  0  0
  -50.6419   59.4822   64.2104 C   0  0  0  0  0  0  0  0  0  0  0  0
  -51.2354   59.1425   62.8542 C   0  0  0  0  0  0  0  0  0  0  0  0
  -50.7112   57.8539   62.2424 C   0  0  0  0  0  0  0  0  0  0  0  0
  -50.5740   57.9142   60.7287 C   0  0  0  0  0  0  0  0  0  0  0  0
  -49.2012   57.5304   60.2128 C   0  0  0  0  0  0  0  0  0  0  0  0
  -49.2343   57.0110   58.8026 C   0  0  0  0  0  0  0  0  0  0  0  0
 21 22  1  0  0  0
  4  5  2  0  0  0
 25 24  1  0  0  0
 25 26  2  0  0  0
 25 27  1  0  0  0
 25 29  1  0  0  0
 22 20  1  0  0  0
  3  5  1  0  0  0
  3  2  1  0  0  0
 20 19  1  0  0  0
 24 23  1  0  0  0
 19 18  1  0  0  0
 18 17  1  0  0  0
 27 28  1  0  0  0
 17 16  1  0  0  0
 29 30  1  0  0  0
 16 15  1  0  0  0
 34 35  1  0  0  0
 34 36  1  0  0  0
 15 14  1  0  0  0
 31 32  1  0  0  0
 31 33  1  0  0  0
 14 13  1  0  0  0
 37  1  1  0  0  0
 37 39  1  0  0  0
 13 12  1  0  0  0
 38 39  2  0  0  0
 12 11  1  0  0  0
 11 10  1  0  0  0
 10  9  1  0  0  0
  9  8  1  0  0  0
  8  7  1  0  0  0
  7  6  1  0  0  0
  6  5  1  0  0  0
  2  1  1  0  0  0
  1 23  1  0  0  0
 30 32  1  0  0  0
 32 35  1  0  0  0
 39 40  1  0  0  0
 40 41  1  0  0  0
 41 42  1  0  0  0
 42 43  1  0  0  0
 43 44  1  0  0  0
 44 45  1  0  0  0
 45 46  1  0  0  0
 46 47  1  0  0  0
 47 48  2  0  0  0
 48 49  1  0  0  0
 49 50  1  0  0  0
 50 51  1  0  0  0
 51 52  1  0  0  0
 52 53  1  0  0  0
 53 54  1  0  0  0
 54 55  1  0  0  0
 55 56  1  0  0  0
M  CHG 1  26  -1
M  END
> <minimizedAffinity>
-8.65033

> <CNNscore>
0.4501447380

> <CNNaffinity>
7.1477060318

> <CNN_VS>
3.2175023556

> <CNNaffinity_variance>
0.8232476115

$$$$
/media/chris/experiments/cd1a-new-docking/inputs/ligands/7sh4_ligand.pdb


 56 55  0  0  0  0  0  0  0  0999 V2000
  -38.6605   58.9628   63.9068 C   0  0  0  0  0  0  0  0  0  0  0  0
  -39.3857   58.2636   65.0217 C   0  0  0  0  0  0  0  0  0  0  0  0
  -40.7189   58.8142   64.9705 O   0  0  0  0  0  0  0  0  0  0  0  0
  -40.3727   60.6860   66.1436 O   0  0  0  0  0  0  0  0  0  0  0  0
  -41.0368   59.7145   65.9013 C   0  0  0  0  0  0  0  0  0  0  0  0
  -42.3795   59.4193   66.5054 C   0  0  0  0  0  0  0  0  0  0  0  0
  -43.2140   58.4302   65.7096 C   0  0  0  0  0  0  0  0  0  0  0  0
  -44.6707   58.8330   65.6170 C   0  0  0  0  0  0  0  0  0  0  0  0
  -45.5816   57.7463   65.0925 C   0  0  0  0  0  0  0  0  0  0  0  0
  -47.0291   57.9391   65.4970 C   0  0  0  0  0  0  0  0  0  0  0  0
  -47.9134   58.3699   64.3525 C   0  0  0  0  0  0  0  0  0  0  0  0
  -49.2560   58.8795   64.8057 C   0  0  0  0  0  0  0  0  0  0  0  0
  -50.4132   58.3035   64.0201 C   0  0  0  0  0  0  0  0  0  0  0  0
  -50.8666   59.2118   62.8951 C   0  0  0  0  0  0  0  0  0  0  0  0
  -50.3234   58.8286   61.5345 C   0  0  0  0  0  0  0  0  0  0  0  0
  -50.7267   57.4299   61.0818 C   0  0  0  0  0  0  0  0  0  0  0  0
  -49.7385   56.7808   60.1317 C   0  0  0  0  0  0  0  0  0  0  0  0
  -48.7926   57.7685   59.4800 C   0  0  0  0  0  0  0  0  0  0  0  0
  -47.3746   57.2390   59.3175 C   0  0  0  0  0  0  0  0  0  0  0  0
  -46.8013   57.4537   57.9280 C   0  0  0  0  0  0  0  0  0  0  0  0
  -47.5645   55.1924   57.1283 C   0  0  0  0  0  0  0  0  0  0  0  0
  -47.4941   56.6723   56.8277 C   0  0  0  0  0  0  0  0  0  0  0  0
  -39.5494   59.1964   62.7122 C   0  0  0  0  0  0  0  0  0  0  0  0
  -39.0074   58.4778   61.5816 O   0  0  0  0  0  0  0  0  0  0  0  0
  -38.2803   59.2084   60.3571 P   0  0  0  0  0  0  0  0  0  0  0  0
  -39.3237   59.6914   59.4272 O   0  0  0  0  0  0  0  0  0  0  0  0
  -37.3125   60.1854   60.9114 O   0  0  0  0  0  0  0  0  0  0  0  0
  -37.7933   60.8928   61.3692 H   0  0  0  0  0  0  0  0  0  0  0  0
  -37.4520   58.0656   59.6150 O   0  0  0  0  0  0  0  0  0  0  0  0
  -36.6916   57.1110   60.3834 C   0  0  0  0  0  0  0  0  0  0  0  0
  -36.2385   54.9792   59.3872 O   0  0  0  0  0  0  0  0  0  0  0  0
  -35.8020   56.3406   59.4389 C   0  0  0  0  0  0  0  0  0  0  0  0
  -36.2456   54.6075   60.2832 H   0  0  0  0  0  0  0  0  0  0  0  0
  -36.9986   56.6506   57.3677 O   0  0  0  0  0  0  0  0  0  0  0  0
  -35.7849   56.9355   58.0513 C   0  0  0  0  0  0  0  0  0  0  0  0
  -36.9687   57.0401   56.4799 H   0  0  0  0  0  0  0  0  0  0  0  0
  -37.4788   58.1690   63.5557 O   0  0  0  0  0  0  0  0  0  0  0  0
  -36.1372   59.6220   64.6276 O   0  0  0  0  0  0  0  0  0  0  0  0
  -36.2978   58.5770   64.0583 C   0  0  0  0  0  0  0  0  0  0  0  0
  -35.2158   57.5654   63.8391 C   0  0  0  0  0  0  0  0  0  0  0  0
  -33.8349   58.2132   63.8481 C   0  0  0  0  0  0  0  0  0  0  0  0
  -32.9636   57.8236   62.6653 C   0  0  0  0  0  0  0  0  0  0  0  0
  -32.4620   59.0158   61.8585 C   0  0  0  0  0  0  0  0  0  0  0  0
  -31.0912   59.5124   62.2787 C   0  0  0  0  0  0  0  0  0  0  0  0
  -30.6922   60.8637   61.6791 C   0  0  0  0  0  0  0  0  0  0  0  0
  -30.8768   62.0676   62.6055 C   0  0  0  0  0  0  0  0  0  0  0  0
  -31.8289   63.0768   62.0373 C   0  0  0  0  0  0  0  0  0  0  0  0
  -33.1262   63.1501   62.2636 C   0  0  0  0  0  0  0  0  0  0  0  0
  -33.9221   62.2365   63.1412 C   0  0  0  0  0  0  0  0  0  0  0  0
  -35.3588   62.7150   63.3291 C   0  0  0  0  0  0  0  0  0  0  0  0
  -35.4817   63.9402   64.2179 C   0  0  0  0  0  0  0  0  0  0  0  0
  -35.3991   63.6278   65.7021 C   0  0  0  0  0  0  0  0  0  0  0  0
  -34.2248   64.2752   66.4173 C   0  0  0  0  0  0  0  0  0  0  0  0
  -32.8758   63.9196   65.8111 C   0  0  0  0  0  0  0  0  0  0  0  0
  -31.9322   65.0963   65.6601 C   0  0  0  0  0  0  0  0  0  0  0  0
  -32.6518   66.4147   65.6001 C   0  0  0  0  0  0  0  0  0  0  0  0
 21 22  1  0  0  0
  4  5  2  0  0  0
 25 24  1  0  0  0
 25 26  2  0  0  0
 25 27  1  0  0  0
 25 29  1  0  0  0
 22 20  1  0  0  0
  3  5  1  0  0  0
  3  2  1  0  0  0
 20 19  1  0  0  0
 24 23  1  0  0  0
 19 18  1  0  0  0
 18 17  1  0  0  0
 27 28  1  0  0  0
 17 16  1  0  0  0
 29 30  1  0  0  0
 16 15  1  0  0  0
 34 35  1  0  0  0
 34 36  1  0  0  0
 15 14  1  0  0  0
 31 32  1  0  0  0
 31 33  1  0  0  0
 14 13  1  0  0  0
 37  1  1  0  0  0
 37 39  1  0  0  0
 13 12  1  0  0  0
 38 39  2  0  0  0
 12 11  1  0  0  0
 11 10  1  0  0  0
 10  9  1  0  0  0
  9  8  1  0  0  0
  8  7  1  0  0  0
  7  6  1  0  0  0
  6  5  1  0  0  0
  2  1  1  0  0  0
  1 23  1  0  0  0
 30 32  1  0  0  0
 32 35  1  0  0  0
 39 40  1  0  0  0
 40 41  1  0  0  0
 41 42  1  0  0  0
 42 43  1  0  0  0
 43 44  1  0  0  0
 44 45  1  0  0  0
 45 46  1  0  0  0
 46 47  1  0  0  0
 47 48  2  0  0  0
 48 49  1  0  0  0
 49 50  1  0  0  0
 50 51  1  0  0  0
 51 52  1  0  0  0
 52 53  1  0  0  0
 53 54  1  0  0  0
 54 55  1  0  0  0
 55 56  1  0  0  0
M  CHG 1  26  -1
M  END
> <minimizedAffinity>
-8.28776

> <CNNscore>
0.4310668409

> <CNNaffinity>
7.1291465759

> <CNN_VS>
3.0731387138

> <CNNaffinity_variance>
0.5546814799

$$$$
/media/chris/experiments/cd1a-new-docking/inputs/ligands/7sh4_ligand.pdb


 56 55  0  0  0  0  0  0  0  0999 V2000
  -37.4725   60.2983   64.9629 C   0  0  0  0  0  0  0  0  0  0  0  0
  -38.3913   60.1533   66.1429 C   0  0  0  0  0  0  0  0  0  0  0  0
  -39.4548   59.3080   65.6556 O   0  0  0  0  0  0  0  0  0  0  0  0
  -40.9633   60.8974   66.1004 O   0  0  0  0  0  0  0  0  0  0  0  0
  -40.6995   59.7689   65.7834 C   0  0  0  0  0  0  0  0  0  0  0  0
  -41.7060   58.7377   65.3609 C   0  0  0  0  0  0  0  0  0  0  0  0
  -43.0346   58.8315   66.0918 C   0  0  0  0  0  0  0  0  0  0  0  0
  -44.1616   58.1440   65.3502 C   0  0  0  0  0  0  0  0  0  0  0  0
  -45.1070   57.3696   66.2403 C   0  0  0  0  0  0  0  0  0  0  0  0
  -46.4965   57.2314   65.6519 C   0  0  0  0  0  0  0  0  0  0  0  0
  -47.1707   58.5583   65.4025 C   0  0  0  0  0  0  0  0  0  0  0  0
  -48.5646   58.4157   64.8511 C   0  0  0  0  0  0  0  0  0  0  0  0
  -48.6102   58.3638   63.3400 C   0  0  0  0  0  0  0  0  0  0  0  0
  -49.3687   59.5289   62.7371 C   0  0  0  0  0  0  0  0  0  0  0  0
  -50.7204   59.1566   62.1648 C   0  0  0  0  0  0  0  0  0  0  0  0
  -50.8460   57.6844   61.7892 C   0  0  0  0  0  0  0  0  0  0  0  0
  -50.6145   57.4021   60.3171 C   0  0  0  0  0  0  0  0  0  0  0  0
  -49.2591   56.7906   60.0274 C   0  0  0  0  0  0  0  0  0  0  0  0
  -48.2795   57.7580   59.3779 C   0  0  0  0  0  0  0  0  0  0  0  0
  -47.0799   57.0750   58.7456 C   0  0  0  0  0  0  0  0  0  0  0  0
  -47.6574   55.2259   57.1383 C   0  0  0  0  0  0  0  0  0  0  0  0
  -47.2677   56.6784   57.2935 C   0  0  0  0  0  0  0  0  0  0  0  0
  -36.0679   60.6525   65.3792 C   0  0  0  0  0  0  0  0  0  0  0  0
  -36.1294   61.6592   66.4142 O   0  0  0  0  0  0  0  0  0  0  0  0
  -35.0923   62.8749   66.5046 P   0  0  0  0  0  0  0  0  0  0  0  0
  -35.8093   64.1165   66.1424 O   0  0  0  0  0  0  0  0  0  0  0  0
  -34.4111   62.8036   67.8197 O   0  0  0  0  0  0  0  0  0  0  0  0
  -35.0532   62.9753   68.5263 H   0  0  0  0  0  0  0  0  0  0  0  0
  -34.0053   62.5878   65.3738 O   0  0  0  0  0  0  0  0  0  0  0  0
  -33.1222   63.6414   64.9378 C   0  0  0  0  0  0  0  0  0  0  0  0
  -32.9339   65.4303   63.3546 O   0  0  0  0  0  0  0  0  0  0  0  0
  -33.8370   64.4582   63.8896 C   0  0  0  0  0  0  0  0  0  0  0  0
  -32.5789   65.9733   64.0758 H   0  0  0  0  0  0  0  0  0  0  0  0
  -35.7865   63.8607   62.6010 O   0  0  0  0  0  0  0  0  0  0  0  0
  -34.3997   63.6032   62.7796 C   0  0  0  0  0  0  0  0  0  0  0  0
  -36.1294   63.3032   61.8852 H   0  0  0  0  0  0  0  0  0  0  0  0
  -38.0388   61.3033   64.0578 O   0  0  0  0  0  0  0  0  0  0  0  0
  -37.1527   61.2278   61.9915 O   0  0  0  0  0  0  0  0  0  0  0  0
  -38.0593   61.0007   62.7456 C   0  0  0  0  0  0  0  0  0  0  0  0
  -39.3374   60.3318   62.3444 C   0  0  0  0  0  0  0  0  0  0  0  0
  -39.1111   59.3183   61.2271 C   0  0  0  0  0  0  0  0  0  0  0  0
  -38.6285   57.9619   61.7139 C   0  0  0  0  0  0  0  0  0  0  0  0
  -37.5823   57.3251   60.8061 C   0  0  0  0  0  0  0  0  0  0  0  0
  -37.1019   58.2313   59.6879 C   0  0  0  0  0  0  0  0  0  0  0  0
  -37.2600   57.6460   58.2817 C   0  0  0  0  0  0  0  0  0  0  0  0
  -36.3026   56.5022   57.9406 C   0  0  0  0  0  0  0  0  0  0  0  0
  -34.8869   56.9744   57.7963 C   0  0  0  0  0  0  0  0  0  0  0  0
  -33.9143   56.8271   58.6749 C   0  0  0  0  0  0  0  0  0  0  0  0
  -34.0219   56.1524   60.0059 C   0  0  0  0  0  0  0  0  0  0  0  0
  -33.9577   57.1408   61.1667 C   0  0  0  0  0  0  0  0  0  0  0  0
  -32.7330   56.9676   62.0477 C   0  0  0  0  0  0  0  0  0  0  0  0
  -32.2913   58.2472   62.7366 C   0  0  0  0  0  0  0  0  0  0  0  0
  -31.8753   59.3608   61.7899 C   0  0  0  0  0  0  0  0  0  0  0  0
  -30.4483   59.8398   62.0082 C   0  0  0  0  0  0  0  0  0  0  0  0
  -30.1787   61.2428   61.5012 C   0  0  0  0  0  0  0  0  0  0  0  0
  -30.9777   62.2875   62.2290 C   0  0  0  0  0  0  0  0  0  0  0  0
 21 22  1  0  0  0
  4  5  2  0  0  0
 25 24  1  0  0  0
 25 26  2  0  0  0
 25 27  1  0  0  0
 25 29  1  0  0  0
 22 20  1  0  0  0
  3  5  1  0  0  0
  3  2  1  0  0  0
 20 19  1  0  0  0
 24 23  1  0  0  0
 19 18  1  0  0  0
 18 17  1  0  0  0
 27 28  1  0  0  0
 17 16  1  0  0  0
 29 30  1  0  0  0
 16 15  1  0  0  0
 34 35  1  0  0  0
 34 36  1  0  0  0
 15 14  1  0  0  0
 31 32  1  0  0  0
 31 33  1  0  0  0
 14 13  1  0  0  0
 37  1  1  0  0  0
 37 39  1  0  0  0
 13 12  1  0  0  0
 38 39  2  0  0  0
 12 11  1  0  0  0
 11 10  1  0  0  0
 10  9  1  0  0  0
  9  8  1  0  0  0
  8  7  1  0  0  0
  7  6  1  0  0  0
  6  5  1  0  0  0
  2  1  1  0  0  0
  1 23  1  0  0  0
 30 32  1  0  0  0
 32 35  1  0  0  0
 39 40  1  0  0  0
 40 41  1  0  0  0
 41 42  1  0  0  0
 42 43  1  0  0  0
 43 44  1  0  0  0
 44 45  1  0  0  0
 45 46  1  0  0  0
 46 47  1  0  0  0
 47 48  2  0  0  0
 48 49  1  0  0  0
 49 50  1  0  0  0
 50 51  1  0  0  0
 51 52  1  0  0  0
 52 53  1  0  0  0
 53 54  1  0  0  0
 54 55  1  0  0  0
 55 56  1  0  0  0
M  CHG 1  26  -1
M  END
> <minimizedAffinity>
-9.00175

> <CNNscore>
0.4191037118

> <CNNaffinity>
7.2148141861

> <CNN_VS>
3.0237553120

> <CNNaffinity_variance>
0.7364348173

$$$$
/media/chris/experiments/cd1a-new-docking/inputs/ligands/7sh4_ligand.pdb


 56 55  0  0  0  0  0  0  0  0999 V2000
  -39.1469   58.5726   63.9989 C   0  0  0  0  0  0  0  0  0  0  0  0
  -37.7934   58.3955   64.6269 C   0  0  0  0  0  0  0  0  0  0  0  0
  -36.8744   58.5472   63.5244 O   0  0  0  0  0  0  0  0  0  0  0  0
  -35.4260   57.1629   64.5169 O   0  0  0  0  0  0  0  0  0  0  0  0
  -35.7470   57.8370   63.5756 C   0  0  0  0  0  0  0  0  0  0  0  0
  -35.0099   57.8942   62.2686 C   0  0  0  0  0  0  0  0  0  0  0  0
  -33.5391   57.5272   62.3692 C   0  0  0  0  0  0  0  0  0  0  0  0
  -32.6722   58.6922   62.7982 C   0  0  0  0  0  0  0  0  0  0  0  0
  -31.8873   59.3274   61.6728 C   0  0  0  0  0  0  0  0  0  0  0  0
  -30.5935   59.9645   62.1377 C   0  0  0  0  0  0  0  0  0  0  0  0
  -30.3992   61.3660   61.6127 C   0  0  0  0  0  0  0  0  0  0  0  0
  -30.8623   62.4253   62.5775 C   0  0  0  0  0  0  0  0  0  0  0  0
  -31.7650   63.4608   61.9443 C   0  0  0  0  0  0  0  0  0  0  0  0
  -32.8894   63.8965   62.8621 C   0  0  0  0  0  0  0  0  0  0  0  0
  -33.9965   62.8741   63.0116 C   0  0  0  0  0  0  0  0  0  0  0  0
  -35.3754   63.3986   62.6277 C   0  0  0  0  0  0  0  0  0  0  0  0
  -36.4071   63.2867   63.7338 C   0  0  0  0  0  0  0  0  0  0  0  0
  -36.5583   61.8801   64.2758 C   0  0  0  0  0  0  0  0  0  0  0  0
  -36.3700   61.7836   65.7833 C   0  0  0  0  0  0  0  0  0  0  0  0
  -36.0762   63.1179   66.4457 C   0  0  0  0  0  0  0  0  0  0  0  0
  -34.0228   64.5681   66.3185 C   0  0  0  0  0  0  0  0  0  0  0  0
  -34.6357   63.3063   66.8823 C   0  0  0  0  0  0  0  0  0  0  0  0
  -39.1811   58.0734   62.5772 C   0  0  0  0  0  0  0  0  0  0  0  0
  -39.4303   59.1923   61.6972 O   0  0  0  0  0  0  0  0  0  0  0  0
  -38.4560   59.5781   60.4874 P   0  0  0  0  0  0  0  0  0  0  0  0
  -39.2767   60.1707   59.4095 O   0  0  0  0  0  0  0  0  0  0  0  0
  -37.3266   60.3658   61.0377 O   0  0  0  0  0  0  0  0  0  0  0  0
  -37.6562   61.2160   61.3686 H   0  0  0  0  0  0  0  0  0  0  0  0
  -37.8734   58.1923   59.9557 O   0  0  0  0  0  0  0  0  0  0  0  0
  -37.0337   58.1648   58.7836 C   0  0  0  0  0  0  0  0  0  0  0  0
  -36.7716   56.2109   57.4213 O   0  0  0  0  0  0  0  0  0  0  0  0
  -36.4106   56.7947   58.6766 C   0  0  0  0  0  0  0  0  0  0  0  0
  -37.7380   56.1910   57.3398 H   0  0  0  0  0  0  0  0  0  0  0  0
  -34.2962   57.2198   57.5966 O   0  0  0  0  0  0  0  0  0  0  0  0
  -34.9082   56.8336   58.8204 C   0  0  0  0  0  0  0  0  0  0  0  0
  -33.3329   57.2390   57.7086 H   0  0  0  0  0  0  0  0  0  0  0  0
  -39.5134   59.9898   64.0843 O   0  0  0  0  0  0  0  0  0  0  0  0
  -40.2596   60.9224   65.9905 O   0  0  0  0  0  0  0  0  0  0  0  0
  -40.4699   60.3206   64.9729 C   0  0  0  0  0  0  0  0  0  0  0  0
  -41.8265   59.8655   64.5317 C   0  0  0  0  0  0  0  0  0  0  0  0
  -42.5896   59.1971   65.6708 C   0  0  0  0  0  0  0  0  0  0  0  0
  -44.0707   59.0034   65.3902 C   0  0  0  0  0  0  0  0  0  0  0  0
  -44.8347   58.3780   66.5518 C   0  0  0  0  0  0  0  0  0  0  0  0
  -46.2889   58.8033   66.6341 C   0  0  0  0  0  0  0  0  0  0  0  0
  -46.7664   59.6681   65.4641 C   0  0  0  0  0  0  0  0  0  0  0  0
  -47.9733   59.1205   64.6991 C   0  0  0  0  0  0  0  0  0  0  0  0
  -49.0159   60.1714   64.4615 C   0  0  0  0  0  0  0  0  0  0  0  0
  -50.1211   60.0383   63.7543 C   0  0  0  0  0  0  0  0  0  0  0  0
  -50.5680   58.8026   63.0390 C   0  0  0  0  0  0  0  0  0  0  0  0
  -50.0171   58.7206   61.6184 C   0  0  0  0  0  0  0  0  0  0  0  0
  -50.3319   57.4108   60.9173 C   0  0  0  0  0  0  0  0  0  0  0  0
  -50.2088   57.4834   59.4051 C   0  0  0  0  0  0  0  0  0  0  0  0
  -48.9639   56.8183   58.8421 C   0  0  0  0  0  0  0  0  0  0  0  0
  -47.7237   57.6963   58.9124 C   0  0  0  0  0  0  0  0  0  0  0  0
  -46.7658   57.5139   57.7519 C   0  0  0  0  0  0  0  0  0  0  0  0
  -47.3274   56.6386   56.6664 C   0  0  0  0  0  0  0  0  0  0  0  0
 21 22  1  0  0  0
  4  5  2  0  0  0
 25 24  1  0  0  0
 25 26  2  0  0  0
 25 27  1  0  0  0
 25 29  1  0  0  0
 22 20  1  0  0  0
  3  5  1  0  0  0
  3  2  1  0  0  0
 20 19  1  0  0  0
 24 23  1  0  0  0
 19 18  1  0  0  0
 18 17  1  0  0  0
 27 28  1  0  0  0
 17 16  1  0  0  0
 29 30  1  0  0  0
 16 15  1  0  0  0
 34 35  1  0  0  0
 34 36  1  0  0  0
 15 14  1  0  0  0
 31 32  1  0  0  0
 31 33  1  0  0  0
 14 13  1  0  0  0
 37  1  1  0  0  0
 37 39  1  0  0  0
 13 12  1  0  0  0
 38 39  2  0  0  0
 12 11  1  0  0  0
 11 10  1  0  0  0
 10  9  1  0  0  0
  9  8  1  0  0  0
  8  7  1  0  0  0
  7  6  1  0  0  0
  6  5  1  0  0  0
  2  1  1  0  0  0
  1 23  1  0  0  0
 30 32  1  0  0  0
 32 35  1  0  0  0
 39 40  1  0  0  0
 40 41  1  0  0  0
 41 42  1  0  0  0
 42 43  1  0  0  0
 43 44  1  0  0  0
 44 45  1  0  0  0
 45 46  1  0  0  0
 46 47  1  0  0  0
 47 48  2  0  0  0
 48 49  1  0  0  0
 49 50  1  0  0  0
 50 51  1  0  0  0
 51 52  1  0  0  0
 52 53  1  0  0  0
 53 54  1  0  0  0
 54 55  1  0  0  0
 55 56  1  0  0  0
M  CHG 1  26  -1
M  END
> <minimizedAffinity>
-8.33945

> <CNNscore>
0.3724793494

> <CNNaffinity>
7.2946662903

> <CNN_VS>
2.7171125412

> <CNNaffinity_variance>
0.6009929776

$$$$
