/media/chris/experiments/cd1a-new-docking/inputs/ligands/7sh4_ligand.pdb


 56 55  0  0  0  0  0  0  0  0999 V2000
  -35.6573   59.7318   63.6796 C   0  0  0  0  0  0  0  0  0  0  0  0
  -35.2950   58.3470   63.2228 C   0  0  0  0  0  0  0  0  0  0  0  0
  -34.6044   58.5607   61.9736 O   0  0  0  0  0  0  0  0  0  0  0  0
  -32.3833   58.3134   62.0405 O   0  0  0  0  0  0  0  0  0  0  0  0
  -33.4740   57.8796   61.7840 C   0  0  0  0  0  0  0  0  0  0  0  0
  -33.7558   56.4751   61.3337 C   0  0  0  0  0  0  0  0  0  0  0  0
  -34.2888   56.3735   59.9145 C   0  0  0  0  0  0  0  0  0  0  0  0
  -35.4856   55.4529   59.8024 C   0  0  0  0  0  0  0  0  0  0  0  0
  -36.6444   56.0356   59.0255 C   0  0  0  0  0  0  0  0  0  0  0  0
  -36.8833   57.5013   59.3267 C   0  0  0  0  0  0  0  0  0  0  0  0
  -37.7980   57.7240   60.5062 C   0  0  0  0  0  0  0  0  0  0  0  0
  -38.3753   59.1142   60.5489 C   0  0  0  0  0  0  0  0  0  0  0  0
  -39.0980   59.5035   59.2784 C   0  0  0  0  0  0  0  0  0  0  0  0
  -40.3887   60.2515   59.5449 C   0  0  0  0  0  0  0  0  0  0  0  0
  -41.6226   59.5725   58.9883 C   0  0  0  0  0  0  0  0  0  0  0  0
  -41.6135   59.4259   57.4710 C   0  0  0  0  0  0  0  0  0  0  0  0
  -42.8876   58.8322   56.9017 C   0  0  0  0  0  0  0  0  0  0  0  0
  -43.9258   58.5106   57.9571 C   0  0  0  0  0  0  0  0  0  0  0  0
  -45.2220   57.9511   57.3875 C   0  0  0  0  0  0  0  0  0  0  0  0
  -46.3356   57.8336   58.4130 C   0  0  0  0  0  0  0  0  0  0  0  0
  -47.3905   55.9515   57.1166 C   0  0  0  0  0  0  0  0  0  0  0  0
  -46.9947   56.4691   58.4809 C   0  0  0  0  0  0  0  0  0  0  0  0
  -34.4381   60.5750   63.9523 C   0  0  0  0  0  0  0  0  0  0  0  0
  -34.5802   61.8357   63.2603 O   0  0  0  0  0  0  0  0  0  0  0  0
  -33.3363   62.6304   62.6413 P   0  0  0  0  0  0  0  0  0  0  0  0
  -32.3255   61.6386   62.2154 O   0  0  0  0  0  0  0  0  0  0  0  0
  -33.8555   63.5930   61.6402 O   0  0  0  0  0  0  0  0  0  0  0  0
  -34.2345   63.1075   60.8909 H   0  0  0  0  0  0  0  0  0  0  0  0
  -32.7238   63.4663   63.8532 O   0  0  0  0  0  0  0  0  0  0  0  0
  -33.5901   63.9832   64.8839 C   0  0  0  0  0  0  0  0  0  0  0  0
  -31.5508   64.6643   65.9422 O   0  0  0  0  0  0  0  0  0  0  0  0
  -32.8684   65.1011   65.5956 C   0  0  0  0  0  0  0  0  0  0  0  0
  -31.6079   63.8555   66.4747 H   0  0  0  0  0  0  0  0  0  0  0  0
  -31.8808   66.2031   63.6907 O   0  0  0  0  0  0  0  0  0  0  0  0
  -32.7984   66.3603   64.7654 C   0  0  0  0  0  0  0  0  0  0  0  0
  -31.8497   67.0209   63.1699 H   0  0  0  0  0  0  0  0  0  0  0  0
  -36.5131   59.6178   64.8647 O   0  0  0  0  0  0  0  0  0  0  0  0
  -37.7831   61.4243   64.4357 O   0  0  0  0  0  0  0  0  0  0  0  0
  -37.6732   60.3020   64.8481 C   0  0  0  0  0  0  0  0  0  0  0  0
  -38.8102   59.4905   65.3872 C   0  0  0  0  0  0  0  0  0  0  0  0
  -39.5086   58.7039   64.2826 C   0  0  0  0  0  0  0  0  0  0  0  0
  -40.4774   59.5319   63.4545 C   0  0  0  0  0  0  0  0  0  0  0  0
  -41.4615   60.3389   64.2936 C   0  0  0  0  0  0  0  0  0  0  0  0
  -42.5692   59.5080   64.9142 C   0  0  0  0  0  0  0  0  0  0  0  0
  -42.3996   59.2378   66.4120 C   0  0  0  0  0  0  0  0  0  0  0  0
  -43.0283   57.9364   66.9145 C   0  0  0  0  0  0  0  0  0  0  0  0
  -43.5273   57.0791   65.7902 C   0  0  0  0  0  0  0  0  0  0  0  0
  -44.7791   56.9466   65.3967 C   0  0  0  0  0  0  0  0  0  0  0  0
  -45.9689   57.6300   65.9932 C   0  0  0  0  0  0  0  0  0  0  0  0
  -46.2812   58.9579   65.3094 C   0  0  0  0  0  0  0  0  0  0  0  0
  -47.6949   59.0437   64.7613 C   0  0  0  0  0  0  0  0  0  0  0  0
  -48.6288   57.9806   65.3138 C   0  0  0  0  0  0  0  0  0  0  0  0
  -50.1063   58.2766   65.1169 C   0  0  0  0  0  0  0  0  0  0  0  0
  -50.4007   59.0799   63.8593 C   0  0  0  0  0  0  0  0  0  0  0  0
  -50.7733   58.2369   62.6558 C   0  0  0  0  0  0  0  0  0  0  0  0
  -49.7319   58.2777   61.5725 C   0  0  0  0  0  0  0  0  0  0  0  0
 21 22  1  0  0  0
  4  5  2  0  0  0
 25 24  1  0  0  0
 25 26  2  0  0  0
 25 27  1  0  0  0
 25 29  1  0  0  0
 22 20  1  0  0  0
  3  5  1  0  0  0
  3  2  1  0  0  0
 20 19  1  0  0  0
 24 23  1  0  0  0
 19 18  1  0  0  0
 18 17  1  0  0  0
 27 28  1  0  0  0
 17 16  1  0  0  0
 29 30  1  0  0  0
 16 15  1  0  0  0
 34 35  1  0  0  0
 34 36  1  0  0  0
 15 14  1  0  0  0
 31 32  1  0  0  0
 31 33  1  0  0  0
 14 13  1  0  0  0
 37  1  1  0  0  0
 37 39  1  0  0  0
 13 12  1  0  0  0
 38 39  2  0  0  0
 12 11  1  0  0  0
 11 10  1  0  0  0
 10  9  1  0  0  0
  9  8  1  0  0  0
  8  7  1  0  0  0
  7  6  1  0  0  0
  6  5  1  0  0  0
  2  1  1  0  0  0
  1 23  1  0  0  0
 30 32  1  0  0  0
 32 35  1  0  0  0
 39 40  1  0  0  0
 40 41  1  0  0  0
 41 42  1  0  0  0
 42 43  1  0  0  0
 43 44  1  0  0  0
 44 45  1  0  0  0
 45 46  1  0  0  0
 46 47  1  0  0  0
 47 48  2  0  0  0
 48 49  1  0  0  0
 49 50  1  0  0  0
 50 51  1  0  0  0
 51 52  1  0  0  0
 52 53  1  0  0  0
 53 54  1  0  0  0
 54 55  1  0  0  0
 55 56  1  0  0  0
M  CHG 1  26  -1
M  END
> <minimizedAffinity>
-7.95556

> <CNNscore>
0.5863040686

> <CNNaffinity>
7.5924286842

> <CNN_VS>
4.4514718056

> <CNNaffinity_variance>
0.5963820219

$$$$
/media/chris/experiments/cd1a-new-docking/inputs/ligands/7sh4_ligand.pdb


 56 55  0  0  0  0  0  0  0  0999 V2000
  -37.2273   60.1338   65.2153 C   0  0  0  0  0  0  0  0  0  0  0  0
  -38.4555   59.5035   65.8086 C   0  0  0  0  0  0  0  0  0  0  0  0
  -39.4165   60.5797   65.8471 O   0  0  0  0  0  0  0  0  0  0  0  0
  -41.0846   61.1370   64.4666 O   0  0  0  0  0  0  0  0  0  0  0  0
  -40.5859   60.3674   65.2429 C   0  0  0  0  0  0  0  0  0  0  0  0
  -41.1220   59.0019   65.5630 C   0  0  0  0  0  0  0  0  0  0  0  0
  -42.1853   58.9913   66.6484 C   0  0  0  0  0  0  0  0  0  0  0  0
  -43.5789   59.2286   66.1061 C   0  0  0  0  0  0  0  0  0  0  0  0
  -44.5818   58.1640   66.4888 C   0  0  0  0  0  0  0  0  0  0  0  0
  -45.9749   58.7155   66.7158 C   0  0  0  0  0  0  0  0  0  0  0  0
  -46.6532   59.1583   65.4426 C   0  0  0  0  0  0  0  0  0  0  0  0
  -48.1144   59.4698   65.6319 C   0  0  0  0  0  0  0  0  0  0  0  0
  -48.9734   59.0568   64.4574 C   0  0  0  0  0  0  0  0  0  0  0  0
  -49.0352   60.1168   63.3762 C   0  0  0  0  0  0  0  0  0  0  0  0
  -49.8264   59.7054   62.1522 C   0  0  0  0  0  0  0  0  0  0  0  0
  -50.8984   58.6590   62.4346 C   0  0  0  0  0  0  0  0  0  0  0  0
  -51.0051   57.5835   61.3707 C   0  0  0  0  0  0  0  0  0  0  0  0
  -49.9560   57.7051   60.2845 C   0  0  0  0  0  0  0  0  0  0  0  0
  -49.2779   56.3862   59.9407 C   0  0  0  0  0  0  0  0  0  0  0  0
  -48.2335   56.5074   58.8453 C   0  0  0  0  0  0  0  0  0  0  0  0
  -46.2806   57.8281   57.9633 C   0  0  0  0  0  0  0  0  0  0  0  0
  -47.0531   57.3959   59.1891 C   0  0  0  0  0  0  0  0  0  0  0  0
  -37.2651   61.6381   65.3014 C   0  0  0  0  0  0  0  0  0  0  0  0
  -36.5308   62.0555   66.4740 O   0  0  0  0  0  0  0  0  0  0  0  0
  -36.0562   63.5660   66.7081 P   0  0  0  0  0  0  0  0  0  0  0  0
  -36.6678   64.4064   65.6562 O   0  0  0  0  0  0  0  0  0  0  0  0
  -36.3019   63.9121   68.1288 O   0  0  0  0  0  0  0  0  0  0  0  0
  -37.2570   63.9256   68.2979 H   0  0  0  0  0  0  0  0  0  0  0  0
  -34.4792   63.5547   66.4723 O   0  0  0  0  0  0  0  0  0  0  0  0
  -33.8997   62.6475   65.5124 C   0  0  0  0  0  0  0  0  0  0  0  0
  -33.8884   64.7413   64.3468 O   0  0  0  0  0  0  0  0  0  0  0  0
  -33.2527   63.4616   64.4190 C   0  0  0  0  0  0  0  0  0  0  0  0
  -34.8415   64.6217   64.2118 H   0  0  0  0  0  0  0  0  0  0  0  0
  -31.5084   64.3979   65.7970 O   0  0  0  0  0  0  0  0  0  0  0  0
  -31.7669   63.6289   64.6294 C   0  0  0  0  0  0  0  0  0  0  0  0
  -30.5504   64.4943   65.9152 H   0  0  0  0  0  0  0  0  0  0  0  0
  -37.0962   59.6738   63.8292 O   0  0  0  0  0  0  0  0  0  0  0  0
  -36.7154   61.4727   62.5334 O   0  0  0  0  0  0  0  0  0  0  0  0
  -37.4156   60.5540   62.8610 C   0  0  0  0  0  0  0  0  0  0  0  0
  -38.7368   60.2391   62.2309 C   0  0  0  0  0  0  0  0  0  0  0  0
  -38.8813   58.7465   61.9513 C   0  0  0  0  0  0  0  0  0  0  0  0
  -37.9304   58.2240   60.8870 C   0  0  0  0  0  0  0  0  0  0  0  0
  -38.3057   58.6496   59.4721 C   0  0  0  0  0  0  0  0  0  0  0  0
  -37.1174   58.8246   58.5449 C   0  0  0  0  0  0  0  0  0  0  0  0
  -37.0037   57.7620   57.4481 C   0  0  0  0  0  0  0  0  0  0  0  0
  -36.0056   56.6373   57.7316 C   0  0  0  0  0  0  0  0  0  0  0  0
  -36.5189   55.6718   58.7574 C   0  0  0  0  0  0  0  0  0  0  0  0
  -35.8659   55.2213   59.8110 C   0  0  0  0  0  0  0  0  0  0  0  0
  -34.4687   55.5836   60.2049 C   0  0  0  0  0  0  0  0  0  0  0  0
  -34.3883   56.9544   60.8703 C   0  0  0  0  0  0  0  0  0  0  0  0
  -34.0256   56.8965   62.3438 C   0  0  0  0  0  0  0  0  0  0  0  0
  -32.7642   57.6680   62.6921 C   0  0  0  0  0  0  0  0  0  0  0  0
  -32.3974   58.7571   61.6978 C   0  0  0  0  0  0  0  0  0  0  0  0
  -32.3051   60.1410   62.3221 C   0  0  0  0  0  0  0  0  0  0  0  0
  -30.9280   60.7694   62.2408 C   0  0  0  0  0  0  0  0  0  0  0  0
  -30.9280   62.0755   61.4965 C   0  0  0  0  0  0  0  0  0  0  0  0
 21 22  1  0  0  0
  4  5  2  0  0  0
 25 24  1  0  0  0
 25 26  2  0  0  0
 25 27  1  0  0  0
 25 29  1  0  0  0
 22 20  1  0  0  0
  3  5  1  0  0  0
  3  2  1  0  0  0
 20 19  1  0  0  0
 24 23  1  0  0  0
 19 18  1  0  0  0
 18 17  1  0  0  0
 27 28  1  0  0  0
 17 16  1  0  0  0
 29 30  1  0  0  0
 16 15  1  0  0  0
 34 35  1  0  0  0
 34 36  1  0  0  0
 15 14  1  0  0  0
 31 32  1  0  0  0
 31 33  1  0  0  0
 14 13  1  0  0  0
 37  1  1  0  0  0
 37 39  1  0  0  0
 13 12  1  0  0  0
 38 39  2  0  0  0
 12 11  1  0  0  0
 11 10  1  0  0  0
 10  9  1  0  0  0
  9  8  1  0  0  0
  8  7  1  0  0  0
  7  6  1  0  0  0
  6  5  1  0  0  0
  2  1  1  0  0  0
  1 23  1  0  0  0
 30 32  1  0  0  0
 32 35  1  0  0  0
 39 40  1  0  0  0
 40 41  1  0  0  0
 41 42  1  0  0  0
 42 43  1  0  0  0
 43 44  1  0  0  0
 44 45  1  0  0  0
 45 46  1  0  0  0
 46 47  1  0  0  0
 47 48  2  0  0  0
 48 49  1  0  0  0
 49 50  1  0  0  0
 50 51  1  0  0  0
 51 52  1  0  0  0
 52 53  1  0  0  0
 53 54  1  0  0  0
 54 55  1  0  0  0
 55 56  1  0  0  0
M  CHG 1  26  -1
M  END
> <minimizedAffinity>
-8.61027

> <CNNscore>
0.5224129558

> <CNNaffinity>
7.4599981308

> <CNN_VS>
3.8971996307

> <CNNaffinity_variance>
0.4655215144

$$$$
/media/chris/experiments/cd1a-new-docking/inputs/ligands/7sh4_ligand.pdb


 56 55  0  0  0  0  0  0  0  0999 V2000
  -37.1359   59.7240   65.3279 C   0  0  0  0  0  0  0  0  0  0  0  0
  -38.5549   59.2585   65.1623 C   0  0  0  0  0  0  0  0  0  0  0  0
  -39.3403   60.4515   65.3693 O   0  0  0  0  0  0  0  0  0  0  0  0
  -41.1101   61.1758   66.5279 O   0  0  0  0  0  0  0  0  0  0  0  0
  -40.5325   60.2975   65.9460 C   0  0  0  0  0  0  0  0  0  0  0  0
  -41.1001   58.9364   65.6635 C   0  0  0  0  0  0  0  0  0  0  0  0
  -42.5448   58.9518   65.1930 C   0  0  0  0  0  0  0  0  0  0  0  0
  -43.5110   58.4615   66.2506 C   0  0  0  0  0  0  0  0  0  0  0  0
  -44.9076   58.1938   65.7371 C   0  0  0  0  0  0  0  0  0  0  0  0
  -45.4676   56.8660   66.2056 C   0  0  0  0  0  0  0  0  0  0  0  0
  -46.9431   56.7126   65.9283 C   0  0  0  0  0  0  0  0  0  0  0  0
  -47.5201   57.8694   65.1560 C   0  0  0  0  0  0  0  0  0  0  0  0
  -49.0209   57.9957   65.2959 C   0  0  0  0  0  0  0  0  0  0  0  0
  -49.6097   59.0384   64.3673 C   0  0  0  0  0  0  0  0  0  0  0  0
  -50.8986   58.6115   63.6968 C   0  0  0  0  0  0  0  0  0  0  0  0
  -50.8334   58.6211   62.1738 C   0  0  0  0  0  0  0  0  0  0  0  0
  -49.4838   58.2169   61.6123 C   0  0  0  0  0  0  0  0  0  0  0  0
  -49.5063   57.9555   60.1202 C   0  0  0  0  0  0  0  0  0  0  0  0
  -48.1861   57.4316   59.5724 C   0  0  0  0  0  0  0  0  0  0  0  0
  -48.3086   56.7908   58.2013 C   0  0  0  0  0  0  0  0  0  0  0  0
  -46.0665   57.8988   57.9168 C   0  0  0  0  0  0  0  0  0  0  0  0
  -47.1542   57.0790   57.2605 C   0  0  0  0  0  0  0  0  0  0  0  0
  -37.0471   61.2185   65.5023 C   0  0  0  0  0  0  0  0  0  0  0  0
  -35.7116   61.5573   65.9386 O   0  0  0  0  0  0  0  0  0  0  0  0
  -35.3354   62.9883   66.5489 P   0  0  0  0  0  0  0  0  0  0  0  0
  -36.5814   63.7750   66.6731 O   0  0  0  0  0  0  0  0  0  0  0  0
  -34.5069   62.7706   67.7591 O   0  0  0  0  0  0  0  0  0  0  0  0
  -35.0430   62.3439   68.4456 H   0  0  0  0  0  0  0  0  0  0  0  0
  -34.4197   63.6896   65.4478 O   0  0  0  0  0  0  0  0  0  0  0  0
  -33.8205   62.9013   64.3991 C   0  0  0  0  0  0  0  0  0  0  0  0
  -33.4263   62.9091   62.0354 O   0  0  0  0  0  0  0  0  0  0  0  0
  -34.2239   63.4919   63.0704 C   0  0  0  0  0  0  0  0  0  0  0  0
  -32.4870   63.0438   62.2364 H   0  0  0  0  0  0  0  0  0  0  0  0
  -36.4777   64.2635   63.4493 O   0  0  0  0  0  0  0  0  0  0  0  0
  -35.6906   63.2911   62.7736 C   0  0  0  0  0  0  0  0  0  0  0  0
  -37.4151   64.1185   63.2466 H   0  0  0  0  0  0  0  0  0  0  0  0
  -36.3621   59.2670   64.1693 O   0  0  0  0  0  0  0  0  0  0  0  0
  -36.1680   57.0358   64.3799 O   0  0  0  0  0  0  0  0  0  0  0  0
  -35.6645   58.1239   64.3134 C   0  0  0  0  0  0  0  0  0  0  0  0
  -34.1885   58.3704   64.3620 C   0  0  0  0  0  0  0  0  0  0  0  0
  -33.7777   59.4928   63.4144 C   0  0  0  0  0  0  0  0  0  0  0  0
  -32.5409   59.1801   62.5882 C   0  0  0  0  0  0  0  0  0  0  0  0
  -32.5775   57.8044   61.9325 C   0  0  0  0  0  0  0  0  0  0  0  0
  -33.8160   57.5545   61.0920 C   0  0  0  0  0  0  0  0  0  0  0  0
  -34.2093   56.0803   60.9604 C   0  0  0  0  0  0  0  0  0  0  0  0
  -33.9410   55.4543   59.5902 C   0  0  0  0  0  0  0  0  0  0  0  0
  -33.8502   56.4858   58.5059 C   0  0  0  0  0  0  0  0  0  0  0  0
  -34.8453   56.9494   57.7748 C   0  0  0  0  0  0  0  0  0  0  0  0
  -36.2809   56.5409   57.8774 C   0  0  0  0  0  0  0  0  0  0  0  0
  -37.2343   57.7243   57.7392 C   0  0  0  0  0  0  0  0  0  0  0  0
  -37.5232   58.4310   59.0519 C   0  0  0  0  0  0  0  0  0  0  0  0
  -37.6320   57.4904   60.2398 C   0  0  0  0  0  0  0  0  0  0  0  0
  -38.2160   58.1228   61.4922 C   0  0  0  0  0  0  0  0  0  0  0  0
  -38.4073   59.6274   61.3781 C   0  0  0  0  0  0  0  0  0  0  0  0
  -39.8159   60.0492   61.0095 C   0  0  0  0  0  0  0  0  0  0  0  0
  -40.6390   60.4358   62.2064 C   0  0  0  0  0  0  0  0  0  0  0  0
 21 22  1  0  0  0
  4  5  2  0  0  0
 25 24  1  0  0  0
 25 26  2  0  0  0
 25 27  1  0  0  0
 25 29  1  0  0  0
 22 20  1  0  0  0
  3  5  1  0  0  0
  3  2  1  0  0  0
 20 19  1  0  0  0
 24 23  1  0  0  0
 19 18  1  0  0  0
 18 17  1  0  0  0
 27 28  1  0  0  0
 17 16  1  0  0  0
 29 30  1  0  0  0
 16 15  1  0  0  0
 34 35  1  0  0  0
 34 36  1  0  0  0
 15 14  1  0  0  0
 31 32  1  0  0  0
 31 33  1  0  0  0
 14 13  1  0  0  0
 37  1  1  0  0  0
 37 39  1  0  0  0
 13 12  1  0  0  0
 38 39  2  0  0  0
 12 11  1  0  0  0
 11 10  1  0  0  0
 10  9  1  0  0  0
  9  8  1  0  0  0
  8  7  1  0  0  0
  7  6  1  0  0  0
  6  5  1  0  0  0
  2  1  1  0  0  0
  1 23  1  0  0  0
 30 32  1  0  0  0
 32 35  1  0  0  0
 39 40  1  0  0  0
 40 41  1  0  0  0
 41 42  1  0  0  0
 42 43  1  0  0  0
 43 44  1  0  0  0
 44 45  1  0  0  0
 45 46  1  0  0  0
 46 47  1  0  0  0
 47 48  2  0  0  0
 48 49  1  0  0  0
 49 50  1  0  0  0
 50 51  1  0  0  0
 51 52  1  0  0  0
 52 53  1  0  0  0
 53 54  1  0  0  0
 54 55  1  0  0  0
 55 56  1  0  0  0
M  CHG 1  26  -1
M  END
> <minimizedAffinity>
-8.75958

> <CNNscore>
0.5116872191

> <CNNaffinity>
7.5998892784

> <CNN_VS>
3.8887662888

> <CNNaffinity_variance>
1.1734809875

$$$$
/media/chris/experiments/cd1a-new-docking/inputs/ligands/7sh4_ligand.pdb


 56 55  0  0  0  0  0  0  0  0999 V2000
  -39.4972   58.5445   64.6744 C   0  0  0  0  0  0  0  0  0  0  0  0
  -40.8669   58.2234   65.2021 C   0  0  0  0  0  0  0  0  0  0  0  0
  -41.0690   59.1865   66.2579 O   0  0  0  0  0  0  0  0  0  0  0  0
  -42.5894   59.7603   67.7936 O   0  0  0  0  0  0  0  0  0  0  0  0
  -42.3171   59.3463   66.6991 C   0  0  0  0  0  0  0  0  0  0  0  0
  -43.3163   59.0635   65.6146 C   0  0  0  0  0  0  0  0  0  0  0  0
  -44.4163   58.0973   66.0208 C   0  0  0  0  0  0  0  0  0  0  0  0
  -45.7534   58.7802   66.2170 C   0  0  0  0  0  0  0  0  0  0  0  0
  -46.9375   57.9735   65.7344 C   0  0  0  0  0  0  0  0  0  0  0  0
  -47.3981   58.3685   64.3459 C   0  0  0  0  0  0  0  0  0  0  0  0
  -48.2560   59.6100   64.3354 C   0  0  0  0  0  0  0  0  0  0  0  0
  -49.2388   59.6367   63.1947 C   0  0  0  0  0  0  0  0  0  0  0  0
  -50.1851   58.4567   63.1899 C   0  0  0  0  0  0  0  0  0  0  0  0
  -49.9360   57.5113   62.0321 C   0  0  0  0  0  0  0  0  0  0  0  0
  -50.7420   57.8296   60.7901 C   0  0  0  0  0  0  0  0  0  0  0  0
  -50.0716   57.3937   59.4922 C   0  0  0  0  0  0  0  0  0  0  0  0
  -48.7745   56.6341   59.6936 C   0  0  0  0  0  0  0  0  0  0  0  0
  -47.5442   57.4323   59.3134 C   0  0  0  0  0  0  0  0  0  0  0  0
  -47.2919   57.4873   57.8131 C   0  0  0  0  0  0  0  0  0  0  0  0
  -45.8321   57.3091   57.4355 C   0  0  0  0  0  0  0  0  0  0  0  0
  -43.6491   58.5512   57.2709 C   0  0  0  0  0  0  0  0  0  0  0  0
  -44.8797   58.2804   58.1065 C   0  0  0  0  0  0  0  0  0  0  0  0
  -38.8744   59.7149   65.3912 C   0  0  0  0  0  0  0  0  0  0  0  0
  -37.4458   59.6861   65.1750 O   0  0  0  0  0  0  0  0  0  0  0  0
  -36.6413   60.9101   64.5296 P   0  0  0  0  0  0  0  0  0  0  0  0
  -35.9992   60.4313   63.2865 O   0  0  0  0  0  0  0  0  0  0  0  0
  -37.5551   62.0755   64.4560 O   0  0  0  0  0  0  0  0  0  0  0  0
  -38.2671   61.8888   63.8242 H   0  0  0  0  0  0  0  0  0  0  0  0
  -35.4887   61.2565   65.5756 O   0  0  0  0  0  0  0  0  0  0  0  0
  -34.5674   62.3324   65.3042 C   0  0  0  0  0  0  0  0  0  0  0  0
  -33.2987   63.9071   66.5899 O   0  0  0  0  0  0  0  0  0  0  0  0
  -34.5784   63.2765   66.4812 C   0  0  0  0  0  0  0  0  0  0  0  0
  -32.6088   63.2288   66.6593 H   0  0  0  0  0  0  0  0  0  0  0  0
  -36.8946   63.8180   66.8820 O   0  0  0  0  0  0  0  0  0  0  0  0
  -35.6653   64.3188   66.3721 C   0  0  0  0  0  0  0  0  0  0  0  0
  -37.5792   64.5006   66.8035 H   0  0  0  0  0  0  0  0  0  0  0  0
  -39.6034   58.7868   63.2322 O   0  0  0  0  0  0  0  0  0  0  0  0
  -40.6730   60.7321   63.5960 O   0  0  0  0  0  0  0  0  0  0  0  0
  -40.1292   59.9659   62.8482 C   0  0  0  0  0  0  0  0  0  0  0  0
  -39.9384   60.2145   61.3841 C   0  0  0  0  0  0  0  0  0  0  0  0
  -38.4686   60.1182   60.9876 C   0  0  0  0  0  0  0  0  0  0  0  0
  -38.2446   59.6301   59.5658 C   0  0  0  0  0  0  0  0  0  0  0  0
  -37.7622   58.1862   59.4859 C   0  0  0  0  0  0  0  0  0  0  0  0
  -37.2436   57.7839   58.1177 C   0  0  0  0  0  0  0  0  0  0  0  0
  -36.4302   56.4866   58.1013 C   0  0  0  0  0  0  0  0  0  0  0  0
  -36.2917   55.7873   59.4553 C   0  0  0  0  0  0  0  0  0  0  0  0
  -34.8999   55.2814   59.6900 C   0  0  0  0  0  0  0  0  0  0  0  0
  -33.8969   55.9533   60.2209 C   0  0  0  0  0  0  0  0  0  0  0  0
  -33.9402   57.3687   60.7039 C   0  0  0  0  0  0  0  0  0  0  0  0
  -33.8727   57.4671   62.2252 C   0  0  0  0  0  0  0  0  0  0  0  0
  -33.1286   58.6933   62.7243 C   0  0  0  0  0  0  0  0  0  0  0  0
  -31.7023   58.7920   62.2111 C   0  0  0  0  0  0  0  0  0  0  0  0
  -31.3424   60.1393   61.6071 C   0  0  0  0  0  0  0  0  0  0  0  0
  -31.3808   61.2822   62.6100 C   0  0  0  0  0  0  0  0  0  0  0  0
  -32.4214   62.3418   62.3060 C   0  0  0  0  0  0  0  0  0  0  0  0
  -31.8145   63.6856   62.0133 C   0  0  0  0  0  0  0  0  0  0  0  0
 21 22  1  0  0  0
  4  5  2  0  0  0
 25 24  1  0  0  0
 25 26  2  0  0  0
 25 27  1  0  0  0
 25 29  1  0  0  0
 22 20  1  0  0  0
  3  5  1  0  0  0
  3  2  1  0  0  0
 20 19  1  0  0  0
 24 23  1  0  0  0
 19 18  1  0  0  0
 18 17  1  0  0  0
 27 28  1  0  0  0
 17 16  1  0  0  0
 29 30  1  0  0  0
 16 15  1  0  0  0
 34 35  1  0  0  0
 34 36  1  0  0  0
 15 14  1  0  0  0
 31 32  1  0  0  0
 31 33  1  0  0  0
 14 13  1  0  0  0
 37  1  1  0  0  0
 37 39  1  0  0  0
 13 12  1  0  0  0
 38 39  2  0  0  0
 12 11  1  0  0  0
 11 10  1  0  0  0
 10  9  1  0  0  0
  9  8  1  0  0  0
  8  7  1  0  0  0
  7  6  1  0  0  0
  6  5  1  0  0  0
  2  1  1  0  0  0
  1 23  1  0  0  0
 30 32  1  0  0  0
 32 35  1  0  0  0
 39 40  1  0  0  0
 40 41  1  0  0  0
 41 42  1  0  0  0
 42 43  1  0  0  0
 43 44  1  0  0  0
 44 45  1  0  0  0
 45 46  1  0  0  0
 46 47  1  0  0  0
 47 48  2  0  0  0
 48 49  1  0  0  0
 49 50  1  0  0  0
 50 51  1  0  0  0
 51 52  1  0  0  0
 52 53  1  0  0  0
 53 54  1  0  0  0
 54 55  1  0  0  0
 55 56  1  0  0  0
M  CHG 1  26  -1
M  END
> <minimizedAffinity>
-8.44297

> <CNNscore>
0.4954717457

> <CNNaffinity>
7.5310845375

> <CNN_VS>
3.7314395905

> <CNNaffinity_variance>
0.5959121585

$$$$
/media/chris/experiments/cd1a-new-docking/inputs/ligands/7sh4_ligand.pdb


 56 55  0  0  0  0  0  0  0  0999 V2000
  -36.8136   60.1161   65.4539 C   0  0  0  0  0  0  0  0  0  0  0  0
  -38.1137   59.3628   65.4528 C   0  0  0  0  0  0  0  0  0  0  0  0
  -39.1089   60.3836   65.6778 O   0  0  0  0  0  0  0  0  0  0  0  0
  -40.8023   61.0657   64.3869 O   0  0  0  0  0  0  0  0  0  0  0  0
  -40.2856   60.2242   65.0714 C   0  0  0  0  0  0  0  0  0  0  0  0
  -40.8058   58.8276   65.2547 C   0  0  0  0  0  0  0  0  0  0  0  0
  -41.8911   58.7031   66.3107 C   0  0  0  0  0  0  0  0  0  0  0  0
  -43.2610   58.4525   65.7165 C   0  0  0  0  0  0  0  0  0  0  0  0
  -43.8564   57.1105   66.0776 C   0  0  0  0  0  0  0  0  0  0  0  0
  -45.1106   56.7869   65.2912 C   0  0  0  0  0  0  0  0  0  0  0  0
  -45.6019   57.9428   64.4545 C   0  0  0  0  0  0  0  0  0  0  0  0
  -46.8369   58.5944   65.0184 C   0  0  0  0  0  0  0  0  0  0  0  0
  -47.4811   57.7977   66.1312 C   0  0  0  0  0  0  0  0  0  0  0  0
  -48.9233   57.4390   65.8350 C   0  0  0  0  0  0  0  0  0  0  0  0
  -49.8146   58.6334   65.5665 C   0  0  0  0  0  0  0  0  0  0  0  0
  -50.4401   58.6352   64.1763 C   0  0  0  0  0  0  0  0  0  0  0  0
  -50.0156   59.8061   63.3110 C   0  0  0  0  0  0  0  0  0  0  0  0
  -49.7914   59.4323   61.8601 C   0  0  0  0  0  0  0  0  0  0  0  0
  -49.0152   58.1356   61.6769 C   0  0  0  0  0  0  0  0  0  0  0  0
  -49.0215   57.6202   60.2487 C   0  0  0  0  0  0  0  0  0  0  0  0
  -47.5752   56.1222   58.8345 C   0  0  0  0  0  0  0  0  0  0  0  0
  -47.6465   57.3937   59.6495 C   0  0  0  0  0  0  0  0  0  0  0  0
  -37.0132   61.5896   65.7000 C   0  0  0  0  0  0  0  0  0  0  0  0
  -36.9685   62.2831   64.4329 O   0  0  0  0  0  0  0  0  0  0  0  0
  -36.0114   63.5375   64.1640 P   0  0  0  0  0  0  0  0  0  0  0  0
  -35.7859   63.6370   62.7059 O   0  0  0  0  0  0  0  0  0  0  0  0
  -36.5732   64.7085   64.8794 O   0  0  0  0  0  0  0  0  0  0  0  0
  -37.4212   64.9560   64.4787 H   0  0  0  0  0  0  0  0  0  0  0  0
  -34.6221   63.1637   64.8514 O   0  0  0  0  0  0  0  0  0  0  0  0
  -33.3960   63.7458   64.3634 C   0  0  0  0  0  0  0  0  0  0  0  0
  -31.2963   64.4119   65.3068 O   0  0  0  0  0  0  0  0  0  0  0  0
  -32.7118   64.4460   65.5117 C   0  0  0  0  0  0  0  0  0  0  0  0
  -31.0068   63.4921   65.2020 H   0  0  0  0  0  0  0  0  0  0  0  0
  -33.9421   66.2841   64.5494 O   0  0  0  0  0  0  0  0  0  0  0  0
  -33.1803   65.8718   65.6769 C   0  0  0  0  0  0  0  0  0  0  0  0
  -34.2336   67.2009   64.6738 H   0  0  0  0  0  0  0  0  0  0  0  0
  -36.1349   59.8672   64.1782 O   0  0  0  0  0  0  0  0  0  0  0  0
  -34.4522   58.6582   65.0542 O   0  0  0  0  0  0  0  0  0  0  0  0
  -34.8589   59.4400   64.2386 C   0  0  0  0  0  0  0  0  0  0  0  0
  -34.0148   60.0412   63.1579 C   0  0  0  0  0  0  0  0  0  0  0  0
  -32.7460   59.2280   62.9221 C   0  0  0  0  0  0  0  0  0  0  0  0
  -32.7664   58.4122   61.6399 C   0  0  0  0  0  0  0  0  0  0  0  0
  -32.7486   56.9062   61.8751 C   0  0  0  0  0  0  0  0  0  0  0  0
  -34.0387   56.2063   61.4899 C   0  0  0  0  0  0  0  0  0  0  0  0
  -35.2519   56.5945   62.3398 C   0  0  0  0  0  0  0  0  0  0  0  0
  -36.3508   57.3572   61.5966 C   0  0  0  0  0  0  0  0  0  0  0  0
  -37.7180   57.0257   62.1149 C   0  0  0  0  0  0  0  0  0  0  0  0
  -38.7448   57.8479   62.2100 C   0  0  0  0  0  0  0  0  0  0  0  0
  -38.7592   59.2913   61.8163 C   0  0  0  0  0  0  0  0  0  0  0  0
  -39.0789   59.4883   60.3373 C   0  0  0  0  0  0  0  0  0  0  0  0
  -37.8519   59.4835   59.4426 C   0  0  0  0  0  0  0  0  0  0  0  0
  -37.8993   58.4312   58.3481 C   0  0  0  0  0  0  0  0  0  0  0  0
  -36.5410   58.0460   57.7857 C   0  0  0  0  0  0  0  0  0  0  0  0
  -36.2061   56.5734   57.9667 C   0  0  0  0  0  0  0  0  0  0  0  0
  -34.7499   56.3016   58.2884 C   0  0  0  0  0  0  0  0  0  0  0  0
  -33.8288   57.3631   57.7550 C   0  0  0  0  0  0  0  0  0  0  0  0
 21 22  1  0  0  0
  4  5  2  0  0  0
 25 24  1  0  0  0
 25 26  2  0  0  0
 25 27  1  0  0  0
 25 29  1  0  0  0
 22 20  1  0  0  0
  3  5  1  0  0  0
  3  2  1  0  0  0
 20 19  1  0  0  0
 24 23  1  0  0  0
 19 18  1  0  0  0
 18 17  1  0  0  0
 27 28  1  0  0  0
 17 16  1  0  0  0
 29 30  1  0  0  0
 16 15  1  0  0  0
 34 35  1  0  0  0
 34 36  1  0  0  0
 15 14  1  0  0  0
 31 32  1  0  0  0
 31 33  1  0  0  0
 14 13  1  0  0  0
 37  1  1  0  0  0
 37 39  1  0  0  0
 13 12  1  0  0  0
 38 39  2  0  0  0
 12 11  1  0  0  0
 11 10  1  0  0  0
 10  9  1  0  0  0
  9  8  1  0  0  0
  8  7  1  0  0  0
  7  6  1  0  0  0
  6  5  1  0  0  0
  2  1  1  0  0  0
  1 23  1  0  0  0
 30 32  1  0  0  0
 32 35  1  0  0  0
 39 40  1  0  0  0
 40 41  1  0  0  0
 41 42  1  0  0  0
 42 43  1  0  0  0
 43 44  1  0  0  0
 44 45  1  0  0  0
 45 46  1  0  0  0
 46 47  1  0  0  0
 47 48  2  0  0  0
 48 49  1  0  0  0
 49 50  1  0  0  0
 50 51  1  0  0  0
 51 52  1  0  0  0
 52 53  1  0  0  0
 53 54  1  0  0  0
 54 55  1  0  0  0
 55 56  1  0  0  0
M  CHG 1  26  -1
M  END
> <minimizedAffinity>
-8.38076

> <CNNscore>
0.4855572879

> <CNNaffinity>
7.4418997765

> <CNN_VS>
3.6134686470

> <CNNaffinity_variance>
1.0859037638

$$$$
/media/chris/experiments/cd1a-new-docking/inputs/ligands/7sh4_ligand.pdb


 56 55  0  0  0  0  0  0  0  0999 V2000
  -38.7449   60.4575   64.0485 C   0  0  0  0  0  0  0  0  0  0  0  0
  -38.1634   60.1862   65.4072 C   0  0  0  0  0  0  0  0  0  0  0  0
  -37.1988   59.1388   65.1715 O   0  0  0  0  0  0  0  0  0  0  0  0
  -38.7509   57.5298   65.2084 O   0  0  0  0  0  0  0  0  0  0  0  0
  -37.6785   57.9367   64.8508 C   0  0  0  0  0  0  0  0  0  0  0  0
  -36.7653   57.2257   63.8942 C   0  0  0  0  0  0  0  0  0  0  0  0
  -36.8062   57.7702   62.4763 C   0  0  0  0  0  0  0  0  0  0  0  0
  -38.0711   57.3869   61.7375 C   0  0  0  0  0  0  0  0  0  0  0  0
  -38.7142   58.5257   60.9789 C   0  0  0  0  0  0  0  0  0  0  0  0
  -37.8061   59.1230   59.9231 C   0  0  0  0  0  0  0  0  0  0  0  0
  -37.7606   58.3123   58.6511 C   0  0  0  0  0  0  0  0  0  0  0  0
  -36.4007   58.3080   58.0043 C   0  0  0  0  0  0  0  0  0  0  0  0
  -35.8106   56.9232   57.8562 C   0  0  0  0  0  0  0  0  0  0  0  0
  -34.2956   56.9324   57.8281 C   0  0  0  0  0  0  0  0  0  0  0  0
  -33.6535   55.9826   58.8176 C   0  0  0  0  0  0  0  0  0  0  0  0
  -34.6193   55.4364   59.8629 C   0  0  0  0  0  0  0  0  0  0  0  0
  -34.3723   55.9615   61.2641 C   0  0  0  0  0  0  0  0  0  0  0  0
  -33.0671   56.7183   61.4019 C   0  0  0  0  0  0  0  0  0  0  0  0
  -33.2483   58.1884   61.7532 C   0  0  0  0  0  0  0  0  0  0  0  0
  -32.0848   58.7748   62.5329 C   0  0  0  0  0  0  0  0  0  0  0  0
  -31.6376   61.2282   62.1916 C   0  0  0  0  0  0  0  0  0  0  0  0
  -31.2789   59.8177   61.7820 C   0  0  0  0  0  0  0  0  0  0  0  0
  -37.8081   61.2592   63.1816 C   0  0  0  0  0  0  0  0  0  0  0  0
  -37.2257   62.3148   63.9784 O   0  0  0  0  0  0  0  0  0  0  0  0
  -35.8414   63.0237   63.6003 P   0  0  0  0  0  0  0  0  0  0  0  0
  -34.9469   62.0003   63.0179 O   0  0  0  0  0  0  0  0  0  0  0  0
  -36.1465   64.2381   62.8062 O   0  0  0  0  0  0  0  0  0  0  0  0
  -36.5308   63.9792   61.9540 H   0  0  0  0  0  0  0  0  0  0  0  0
  -35.2133   63.4916   64.9893 O   0  0  0  0  0  0  0  0  0  0  0  0
  -34.6671   64.8197   65.1233 C   0  0  0  0  0  0  0  0  0  0  0  0
  -32.9503   63.4574   66.0924 O   0  0  0  0  0  0  0  0  0  0  0  0
  -33.1937   64.6998   65.4260 C   0  0  0  0  0  0  0  0  0  0  0  0
  -33.5025   63.4036   66.8881 H   0  0  0  0  0  0  0  0  0  0  0  0
  -33.1403   64.6704   63.0146 O   0  0  0  0  0  0  0  0  0  0  0  0
  -32.3415   64.8004   64.1837 C   0  0  0  0  0  0  0  0  0  0  0  0
  -32.5762   64.7376   62.2284 H   0  0  0  0  0  0  0  0  0  0  0  0
  -40.0331   61.1351   64.2247 O   0  0  0  0  0  0  0  0  0  0  0  0
  -40.9293   60.9353   66.2783 O   0  0  0  0  0  0  0  0  0  0  0  0
  -40.8837   60.6052   65.1248 C   0  0  0  0  0  0  0  0  0  0  0  0
  -41.7759   59.5709   64.5115 C   0  0  0  0  0  0  0  0  0  0  0  0
  -42.5218   58.7736   65.5767 C   0  0  0  0  0  0  0  0  0  0  0  0
  -44.0109   58.6296   65.3085 C   0  0  0  0  0  0  0  0  0  0  0  0
  -44.8725   58.7789   66.5572 C   0  0  0  0  0  0  0  0  0  0  0  0
  -46.3231   58.3809   66.3570 C   0  0  0  0  0  0  0  0  0  0  0  0
  -47.2199   59.4963   65.8124 C   0  0  0  0  0  0  0  0  0  0  0  0
  -48.3552   59.0314   64.8979 C   0  0  0  0  0  0  0  0  0  0  0  0
  -49.2183   60.1707   64.4450 C   0  0  0  0  0  0  0  0  0  0  0  0
  -50.2687   60.0956   63.6509 C   0  0  0  0  0  0  0  0  0  0  0  0
  -50.8217   58.8496   63.0342 C   0  0  0  0  0  0  0  0  0  0  0  0
  -50.2582   58.5902   61.6402 C   0  0  0  0  0  0  0  0  0  0  0  0
  -50.7863   57.3205   60.9957 C   0  0  0  0  0  0  0  0  0  0  0  0
  -49.7262   56.5289   60.2494 C   0  0  0  0  0  0  0  0  0  0  0  0
  -49.0985   57.2658   59.0778 C   0  0  0  0  0  0  0  0  0  0  0  0
  -47.5817   57.1594   59.0380 C   0  0  0  0  0  0  0  0  0  0  0  0
  -46.9747   57.4306   57.6757 C   0  0  0  0  0  0  0  0  0  0  0  0
  -47.4410   56.4592   56.6276 C   0  0  0  0  0  0  0  0  0  0  0  0
 21 22  1  0  0  0
  4  5  2  0  0  0
 25 24  1  0  0  0
 25 26  2  0  0  0
 25 27  1  0  0  0
 25 29  1  0  0  0
 22 20  1  0  0  0
  3  5  1  0  0  0
  3  2  1  0  0  0
 20 19  1  0  0  0
 24 23  1  0  0  0
 19 18  1  0  0  0
 18 17  1  0  0  0
 27 28  1  0  0  0
 17 16  1  0  0  0
 29 30  1  0  0  0
 16 15  1  0  0  0
 34 35  1  0  0  0
 34 36  1  0  0  0
 15 14  1  0  0  0
 31 32  1  0  0  0
 31 33  1  0  0  0
 14 13  1  0  0  0
 37  1  1  0  0  0
 37 39  1  0  0  0
 13 12  1  0  0  0
 38 39  2  0  0  0
 12 11  1  0  0  0
 11 10  1  0  0  0
 10  9  1  0  0  0
  9  8  1  0  0  0
  8  7  1  0  0  0
  7  6  1  0  0  0
  6  5  1  0  0  0
  2  1  1  0  0  0
  1 23  1  0  0  0
 30 32  1  0  0  0
 32 35  1  0  0  0
 39 40  1  0  0  0
 40 41  1  0  0  0
 41 42  1  0  0  0
 42 43  1  0  0  0
 43 44  1  0  0  0
 44 45  1  0  0  0
 45 46  1  0  0  0
 46 47  1  0  0  0
 47 48  2  0  0  0
 48 49  1  0  0  0
 49 50  1  0  0  0
 50 51  1  0  0  0
 51 52  1  0  0  0
 52 53  1  0  0  0
 53 54  1  0  0  0
 54 55  1  0  0  0
 55 56  1  0  0  0
M  CHG 1  26  -1
M  END
> <minimizedAffinity>
-8.71331

> <CNNscore>
0.4806922078

> <CNNaffinity>
7.2906141281

> <CNN_VS>
3.5045413971

> <CNNaffinity_variance>
0.6842195392

$$$$
/media/chris/experiments/cd1a-new-docking/inputs/ligands/7sh4_ligand.pdb


 56 55  0  0  0  0  0  0  0  0999 V2000
  -38.1233   60.5234   65.5990 C   0  0  0  0  0  0  0  0  0  0  0  0
  -37.7863   59.0844   65.3280 C   0  0  0  0  0  0  0  0  0  0  0  0
  -36.6485   59.1529   64.4427 O   0  0  0  0  0  0  0  0  0  0  0  0
  -36.1451   56.9747   64.4091 O   0  0  0  0  0  0  0  0  0  0  0  0
  -35.8005   58.1243   64.4679 C   0  0  0  0  0  0  0  0  0  0  0  0
  -34.3750   58.5957   64.4518 C   0  0  0  0  0  0  0  0  0  0  0  0
  -34.0109   59.4299   63.2353 C   0  0  0  0  0  0  0  0  0  0  0  0
  -32.6491   59.0819   62.6722 C   0  0  0  0  0  0  0  0  0  0  0  0
  -32.6120   57.7826   61.8999 C   0  0  0  0  0  0  0  0  0  0  0  0
  -33.8799   57.5250   61.1110 C   0  0  0  0  0  0  0  0  0  0  0  0
  -34.3192   56.0818   61.1473 C   0  0  0  0  0  0  0  0  0  0  0  0
  -34.4858   55.4826   59.7758 C   0  0  0  0  0  0  0  0  0  0  0  0
  -35.8796   54.9556   59.5162 C   0  0  0  0  0  0  0  0  0  0  0  0
  -36.5840   55.6913   58.3942 C   0  0  0  0  0  0  0  0  0  0  0  0
  -35.7511   56.7801   57.7507 C   0  0  0  0  0  0  0  0  0  0  0  0
  -36.2624   58.1899   58.0244 C   0  0  0  0  0  0  0  0  0  0  0  0
  -37.7400   58.2552   58.3599 C   0  0  0  0  0  0  0  0  0  0  0  0
  -38.0809   59.3315   59.3701 C   0  0  0  0  0  0  0  0  0  0  0  0
  -37.4314   59.1194   60.7305 C   0  0  0  0  0  0  0  0  0  0  0  0
  -37.6146   57.7156   61.2791 C   0  0  0  0  0  0  0  0  0  0  0  0
  -39.5272   58.8499   62.4585 C   0  0  0  0  0  0  0  0  0  0  0  0
  -38.7984   57.5482   62.2127 C   0  0  0  0  0  0  0  0  0  0  0  0
  -37.0105   61.2392   66.3209 C   0  0  0  0  0  0  0  0  0  0  0  0
  -36.5915   62.3701   65.5247 O   0  0  0  0  0  0  0  0  0  0  0  0
  -36.0648   63.7372   66.1693 P   0  0  0  0  0  0  0  0  0  0  0  0
  -36.4995   64.8510   65.2991 O   0  0  0  0  0  0  0  0  0  0  0  0
  -36.4581   63.7550   67.5989 O   0  0  0  0  0  0  0  0  0  0  0  0
  -37.4242   63.8069   67.6679 H   0  0  0  0  0  0  0  0  0  0  0  0
  -34.4741   63.6516   66.0998 O   0  0  0  0  0  0  0  0  0  0  0  0
  -33.6747   64.8096   66.4163 C   0  0  0  0  0  0  0  0  0  0  0  0
  -31.3902   65.0170   65.7231 O   0  0  0  0  0  0  0  0  0  0  0  0
  -32.7426   65.0747   65.2597 C   0  0  0  0  0  0  0  0  0  0  0  0
  -31.2712   65.6451   66.4526 H   0  0  0  0  0  0  0  0  0  0  0  0
  -34.0217   64.5185   63.2917 O   0  0  0  0  0  0  0  0  0  0  0  0
  -32.9458   64.1021   64.1228 C   0  0  0  0  0  0  0  0  0  0  0  0
  -34.1366   63.8823   62.5686 H   0  0  0  0  0  0  0  0  0  0  0  0
  -39.3777   60.5688   66.3568 O   0  0  0  0  0  0  0  0  0  0  0  0
  -40.7490   61.0719   64.6460 O   0  0  0  0  0  0  0  0  0  0  0  0
  -40.5207   60.4586   65.6528 C   0  0  0  0  0  0  0  0  0  0  0  0
  -41.4626   59.4684   66.2645 C   0  0  0  0  0  0  0  0  0  0  0  0
  -42.6365   59.1676   65.3382 C   0  0  0  0  0  0  0  0  0  0  0  0
  -43.9085   58.7648   66.0662 C   0  0  0  0  0  0  0  0  0  0  0  0
  -45.1811   59.0711   65.2850 C   0  0  0  0  0  0  0  0  0  0  0  0
  -46.4481   58.9989   66.1170 C   0  0  0  0  0  0  0  0  0  0  0  0
  -47.3220   57.7720   65.8409 C   0  0  0  0  0  0  0  0  0  0  0  0
  -48.3667   57.9513   64.7373 C   0  0  0  0  0  0  0  0  0  0  0  0
  -49.7028   58.3555   65.2844 C   0  0  0  0  0  0  0  0  0  0  0  0
  -50.6694   58.9684   64.6291 C   0  0  0  0  0  0  0  0  0  0  0  0
  -50.6339   59.3888   63.1936 C   0  0  0  0  0  0  0  0  0  0  0  0
  -51.1648   58.3076   62.2569 C   0  0  0  0  0  0  0  0  0  0  0  0
  -50.0749   57.5615   61.5074 C   0  0  0  0  0  0  0  0  0  0  0  0
  -50.3957   57.3236   60.0419 C   0  0  0  0  0  0  0  0  0  0  0  0
  -49.1768   57.1929   59.1436 C   0  0  0  0  0  0  0  0  0  0  0  0
  -47.8792   57.6084   59.8196 C   0  0  0  0  0  0  0  0  0  0  0  0
  -46.6326   57.3070   59.0115 C   0  0  0  0  0  0  0  0  0  0  0  0
  -46.8886   57.2961   57.5302 C   0  0  0  0  0  0  0  0  0  0  0  0
 21 22  1  0  0  0
  4  5  2  0  0  0
 25 24  1  0  0  0
 25 26  2  0  0  0
 25 27  1  0  0  0
 25 29  1  0  0  0
 22 20  1  0  0  0
  3  5  1  0  0  0
  3  2  1  0  0  0
 20 19  1  0  0  0
 24 23  1  0  0  0
 19 18  1  0  0  0
 18 17  1  0  0  0
 27 28  1  0  0  0
 17 16  1  0  0  0
 29 30  1  0  0  0
 16 15  1  0  0  0
 34 35  1  0  0  0
 34 36  1  0  0  0
 15 14  1  0  0  0
 31 32  1  0  0  0
 31 33  1  0  0  0
 14 13  1  0  0  0
 37  1  1  0  0  0
 37 39  1  0  0  0
 13 12  1  0  0  0
 38 39  2  0  0  0
 12 11  1  0  0  0
 11 10  1  0  0  0
 10  9  1  0  0  0
  9  8  1  0  0  0
  8  7  1  0  0  0
  7  6  1  0  0  0
  6  5  1  0  0  0
  2  1  1  0  0  0
  1 23  1  0  0  0
 30 32  1  0  0  0
 32 35  1  0  0  0
 39 40  1  0  0  0
 40 41  1  0  0  0
 41 42  1  0  0  0
 42 43  1  0  0  0
 43 44  1  0  0  0
 44 45  1  0  0  0
 45 46  1  0  0  0
 46 47  1  0  0  0
 47 48  2  0  0  0
 48 49  1  0  0  0
 49 50  1  0  0  0
 50 51  1  0  0  0
 51 52  1  0  0  0
 52 53  1  0  0  0
 53 54  1  0  0  0
 54 55  1  0  0  0
 55 56  1  0  0  0
M  CHG 1  26  -1
M  END
> <minimizedAffinity>
-8.82633

> <CNNscore>
0.4789230824

> <CNNaffinity>
7.3742203712

> <CNN_VS>
3.5316843987

> <CNNaffinity_variance>
0.6126276255

$$$$
/media/chris/experiments/cd1a-new-docking/inputs/ligands/7sh4_ligand.pdb


 56 55  0  0  0  0  0  0  0  0999 V2000
  -39.2025   59.3850   65.2419 C   0  0  0  0  0  0  0  0  0  0  0  0
  -38.6535   58.1894   64.5162 C   0  0  0  0  0  0  0  0  0  0  0  0
  -37.2666   58.1464   64.9132 O   0  0  0  0  0  0  0  0  0  0  0  0
  -36.7449   56.8465   63.1704 O   0  0  0  0  0  0  0  0  0  0  0  0
  -36.4113   57.5815   64.0604 C   0  0  0  0  0  0  0  0  0  0  0  0
  -35.0132   58.0820   64.2826 C   0  0  0  0  0  0  0  0  0  0  0  0
  -34.3063   58.5322   63.0153 C   0  0  0  0  0  0  0  0  0  0  0  0
  -32.8366   58.1684   63.0030 C   0  0  0  0  0  0  0  0  0  0  0  0
  -32.5064   56.9540   62.1651 C   0  0  0  0  0  0  0  0  0  0  0  0
  -33.7372   56.2418   61.6418 C   0  0  0  0  0  0  0  0  0  0  0  0
  -33.7154   56.0388   60.1465 C   0  0  0  0  0  0  0  0  0  0  0  0
  -33.9293   57.3150   59.3763 C   0  0  0  0  0  0  0  0  0  0  0  0
  -34.2424   57.0883   57.9139 C   0  0  0  0  0  0  0  0  0  0  0  0
  -35.2765   56.0018   57.6983 C   0  0  0  0  0  0  0  0  0  0  0  0
  -36.6869   56.4085   58.0705 C   0  0  0  0  0  0  0  0  0  0  0  0
  -37.0670   57.8096   57.6053 C   0  0  0  0  0  0  0  0  0  0  0  0
  -37.8989   58.5870   58.6071 C   0  0  0  0  0  0  0  0  0  0  0  0
  -37.7112   58.1205   60.0362 C   0  0  0  0  0  0  0  0  0  0  0  0
  -37.5750   59.2594   61.0371 C   0  0  0  0  0  0  0  0  0  0  0  0
  -38.6645   60.3097   60.9144 C   0  0  0  0  0  0  0  0  0  0  0  0
  -40.6216   60.7727   62.4280 C   0  0  0  0  0  0  0  0  0  0  0  0
  -40.0369   59.8577   61.3760 C   0  0  0  0  0  0  0  0  0  0  0  0
  -38.2572   59.8862   66.3036 C   0  0  0  0  0  0  0  0  0  0  0  0
  -37.9133   61.2587   66.0099 O   0  0  0  0  0  0  0  0  0  0  0  0
  -36.5992   61.6679   65.1929 P   0  0  0  0  0  0  0  0  0  0  0  0
  -35.4474   60.9632   65.7958 O   0  0  0  0  0  0  0  0  0  0  0  0
  -36.8751   61.4761   63.7487 O   0  0  0  0  0  0  0  0  0  0  0  0
  -36.9945   60.5311   63.5650 H   0  0  0  0  0  0  0  0  0  0  0  0
  -36.4098   63.2297   65.4523 O   0  0  0  0  0  0  0  0  0  0  0  0
  -36.1335   63.7118   66.7832 C   0  0  0  0  0  0  0  0  0  0  0  0
  -34.2981   64.6534   68.0029 O   0  0  0  0  0  0  0  0  0  0  0  0
  -34.9305   64.6205   66.7199 C   0  0  0  0  0  0  0  0  0  0  0  0
  -34.9420   64.9295   68.6737 H   0  0  0  0  0  0  0  0  0  0  0  0
  -33.3034   62.9772   66.0340 O   0  0  0  0  0  0  0  0  0  0  0  0
  -33.9415   64.1922   65.6624 C   0  0  0  0  0  0  0  0  0  0  0  0
  -32.6730   62.7187   65.3435 H   0  0  0  0  0  0  0  0  0  0  0  0
  -40.5073   59.0241   65.8051 O   0  0  0  0  0  0  0  0  0  0  0  0
  -41.1359   61.1837   65.8394 O   0  0  0  0  0  0  0  0  0  0  0  0
  -41.3296   60.0372   66.1390 C   0  0  0  0  0  0  0  0  0  0  0  0
  -42.5209   59.5610   66.9109 C   0  0  0  0  0  0  0  0  0  0  0  0
  -43.2032   58.3862   66.2174 C   0  0  0  0  0  0  0  0  0  0  0  0
  -44.4506   58.7703   65.4385 C   0  0  0  0  0  0  0  0  0  0  0  0
  -45.7493   58.4157   66.1537 C   0  0  0  0  0  0  0  0  0  0  0  0
  -46.3143   57.0605   65.7706 C   0  0  0  0  0  0  0  0  0  0  0  0
  -47.8400   57.0192   65.6449 C   0  0  0  0  0  0  0  0  0  0  0  0
  -48.4371   57.9996   64.6331 C   0  0  0  0  0  0  0  0  0  0  0  0
  -49.8362   58.4006   64.9931 C   0  0  0  0  0  0  0  0  0  0  0  0
  -50.7661   58.8411   64.1680 C   0  0  0  0  0  0  0  0  0  0  0  0
  -50.6175   59.0319   62.6915 C   0  0  0  0  0  0  0  0  0  0  0  0
  -51.1682   57.8534   61.8937 C   0  0  0  0  0  0  0  0  0  0  0  0
  -50.2871   57.4420   60.7272 C   0  0  0  0  0  0  0  0  0  0  0  0
  -48.8948   58.0479   60.7712 C   0  0  0  0  0  0  0  0  0  0  0  0
  -47.9429   57.5158   59.7127 C   0  0  0  0  0  0  0  0  0  0  0  0
  -48.6475   56.8083   58.5653 C   0  0  0  0  0  0  0  0  0  0  0  0
  -47.8002   56.6495   57.3184 C   0  0  0  0  0  0  0  0  0  0  0  0
  -47.4902   55.2122   57.0053 C   0  0  0  0  0  0  0  0  0  0  0  0
 21 22  1  0  0  0
  4  5  2  0  0  0
 25 24  1  0  0  0
 25 26  2  0  0  0
 25 27  1  0  0  0
 25 29  1  0  0  0
 22 20  1  0  0  0
  3  5  1  0  0  0
  3  2  1  0  0  0
 20 19  1  0  0  0
 24 23  1  0  0  0
 19 18  1  0  0  0
 18 17  1  0  0  0
 27 28  1  0  0  0
 17 16  1  0  0  0
 29 30  1  0  0  0
 16 15  1  0  0  0
 34 35  1  0  0  0
 34 36  1  0  0  0
 15 14  1  0  0  0
 31 32  1  0  0  0
 31 33  1  0  0  0
 14 13  1  0  0  0
 37  1  1  0  0  0
 37 39  1  0  0  0
 13 12  1  0  0  0
 38 39  2  0  0  0
 12 11  1  0  0  0
 11 10  1  0  0  0
 10  9  1  0  0  0
  9  8  1  0  0  0
  8  7  1  0  0  0
  7  6  1  0  0  0
  6  5  1  0  0  0
  2  1  1  0  0  0
  1 23  1  0  0  0
 30 32  1  0  0  0
 32 35  1  0  0  0
 39 40  1  0  0  0
 40 41  1  0  0  0
 41 42  1  0  0  0
 42 43  1  0  0  0
 43 44  1  0  0  0
 44 45  1  0  0  0
 45 46  1  0  0  0
 46 47  1  0  0  0
 47 48  2  0  0  0
 48 49  1  0  0  0
 49 50  1  0  0  0
 50 51  1  0  0  0
 51 52  1  0  0  0
 52 53  1  0  0  0
 53 54  1  0  0  0
 54 55  1  0  0  0
 55 56  1  0  0  0
M  CHG 1  26  -1
M  END
> <minimizedAffinity>
-8.30857

> <CNNscore>
0.4406892359

> <CNNaffinity>
7.5017523766

> <CNN_VS>
3.3059415817

> <CNNaffinity_variance>
0.5807481408

$$$$
/media/chris/experiments/cd1a-new-docking/inputs/ligands/7sh4_ligand.pdb


 56 55  0  0  0  0  0  0  0  0999 V2000
  -34.5208   59.3947   63.8254 C   0  0  0  0  0  0  0  0  0  0  0  0
  -35.9253   59.9277   63.8528 C   0  0  0  0  0  0  0  0  0  0  0  0
  -36.2266   60.0461   65.2593 O   0  0  0  0  0  0  0  0  0  0  0  0
  -37.6726   61.3349   66.3760 O   0  0  0  0  0  0  0  0  0  0  0  0
  -37.4521   60.4607   65.5818 C   0  0  0  0  0  0  0  0  0  0  0  0
  -38.4935   59.7847   64.7374 C   0  0  0  0  0  0  0  0  0  0  0  0
  -38.9203   58.4204   65.2522 C   0  0  0  0  0  0  0  0  0  0  0  0
  -40.3461   58.0731   64.8796 C   0  0  0  0  0  0  0  0  0  0  0  0
  -41.3452   59.1722   65.1621 C   0  0  0  0  0  0  0  0  0  0  0  0
  -42.1319   58.9454   66.4372 C   0  0  0  0  0  0  0  0  0  0  0  0
  -42.6032   57.5210   66.5990 C   0  0  0  0  0  0  0  0  0  0  0  0
  -43.8028   57.1978   65.7480 C   0  0  0  0  0  0  0  0  0  0  0  0
  -45.0701   56.9958   66.5486 C   0  0  0  0  0  0  0  0  0  0  0  0
  -45.8805   58.2682   66.6927 C   0  0  0  0  0  0  0  0  0  0  0  0
  -46.6643   58.6453   65.4531 C   0  0  0  0  0  0  0  0  0  0  0  0
  -48.1006   59.0696   65.7379 C   0  0  0  0  0  0  0  0  0  0  0  0
  -49.0435   57.9123   66.0051 C   0  0  0  0  0  0  0  0  0  0  0  0
  -50.4747   58.1953   65.5967 C   0  0  0  0  0  0  0  0  0  0  0  0
  -50.6302   59.4474   64.7450 C   0  0  0  0  0  0  0  0  0  0  0  0
  -51.0539   59.1612   63.3154 C   0  0  0  0  0  0  0  0  0  0  0  0
  -48.8224   58.6539   62.2671 C   0  0  0  0  0  0  0  0  0  0  0  0
  -50.0368   59.5545   62.2609 C   0  0  0  0  0  0  0  0  0  0  0  0
  -33.5961   60.2762   63.0256 C   0  0  0  0  0  0  0  0  0  0  0  0
  -34.1380   61.6157   62.9990 O   0  0  0  0  0  0  0  0  0  0  0  0
  -33.2219   62.9191   62.8450 P   0  0  0  0  0  0  0  0  0  0  0  0
  -31.8147   62.5173   63.0577 O   0  0  0  0  0  0  0  0  0  0  0  0
  -33.5863   63.5920   61.5751 O   0  0  0  0  0  0  0  0  0  0  0  0
  -33.3377   63.0271   60.8268 H   0  0  0  0  0  0  0  0  0  0  0  0
  -33.6457   63.8776   64.0467 O   0  0  0  0  0  0  0  0  0  0  0  0
  -33.3971   63.4786   65.4102 C   0  0  0  0  0  0  0  0  0  0  0  0
  -34.4279   61.7630   66.7279 O   0  0  0  0  0  0  0  0  0  0  0  0
  -34.6884   62.9663   65.9990 C   0  0  0  0  0  0  0  0  0  0  0  0
  -33.9995   61.1176   66.1441 H   0  0  0  0  0  0  0  0  0  0  0  0
  -36.7406   64.0886   66.5885 O   0  0  0  0  0  0  0  0  0  0  0  0
  -35.3558   63.9832   66.8935 C   0  0  0  0  0  0  0  0  0  0  0  0
  -37.1512   64.7454   67.1724 H   0  0  0  0  0  0  0  0  0  0  0  0
  -34.5563   58.0272   63.2977 O   0  0  0  0  0  0  0  0  0  0  0  0
  -34.9581   58.0916   61.0853 O   0  0  0  0  0  0  0  0  0  0  0  0
  -35.3080   57.8156   62.2002 C   0  0  0  0  0  0  0  0  0  0  0  0
  -36.6215   57.1794   62.5346 C   0  0  0  0  0  0  0  0  0  0  0  0
  -37.5847   57.2313   61.3529 C   0  0  0  0  0  0  0  0  0  0  0  0
  -38.8243   58.0738   61.6049 C   0  0  0  0  0  0  0  0  0  0  0  0
  -38.6867   59.5170   61.1338 C   0  0  0  0  0  0  0  0  0  0  0  0
  -39.9810   60.1271   60.6286 C   0  0  0  0  0  0  0  0  0  0  0  0
  -40.2232   59.9531   59.1265 C   0  0  0  0  0  0  0  0  0  0  0  0
  -41.6841   59.7443   58.7221 C   0  0  0  0  0  0  0  0  0  0  0  0
  -41.8103   59.0406   57.4042 C   0  0  0  0  0  0  0  0  0  0  0  0
  -42.9212   58.5866   56.8571 C   0  0  0  0  0  0  0  0  0  0  0  0
  -44.2955   58.6816   57.4410 C   0  0  0  0  0  0  0  0  0  0  0  0
  -44.4351   57.8838   58.7343 C   0  0  0  0  0  0  0  0  0  0  0  0
  -45.8757   57.6111   59.1298 C   0  0  0  0  0  0  0  0  0  0  0  0
  -46.8777   57.9100   58.0279 C   0  0  0  0  0  0  0  0  0  0  0  0
  -48.1838   57.1412   58.1391 C   0  0  0  0  0  0  0  0  0  0  0  0
  -48.0326   55.7841   58.8092 C   0  0  0  0  0  0  0  0  0  0  0  0
  -48.9289   55.5824   60.0149 C   0  0  0  0  0  0  0  0  0  0  0  0
  -50.0703   56.5595   60.0608 C   0  0  0  0  0  0  0  0  0  0  0  0
 21 22  1  0  0  0
  4  5  2  0  0  0
 25 24  1  0  0  0
 25 26  2  0  0  0
 25 27  1  0  0  0
 25 29  1  0  0  0
 22 20  1  0  0  0
  3  5  1  0  0  0
  3  2  1  0  0  0
 20 19  1  0  0  0
 24 23  1  0  0  0
 19 18  1  0  0  0
 18 17  1  0  0  0
 27 28  1  0  0  0
 17 16  1  0  0  0
 29 30  1  0  0  0
 16 15  1  0  0  0
 34 35  1  0  0  0
 34 36  1  0  0  0
 15 14  1  0  0  0
 31 32  1  0  0  0
 31 33  1  0  0  0
 14 13  1  0  0  0
 37  1  1  0  0  0
 37 39  1  0  0  0
 13 12  1  0  0  0
 38 39  2  0  0  0
 12 11  1  0  0  0
 11 10  1  0  0  0
 10  9  1  0  0  0
  9  8  1  0  0  0
  8  7  1  0  0  0
  7  6  1  0  0  0
  6  5  1  0  0  0
  2  1  1  0  0  0
  1 23  1  0  0  0
 30 32  1  0  0  0
 32 35  1  0  0  0
 39 40  1  0  0  0
 40 41  1  0  0  0
 41 42  1  0  0  0
 42 43  1  0  0  0
 43 44  1  0  0  0
 44 45  1  0  0  0
 45 46  1  0  0  0
 46 47  1  0  0  0
 47 48  2  0  0  0
 48 49  1  0  0  0
 49 50  1  0  0  0
 50 51  1  0  0  0
 51 52  1  0  0  0
 52 53  1  0  0  0
 53 54  1  0  0  0
 54 55  1  0  0  0
 55 56  1  0  0  0
M  CHG 1  26  -1
M  END
> <minimizedAffinity>
-8.04002

> <CNNscore>
0.4268533289

> <CNNaffinity>
7.4232697487

> <CNN_VS>
3.1686472893

> <CNNaffinity_variance>
0.8860316277

$$$$
