/media/chris/experiments/cd1a-new-docking/inputs/ligands/7sh4_ligand.pdb


 56 55  0  0  0  0  0  0  0  0999 V2000
  -38.4969   59.9133   62.2964 C   0  0  0  0  0  0  0  0  0  0  0  0
  -39.7800   59.6851   63.0442 C   0  0  0  0  0  0  0  0  0  0  0  0
  -39.3560   59.4640   64.4060 O   0  0  0  0  0  0  0  0  0  0  0  0
  -39.7077   60.8442   66.1295 O   0  0  0  0  0  0  0  0  0  0  0  0
  -40.1052   60.0046   65.3674 C   0  0  0  0  0  0  0  0  0  0  0  0
  -41.5244   59.5208   65.2861 C   0  0  0  0  0  0  0  0  0  0  0  0
  -42.2464   59.4883   66.6225 C   0  0  0  0  0  0  0  0  0  0  0  0
  -43.4692   58.5953   66.6065 C   0  0  0  0  0  0  0  0  0  0  0  0
  -44.2544   58.6434   65.3154 C   0  0  0  0  0  0  0  0  0  0  0  0
  -45.5409   59.4353   65.4325 C   0  0  0  0  0  0  0  0  0  0  0  0
  -46.5915   58.7422   66.2651 C   0  0  0  0  0  0  0  0  0  0  0  0
  -46.9352   57.3680   65.7542 C   0  0  0  0  0  0  0  0  0  0  0  0
  -48.3872   57.2216   65.3558 C   0  0  0  0  0  0  0  0  0  0  0  0
  -49.2335   58.4035   65.7836 C   0  0  0  0  0  0  0  0  0  0  0  0
  -50.1232   58.9548   64.6890 C   0  0  0  0  0  0  0  0  0  0  0  0
  -49.7659   58.4540   63.2942 C   0  0  0  0  0  0  0  0  0  0  0  0
  -50.8867   58.5969   62.2824 C   0  0  0  0  0  0  0  0  0  0  0  0
  -51.0403   57.3898   61.3797 C   0  0  0  0  0  0  0  0  0  0  0  0
  -50.3838   57.5596   60.0168 C   0  0  0  0  0  0  0  0  0  0  0  0
  -49.0640   56.8213   59.8818 C   0  0  0  0  0  0  0  0  0  0  0  0
  -46.9703   57.6075   58.7266 C   0  0  0  0  0  0  0  0  0  0  0  0
  -48.3552   57.0255   58.5563 C   0  0  0  0  0  0  0  0  0  0  0  0
  -37.4783   60.6471   63.1306 C   0  0  0  0  0  0  0  0  0  0  0  0
  -36.8042   61.6154   62.2961 O   0  0  0  0  0  0  0  0  0  0  0  0
  -35.8235   62.7349   62.8851 P   0  0  0  0  0  0  0  0  0  0  0  0
  -34.6674   62.0512   63.5039 O   0  0  0  0  0  0  0  0  0  0  0  0
  -35.5729   63.7356   61.8201 O   0  0  0  0  0  0  0  0  0  0  0  0
  -35.0704   63.3228   61.1003 H   0  0  0  0  0  0  0  0  0  0  0  0
  -36.6493   63.4512   64.0460 O   0  0  0  0  0  0  0  0  0  0  0  0
  -35.9581   64.1979   65.0681 C   0  0  0  0  0  0  0  0  0  0  0  0
  -37.0707   62.4132   66.2165 O   0  0  0  0  0  0  0  0  0  0  0  0
  -36.1247   63.4737   66.3813 C   0  0  0  0  0  0  0  0  0  0  0  0
  -37.9053   62.7739   65.8783 H   0  0  0  0  0  0  0  0  0  0  0  0
  -34.5873   61.6153   66.4167 O   0  0  0  0  0  0  0  0  0  0  0  0
  -34.8183   62.9295   66.9077 C   0  0  0  0  0  0  0  0  0  0  0  0
  -33.7450   61.2835   66.7651 H   0  0  0  0  0  0  0  0  0  0  0  0
  -38.8062   60.6367   61.0591 O   0  0  0  0  0  0  0  0  0  0  0  0
  -39.7453   60.0204   59.1102 O   0  0  0  0  0  0  0  0  0  0  0  0
  -38.8724   59.9098   59.9272 C   0  0  0  0  0  0  0  0  0  0  0  0
  -37.7199   58.9622   59.8014 C   0  0  0  0  0  0  0  0  0  0  0  0
  -37.7236   58.2541   58.4502 C   0  0  0  0  0  0  0  0  0  0  0  0
  -36.3847   58.2900   57.7319 C   0  0  0  0  0  0  0  0  0  0  0  0
  -35.5478   57.0327   57.9387 C   0  0  0  0  0  0  0  0  0  0  0  0
  -36.3426   55.8360   58.4272 C   0  0  0  0  0  0  0  0  0  0  0  0
  -35.8455   55.2368   59.7458 C   0  0  0  0  0  0  0  0  0  0  0  0
  -34.5661   55.8630   60.3047 C   0  0  0  0  0  0  0  0  0  0  0  0
  -34.8254   56.6687   61.5423 C   0  0  0  0  0  0  0  0  0  0  0  0
  -34.0664   57.6317   62.0283 C   0  0  0  0  0  0  0  0  0  0  0  0
  -32.7816   58.1244   61.4410 C   0  0  0  0  0  0  0  0  0  0  0  0
  -32.0271   59.0535   62.3876 C   0  0  0  0  0  0  0  0  0  0  0  0
  -31.0998   60.0244   61.6780 C   0  0  0  0  0  0  0  0  0  0  0  0
  -30.2757   60.8818   62.6229 C   0  0  0  0  0  0  0  0  0  0  0  0
  -30.8755   62.2460   62.9203 C   0  0  0  0  0  0  0  0  0  0  0  0
  -31.7438   62.7846   61.7934 C   0  0  0  0  0  0  0  0  0  0  0  0
  -32.0749   64.2589   61.9134 C   0  0  0  0  0  0  0  0  0  0  0  0
  -32.2492   64.7016   63.3392 C   0  0  0  0  0  0  0  0  0  0  0  0
 21 22  1  0  0  0
  4  5  2  0  0  0
 25 24  1  0  0  0
 25 26  2  0  0  0
 25 27  1  0  0  0
 25 29  1  0  0  0
 22 20  1  0  0  0
  3  5  1  0  0  0
  3  2  1  0  0  0
 20 19  1  0  0  0
 24 23  1  0  0  0
 19 18  1  0  0  0
 18 17  1  0  0  0
 27 28  1  0  0  0
 17 16  1  0  0  0
 29 30  1  0  0  0
 16 15  1  0  0  0
 34 35  1  0  0  0
 34 36  1  0  0  0
 15 14  1  0  0  0
 31 32  1  0  0  0
 31 33  1  0  0  0
 14 13  1  0  0  0
 37  1  1  0  0  0
 37 39  1  0  0  0
 13 12  1  0  0  0
 38 39  2  0  0  0
 12 11  1  0  0  0
 11 10  1  0  0  0
 10  9  1  0  0  0
  9  8  1  0  0  0
  8  7  1  0  0  0
  7  6  1  0  0  0
  6  5  1  0  0  0
  2  1  1  0  0  0
  1 23  1  0  0  0
 30 32  1  0  0  0
 32 35  1  0  0  0
 39 40  1  0  0  0
 40 41  1  0  0  0
 41 42  1  0  0  0
 42 43  1  0  0  0
 43 44  1  0  0  0
 44 45  1  0  0  0
 45 46  1  0  0  0
 46 47  1  0  0  0
 47 48  2  0  0  0
 48 49  1  0  0  0
 49 50  1  0  0  0
 50 51  1  0  0  0
 51 52  1  0  0  0
 52 53  1  0  0  0
 53 54  1  0  0  0
 54 55  1  0  0  0
 55 56  1  0  0  0
M  CHG 1  26  -1
M  END
> <minimizedAffinity>
-8.70819

> <CNNscore>
0.7220806479

> <CNNaffinity>
7.4249153137

> <CNN_VS>
5.3613877296

> <CNNaffinity_variance>
0.6063453555

$$$$
/media/chris/experiments/cd1a-new-docking/inputs/ligands/7sh4_ligand.pdb


 56 55  0  0  0  0  0  0  0  0999 V2000
  -37.3869   59.7820   64.9069 C   0  0  0  0  0  0  0  0  0  0  0  0
  -38.7292   60.4542   64.8428 C   0  0  0  0  0  0  0  0  0  0  0  0
  -39.5485   59.6850   65.7484 O   0  0  0  0  0  0  0  0  0  0  0  0
  -40.1465   57.7519   64.7971 O   0  0  0  0  0  0  0  0  0  0  0  0
  -40.4301   58.8471   65.2019 C   0  0  0  0  0  0  0  0  0  0  0  0
  -41.8238   59.4009   65.2771 C   0  0  0  0  0  0  0  0  0  0  0  0
  -42.5558   59.0665   66.5657 C   0  0  0  0  0  0  0  0  0  0  0  0
  -44.0423   58.8643   66.3599 C   0  0  0  0  0  0  0  0  0  0  0  0
  -44.3913   58.0129   65.1603 C   0  0  0  0  0  0  0  0  0  0  0  0
  -45.5672   57.0904   65.4093 C   0  0  0  0  0  0  0  0  0  0  0  0
  -46.9027   57.7790   65.2689 C   0  0  0  0  0  0  0  0  0  0  0  0
  -47.1229   58.3623   63.8982 C   0  0  0  0  0  0  0  0  0  0  0  0
  -48.4850   58.9979   63.7281 C   0  0  0  0  0  0  0  0  0  0  0  0
  -49.5333   58.0155   63.2464 C   0  0  0  0  0  0  0  0  0  0  0  0
  -50.3663   58.5199   62.0866 C   0  0  0  0  0  0  0  0  0  0  0  0
  -50.9819   57.4102   61.2419 C   0  0  0  0  0  0  0  0  0  0  0  0
  -49.9926   56.7071   60.3324 C   0  0  0  0  0  0  0  0  0  0  0  0
  -49.1365   57.6600   59.5233 C   0  0  0  0  0  0  0  0  0  0  0  0
  -47.6761   57.2402   59.4316 C   0  0  0  0  0  0  0  0  0  0  0  0
  -47.0398   57.5440   58.0870 C   0  0  0  0  0  0  0  0  0  0  0  0
  -47.5298   55.2440   57.1890 C   0  0  0  0  0  0  0  0  0  0  0  0
  -47.5867   56.7322   56.9281 C   0  0  0  0  0  0  0  0  0  0  0  0
  -36.2787   60.7581   65.2087 C   0  0  0  0  0  0  0  0  0  0  0  0
  -36.8140   61.8372   66.0070 O   0  0  0  0  0  0  0  0  0  0  0  0
  -35.9345   63.0910   66.4721 P   0  0  0  0  0  0  0  0  0  0  0  0
  -36.8193   64.2744   66.5312 O   0  0  0  0  0  0  0  0  0  0  0  0
  -35.1834   62.7015   67.6899 O   0  0  0  0  0  0  0  0  0  0  0  0
  -35.8051   62.5532   68.4196 H   0  0  0  0  0  0  0  0  0  0  0  0
  -34.8793   63.3249   65.2996 O   0  0  0  0  0  0  0  0  0  0  0  0
  -33.4663   63.3140   65.5878 C   0  0  0  0  0  0  0  0  0  0  0  0
  -31.7146   64.8479   66.1544 O   0  0  0  0  0  0  0  0  0  0  0  0
  -32.9358   64.7167   65.4208 C   0  0  0  0  0  0  0  0  0  0  0  0
  -31.8682   64.6128   67.0829 H   0  0  0  0  0  0  0  0  0  0  0  0
  -33.6774   64.4417   63.1420 O   0  0  0  0  0  0  0  0  0  0  0  0
  -32.7148   65.0792   63.9718 C   0  0  0  0  0  0  0  0  0  0  0  0
  -33.5193   64.6864   62.2167 H   0  0  0  0  0  0  0  0  0  0  0  0
  -37.1608   59.0811   63.6390 O   0  0  0  0  0  0  0  0  0  0  0  0
  -37.1159   60.7798   62.1651 O   0  0  0  0  0  0  0  0  0  0  0  0
  -37.5455   59.7143   62.5143 C   0  0  0  0  0  0  0  0  0  0  0  0
  -38.5573   58.9237   61.7440 C   0  0  0  0  0  0  0  0  0  0  0  0
  -39.1247   59.7273   60.5782 C   0  0  0  0  0  0  0  0  0  0  0  0
  -38.6392   59.2625   59.2150 C   0  0  0  0  0  0  0  0  0  0  0  0
  -37.3950   58.3840   59.2780 C   0  0  0  0  0  0  0  0  0  0  0  0
  -37.0103   57.7630   57.9480 C   0  0  0  0  0  0  0  0  0  0  0  0
  -36.5981   56.2904   58.0283 C   0  0  0  0  0  0  0  0  0  0  0  0
  -36.4227   55.7392   59.4450 C   0  0  0  0  0  0  0  0  0  0  0  0
  -35.0225   55.2667   59.6980 C   0  0  0  0  0  0  0  0  0  0  0  0
  -34.0316   55.9753   60.2037 C   0  0  0  0  0  0  0  0  0  0  0  0
  -34.0999   57.4065   60.6341 C   0  0  0  0  0  0  0  0  0  0  0  0
  -34.0268   57.5628   62.1503 C   0  0  0  0  0  0  0  0  0  0  0  0
  -32.6567   57.9808   62.6546 C   0  0  0  0  0  0  0  0  0  0  0  0
  -31.9224   58.9224   61.7157 C   0  0  0  0  0  0  0  0  0  0  0  0
  -30.9198   59.8374   62.3989 C   0  0  0  0  0  0  0  0  0  0  0  0
  -30.4470   60.9834   61.5174 C   0  0  0  0  0  0  0  0  0  0  0  0
  -29.6164   62.0239   62.2420 C   0  0  0  0  0  0  0  0  0  0  0  0
  -30.0196   63.4310   61.8999 C   0  0  0  0  0  0  0  0  0  0  0  0
 21 22  1  0  0  0
  4  5  2  0  0  0
 25 24  1  0  0  0
 25 26  2  0  0  0
 25 27  1  0  0  0
 25 29  1  0  0  0
 22 20  1  0  0  0
  3  5  1  0  0  0
  3  2  1  0  0  0
 20 19  1  0  0  0
 24 23  1  0  0  0
 19 18  1  0  0  0
 18 17  1  0  0  0
 27 28  1  0  0  0
 17 16  1  0  0  0
 29 30  1  0  0  0
 16 15  1  0  0  0
 34 35  1  0  0  0
 34 36  1  0  0  0
 15 14  1  0  0  0
 31 32  1  0  0  0
 31 33  1  0  0  0
 14 13  1  0  0  0
 37  1  1  0  0  0
 37 39  1  0  0  0
 13 12  1  0  0  0
 38 39  2  0  0  0
 12 11  1  0  0  0
 11 10  1  0  0  0
 10  9  1  0  0  0
  9  8  1  0  0  0
  8  7  1  0  0  0
  7  6  1  0  0  0
  6  5  1  0  0  0
  2  1  1  0  0  0
  1 23  1  0  0  0
 30 32  1  0  0  0
 32 35  1  0  0  0
 39 40  1  0  0  0
 40 41  1  0  0  0
 41 42  1  0  0  0
 42 43  1  0  0  0
 43 44  1  0  0  0
 44 45  1  0  0  0
 45 46  1  0  0  0
 46 47  1  0  0  0
 47 48  2  0  0  0
 48 49  1  0  0  0
 49 50  1  0  0  0
 50 51  1  0  0  0
 51 52  1  0  0  0
 52 53  1  0  0  0
 53 54  1  0  0  0
 54 55  1  0  0  0
 55 56  1  0  0  0
M  CHG 1  26  -1
M  END
> <minimizedAffinity>
-8.89953

> <CNNscore>
0.6530500650

> <CNNaffinity>
7.4203820229

> <CNN_VS>
4.8458809853

> <CNNaffinity_variance>
0.3733928800

$$$$
/media/chris/experiments/cd1a-new-docking/inputs/ligands/7sh4_ligand.pdb


 56 55  0  0  0  0  0  0  0  0999 V2000
  -39.2067   59.6149   64.8557 C   0  0  0  0  0  0  0  0  0  0  0  0
  -40.1988   59.6814   65.9821 C   0  0  0  0  0  0  0  0  0  0  0  0
  -41.1541   58.6463   65.6677 O   0  0  0  0  0  0  0  0  0  0  0  0
  -42.8075   59.6551   64.5506 O   0  0  0  0  0  0  0  0  0  0  0  0
  -42.4213   59.0249   65.4979 C   0  0  0  0  0  0  0  0  0  0  0  0
  -43.3058   58.4566   66.5700 C   0  0  0  0  0  0  0  0  0  0  0  0
  -43.6774   56.9986   66.3597 C   0  0  0  0  0  0  0  0  0  0  0  0
  -44.7716   56.8153   65.3292 C   0  0  0  0  0  0  0  0  0  0  0  0
  -45.8872   57.8312   65.4230 C   0  0  0  0  0  0  0  0  0  0  0  0
  -47.2077   57.2245   65.8520 C   0  0  0  0  0  0  0  0  0  0  0  0
  -48.3054   58.2469   66.0178 C   0  0  0  0  0  0  0  0  0  0  0  0
  -47.9352   59.6013   65.4737 C   0  0  0  0  0  0  0  0  0  0  0  0
  -48.8976   60.1095   64.4230 C   0  0  0  0  0  0  0  0  0  0  0  0
  -50.0248   59.1365   64.1422 C   0  0  0  0  0  0  0  0  0  0  0  0
  -50.7844   59.4231   62.8638 C   0  0  0  0  0  0  0  0  0  0  0  0
  -51.0652   58.1828   62.0230 C   0  0  0  0  0  0  0  0  0  0  0  0
  -49.8167   57.4595   61.5558 C   0  0  0  0  0  0  0  0  0  0  0  0
  -49.9999   56.7308   60.2402 C   0  0  0  0  0  0  0  0  0  0  0  0
  -48.7073   56.1606   59.6733 C   0  0  0  0  0  0  0  0  0  0  0  0
  -47.5759   57.1708   59.6050 C   0  0  0  0  0  0  0  0  0  0  0  0
  -45.7724   57.9515   58.0321 C   0  0  0  0  0  0  0  0  0  0  0  0
  -47.2455   57.6603   58.2077 C   0  0  0  0  0  0  0  0  0  0  0  0
  -39.3396   60.7844   63.9143 C   0  0  0  0  0  0  0  0  0  0  0  0
  -38.1564   60.8528   63.0874 O   0  0  0  0  0  0  0  0  0  0  0  0
  -36.7858   61.5111   63.5873 P   0  0  0  0  0  0  0  0  0  0  0  0
  -35.8889   60.4216   64.0293 O   0  0  0  0  0  0  0  0  0  0  0  0
  -36.3107   62.4426   62.5360 O   0  0  0  0  0  0  0  0  0  0  0  0
  -36.0668   61.9387   61.7438 H   0  0  0  0  0  0  0  0  0  0  0  0
  -37.1756   62.3765   64.8687 O   0  0  0  0  0  0  0  0  0  0  0  0
  -36.4794   62.1737   66.1154 C   0  0  0  0  0  0  0  0  0  0  0  0
  -36.4673   63.7818   67.8919 O   0  0  0  0  0  0  0  0  0  0  0  0
  -35.9500   63.5056   66.5869 C   0  0  0  0  0  0  0  0  0  0  0  0
  -37.4365   63.7500   67.8690 H   0  0  0  0  0  0  0  0  0  0  0  0
  -33.9213   62.6271   67.5519 O   0  0  0  0  0  0  0  0  0  0  0  0
  -34.4408   63.5510   66.6043 C   0  0  0  0  0  0  0  0  0  0  0  0
  -32.9523   62.6708   67.5484 H   0  0  0  0  0  0  0  0  0  0  0  0
  -39.3837   58.3365   64.1597 O   0  0  0  0  0  0  0  0  0  0  0  0
  -37.3948   57.4465   64.7187 O   0  0  0  0  0  0  0  0  0  0  0  0
  -38.2729   57.6145   63.9171 C   0  0  0  0  0  0  0  0  0  0  0  0
  -38.2727   57.0328   62.5374 C   0  0  0  0  0  0  0  0  0  0  0  0
  -37.6296   57.9816   61.5309 C   0  0  0  0  0  0  0  0  0  0  0  0
  -38.6290   58.7355   60.6690 C   0  0  0  0  0  0  0  0  0  0  0  0
  -38.0207   59.3194   59.3990 C   0  0  0  0  0  0  0  0  0  0  0  0
  -37.7701   58.2953   58.3077 C   0  0  0  0  0  0  0  0  0  0  0  0
  -36.3121   58.1960   57.8503 C   0  0  0  0  0  0  0  0  0  0  0  0
  -35.7571   56.7739   57.7467 C   0  0  0  0  0  0  0  0  0  0  0  0
  -36.2088   55.9069   58.8835 C   0  0  0  0  0  0  0  0  0  0  0  0
  -35.5048   55.5742   59.9480 C   0  0  0  0  0  0  0  0  0  0  0  0
  -34.1006   55.9966   60.2450 C   0  0  0  0  0  0  0  0  0  0  0  0
  -34.0368   57.1301   61.2648 C   0  0  0  0  0  0  0  0  0  0  0  0
  -32.7593   57.1401   62.0857 C   0  0  0  0  0  0  0  0  0  0  0  0
  -32.3859   58.5135   62.6162 C   0  0  0  0  0  0  0  0  0  0  0  0
  -31.6477   59.3934   61.6212 C   0  0  0  0  0  0  0  0  0  0  0  0
  -30.4110   60.0606   62.2037 C   0  0  0  0  0  0  0  0  0  0  0  0
  -30.1981   61.4883   61.7411 C   0  0  0  0  0  0  0  0  0  0  0  0
  -30.5883   62.5009   62.7812 C   0  0  0  0  0  0  0  0  0  0  0  0
 21 22  1  0  0  0
  4  5  2  0  0  0
 25 24  1  0  0  0
 25 26  2  0  0  0
 25 27  1  0  0  0
 25 29  1  0  0  0
 22 20  1  0  0  0
  3  5  1  0  0  0
  3  2  1  0  0  0
 20 19  1  0  0  0
 24 23  1  0  0  0
 19 18  1  0  0  0
 18 17  1  0  0  0
 27 28  1  0  0  0
 17 16  1  0  0  0
 29 30  1  0  0  0
 16 15  1  0  0  0
 34 35  1  0  0  0
 34 36  1  0  0  0
 15 14  1  0  0  0
 31 32  1  0  0  0
 31 33  1  0  0  0
 14 13  1  0  0  0
 37  1  1  0  0  0
 37 39  1  0  0  0
 13 12  1  0  0  0
 38 39  2  0  0  0
 12 11  1  0  0  0
 11 10  1  0  0  0
 10  9  1  0  0  0
  9  8  1  0  0  0
  8  7  1  0  0  0
  7  6  1  0  0  0
  6  5  1  0  0  0
  2  1  1  0  0  0
  1 23  1  0  0  0
 30 32  1  0  0  0
 32 35  1  0  0  0
 39 40  1  0  0  0
 40 41  1  0  0  0
 41 42  1  0  0  0
 42 43  1  0  0  0
 43 44  1  0  0  0
 44 45  1  0  0  0
 45 46  1  0  0  0
 46 47  1  0  0  0
 47 48  2  0  0  0
 48 49  1  0  0  0
 49 50  1  0  0  0
 50 51  1  0  0  0
 51 52  1  0  0  0
 52 53  1  0  0  0
 53 54  1  0  0  0
 54 55  1  0  0  0
 55 56  1  0  0  0
M  CHG 1  26  -1
M  END
> <minimizedAffinity>
-8.87397

> <CNNscore>
0.6162102222

> <CNNaffinity>
7.4792070389

> <CNN_VS>
4.6087636948

> <CNNaffinity_variance>
0.6896771193

$$$$
/media/chris/experiments/cd1a-new-docking/inputs/ligands/7sh4_ligand.pdb


 56 55  0  0  0  0  0  0  0  0999 V2000
  -37.2486   59.8518   65.1813 C   0  0  0  0  0  0  0  0  0  0  0  0
  -38.5733   60.3869   65.6466 C   0  0  0  0  0  0  0  0  0  0  0  0
  -39.2681   60.7107   64.4237 O   0  0  0  0  0  0  0  0  0  0  0  0
  -41.0996   60.1736   63.2590 O   0  0  0  0  0  0  0  0  0  0  0  0
  -40.5230   60.2752   64.3083 C   0  0  0  0  0  0  0  0  0  0  0  0
  -41.0626   59.8176   65.6328 C   0  0  0  0  0  0  0  0  0  0  0  0
  -41.5968   58.3954   65.6273 C   0  0  0  0  0  0  0  0  0  0  0  0
  -43.0403   58.3096   66.0766 C   0  0  0  0  0  0  0  0  0  0  0  0
  -44.0068   59.0797   65.2057 C   0  0  0  0  0  0  0  0  0  0  0  0
  -45.4060   58.4983   65.2143 C   0  0  0  0  0  0  0  0  0  0  0  0
  -46.4721   59.5202   65.5248 C   0  0  0  0  0  0  0  0  0  0  0  0
  -47.7400   59.3047   64.7415 C   0  0  0  0  0  0  0  0  0  0  0  0
  -48.9929   59.4419   65.5779 C   0  0  0  0  0  0  0  0  0  0  0  0
  -50.1662   58.6728   65.0051 C   0  0  0  0  0  0  0  0  0  0  0  0
  -49.9091   58.0850   63.6333 C   0  0  0  0  0  0  0  0  0  0  0  0
  -50.9772   58.4347   62.6033 C   0  0  0  0  0  0  0  0  0  0  0  0
  -50.8908   57.6219   61.3257 C   0  0  0  0  0  0  0  0  0  0  0  0
  -49.8828   58.1651   60.3337 C   0  0  0  0  0  0  0  0  0  0  0  0
  -49.6521   57.2533   59.1368 C   0  0  0  0  0  0  0  0  0  0  0  0
  -48.2597   56.6496   59.0922 C   0  0  0  0  0  0  0  0  0  0  0  0
  -46.4543   57.9678   57.9350 C   0  0  0  0  0  0  0  0  0  0  0  0
  -47.5051   56.8894   57.7983 C   0  0  0  0  0  0  0  0  0  0  0  0
  -36.1813   60.9160   65.1678 C   0  0  0  0  0  0  0  0  0  0  0  0
  -36.7788   62.1787   65.5382 O   0  0  0  0  0  0  0  0  0  0  0  0
  -36.0670   63.2188   66.5248 P   0  0  0  0  0  0  0  0  0  0  0  0
  -36.8627   64.4652   66.5277 O   0  0  0  0  0  0  0  0  0  0  0  0
  -35.8137   62.5323   67.8145 O   0  0  0  0  0  0  0  0  0  0  0  0
  -36.6594   62.3266   68.2428 H   0  0  0  0  0  0  0  0  0  0  0  0
  -34.6558   63.5386   65.8547 O   0  0  0  0  0  0  0  0  0  0  0  0
  -34.5871   64.3745   64.6814 C   0  0  0  0  0  0  0  0  0  0  0  0
  -32.8495   65.6529   63.6381 O   0  0  0  0  0  0  0  0  0  0  0  0
  -33.1667   64.3642   64.1724 C   0  0  0  0  0  0  0  0  0  0  0  0
  -33.4929   65.8852   62.9504 H   0  0  0  0  0  0  0  0  0  0  0  0
  -32.1541   64.9634   66.2781 O   0  0  0  0  0  0  0  0  0  0  0  0
  -32.1740   63.9863   65.2455 C   0  0  0  0  0  0  0  0  0  0  0  0
  -31.5117   64.7035   66.9569 H   0  0  0  0  0  0  0  0  0  0  0  0
  -37.4327   59.2525   63.8558 O   0  0  0  0  0  0  0  0  0  0  0  0
  -36.8025   57.1672   64.4164 O   0  0  0  0  0  0  0  0  0  0  0  0
  -37.5166   57.9095   63.7994 C   0  0  0  0  0  0  0  0  0  0  0  0
  -38.6167   57.4543   62.8912 C   0  0  0  0  0  0  0  0  0  0  0  0
  -38.2683   57.6971   61.4261 C   0  0  0  0  0  0  0  0  0  0  0  0
  -38.7639   59.0290   60.8873 C   0  0  0  0  0  0  0  0  0  0  0  0
  -38.0368   59.4858   59.6277 C   0  0  0  0  0  0  0  0  0  0  0  0
  -37.9334   58.4188   58.5537 C   0  0  0  0  0  0  0  0  0  0  0  0
  -36.5368   58.2606   57.9458 C   0  0  0  0  0  0  0  0  0  0  0  0
  -36.1107   56.8193   57.6586 C   0  0  0  0  0  0  0  0  0  0  0  0
  -36.5294   55.8786   58.7484 C   0  0  0  0  0  0  0  0  0  0  0  0
  -35.7527   55.3513   59.6749 C   0  0  0  0  0  0  0  0  0  0  0  0
  -34.2835   55.5850   59.8328 C   0  0  0  0  0  0  0  0  0  0  0  0
  -33.9385   56.2447   61.1649 C   0  0  0  0  0  0  0  0  0  0  0  0
  -34.6233   57.5834   61.3775 C   0  0  0  0  0  0  0  0  0  0  0  0
  -34.0447   58.3884   62.5283 C   0  0  0  0  0  0  0  0  0  0  0  0
  -32.5372   58.2739   62.6816 C   0  0  0  0  0  0  0  0  0  0  0  0
  -31.7623   59.2019   61.7585 C   0  0  0  0  0  0  0  0  0  0  0  0
  -30.7680   60.0984   62.4693 C   0  0  0  0  0  0  0  0  0  0  0  0
  -29.9620   60.9403   61.5200 C   0  0  0  0  0  0  0  0  0  0  0  0
 21 22  1  0  0  0
  4  5  2  0  0  0
 25 24  1  0  0  0
 25 26  2  0  0  0
 25 27  1  0  0  0
 25 29  1  0  0  0
 22 20  1  0  0  0
  3  5  1  0  0  0
  3  2  1  0  0  0
 20 19  1  0  0  0
 24 23  1  0  0  0
 19 18  1  0  0  0
 18 17  1  0  0  0
 27 28  1  0  0  0
 17 16  1  0  0  0
 29 30  1  0  0  0
 16 15  1  0  0  0
 34 35  1  0  0  0
 34 36  1  0  0  0
 15 14  1  0  0  0
 31 32  1  0  0  0
 31 33  1  0  0  0
 14 13  1  0  0  0
 37  1  1  0  0  0
 37 39  1  0  0  0
 13 12  1  0  0  0
 38 39  2  0  0  0
 12 11  1  0  0  0
 11 10  1  0  0  0
 10  9  1  0  0  0
  9  8  1  0  0  0
  8  7  1  0  0  0
  7  6  1  0  0  0
  6  5  1  0  0  0
  2  1  1  0  0  0
  1 23  1  0  0  0
 30 32  1  0  0  0
 32 35  1  0  0  0
 39 40  1  0  0  0
 40 41  1  0  0  0
 41 42  1  0  0  0
 42 43  1  0  0  0
 43 44  1  0  0  0
 44 45  1  0  0  0
 45 46  1  0  0  0
 46 47  1  0  0  0
 47 48  2  0  0  0
 48 49  1  0  0  0
 49 50  1  0  0  0
 50 51  1  0  0  0
 51 52  1  0  0  0
 52 53  1  0  0  0
 53 54  1  0  0  0
 54 55  1  0  0  0
 55 56  1  0  0  0
M  CHG 1  26  -1
M  END
> <minimizedAffinity>
-9.06263

> <CNNscore>
0.6146650910

> <CNNaffinity>
7.4195070267

> <CNN_VS>
4.5605120659

> <CNNaffinity_variance>
0.6674112082

$$$$
/media/chris/experiments/cd1a-new-docking/inputs/ligands/7sh4_ligand.pdb


 56 55  0  0  0  0  0  0  0  0999 V2000
  -38.9800   59.5493   64.6646 C   0  0  0  0  0  0  0  0  0  0  0  0
  -39.9877   58.8640   65.5436 C   0  0  0  0  0  0  0  0  0  0  0  0
  -40.9874   59.8768   65.7841 O   0  0  0  0  0  0  0  0  0  0  0  0
  -42.3704   59.4211   67.4808 O   0  0  0  0  0  0  0  0  0  0  0  0
  -42.1471   59.4702   66.3012 C   0  0  0  0  0  0  0  0  0  0  0  0
  -43.1596   59.2084   65.2237 C   0  0  0  0  0  0  0  0  0  0  0  0
  -44.5248   58.7903   65.7431 C   0  0  0  0  0  0  0  0  0  0  0  0
  -45.3220   58.0002   64.7268 C   0  0  0  0  0  0  0  0  0  0  0  0
  -46.7306   58.5070   64.5151 C   0  0  0  0  0  0  0  0  0  0  0  0
  -47.0873   59.6655   65.4242 C   0  0  0  0  0  0  0  0  0  0  0  0
  -48.3966   59.4706   66.1490 C   0  0  0  0  0  0  0  0  0  0  0  0
  -49.2968   58.4670   65.4783 C   0  0  0  0  0  0  0  0  0  0  0  0
  -50.6590   59.0231   65.1268 C   0  0  0  0  0  0  0  0  0  0  0  0
  -50.6693   59.7488   63.7966 C   0  0  0  0  0  0  0  0  0  0  0  0
  -51.3488   58.9834   62.6804 C   0  0  0  0  0  0  0  0  0  0  0  0
  -50.5042   57.8512   62.1069 C   0  0  0  0  0  0  0  0  0  0  0  0
  -49.2374   58.3170   61.4152 C   0  0  0  0  0  0  0  0  0  0  0  0
  -49.1079   57.8122   59.9925 C   0  0  0  0  0  0  0  0  0  0  0  0
  -47.8181   57.0469   59.7316 C   0  0  0  0  0  0  0  0  0  0  0  0
  -48.0387   55.6756   59.1184 C   0  0  0  0  0  0  0  0  0  0  0  0
  -47.7106   56.6368   56.8153 C   0  0  0  0  0  0  0  0  0  0  0  0
  -47.4150   55.4849   57.7489 C   0  0  0  0  0  0  0  0  0  0  0  0
  -38.0514   60.4367   65.4533 C   0  0  0  0  0  0  0  0  0  0  0  0
  -37.6351   61.5370   64.6140 O   0  0  0  0  0  0  0  0  0  0  0  0
  -36.2891   61.5067   63.7484 P   0  0  0  0  0  0  0  0  0  0  0  0
  -35.5273   60.2976   64.1286 O   0  0  0  0  0  0  0  0  0  0  0  0
  -36.6518   61.7016   62.3240 O   0  0  0  0  0  0  0  0  0  0  0  0
  -37.1614   60.9372   62.0126 H   0  0  0  0  0  0  0  0  0  0  0  0
  -35.4548   62.7812   64.2202 O   0  0  0  0  0  0  0  0  0  0  0  0
  -34.4043   62.6346   65.1974 C   0  0  0  0  0  0  0  0  0  0  0  0
  -33.9966   62.5472   67.5571 O   0  0  0  0  0  0  0  0  0  0  0  0
  -35.0298   62.6241   66.5705 C   0  0  0  0  0  0  0  0  0  0  0  0
  -33.4466   61.7660   67.3893 H   0  0  0  0  0  0  0  0  0  0  0  0
  -36.4967   63.7706   68.1042 O   0  0  0  0  0  0  0  0  0  0  0  0
  -35.8965   63.8357   66.8169 C   0  0  0  0  0  0  0  0  0  0  0  0
  -37.0485   64.5561   68.2437 H   0  0  0  0  0  0  0  0  0  0  0  0
  -39.7023   60.3013   63.6338 O   0  0  0  0  0  0  0  0  0  0  0  0
  -40.3614   60.1965   61.4857 O   0  0  0  0  0  0  0  0  0  0  0  0
  -39.6526   59.8178   62.3778 C   0  0  0  0  0  0  0  0  0  0  0  0
  -38.5974   58.7668   62.2231 C   0  0  0  0  0  0  0  0  0  0  0  0
  -38.5559   58.2218   60.7990 C   0  0  0  0  0  0  0  0  0  0  0  0
  -37.5149   58.8878   59.9143 C   0  0  0  0  0  0  0  0  0  0  0  0
  -37.5522   58.4136   58.4660 C   0  0  0  0  0  0  0  0  0  0  0  0
  -36.3273   57.6238   58.0436 C   0  0  0  0  0  0  0  0  0  0  0  0
  -36.4474   56.1097   58.2388 C   0  0  0  0  0  0  0  0  0  0  0  0
  -35.9454   55.5845   59.5854 C   0  0  0  0  0  0  0  0  0  0  0  0
  -34.4706   55.7920   59.7585 C   0  0  0  0  0  0  0  0  0  0  0  0
  -33.8838   56.5665   60.6504 C   0  0  0  0  0  0  0  0  0  0  0  0
  -34.5722   57.4030   61.6822 C   0  0  0  0  0  0  0  0  0  0  0  0
  -33.5982   57.9924   62.6985 C   0  0  0  0  0  0  0  0  0  0  0  0
  -32.2298   58.3067   62.1200 C   0  0  0  0  0  0  0  0  0  0  0  0
  -31.8861   59.7862   62.1359 C   0  0  0  0  0  0  0  0  0  0  0  0
  -30.4515   60.1035   61.7482 C   0  0  0  0  0  0  0  0  0  0  0  0
  -29.8538   61.2612   62.5332 C   0  0  0  0  0  0  0  0  0  0  0  0
  -30.7789   62.4522   62.6866 C   0  0  0  0  0  0  0  0  0  0  0  0
  -30.6926   63.0839   64.0478 C   0  0  0  0  0  0  0  0  0  0  0  0
 21 22  1  0  0  0
  4  5  2  0  0  0
 25 24  1  0  0  0
 25 26  2  0  0  0
 25 27  1  0  0  0
 25 29  1  0  0  0
 22 20  1  0  0  0
  3  5  1  0  0  0
  3  2  1  0  0  0
 20 19  1  0  0  0
 24 23  1  0  0  0
 19 18  1  0  0  0
 18 17  1  0  0  0
 27 28  1  0  0  0
 17 16  1  0  0  0
 29 30  1  0  0  0
 16 15  1  0  0  0
 34 35  1  0  0  0
 34 36  1  0  0  0
 15 14  1  0  0  0
 31 32  1  0  0  0
 31 33  1  0  0  0
 14 13  1  0  0  0
 37  1  1  0  0  0
 37 39  1  0  0  0
 13 12  1  0  0  0
 38 39  2  0  0  0
 12 11  1  0  0  0
 11 10  1  0  0  0
 10  9  1  0  0  0
  9  8  1  0  0  0
  8  7  1  0  0  0
  7  6  1  0  0  0
  6  5  1  0  0  0
  2  1  1  0  0  0
  1 23  1  0  0  0
 30 32  1  0  0  0
 32 35  1  0  0  0
 39 40  1  0  0  0
 40 41  1  0  0  0
 41 42  1  0  0  0
 42 43  1  0  0  0
 43 44  1  0  0  0
 44 45  1  0  0  0
 45 46  1  0  0  0
 46 47  1  0  0  0
 47 48  2  0  0  0
 48 49  1  0  0  0
 49 50  1  0  0  0
 50 51  1  0  0  0
 51 52  1  0  0  0
 52 53  1  0  0  0
 53 54  1  0  0  0
 54 55  1  0  0  0
 55 56  1  0  0  0
M  CHG 1  26  -1
M  END
> <minimizedAffinity>
-8.97228

> <CNNscore>
0.5734029412

> <CNNaffinity>
7.3010826111

> <CNN_VS>
4.1864624023

> <CNNaffinity_variance>
0.5731112361

$$$$
/media/chris/experiments/cd1a-new-docking/inputs/ligands/7sh4_ligand.pdb


 56 55  0  0  0  0  0  0  0  0999 V2000
  -37.4726   60.5965   65.1689 C   0  0  0  0  0  0  0  0  0  0  0  0
  -38.4614   60.3613   66.2756 C   0  0  0  0  0  0  0  0  0  0  0  0
  -39.4419   59.4812   65.6865 O   0  0  0  0  0  0  0  0  0  0  0  0
  -40.9973   61.0860   65.7538 O   0  0  0  0  0  0  0  0  0  0  0  0
  -40.6956   59.9304   65.6220 C   0  0  0  0  0  0  0  0  0  0  0  0
  -41.6468   58.8322   65.2426 C   0  0  0  0  0  0  0  0  0  0  0  0
  -43.1124   59.2222   65.3315 C   0  0  0  0  0  0  0  0  0  0  0  0
  -43.7937   58.6649   66.5636 C   0  0  0  0  0  0  0  0  0  0  0  0
  -45.2849   58.4681   66.4112 C   0  0  0  0  0  0  0  0  0  0  0  0
  -45.9280   59.4913   65.4972 C   0  0  0  0  0  0  0  0  0  0  0  0
  -47.4288   59.5571   65.6420 C   0  0  0  0  0  0  0  0  0  0  0  0
  -48.0448   58.2294   65.9957 C   0  0  0  0  0  0  0  0  0  0  0  0
  -49.4328   58.0404   65.4247 C   0  0  0  0  0  0  0  0  0  0  0  0
  -50.2622   59.3077   65.4709 C   0  0  0  0  0  0  0  0  0  0  0  0
  -50.9534   59.6418   64.1655 C   0  0  0  0  0  0  0  0  0  0  0  0
  -50.8983   58.5200   63.1348 C   0  0  0  0  0  0  0  0  0  0  0  0
  -50.1263   58.8748   61.8785 C   0  0  0  0  0  0  0  0  0  0  0  0
  -49.1551   57.7963   61.4439 C   0  0  0  0  0  0  0  0  0  0  0  0
  -49.7413   56.8174   60.4361 C   0  0  0  0  0  0  0  0  0  0  0  0
  -49.6195   57.2823   58.9958 C   0  0  0  0  0  0  0  0  0  0  0  0
  -47.2352   57.6124   58.2594 C   0  0  0  0  0  0  0  0  0  0  0  0
  -48.4409   56.7004   58.2386 C   0  0  0  0  0  0  0  0  0  0  0  0
  -36.1694   61.1528   65.6828 C   0  0  0  0  0  0  0  0  0  0  0  0
  -35.9175   62.4204   65.0363 O   0  0  0  0  0  0  0  0  0  0  0  0
  -35.8807   63.8082   65.8328 P   0  0  0  0  0  0  0  0  0  0  0  0
  -36.0847   64.9013   64.8578 O   0  0  0  0  0  0  0  0  0  0  0  0
  -36.8046   63.7022   66.9876 O   0  0  0  0  0  0  0  0  0  0  0  0
  -37.7168   63.6274   66.6661 H   0  0  0  0  0  0  0  0  0  0  0  0
  -34.3963   63.9290   66.4025 O   0  0  0  0  0  0  0  0  0  0  0  0
  -33.2705   63.6307   65.5519 C   0  0  0  0  0  0  0  0  0  0  0  0
  -30.9971   64.2976   65.1923 O   0  0  0  0  0  0  0  0  0  0  0  0
  -32.2621   64.7448   65.6889 C   0  0  0  0  0  0  0  0  0  0  0  0
  -30.7318   63.4915   65.6621 H   0  0  0  0  0  0  0  0  0  0  0  0
  -33.4552   65.6798   63.8126 O   0  0  0  0  0  0  0  0  0  0  0  0
  -32.6908   66.0003   64.9678 C   0  0  0  0  0  0  0  0  0  0  0  0
  -33.7209   66.4977   63.3637 H   0  0  0  0  0  0  0  0  0  0  0  0
  -38.0892   61.4869   64.1805 O   0  0  0  0  0  0  0  0  0  0  0  0
  -37.0737   61.3377   62.1789 O   0  0  0  0  0  0  0  0  0  0  0  0
  -38.0146   61.1107   62.8894 C   0  0  0  0  0  0  0  0  0  0  0  0
  -39.2350   60.3611   62.4526 C   0  0  0  0  0  0  0  0  0  0  0  0
  -38.9621   59.5277   61.2045 C   0  0  0  0  0  0  0  0  0  0  0  0
  -38.6007   58.0807   61.4965 C   0  0  0  0  0  0  0  0  0  0  0  0
  -37.6741   57.4617   60.4562 C   0  0  0  0  0  0  0  0  0  0  0  0
  -37.3969   58.3596   59.2648 C   0  0  0  0  0  0  0  0  0  0  0  0
  -37.1386   57.6143   57.9522 C   0  0  0  0  0  0  0  0  0  0  0  0
  -36.1468   56.4530   58.0467 C   0  0  0  0  0  0  0  0  0  0  0  0
  -34.7249   56.9265   58.0901 C   0  0  0  0  0  0  0  0  0  0  0  0
  -33.8990   56.8456   59.1152 C   0  0  0  0  0  0  0  0  0  0  0  0
  -34.2109   56.2593   60.4559 C   0  0  0  0  0  0  0  0  0  0  0  0
  -32.9771   56.1567   61.3480 C   0  0  0  0  0  0  0  0  0  0  0  0
  -32.4658   57.5001   61.8378 C   0  0  0  0  0  0  0  0  0  0  0  0
  -32.9560   57.8696   63.2272 C   0  0  0  0  0  0  0  0  0  0  0  0
  -33.9391   59.0279   63.2607 C   0  0  0  0  0  0  0  0  0  0  0  0
  -35.3853   58.6008   63.0607 C   0  0  0  0  0  0  0  0  0  0  0  0
  -35.7119   57.2297   63.6185 C   0  0  0  0  0  0  0  0  0  0  0  0
  -36.8011   57.2675   64.6537 C   0  0  0  0  0  0  0  0  0  0  0  0
 21 22  1  0  0  0
  4  5  2  0  0  0
 25 24  1  0  0  0
 25 26  2  0  0  0
 25 27  1  0  0  0
 25 29  1  0  0  0
 22 20  1  0  0  0
  3  5  1  0  0  0
  3  2  1  0  0  0
 20 19  1  0  0  0
 24 23  1  0  0  0
 19 18  1  0  0  0
 18 17  1  0  0  0
 27 28  1  0  0  0
 17 16  1  0  0  0
 29 30  1  0  0  0
 16 15  1  0  0  0
 34 35  1  0  0  0
 34 36  1  0  0  0
 15 14  1  0  0  0
 31 32  1  0  0  0
 31 33  1  0  0  0
 14 13  1  0  0  0
 37  1  1  0  0  0
 37 39  1  0  0  0
 13 12  1  0  0  0
 38 39  2  0  0  0
 12 11  1  0  0  0
 11 10  1  0  0  0
 10  9  1  0  0  0
  9  8  1  0  0  0
  8  7  1  0  0  0
  7  6  1  0  0  0
  6  5  1  0  0  0
  2  1  1  0  0  0
  1 23  1  0  0  0
 30 32  1  0  0  0
 32 35  1  0  0  0
 39 40  1  0  0  0
 40 41  1  0  0  0
 41 42  1  0  0  0
 42 43  1  0  0  0
 43 44  1  0  0  0
 44 45  1  0  0  0
 45 46  1  0  0  0
 46 47  1  0  0  0
 47 48  2  0  0  0
 48 49  1  0  0  0
 49 50  1  0  0  0
 50 51  1  0  0  0
 51 52  1  0  0  0
 52 53  1  0  0  0
 53 54  1  0  0  0
 54 55  1  0  0  0
 55 56  1  0  0  0
M  CHG 1  26  -1
M  END
> <minimizedAffinity>
-8.85795

> <CNNscore>
0.5239763260

> <CNNaffinity>
7.3620004654

> <CNN_VS>
3.8575139046

> <CNNaffinity_variance>
0.6848214269

$$$$
/media/chris/experiments/cd1a-new-docking/inputs/ligands/7sh4_ligand.pdb


 56 55  0  0  0  0  0  0  0  0999 V2000
  -37.2263   59.9911   65.5001 C   0  0  0  0  0  0  0  0  0  0  0  0
  -38.4780   59.1601   65.4796 C   0  0  0  0  0  0  0  0  0  0  0  0
  -39.5134   60.0781   65.8898 O   0  0  0  0  0  0  0  0  0  0  0  0
  -41.1348   60.9198   64.6007 O   0  0  0  0  0  0  0  0  0  0  0  0
  -40.6740   60.0107   65.2370 C   0  0  0  0  0  0  0  0  0  0  0  0
  -41.2528   58.6265   65.3005 C   0  0  0  0  0  0  0  0  0  0  0  0
  -42.5526   58.5326   66.0813 C   0  0  0  0  0  0  0  0  0  0  0  0
  -43.0975   57.1212   66.1451 C   0  0  0  0  0  0  0  0  0  0  0  0
  -44.4567   56.9526   65.5050 C   0  0  0  0  0  0  0  0  0  0  0  0
  -45.0593   58.2621   65.0382 C   0  0  0  0  0  0  0  0  0  0  0  0
  -46.3919   58.5646   65.6787 C   0  0  0  0  0  0  0  0  0  0  0  0
  -47.4958   58.7645   64.6743 C   0  0  0  0  0  0  0  0  0  0  0  0
  -48.7916   59.2402   65.2932 C   0  0  0  0  0  0  0  0  0  0  0  0
  -49.9922   58.4455   64.8210 C   0  0  0  0  0  0  0  0  0  0  0  0
  -50.9313   59.2209   63.9209 C   0  0  0  0  0  0  0  0  0  0  0  0
  -51.0912   58.6162   62.5306 C   0  0  0  0  0  0  0  0  0  0  0  0
  -49.9768   58.9802   61.5684 C   0  0  0  0  0  0  0  0  0  0  0  0
  -49.1884   57.7823   61.0796 C   0  0  0  0  0  0  0  0  0  0  0  0
  -49.8020   57.1029   59.8634 C   0  0  0  0  0  0  0  0  0  0  0  0
  -48.8765   57.0583   58.6607 C   0  0  0  0  0  0  0  0  0  0  0  0
  -46.6115   57.8890   57.9424 C   0  0  0  0  0  0  0  0  0  0  0  0
  -47.3988   57.1400   58.9936 C   0  0  0  0  0  0  0  0  0  0  0  0
  -37.3741   61.2160   66.3658 C   0  0  0  0  0  0  0  0  0  0  0  0
  -36.0704   61.8090   66.5591 O   0  0  0  0  0  0  0  0  0  0  0  0
  -35.8380   63.3913   66.6221 P   0  0  0  0  0  0  0  0  0  0  0  0
  -36.3513   63.9799   65.3663 O   0  0  0  0  0  0  0  0  0  0  0  0
  -36.3755   63.8858   67.9125 O   0  0  0  0  0  0  0  0  0  0  0  0
  -37.3395   63.7784   67.9236 H   0  0  0  0  0  0  0  0  0  0  0  0
  -34.2553   63.5851   66.6442 O   0  0  0  0  0  0  0  0  0  0  0  0
  -33.6089   64.3609   65.6145 C   0  0  0  0  0  0  0  0  0  0  0  0
  -33.3733   63.5015   63.3901 O   0  0  0  0  0  0  0  0  0  0  0  0
  -32.8453   63.4183   64.7172 C   0  0  0  0  0  0  0  0  0  0  0  0
  -34.3249   63.3140   63.4083 H   0  0  0  0  0  0  0  0  0  0  0  0
  -31.0582   64.7950   65.5713 O   0  0  0  0  0  0  0  0  0  0  0  0
  -31.3634   63.7077   64.7075 C   0  0  0  0  0  0  0  0  0  0  0  0
  -30.1034   64.9654   65.5516 H   0  0  0  0  0  0  0  0  0  0  0  0
  -36.8829   60.3424   64.1186 O   0  0  0  0  0  0  0  0  0  0  0  0
  -34.8665   60.8382   63.2536 O   0  0  0  0  0  0  0  0  0  0  0  0
  -35.6393   60.0360   63.7018 C   0  0  0  0  0  0  0  0  0  0  0  0
  -35.3305   58.5819   63.8810 C   0  0  0  0  0  0  0  0  0  0  0  0
  -33.8549   58.3588   64.1971 C   0  0  0  0  0  0  0  0  0  0  0  0
  -33.1142   57.5513   63.1439 C   0  0  0  0  0  0  0  0  0  0  0  0
  -33.0268   58.2484   61.7910 C   0  0  0  0  0  0  0  0  0  0  0  0
  -33.5639   57.4237   60.6361 C   0  0  0  0  0  0  0  0  0  0  0  0
  -34.4318   56.2332   61.0534 C   0  0  0  0  0  0  0  0  0  0  0  0
  -34.6056   55.1484   59.9882 C   0  0  0  0  0  0  0  0  0  0  0  0
  -36.0126   55.0811   59.4748 C   0  0  0  0  0  0  0  0  0  0  0  0
  -36.5541   55.8589   58.5575 C   0  0  0  0  0  0  0  0  0  0  0  0
  -35.8721   56.9762   57.8332 C   0  0  0  0  0  0  0  0  0  0  0  0
  -36.6570   58.2829   57.9068 C   0  0  0  0  0  0  0  0  0  0  0  0
  -37.7270   58.2913   58.9843 C   0  0  0  0  0  0  0  0  0  0  0  0
  -37.1872   58.5640   60.3777 C   0  0  0  0  0  0  0  0  0  0  0  0
  -37.8656   57.7707   61.4821 C   0  0  0  0  0  0  0  0  0  0  0  0
  -39.0977   58.4571   62.0517 C   0  0  0  0  0  0  0  0  0  0  0  0
  -39.1464   59.9521   61.8064 C   0  0  0  0  0  0  0  0  0  0  0  0
  -40.3374   60.3689   60.9895 C   0  0  0  0  0  0  0  0  0  0  0  0
 21 22  1  0  0  0
  4  5  2  0  0  0
 25 24  1  0  0  0
 25 26  2  0  0  0
 25 27  1  0  0  0
 25 29  1  0  0  0
 22 20  1  0  0  0
  3  5  1  0  0  0
  3  2  1  0  0  0
 20 19  1  0  0  0
 24 23  1  0  0  0
 19 18  1  0  0  0
 18 17  1  0  0  0
 27 28  1  0  0  0
 17 16  1  0  0  0
 29 30  1  0  0  0
 16 15  1  0  0  0
 34 35  1  0  0  0
 34 36  1  0  0  0
 15 14  1  0  0  0
 31 32  1  0  0  0
 31 33  1  0  0  0
 14 13  1  0  0  0
 37  1  1  0  0  0
 37 39  1  0  0  0
 13 12  1  0  0  0
 38 39  2  0  0  0
 12 11  1  0  0  0
 11 10  1  0  0  0
 10  9  1  0  0  0
  9  8  1  0  0  0
  8  7  1  0  0  0
  7  6  1  0  0  0
  6  5  1  0  0  0
  2  1  1  0  0  0
  1 23  1  0  0  0
 30 32  1  0  0  0
 32 35  1  0  0  0
 39 40  1  0  0  0
 40 41  1  0  0  0
 41 42  1  0  0  0
 42 43  1  0  0  0
 43 44  1  0  0  0
 44 45  1  0  0  0
 45 46  1  0  0  0
 46 47  1  0  0  0
 47 48  2  0  0  0
 48 49  1  0  0  0
 49 50  1  0  0  0
 50 51  1  0  0  0
 51 52  1  0  0  0
 52 53  1  0  0  0
 53 54  1  0  0  0
 54 55  1  0  0  0
 55 56  1  0  0  0
M  CHG 1  26  -1
M  END
> <minimizedAffinity>
-8.56868

> <CNNscore>
0.4882646799

> <CNNaffinity>
7.6506447792

> <CNN_VS>
3.7355396748

> <CNNaffinity_variance>
0.5766499639

$$$$
/media/chris/experiments/cd1a-new-docking/inputs/ligands/7sh4_ligand.pdb


 56 55  0  0  0  0  0  0  0  0999 V2000
  -38.8962   60.0308   65.3597 C   0  0  0  0  0  0  0  0  0  0  0  0
  -40.1913   60.4414   66.0013 C   0  0  0  0  0  0  0  0  0  0  0  0
  -40.8614   59.1910   66.2670 O   0  0  0  0  0  0  0  0  0  0  0  0
  -42.5253   59.6011   64.8309 O   0  0  0  0  0  0  0  0  0  0  0  0
  -42.1150   59.0723   65.8288 C   0  0  0  0  0  0  0  0  0  0  0  0
  -42.8941   58.1020   66.6692 C   0  0  0  0  0  0  0  0  0  0  0  0
  -43.4252   56.9032   65.9018 C   0  0  0  0  0  0  0  0  0  0  0  0
  -44.8981   57.0240   65.5718 C   0  0  0  0  0  0  0  0  0  0  0  0
  -45.6415   58.0329   66.4176 C   0  0  0  0  0  0  0  0  0  0  0  0
  -46.6530   58.8386   65.6280 C   0  0  0  0  0  0  0  0  0  0  0  0
  -47.8658   58.0368   65.2232 C   0  0  0  0  0  0  0  0  0  0  0  0
  -48.3085   58.3118   63.8105 C   0  0  0  0  0  0  0  0  0  0  0  0
  -49.5993   59.0962   63.7279 C   0  0  0  0  0  0  0  0  0  0  0  0
  -50.6895   58.3525   62.9832 C   0  0  0  0  0  0  0  0  0  0  0  0
  -50.5505   58.3991   61.4759 C   0  0  0  0  0  0  0  0  0  0  0  0
  -50.6588   57.0346   60.8049 C   0  0  0  0  0  0  0  0  0  0  0  0
  -49.3784   56.5738   60.1353 C   0  0  0  0  0  0  0  0  0  0  0  0
  -48.5095   57.7153   59.6478 C   0  0  0  0  0  0  0  0  0  0  0  0
  -47.1241   57.2770   59.1943 C   0  0  0  0  0  0  0  0  0  0  0  0
  -46.8423   57.5708   57.7316 C   0  0  0  0  0  0  0  0  0  0  0  0
  -47.3489   55.2110   57.0166 C   0  0  0  0  0  0  0  0  0  0  0  0
  -47.5830   56.6810   56.7514 C   0  0  0  0  0  0  0  0  0  0  0  0
  -37.7000   60.5250   66.1322 C   0  0  0  0  0  0  0  0  0  0  0  0
  -37.3661   61.8537   65.6725 O   0  0  0  0  0  0  0  0  0  0  0  0
  -36.3679   62.8208   66.4663 P   0  0  0  0  0  0  0  0  0  0  0  0
  -36.9151   64.1933   66.4056 O   0  0  0  0  0  0  0  0  0  0  0  0
  -36.1007   62.2186   67.7947 O   0  0  0  0  0  0  0  0  0  0  0  0
  -36.9157   62.2213   68.3207 H   0  0  0  0  0  0  0  0  0  0  0  0
  -35.0072   62.7975   65.6352 O   0  0  0  0  0  0  0  0  0  0  0  0
  -35.0076   62.3552   64.2626 C   0  0  0  0  0  0  0  0  0  0  0  0
  -34.8830   64.7463   64.1673 O   0  0  0  0  0  0  0  0  0  0  0  0
  -34.8015   63.5579   63.3750 C   0  0  0  0  0  0  0  0  0  0  0  0
  -35.7329   64.7659   64.6344 H   0  0  0  0  0  0  0  0  0  0  0  0
  -33.1418   62.1719   62.3059 O   0  0  0  0  0  0  0  0  0  0  0  0
  -33.4834   63.5110   62.6399 C   0  0  0  0  0  0  0  0  0  0  0  0
  -32.2937   62.1623   61.8352 H   0  0  0  0  0  0  0  0  0  0  0  0
  -38.8895   60.5219   63.9782 O   0  0  0  0  0  0  0  0  0  0  0  0
  -39.8259   58.6601   63.1317 O   0  0  0  0  0  0  0  0  0  0  0  0
  -39.6377   59.8450   63.0860 C   0  0  0  0  0  0  0  0  0  0  0  0
  -40.2201   60.7481   62.0432 C   0  0  0  0  0  0  0  0  0  0  0  0
  -40.1222   60.1309   60.6516 C   0  0  0  0  0  0  0  0  0  0  0  0
  -38.6976   59.9723   60.1466 C   0  0  0  0  0  0  0  0  0  0  0  0
  -38.2444   58.5203   60.0460 C   0  0  0  0  0  0  0  0  0  0  0  0
  -36.9597   58.2215   60.7961 C   0  0  0  0  0  0  0  0  0  0  0  0
  -37.1321   57.3158   62.0188 C   0  0  0  0  0  0  0  0  0  0  0  0
  -36.3592   57.7504   63.2658 C   0  0  0  0  0  0  0  0  0  0  0  0
  -35.4714   58.9286   62.9981 C   0  0  0  0  0  0  0  0  0  0  0  0
  -34.1561   58.9604   63.0904 C   0  0  0  0  0  0  0  0  0  0  0  0
  -33.2709   57.8198   63.4823 C   0  0  0  0  0  0  0  0  0  0  0  0
  -32.6907   57.0909   62.2737 C   0  0  0  0  0  0  0  0  0  0  0  0
  -33.4173   57.3909   60.9744 C   0  0  0  0  0  0  0  0  0  0  0  0
  -34.1030   56.1801   60.3654 C   0  0  0  0  0  0  0  0  0  0  0  0
  -33.6515   55.8445   58.9538 C   0  0  0  0  0  0  0  0  0  0  0  0
  -33.9645   56.9364   57.9421 C   0  0  0  0  0  0  0  0  0  0  0  0
  -35.4198   57.3593   57.9133 C   0  0  0  0  0  0  0  0  0  0  0  0
  -36.3596   56.1981   57.7461 C   0  0  0  0  0  0  0  0  0  0  0  0
 21 22  1  0  0  0
  4  5  2  0  0  0
 25 24  1  0  0  0
 25 26  2  0  0  0
 25 27  1  0  0  0
 25 29  1  0  0  0
 22 20  1  0  0  0
  3  5  1  0  0  0
  3  2  1  0  0  0
 20 19  1  0  0  0
 24 23  1  0  0  0
 19 18  1  0  0  0
 18 17  1  0  0  0
 27 28  1  0  0  0
 17 16  1  0  0  0
 29 30  1  0  0  0
 16 15  1  0  0  0
 34 35  1  0  0  0
 34 36  1  0  0  0
 15 14  1  0  0  0
 31 32  1  0  0  0
 31 33  1  0  0  0
 14 13  1  0  0  0
 37  1  1  0  0  0
 37 39  1  0  0  0
 13 12  1  0  0  0
 38 39  2  0  0  0
 12 11  1  0  0  0
 11 10  1  0  0  0
 10  9  1  0  0  0
  9  8  1  0  0  0
  8  7  1  0  0  0
  7  6  1  0  0  0
  6  5  1  0  0  0
  2  1  1  0  0  0
  1 23  1  0  0  0
 30 32  1  0  0  0
 32 35  1  0  0  0
 39 40  1  0  0  0
 40 41  1  0  0  0
 41 42  1  0  0  0
 42 43  1  0  0  0
 43 44  1  0  0  0
 44 45  1  0  0  0
 45 46  1  0  0  0
 46 47  1  0  0  0
 47 48  2  0  0  0
 48 49  1  0  0  0
 49 50  1  0  0  0
 50 51  1  0  0  0
 51 52  1  0  0  0
 52 53  1  0  0  0
 53 54  1  0  0  0
 54 55  1  0  0  0
 55 56  1  0  0  0
M  CHG 1  26  -1
M  END
> <minimizedAffinity>
-8.73767

> <CNNscore>
0.4202184379

> <CNNaffinity>
7.4686141014

> <CNN_VS>
3.1384494305

> <CNNaffinity_variance>
0.9453445673

$$$$
/media/chris/experiments/cd1a-new-docking/inputs/ligands/7sh4_ligand.pdb


 56 55  0  0  0  0  0  0  0  0999 V2000
  -38.7682   58.6988   63.5598 C   0  0  0  0  0  0  0  0  0  0  0  0
  -39.7482   58.0691   64.5089 C   0  0  0  0  0  0  0  0  0  0  0  0
  -40.8154   59.0364   64.6016 O   0  0  0  0  0  0  0  0  0  0  0  0
  -40.1437   60.6732   65.9687 O   0  0  0  0  0  0  0  0  0  0  0  0
  -40.8814   59.7577   65.7210 C   0  0  0  0  0  0  0  0  0  0  0  0
  -42.0637   59.3571   66.5557 C   0  0  0  0  0  0  0  0  0  0  0  0
  -43.2468   58.8462   65.7512 C   0  0  0  0  0  0  0  0  0  0  0  0
  -44.5235   58.7817   66.5628 C   0  0  0  0  0  0  0  0  0  0  0  0
  -45.7871   58.8227   65.7337 C   0  0  0  0  0  0  0  0  0  0  0  0
  -47.0274   58.4576   66.5238 C   0  0  0  0  0  0  0  0  0  0  0  0
  -48.2991   58.9976   65.9166 C   0  0  0  0  0  0  0  0  0  0  0  0
  -48.0552   59.8406   64.6929 C   0  0  0  0  0  0  0  0  0  0  0  0
  -49.2966   60.5455   64.1925 C   0  0  0  0  0  0  0  0  0  0  0  0
  -50.5412   59.6884   64.3034 C   0  0  0  0  0  0  0  0  0  0  0  0
  -51.1618   59.3246   62.9707 C   0  0  0  0  0  0  0  0  0  0  0  0
  -50.5784   58.0636   62.3433 C   0  0  0  0  0  0  0  0  0  0  0  0
  -49.8076   58.3133   61.0612 C   0  0  0  0  0  0  0  0  0  0  0  0
  -49.9817   57.2162   60.0309 C   0  0  0  0  0  0  0  0  0  0  0  0
  -48.8223   57.1107   59.0500 C   0  0  0  0  0  0  0  0  0  0  0  0
  -48.1771   55.7367   59.0174 C   0  0  0  0  0  0  0  0  0  0  0  0
  -47.6956   56.4281   56.6454 C   0  0  0  0  0  0  0  0  0  0  0  0
  -47.6843   55.2992   57.6511 C   0  0  0  0  0  0  0  0  0  0  0  0
  -39.4476   59.2749   62.3440 C   0  0  0  0  0  0  0  0  0  0  0  0
  -38.9526   58.5952   61.1687 O   0  0  0  0  0  0  0  0  0  0  0  0
  -38.3591   59.3734   59.9021 P   0  0  0  0  0  0  0  0  0  0  0  0
  -39.4904   59.7657   59.0344 O   0  0  0  0  0  0  0  0  0  0  0  0
  -37.4416   60.4280   60.3967 O   0  0  0  0  0  0  0  0  0  0  0  0
  -37.9498   61.0977   60.8807 H   0  0  0  0  0  0  0  0  0  0  0  0
  -37.4871   58.2953   59.1147 O   0  0  0  0  0  0  0  0  0  0  0  0
  -36.4395   57.5767   59.7973 C   0  0  0  0  0  0  0  0  0  0  0  0
  -36.6413   56.5478   57.6426 O   0  0  0  0  0  0  0  0  0  0  0  0
  -35.9709   56.4553   58.9031 C   0  0  0  0  0  0  0  0  0  0  0  0
  -37.6008   56.5382   57.7851 H   0  0  0  0  0  0  0  0  0  0  0  0
  -34.1177   57.3663   57.6564 O   0  0  0  0  0  0  0  0  0  0  0  0
  -34.4748   56.4688   58.6998 C   0  0  0  0  0  0  0  0  0  0  0  0
  -33.1546   57.3612   57.5410 H   0  0  0  0  0  0  0  0  0  0  0  0
  -37.7671   57.6916   63.1946 O   0  0  0  0  0  0  0  0  0  0  0  0
  -36.0070   57.0168   64.4219 O   0  0  0  0  0  0  0  0  0  0  0  0
  -36.5358   57.8357   63.7210 C   0  0  0  0  0  0  0  0  0  0  0  0
  -35.8998   59.1285   63.3133 C   0  0  0  0  0  0  0  0  0  0  0  0
  -35.4925   59.9581   64.5270 C   0  0  0  0  0  0  0  0  0  0  0  0
  -36.5213   60.9998   64.9348 C   0  0  0  0  0  0  0  0  0  0  0  0
  -36.1220   61.8006   66.1690 C   0  0  0  0  0  0  0  0  0  0  0  0
  -34.6510   62.1696   66.2158 C   0  0  0  0  0  0  0  0  0  0  0  0
  -34.3750   63.6589   66.4412 C   0  0  0  0  0  0  0  0  0  0  0  0
  -34.8245   64.5837   65.3080 C   0  0  0  0  0  0  0  0  0  0  0  0
  -33.7737   65.5920   64.9512 C   0  0  0  0  0  0  0  0  0  0  0  0
  -32.7161   65.3910   64.1893 C   0  0  0  0  0  0  0  0  0  0  0  0
  -32.3435   64.1073   63.5172 C   0  0  0  0  0  0  0  0  0  0  0  0
  -31.1949   63.3924   64.2231 C   0  0  0  0  0  0  0  0  0  0  0  0
  -30.1867   62.7720   63.2720 C   0  0  0  0  0  0  0  0  0  0  0  0
  -30.7682   62.4145   61.9150 C   0  0  0  0  0  0  0  0  0  0  0  0
  -30.3310   61.0613   61.3794 C   0  0  0  0  0  0  0  0  0  0  0  0
  -30.7217   59.8988   62.2793 C   0  0  0  0  0  0  0  0  0  0  0  0
  -32.2075   59.5995   62.2993 C   0  0  0  0  0  0  0  0  0  0  0  0
  -32.5127   58.1516   62.0348 C   0  0  0  0  0  0  0  0  0  0  0  0
 21 22  1  0  0  0
  4  5  2  0  0  0
 25 24  1  0  0  0
 25 26  2  0  0  0
 25 27  1  0  0  0
 25 29  1  0  0  0
 22 20  1  0  0  0
  3  5  1  0  0  0
  3  2  1  0  0  0
 20 19  1  0  0  0
 24 23  1  0  0  0
 19 18  1  0  0  0
 18 17  1  0  0  0
 27 28  1  0  0  0
 17 16  1  0  0  0
 29 30  1  0  0  0
 16 15  1  0  0  0
 34 35  1  0  0  0
 34 36  1  0  0  0
 15 14  1  0  0  0
 31 32  1  0  0  0
 31 33  1  0  0  0
 14 13  1  0  0  0
 37  1  1  0  0  0
 37 39  1  0  0  0
 13 12  1  0  0  0
 38 39  2  0  0  0
 12 11  1  0  0  0
 11 10  1  0  0  0
 10  9  1  0  0  0
  9  8  1  0  0  0
  8  7  1  0  0  0
  7  6  1  0  0  0
  6  5  1  0  0  0
  2  1  1  0  0  0
  1 23  1  0  0  0
 30 32  1  0  0  0
 32 35  1  0  0  0
 39 40  1  0  0  0
 40 41  1  0  0  0
 41 42  1  0  0  0
 42 43  1  0  0  0
 43 44  1  0  0  0
 44 45  1  0  0  0
 45 46  1  0  0  0
 46 47  1  0  0  0
 47 48  2  0  0  0
 48 49  1  0  0  0
 49 50  1  0  0  0
 50 51  1  0  0  0
 51 52  1  0  0  0
 52 53  1  0  0  0
 53 54  1  0  0  0
 54 55  1  0  0  0
 55 56  1  0  0  0
M  CHG 1  26  -1
M  END
> <minimizedAffinity>
-8.46064

> <CNNscore>
0.4191550016

> <CNNaffinity>
7.1258621216

> <CNN_VS>
2.9868407249

> <CNNaffinity_variance>
0.4862170219

$$$$
