/media/chris/experiments/cd1a-new-docking/inputs/ligands/7sh4_ligand.pdb


 56 55  0  0  0  0  0  0  0  0999 V2000
  -38.7042   60.5226   63.9146 C   0  0  0  0  0  0  0  0  0  0  0  0
  -38.6259   59.7031   62.6576 C   0  0  0  0  0  0  0  0  0  0  0  0
  -39.3513   60.4850   61.6852 O   0  0  0  0  0  0  0  0  0  0  0  0
  -39.8521   60.6293   59.5109 O   0  0  0  0  0  0  0  0  0  0  0  0
  -39.2459   60.1113   60.4095 C   0  0  0  0  0  0  0  0  0  0  0  0
  -38.1893   59.0582   60.2382 C   0  0  0  0  0  0  0  0  0  0  0  0
  -37.6417   58.9527   58.8249 C   0  0  0  0  0  0  0  0  0  0  0  0
  -37.5152   57.5203   58.3506 C   0  0  0  0  0  0  0  0  0  0  0  0
  -36.3280   57.2692   57.4488 C   0  0  0  0  0  0  0  0  0  0  0  0
  -35.0117   57.6920   58.0691 C   0  0  0  0  0  0  0  0  0  0  0  0
  -33.8708   56.7635   57.7321 C   0  0  0  0  0  0  0  0  0  0  0  0
  -33.5168   55.8321   58.8612 C   0  0  0  0  0  0  0  0  0  0  0  0
  -34.6975   55.4736   59.7362 C   0  0  0  0  0  0  0  0  0  0  0  0
  -34.5911   56.0567   61.1308 C   0  0  0  0  0  0  0  0  0  0  0  0
  -35.7813   56.8982   61.5413 C   0  0  0  0  0  0  0  0  0  0  0  0
  -35.7609   57.3211   63.0059 C   0  0  0  0  0  0  0  0  0  0  0  0
  -35.0363   58.6291   63.2595 C   0  0  0  0  0  0  0  0  0  0  0  0
  -33.7080   58.4541   63.9666 C   0  0  0  0  0  0  0  0  0  0  0  0
  -32.5906   57.9673   63.0545 C   0  0  0  0  0  0  0  0  0  0  0  0
  -32.3506   58.8660   61.8545 C   0  0  0  0  0  0  0  0  0  0  0  0
  -31.4430   61.1798   62.2524 C   0  0  0  0  0  0  0  0  0  0  0  0
  -31.1116   59.7359   61.9505 C   0  0  0  0  0  0  0  0  0  0  0  0
  -37.3992   61.2102   64.2242 C   0  0  0  0  0  0  0  0  0  0  0  0
  -36.9866   61.9685   63.0653 O   0  0  0  0  0  0  0  0  0  0  0  0
  -35.7588   62.9951   63.0925 P   0  0  0  0  0  0  0  0  0  0  0  0
  -34.5551   62.2577   63.5331 O   0  0  0  0  0  0  0  0  0  0  0  0
  -35.7225   63.7056   61.7915 O   0  0  0  0  0  0  0  0  0  0  0  0
  -35.5021   63.0774   61.0861 H   0  0  0  0  0  0  0  0  0  0  0  0
  -36.1234   64.0599   64.2221 O   0  0  0  0  0  0  0  0  0  0  0  0
  -35.1253   64.4645   65.1814 C   0  0  0  0  0  0  0  0  0  0  0  0
  -37.0227   64.2313   66.6263 O   0  0  0  0  0  0  0  0  0  0  0  0
  -35.6024   64.0727   66.5582 C   0  0  0  0  0  0  0  0  0  0  0  0
  -37.2578   65.1430   66.3930 H   0  0  0  0  0  0  0  0  0  0  0  0
  -33.9314   62.6250   67.5227 O   0  0  0  0  0  0  0  0  0  0  0  0
  -35.2182   62.6578   66.9189 C   0  0  0  0  0  0  0  0  0  0  0  0
  -33.7026   61.7094   67.7468 H   0  0  0  0  0  0  0  0  0  0  0  0
  -39.1283   59.6465   65.0111 O   0  0  0  0  0  0  0  0  0  0  0  0
  -40.8412   60.7985   65.9047 O   0  0  0  0  0  0  0  0  0  0  0  0
  -40.3958   59.7823   65.4458 C   0  0  0  0  0  0  0  0  0  0  0  0
  -41.1861   58.5225   65.2717 C   0  0  0  0  0  0  0  0  0  0  0  0
  -42.4037   58.4952   66.1901 C   0  0  0  0  0  0  0  0  0  0  0  0
  -43.1477   57.1698   66.1880 C   0  0  0  0  0  0  0  0  0  0  0  0
  -44.6578   57.3184   66.0421 C   0  0  0  0  0  0  0  0  0  0  0  0
  -45.2395   58.4901   66.8110 C   0  0  0  0  0  0  0  0  0  0  0  0
  -46.7698   58.5207   66.8629 C   0  0  0  0  0  0  0  0  0  0  0  0
  -47.4536   59.0636   65.6062 C   0  0  0  0  0  0  0  0  0  0  0  0
  -48.5920   58.1948   65.1624 C   0  0  0  0  0  0  0  0  0  0  0  0
  -49.5460   58.5203   64.3120 C   0  0  0  0  0  0  0  0  0  0  0  0
  -49.6907   59.8324   63.6078 C   0  0  0  0  0  0  0  0  0  0  0  0
  -49.6484   59.6862   62.0895 C   0  0  0  0  0  0  0  0  0  0  0  0
  -49.3784   58.2671   61.6210 C   0  0  0  0  0  0  0  0  0  0  0  0
  -49.8127   58.0046   60.1893 C   0  0  0  0  0  0  0  0  0  0  0  0
  -49.3778   56.6576   59.6363 C   0  0  0  0  0  0  0  0  0  0  0  0
  -48.3363   56.7635   58.5329 C   0  0  0  0  0  0  0  0  0  0  0  0
  -46.9827   57.2600   59.0008 C   0  0  0  0  0  0  0  0  0  0  0  0
  -46.2117   57.9572   57.9148 C   0  0  0  0  0  0  0  0  0  0  0  0
 21 22  1  0  0  0
  4  5  2  0  0  0
 25 24  1  0  0  0
 25 26  2  0  0  0
 25 27  1  0  0  0
 25 29  1  0  0  0
 22 20  1  0  0  0
  3  5  1  0  0  0
  3  2  1  0  0  0
 20 19  1  0  0  0
 24 23  1  0  0  0
 19 18  1  0  0  0
 18 17  1  0  0  0
 27 28  1  0  0  0
 17 16  1  0  0  0
 29 30  1  0  0  0
 16 15  1  0  0  0
 34 35  1  0  0  0
 34 36  1  0  0  0
 15 14  1  0  0  0
 31 32  1  0  0  0
 31 33  1  0  0  0
 14 13  1  0  0  0
 37  1  1  0  0  0
 37 39  1  0  0  0
 13 12  1  0  0  0
 38 39  2  0  0  0
 12 11  1  0  0  0
 11 10  1  0  0  0
 10  9  1  0  0  0
  9  8  1  0  0  0
  8  7  1  0  0  0
  7  6  1  0  0  0
  6  5  1  0  0  0
  2  1  1  0  0  0
  1 23  1  0  0  0
 30 32  1  0  0  0
 32 35  1  0  0  0
 39 40  1  0  0  0
 40 41  1  0  0  0
 41 42  1  0  0  0
 42 43  1  0  0  0
 43 44  1  0  0  0
 44 45  1  0  0  0
 45 46  1  0  0  0
 46 47  1  0  0  0
 47 48  2  0  0  0
 48 49  1  0  0  0
 49 50  1  0  0  0
 50 51  1  0  0  0
 51 52  1  0  0  0
 52 53  1  0  0  0
 53 54  1  0  0  0
 54 55  1  0  0  0
 55 56  1  0  0  0
M  CHG 1  26  -1
M  END
> <minimizedAffinity>
-8.74556

> <CNNscore>
0.6218289137

> <CNNaffinity>
7.6786041260

> <CNN_VS>
4.7747778893

> <CNNaffinity_variance>
1.0093809366

$$$$
/media/chris/experiments/cd1a-new-docking/inputs/ligands/7sh4_ligand.pdb


 56 55  0  0  0  0  0  0  0  0999 V2000
  -39.0568   59.5289   65.7670 C   0  0  0  0  0  0  0  0  0  0  0  0
  -40.4075   60.1228   66.0510 C   0  0  0  0  0  0  0  0  0  0  0  0
  -41.2777   58.9763   66.1576 O   0  0  0  0  0  0  0  0  0  0  0  0
  -42.5888   59.7485   67.7960 O   0  0  0  0  0  0  0  0  0  0  0  0
  -42.4552   59.1651   66.7542 C   0  0  0  0  0  0  0  0  0  0  0  0
  -43.5836   58.6685   65.8969 C   0  0  0  0  0  0  0  0  0  0  0  0
  -43.7575   57.1592   65.9133 C   0  0  0  0  0  0  0  0  0  0  0  0
  -45.1363   56.7230   65.4645 C   0  0  0  0  0  0  0  0  0  0  0  0
  -46.2690   57.4837   66.1157 C   0  0  0  0  0  0  0  0  0  0  0  0
  -47.6369   57.0005   65.6781 C   0  0  0  0  0  0  0  0  0  0  0  0
  -48.4819   58.0882   65.0613 C   0  0  0  0  0  0  0  0  0  0  0  0
  -49.8736   58.1477   65.6331 C   0  0  0  0  0  0  0  0  0  0  0  0
  -50.7766   59.1258   64.9147 C   0  0  0  0  0  0  0  0  0  0  0  0
  -50.1549   59.6730   63.6457 C   0  0  0  0  0  0  0  0  0  0  0  0
  -50.8559   59.2369   62.3762 C   0  0  0  0  0  0  0  0  0  0  0  0
  -50.7751   57.7376   62.1118 C   0  0  0  0  0  0  0  0  0  0  0  0
  -50.8155   57.3682   60.6415 C   0  0  0  0  0  0  0  0  0  0  0  0
  -49.5178   56.7732   60.1344 C   0  0  0  0  0  0  0  0  0  0  0  0
  -49.2193   57.1096   58.6800 C   0  0  0  0  0  0  0  0  0  0  0  0
  -48.2022   56.1830   58.0383 C   0  0  0  0  0  0  0  0  0  0  0  0
  -46.4163   57.9557   57.9762 C   0  0  0  0  0  0  0  0  0  0  0  0
  -47.1460   56.8810   57.2027 C   0  0  0  0  0  0  0  0  0  0  0  0
  -38.1587   60.4905   65.0319 C   0  0  0  0  0  0  0  0  0  0  0  0
  -36.9200   60.6224   65.7643 O   0  0  0  0  0  0  0  0  0  0  0  0
  -36.1996   62.0317   66.0035 P   0  0  0  0  0  0  0  0  0  0  0  0
  -36.8905   63.0451   65.1775 O   0  0  0  0  0  0  0  0  0  0  0  0
  -36.0960   62.2546   67.4658 O   0  0  0  0  0  0  0  0  0  0  0  0
  -36.9842   62.3660   67.8396 H   0  0  0  0  0  0  0  0  0  0  0  0
  -34.7226   61.8539   65.4293 O   0  0  0  0  0  0  0  0  0  0  0  0
  -34.4069   62.3080   64.0974 C   0  0  0  0  0  0  0  0  0  0  0  0
  -34.5620   64.6982   64.1721 O   0  0  0  0  0  0  0  0  0  0  0  0
  -33.6410   63.6037   64.2055 C   0  0  0  0  0  0  0  0  0  0  0  0
  -35.0980   64.6453   63.3654 H   0  0  0  0  0  0  0  0  0  0  0  0
  -33.5641   64.1478   66.5541 O   0  0  0  0  0  0  0  0  0  0  0  0
  -32.7976   63.6704   65.4559 C   0  0  0  0  0  0  0  0  0  0  0  0
  -33.0060   64.1836   67.3467 H   0  0  0  0  0  0  0  0  0  0  0  0
  -39.2486   58.2845   65.0156 O   0  0  0  0  0  0  0  0  0  0  0  0
  -39.8551   59.2085   63.0564 O   0  0  0  0  0  0  0  0  0  0  0  0
  -39.2466   58.3762   63.6719 C   0  0  0  0  0  0  0  0  0  0  0  0
  -38.3819   57.3298   63.0399 C   0  0  0  0  0  0  0  0  0  0  0  0
  -36.9089   57.7242   63.0782 C   0  0  0  0  0  0  0  0  0  0  0  0
  -36.1626   57.2023   64.2951 C   0  0  0  0  0  0  0  0  0  0  0  0
  -34.8787   57.9666   64.5971 C   0  0  0  0  0  0  0  0  0  0  0  0
  -34.2450   58.6136   63.3797 C   0  0  0  0  0  0  0  0  0  0  0  0
  -32.9584   57.9378   62.8968 C   0  0  0  0  0  0  0  0  0  0  0  0
  -33.0028   57.3999   61.4649 C   0  0  0  0  0  0  0  0  0  0  0  0
  -34.1183   56.4185   61.2645 C   0  0  0  0  0  0  0  0  0  0  0  0
  -34.5035   55.8870   60.1206 C   0  0  0  0  0  0  0  0  0  0  0  0
  -33.9024   56.1535   58.7767 C   0  0  0  0  0  0  0  0  0  0  0  0
  -34.8383   56.9434   57.8665 C   0  0  0  0  0  0  0  0  0  0  0  0
  -36.2702   56.4377   57.8780 C   0  0  0  0  0  0  0  0  0  0  0  0
  -37.3056   57.5344   57.6977 C   0  0  0  0  0  0  0  0  0  0  0  0
  -37.1200   58.7325   58.6140 C   0  0  0  0  0  0  0  0  0  0  0  0
  -38.1147   58.7754   59.7638 C   0  0  0  0  0  0  0  0  0  0  0  0
  -38.7709   60.1264   59.9686 C   0  0  0  0  0  0  0  0  0  0  0  0
  -40.2464   60.1057   59.6821 C   0  0  0  0  0  0  0  0  0  0  0  0
 21 22  1  0  0  0
  4  5  2  0  0  0
 25 24  1  0  0  0
 25 26  2  0  0  0
 25 27  1  0  0  0
 25 29  1  0  0  0
 22 20  1  0  0  0
  3  5  1  0  0  0
  3  2  1  0  0  0
 20 19  1  0  0  0
 24 23  1  0  0  0
 19 18  1  0  0  0
 18 17  1  0  0  0
 27 28  1  0  0  0
 17 16  1  0  0  0
 29 30  1  0  0  0
 16 15  1  0  0  0
 34 35  1  0  0  0
 34 36  1  0  0  0
 15 14  1  0  0  0
 31 32  1  0  0  0
 31 33  1  0  0  0
 14 13  1  0  0  0
 37  1  1  0  0  0
 37 39  1  0  0  0
 13 12  1  0  0  0
 38 39  2  0  0  0
 12 11  1  0  0  0
 11 10  1  0  0  0
 10  9  1  0  0  0
  9  8  1  0  0  0
  8  7  1  0  0  0
  7  6  1  0  0  0
  6  5  1  0  0  0
  2  1  1  0  0  0
  1 23  1  0  0  0
 30 32  1  0  0  0
 32 35  1  0  0  0
 39 40  1  0  0  0
 40 41  1  0  0  0
 41 42  1  0  0  0
 42 43  1  0  0  0
 43 44  1  0  0  0
 44 45  1  0  0  0
 45 46  1  0  0  0
 46 47  1  0  0  0
 47 48  2  0  0  0
 48 49  1  0  0  0
 49 50  1  0  0  0
 50 51  1  0  0  0
 51 52  1  0  0  0
 52 53  1  0  0  0
 53 54  1  0  0  0
 54 55  1  0  0  0
 55 56  1  0  0  0
M  CHG 1  26  -1
M  END
> <minimizedAffinity>
-9.00687

> <CNNscore>
0.6162293553

> <CNNaffinity>
7.4633002281

> <CNN_VS>
4.5991048813

> <CNNaffinity_variance>
0.9543205500

$$$$
/media/chris/experiments/cd1a-new-docking/inputs/ligands/7sh4_ligand.pdb


 56 55  0  0  0  0  0  0  0  0999 V2000
  -38.6971   59.7494   65.3506 C   0  0  0  0  0  0  0  0  0  0  0  0
  -40.0842   60.3125   65.4791 C   0  0  0  0  0  0  0  0  0  0  0  0
  -40.8851   59.4653   64.6283 O   0  0  0  0  0  0  0  0  0  0  0  0
  -41.3842   57.5446   65.6583 O   0  0  0  0  0  0  0  0  0  0  0  0
  -41.7181   58.6171   65.2322 C   0  0  0  0  0  0  0  0  0  0  0  0
  -43.0767   59.2296   65.4163 C   0  0  0  0  0  0  0  0  0  0  0  0
  -43.7071   58.9459   66.7693 C   0  0  0  0  0  0  0  0  0  0  0  0
  -45.1811   58.6134   66.6712 C   0  0  0  0  0  0  0  0  0  0  0  0
  -45.8010   58.9365   65.3307 C   0  0  0  0  0  0  0  0  0  0  0  0
  -47.0285   59.8181   65.4417 C   0  0  0  0  0  0  0  0  0  0  0  0
  -48.1403   59.1899   66.2460 C   0  0  0  0  0  0  0  0  0  0  0  0
  -48.7009   57.9480   65.6049 C   0  0  0  0  0  0  0  0  0  0  0  0
  -50.2069   57.9724   65.4645 C   0  0  0  0  0  0  0  0  0  0  0  0
  -50.7608   59.3777   65.3437 C   0  0  0  0  0  0  0  0  0  0  0  0
  -51.0107   59.8229   63.9180 C   0  0  0  0  0  0  0  0  0  0  0  0
  -51.0351   58.6788   62.9107 C   0  0  0  0  0  0  0  0  0  0  0  0
  -50.2170   58.9408   61.6608 C   0  0  0  0  0  0  0  0  0  0  0  0
  -49.5209   57.7056   61.1271 C   0  0  0  0  0  0  0  0  0  0  0  0
  -49.5949   57.5697   59.6126 C   0  0  0  0  0  0  0  0  0  0  0  0
  -48.6556   56.5179   59.0502 C   0  0  0  0  0  0  0  0  0  0  0  0
  -47.5078   56.7051   56.8178 C   0  0  0  0  0  0  0  0  0  0  0  0
  -47.4688   57.0711   58.2842 C   0  0  0  0  0  0  0  0  0  0  0  0
  -37.6422   60.7423   65.7668 C   0  0  0  0  0  0  0  0  0  0  0  0
  -36.5715   60.7174   64.7966 O   0  0  0  0  0  0  0  0  0  0  0  0
  -36.3444   61.8848   63.7253 P   0  0  0  0  0  0  0  0  0  0  0  0
  -34.9290   61.8460   63.2989 O   0  0  0  0  0  0  0  0  0  0  0  0
  -37.4027   61.7755   62.6925 O   0  0  0  0  0  0  0  0  0  0  0  0
  -37.2812   60.9543   62.1907 H   0  0  0  0  0  0  0  0  0  0  0  0
  -36.5793   63.2440   64.5254 O   0  0  0  0  0  0  0  0  0  0  0  0
  -35.4550   64.0715   64.8877 C   0  0  0  0  0  0  0  0  0  0  0  0
  -33.8124   64.4112   66.5990 O   0  0  0  0  0  0  0  0  0  0  0  0
  -34.9616   63.6358   66.2455 C   0  0  0  0  0  0  0  0  0  0  0  0
  -33.1373   64.3224   65.9081 H   0  0  0  0  0  0  0  0  0  0  0  0
  -36.0875   62.5813   68.0999 O   0  0  0  0  0  0  0  0  0  0  0  0
  -36.0237   63.7626   67.3111 C   0  0  0  0  0  0  0  0  0  0  0  0
  -36.7742   62.6818   68.7775 H   0  0  0  0  0  0  0  0  0  0  0  0
  -38.5060   59.3042   63.9667 O   0  0  0  0  0  0  0  0  0  0  0  0
  -38.9702   57.3298   62.9940 O   0  0  0  0  0  0  0  0  0  0  0  0
  -38.3276   57.9840   63.7692 C   0  0  0  0  0  0  0  0  0  0  0  0
  -37.2220   57.4347   64.6166 C   0  0  0  0  0  0  0  0  0  0  0  0
  -36.0134   57.0421   63.7728 C   0  0  0  0  0  0  0  0  0  0  0  0
  -35.8430   57.8770   62.5142 C   0  0  0  0  0  0  0  0  0  0  0  0
  -34.5557   58.6932   62.4935 C   0  0  0  0  0  0  0  0  0  0  0  0
  -33.3945   58.0322   63.2125 C   0  0  0  0  0  0  0  0  0  0  0  0
  -32.4595   57.2269   62.3055 C   0  0  0  0  0  0  0  0  0  0  0  0
  -33.1102   56.0448   61.5840 C   0  0  0  0  0  0  0  0  0  0  0  0
  -33.1547   56.2445   60.0988 C   0  0  0  0  0  0  0  0  0  0  0  0
  -34.1636   55.9654   59.2965 C   0  0  0  0  0  0  0  0  0  0  0  0
  -35.4824   55.3890   59.7047 C   0  0  0  0  0  0  0  0  0  0  0  0
  -36.6411   55.9468   58.8833 C   0  0  0  0  0  0  0  0  0  0  0  0
  -36.2506   57.1124   57.9916 C   0  0  0  0  0  0  0  0  0  0  0  0
  -37.0712   58.3674   58.2344 C   0  0  0  0  0  0  0  0  0  0  0  0
  -37.8274   58.3801   59.5525 C   0  0  0  0  0  0  0  0  0  0  0  0
  -38.1940   59.7780   60.0270 C   0  0  0  0  0  0  0  0  0  0  0  0
  -39.6661   60.1139   59.8939 C   0  0  0  0  0  0  0  0  0  0  0  0
  -40.3361   60.3283   61.2224 C   0  0  0  0  0  0  0  0  0  0  0  0
 21 22  1  0  0  0
  4  5  2  0  0  0
 25 24  1  0  0  0
 25 26  2  0  0  0
 25 27  1  0  0  0
 25 29  1  0  0  0
 22 20  1  0  0  0
  3  5  1  0  0  0
  3  2  1  0  0  0
 20 19  1  0  0  0
 24 23  1  0  0  0
 19 18  1  0  0  0
 18 17  1  0  0  0
 27 28  1  0  0  0
 17 16  1  0  0  0
 29 30  1  0  0  0
 16 15  1  0  0  0
 34 35  1  0  0  0
 34 36  1  0  0  0
 15 14  1  0  0  0
 31 32  1  0  0  0
 31 33  1  0  0  0
 14 13  1  0  0  0
 37  1  1  0  0  0
 37 39  1  0  0  0
 13 12  1  0  0  0
 38 39  2  0  0  0
 12 11  1  0  0  0
 11 10  1  0  0  0
 10  9  1  0  0  0
  9  8  1  0  0  0
  8  7  1  0  0  0
  7  6  1  0  0  0
  6  5  1  0  0  0
  2  1  1  0  0  0
  1 23  1  0  0  0
 30 32  1  0  0  0
 32 35  1  0  0  0
 39 40  1  0  0  0
 40 41  1  0  0  0
 41 42  1  0  0  0
 42 43  1  0  0  0
 43 44  1  0  0  0
 44 45  1  0  0  0
 45 46  1  0  0  0
 46 47  1  0  0  0
 47 48  2  0  0  0
 48 49  1  0  0  0
 49 50  1  0  0  0
 50 51  1  0  0  0
 51 52  1  0  0  0
 52 53  1  0  0  0
 53 54  1  0  0  0
 54 55  1  0  0  0
 55 56  1  0  0  0
M  CHG 1  26  -1
M  END
> <minimizedAffinity>
-8.47287

> <CNNscore>
0.6101902723

> <CNNaffinity>
7.4515595436

> <CNN_VS>
4.5468692780

> <CNNaffinity_variance>
0.7000762224

$$$$
/media/chris/experiments/cd1a-new-docking/inputs/ligands/7sh4_ligand.pdb


 56 55  0  0  0  0  0  0  0  0999 V2000
  -37.0510   61.0057   65.5671 C   0  0  0  0  0  0  0  0  0  0  0  0
  -38.2459   60.2402   66.0609 C   0  0  0  0  0  0  0  0  0  0  0  0
  -39.2892   60.5777   65.1224 O   0  0  0  0  0  0  0  0  0  0  0  0
  -41.0656   61.2129   66.3225 O   0  0  0  0  0  0  0  0  0  0  0  0
  -40.5470   60.4552   65.5477 C   0  0  0  0  0  0  0  0  0  0  0  0
  -41.2522   59.3342   64.8399 C   0  0  0  0  0  0  0  0  0  0  0  0
  -41.7712   58.2458   65.7642 C   0  0  0  0  0  0  0  0  0  0  0  0
  -43.1178   58.5830   66.3688 C   0  0  0  0  0  0  0  0  0  0  0  0
  -44.1807   58.9386   65.3542 C   0  0  0  0  0  0  0  0  0  0  0  0
  -45.5723   59.0029   65.9505 C   0  0  0  0  0  0  0  0  0  0  0  0
  -46.6542   58.5998   64.9786 C   0  0  0  0  0  0  0  0  0  0  0  0
  -47.9680   59.2867   65.2426 C   0  0  0  0  0  0  0  0  0  0  0  0
  -48.7897   59.5117   63.9926 C   0  0  0  0  0  0  0  0  0  0  0  0
  -49.4853   58.2531   63.5150 C   0  0  0  0  0  0  0  0  0  0  0  0
  -50.7444   58.5091   62.7135 C   0  0  0  0  0  0  0  0  0  0  0  0
  -50.8358   57.6893   61.4314 C   0  0  0  0  0  0  0  0  0  0  0  0
  -49.7688   58.0259   60.4074 C   0  0  0  0  0  0  0  0  0  0  0  0
  -49.8267   57.1548   59.1692 C   0  0  0  0  0  0  0  0  0  0  0  0
  -48.6086   56.2581   58.9964 C   0  0  0  0  0  0  0  0  0  0  0  0
  -47.5390   56.8526   58.0977 C   0  0  0  0  0  0  0  0  0  0  0  0
  -45.3932   58.1522   57.8921 C   0  0  0  0  0  0  0  0  0  0  0  0
  -46.4835   57.6677   58.8206 C   0  0  0  0  0  0  0  0  0  0  0  0
  -36.5431   61.9860   66.5932 C   0  0  0  0  0  0  0  0  0  0  0  0
  -35.1220   62.1651   66.4018 O   0  0  0  0  0  0  0  0  0  0  0  0
  -34.4466   63.6040   66.2135 P   0  0  0  0  0  0  0  0  0  0  0  0
  -35.2359   64.3527   65.2119 O   0  0  0  0  0  0  0  0  0  0  0  0
  -34.2502   64.2009   67.5566 O   0  0  0  0  0  0  0  0  0  0  0  0
  -35.1138   64.3853   67.9579 H   0  0  0  0  0  0  0  0  0  0  0  0
  -33.0073   63.3168   65.5899 O   0  0  0  0  0  0  0  0  0  0  0  0
  -32.0141   64.3620   65.5560 C   0  0  0  0  0  0  0  0  0  0  0  0
  -31.0187   62.9488   63.8963 O   0  0  0  0  0  0  0  0  0  0  0  0
  -31.3150   64.3107   64.2198 C   0  0  0  0  0  0  0  0  0  0  0  0
  -30.4937   62.5539   64.6099 H   0  0  0  0  0  0  0  0  0  0  0  0
  -33.1331   65.7941   63.6609 O   0  0  0  0  0  0  0  0  0  0  0  0
  -32.1326   64.9418   63.1185 C   0  0  0  0  0  0  0  0  0  0  0  0
  -33.6470   66.1894   62.9394 H   0  0  0  0  0  0  0  0  0  0  0  0
  -37.4165   61.6739   64.3142 O   0  0  0  0  0  0  0  0  0  0  0  0
  -36.1380   62.5024   62.6592 O   0  0  0  0  0  0  0  0  0  0  0  0
  -36.5491   61.5667   63.2895 C   0  0  0  0  0  0  0  0  0  0  0  0
  -36.1456   60.1460   63.0429 C   0  0  0  0  0  0  0  0  0  0  0  0
  -34.8373   59.8059   63.7495 C   0  0  0  0  0  0  0  0  0  0  0  0
  -34.7893   58.3947   64.3119 C   0  0  0  0  0  0  0  0  0  0  0  0
  -35.8154   57.4549   63.6893 C   0  0  0  0  0  0  0  0  0  0  0  0
  -37.0898   57.3087   64.4999 C   0  0  0  0  0  0  0  0  0  0  0  0
  -38.3779   57.3409   63.6723 C   0  0  0  0  0  0  0  0  0  0  0  0
  -38.1833   57.2230   62.1591 C   0  0  0  0  0  0  0  0  0  0  0  0
  -38.8102   58.3657   61.4182 C   0  0  0  0  0  0  0  0  0  0  0  0
  -38.3482   58.9448   60.3270 C   0  0  0  0  0  0  0  0  0  0  0  0
  -37.0951   58.5783   59.5963 C   0  0  0  0  0  0  0  0  0  0  0  0
  -37.3774   57.8596   58.2803 C   0  0  0  0  0  0  0  0  0  0  0  0
  -36.5054   56.6369   58.0541 C   0  0  0  0  0  0  0  0  0  0  0  0
  -36.4597   55.6923   59.2428 C   0  0  0  0  0  0  0  0  0  0  0  0
  -35.0585   55.3082   59.6883 C   0  0  0  0  0  0  0  0  0  0  0  0
  -34.0281   56.4030   59.4574 C   0  0  0  0  0  0  0  0  0  0  0  0
  -33.6958   57.2151   60.6934 C   0  0  0  0  0  0  0  0  0  0  0  0
  -32.9568   56.4179   61.7317 C   0  0  0  0  0  0  0  0  0  0  0  0
 21 22  1  0  0  0
  4  5  2  0  0  0
 25 24  1  0  0  0
 25 26  2  0  0  0
 25 27  1  0  0  0
 25 29  1  0  0  0
 22 20  1  0  0  0
  3  5  1  0  0  0
  3  2  1  0  0  0
 20 19  1  0  0  0
 24 23  1  0  0  0
 19 18  1  0  0  0
 18 17  1  0  0  0
 27 28  1  0  0  0
 17 16  1  0  0  0
 29 30  1  0  0  0
 16 15  1  0  0  0
 34 35  1  0  0  0
 34 36  1  0  0  0
 15 14  1  0  0  0
 31 32  1  0  0  0
 31 33  1  0  0  0
 14 13  1  0  0  0
 37  1  1  0  0  0
 37 39  1  0  0  0
 13 12  1  0  0  0
 38 39  2  0  0  0
 12 11  1  0  0  0
 11 10  1  0  0  0
 10  9  1  0  0  0
  9  8  1  0  0  0
  8  7  1  0  0  0
  7  6  1  0  0  0
  6  5  1  0  0  0
  2  1  1  0  0  0
  1 23  1  0  0  0
 30 32  1  0  0  0
 32 35  1  0  0  0
 39 40  1  0  0  0
 40 41  1  0  0  0
 41 42  1  0  0  0
 42 43  1  0  0  0
 43 44  1  0  0  0
 44 45  1  0  0  0
 45 46  1  0  0  0
 46 47  1  0  0  0
 47 48  2  0  0  0
 48 49  1  0  0  0
 49 50  1  0  0  0
 50 51  1  0  0  0
 51 52  1  0  0  0
 52 53  1  0  0  0
 53 54  1  0  0  0
 54 55  1  0  0  0
 55 56  1  0  0  0
M  CHG 1  26  -1
M  END
> <minimizedAffinity>
-8.71254

> <CNNscore>
0.5672287941

> <CNNaffinity>
7.5014748573

> <CNN_VS>
4.2550525665

> <CNNaffinity_variance>
0.6548047662

$$$$
/media/chris/experiments/cd1a-new-docking/inputs/ligands/7sh4_ligand.pdb


 56 55  0  0  0  0  0  0  0  0999 V2000
  -37.6006   60.5122   65.3306 C   0  0  0  0  0  0  0  0  0  0  0  0
  -38.7423   59.6843   65.8491 C   0  0  0  0  0  0  0  0  0  0  0  0
  -39.8215   60.6312   65.9968 O   0  0  0  0  0  0  0  0  0  0  0  0
  -41.4059   60.9633   64.4545 O   0  0  0  0  0  0  0  0  0  0  0  0
  -40.9692   60.3394   65.3838 C   0  0  0  0  0  0  0  0  0  0  0  0
  -41.5654   59.0713   65.9234 C   0  0  0  0  0  0  0  0  0  0  0  0
  -42.9326   58.7361   65.3517 C   0  0  0  0  0  0  0  0  0  0  0  0
  -44.0637   59.0761   66.2991 C   0  0  0  0  0  0  0  0  0  0  0  0
  -45.4416   58.9451   65.6909 C   0  0  0  0  0  0  0  0  0  0  0  0
  -46.5208   58.6740   66.7195 C   0  0  0  0  0  0  0  0  0  0  0  0
  -47.9152   58.9155   66.1952 C   0  0  0  0  0  0  0  0  0  0  0  0
  -48.2421   58.0797   64.9860 C   0  0  0  0  0  0  0  0  0  0  0  0
  -49.0041   58.8369   63.9210 C   0  0  0  0  0  0  0  0  0  0  0  0
  -50.4797   58.4930   63.9008 C   0  0  0  0  0  0  0  0  0  0  0  0
  -51.1758   58.8333   62.5997 C   0  0  0  0  0  0  0  0  0  0  0  0
  -50.3339   58.5550   61.3595 C   0  0  0  0  0  0  0  0  0  0  0  0
  -50.6175   57.2141   60.7103 C   0  0  0  0  0  0  0  0  0  0  0  0
  -49.3776   56.5341   60.1669 C   0  0  0  0  0  0  0  0  0  0  0  0
  -48.2245   57.4912   59.8990 C   0  0  0  0  0  0  0  0  0  0  0  0
  -47.2955   57.0285   58.7909 C   0  0  0  0  0  0  0  0  0  0  0  0
  -47.5230   55.2527   57.0215 C   0  0  0  0  0  0  0  0  0  0  0  0
  -47.9940   56.6025   57.5135 C   0  0  0  0  0  0  0  0  0  0  0  0
  -36.9536   61.3294   66.4194 C   0  0  0  0  0  0  0  0  0  0  0  0
  -35.9176   62.1485   65.8327 O   0  0  0  0  0  0  0  0  0  0  0  0
  -35.7723   63.7131   66.1372 P   0  0  0  0  0  0  0  0  0  0  0  0
  -36.3922   64.4566   65.0193 O   0  0  0  0  0  0  0  0  0  0  0  0
  -36.2595   63.9622   67.5153 O   0  0  0  0  0  0  0  0  0  0  0  0
  -37.2134   63.7913   67.5569 H   0  0  0  0  0  0  0  0  0  0  0  0
  -34.2047   64.0047   66.1117 O   0  0  0  0  0  0  0  0  0  0  0  0
  -33.7246   65.3625   66.0355 C   0  0  0  0  0  0  0  0  0  0  0  0
  -31.3749   64.8930   66.0658 O   0  0  0  0  0  0  0  0  0  0  0  0
  -32.4421   65.3698   65.2405 C   0  0  0  0  0  0  0  0  0  0  0  0
  -31.3214   65.4336   66.8694 H   0  0  0  0  0  0  0  0  0  0  0  0
  -33.7990   64.7306   63.3515 O   0  0  0  0  0  0  0  0  0  0  0  0
  -32.5400   64.5389   63.9837 C   0  0  0  0  0  0  0  0  0  0  0  0
  -33.8428   64.1896   62.5476 H   0  0  0  0  0  0  0  0  0  0  0  0
  -38.1010   61.3587   64.2429 O   0  0  0  0  0  0  0  0  0  0  0  0
  -36.7602   61.7394   62.4774 O   0  0  0  0  0  0  0  0  0  0  0  0
  -37.6316   61.1048   63.0063 C   0  0  0  0  0  0  0  0  0  0  0  0
  -38.3121   59.9279   62.3790 C   0  0  0  0  0  0  0  0  0  0  0  0
  -39.4463   60.3641   61.4570 C   0  0  0  0  0  0  0  0  0  0  0  0
  -39.2008   60.0554   59.9892 C   0  0  0  0  0  0  0  0  0  0  0  0
  -37.9253   59.2590   59.7386 C   0  0  0  0  0  0  0  0  0  0  0  0
  -37.9836   58.3715   58.5093 C   0  0  0  0  0  0  0  0  0  0  0  0
  -36.6291   58.1206   57.8403 C   0  0  0  0  0  0  0  0  0  0  0  0
  -36.2280   56.6495   57.7126 C   0  0  0  0  0  0  0  0  0  0  0  0
  -36.5208   55.8736   58.9617 C   0  0  0  0  0  0  0  0  0  0  0  0
  -35.6646   55.5656   59.9163 C   0  0  0  0  0  0  0  0  0  0  0  0
  -34.2140   55.9300   59.9522 C   0  0  0  0  0  0  0  0  0  0  0  0
  -33.9266   57.0828   60.9097 C   0  0  0  0  0  0  0  0  0  0  0  0
  -32.7029   56.8608   61.7812 C   0  0  0  0  0  0  0  0  0  0  0  0
  -32.6154   57.8110   62.9630 C   0  0  0  0  0  0  0  0  0  0  0  0
  -33.3766   59.1136   62.7813 C   0  0  0  0  0  0  0  0  0  0  0  0
  -34.5149   59.2936   63.7740 C   0  0  0  0  0  0  0  0  0  0  0  0
  -34.8640   58.0414   64.5537 C   0  0  0  0  0  0  0  0  0  0  0  0
  -36.0799   57.3408   64.0149 C   0  0  0  0  0  0  0  0  0  0  0  0
 21 22  1  0  0  0
  4  5  2  0  0  0
 25 24  1  0  0  0
 25 26  2  0  0  0
 25 27  1  0  0  0
 25 29  1  0  0  0
 22 20  1  0  0  0
  3  5  1  0  0  0
  3  2  1  0  0  0
 20 19  1  0  0  0
 24 23  1  0  0  0
 19 18  1  0  0  0
 18 17  1  0  0  0
 27 28  1  0  0  0
 17 16  1  0  0  0
 29 30  1  0  0  0
 16 15  1  0  0  0
 34 35  1  0  0  0
 34 36  1  0  0  0
 15 14  1  0  0  0
 31 32  1  0  0  0
 31 33  1  0  0  0
 14 13  1  0  0  0
 37  1  1  0  0  0
 37 39  1  0  0  0
 13 12  1  0  0  0
 38 39  2  0  0  0
 12 11  1  0  0  0
 11 10  1  0  0  0
 10  9  1  0  0  0
  9  8  1  0  0  0
  8  7  1  0  0  0
  7  6  1  0  0  0
  6  5  1  0  0  0
  2  1  1  0  0  0
  1 23  1  0  0  0
 30 32  1  0  0  0
 32 35  1  0  0  0
 39 40  1  0  0  0
 40 41  1  0  0  0
 41 42  1  0  0  0
 42 43  1  0  0  0
 43 44  1  0  0  0
 44 45  1  0  0  0
 45 46  1  0  0  0
 46 47  1  0  0  0
 47 48  2  0  0  0
 48 49  1  0  0  0
 49 50  1  0  0  0
 50 51  1  0  0  0
 51 52  1  0  0  0
 52 53  1  0  0  0
 53 54  1  0  0  0
 54 55  1  0  0  0
 55 56  1  0  0  0
M  CHG 1  26  -1
M  END
> <minimizedAffinity>
-9.04337

> <CNNscore>
0.5546348691

> <CNNaffinity>
7.4977707863

> <CNN_VS>
4.1585249901

> <CNNaffinity_variance>
0.9076476097

$$$$
/media/chris/experiments/cd1a-new-docking/inputs/ligands/7sh4_ligand.pdb


 56 55  0  0  0  0  0  0  0  0999 V2000
  -39.6878   58.6339   64.8096 C   0  0  0  0  0  0  0  0  0  0  0  0
  -40.4190   59.2254   65.9814 C   0  0  0  0  0  0  0  0  0  0  0  0
  -41.5507   58.3487   66.1655 O   0  0  0  0  0  0  0  0  0  0  0  0
  -42.9895   59.3723   67.5372 O   0  0  0  0  0  0  0  0  0  0  0  0
  -42.7185   58.9229   66.4564 C   0  0  0  0  0  0  0  0  0  0  0  0
  -43.5836   59.0422   65.2349 C   0  0  0  0  0  0  0  0  0  0  0  0
  -45.0493   58.7254   65.4792 C   0  0  0  0  0  0  0  0  0  0  0  0
  -45.3006   57.2492   65.7036 C   0  0  0  0  0  0  0  0  0  0  0  0
  -46.4001   56.9522   66.6979 C   0  0  0  0  0  0  0  0  0  0  0  0
  -47.6770   56.4660   66.0427 C   0  0  0  0  0  0  0  0  0  0  0  0
  -48.6595   57.5761   65.7599 C   0  0  0  0  0  0  0  0  0  0  0  0
  -48.7250   57.9465   64.3018 C   0  0  0  0  0  0  0  0  0  0  0  0
  -48.5940   59.4329   64.0535 C   0  0  0  0  0  0  0  0  0  0  0  0
  -49.5734   59.9415   63.0151 C   0  0  0  0  0  0  0  0  0  0  0  0
  -50.5659   58.9011   62.5398 C   0  0  0  0  0  0  0  0  0  0  0  0
  -50.4388   58.5595   61.0595 C   0  0  0  0  0  0  0  0  0  0  0  0
  -50.5462   57.0770   60.7578 C   0  0  0  0  0  0  0  0  0  0  0  0
  -49.2898   56.4953   60.1429 C   0  0  0  0  0  0  0  0  0  0  0  0
  -48.1548   57.5008   60.0071 C   0  0  0  0  0  0  0  0  0  0  0  0
  -46.9837   56.9883   59.1879 C   0  0  0  0  0  0  0  0  0  0  0  0
  -47.4519   56.7540   56.7258 C   0  0  0  0  0  0  0  0  0  0  0  0
  -46.8486   57.6144   57.8128 C   0  0  0  0  0  0  0  0  0  0  0  0
  -38.2576   59.1041   64.7387 C   0  0  0  0  0  0  0  0  0  0  0  0
  -38.1571   60.3882   65.3941 O   0  0  0  0  0  0  0  0  0  0  0  0
  -36.9457   61.4018   65.1352 P   0  0  0  0  0  0  0  0  0  0  0  0
  -35.6884   60.6235   65.1407 O   0  0  0  0  0  0  0  0  0  0  0  0
  -37.2736   62.2173   63.9410 O   0  0  0  0  0  0  0  0  0  0  0  0
  -37.2902   61.6483   63.1556 H   0  0  0  0  0  0  0  0  0  0  0  0
  -36.9286   62.3717   66.4009 O   0  0  0  0  0  0  0  0  0  0  0  0
  -35.6978   62.6020   67.1166 C   0  0  0  0  0  0  0  0  0  0  0  0
  -34.3967   64.4598   67.8900 O   0  0  0  0  0  0  0  0  0  0  0  0
  -35.2303   64.0056   66.8195 C   0  0  0  0  0  0  0  0  0  0  0  0
  -34.8819   64.3953   68.7274 H   0  0  0  0  0  0  0  0  0  0  0  0
  -33.6075   62.9960   65.3480 O   0  0  0  0  0  0  0  0  0  0  0  0
  -34.4901   64.0993   65.5070 C   0  0  0  0  0  0  0  0  0  0  0  0
  -33.1419   63.0739   64.5006 H   0  0  0  0  0  0  0  0  0  0  0  0
  -40.4282   58.9658   63.5883 O   0  0  0  0  0  0  0  0  0  0  0  0
  -40.9277   61.0947   64.1158 O   0  0  0  0  0  0  0  0  0  0  0  0
  -40.5890   60.2733   63.3081 C   0  0  0  0  0  0  0  0  0  0  0  0
  -40.2778   60.5823   61.8764 C   0  0  0  0  0  0  0  0  0  0  0  0
  -38.8315   60.2406   61.5327 C   0  0  0  0  0  0  0  0  0  0  0  0
  -38.6796   58.9959   60.6738 C   0  0  0  0  0  0  0  0  0  0  0  0
  -37.4260   59.0027   59.8064 C   0  0  0  0  0  0  0  0  0  0  0  0
  -37.6254   58.3977   58.4293 C   0  0  0  0  0  0  0  0  0  0  0  0
  -36.3902   57.6960   57.8573 C   0  0  0  0  0  0  0  0  0  0  0  0
  -36.5050   56.1754   57.7303 C   0  0  0  0  0  0  0  0  0  0  0  0
  -36.5079   55.4956   59.0666 C   0  0  0  0  0  0  0  0  0  0  0  0
  -35.4678   55.3028   59.8543 C   0  0  0  0  0  0  0  0  0  0  0  0
  -34.0600   55.7264   59.5769 C   0  0  0  0  0  0  0  0  0  0  0  0
  -33.6928   57.0268   60.2858 C   0  0  0  0  0  0  0  0  0  0  0  0
  -34.3421   57.1819   61.6499 C   0  0  0  0  0  0  0  0  0  0  0  0
  -33.9039   58.4307   62.3953 C   0  0  0  0  0  0  0  0  0  0  0  0
  -32.4054   58.5328   62.6264 C   0  0  0  0  0  0  0  0  0  0  0  0
  -31.7017   59.4521   61.6398 C   0  0  0  0  0  0  0  0  0  0  0  0
  -30.9732   60.6149   62.2840 C   0  0  0  0  0  0  0  0  0  0  0  0
  -31.8275   61.8468   62.3950 C   0  0  0  0  0  0  0  0  0  0  0  0
 21 22  1  0  0  0
  4  5  2  0  0  0
 25 24  1  0  0  0
 25 26  2  0  0  0
 25 27  1  0  0  0
 25 29  1  0  0  0
 22 20  1  0  0  0
  3  5  1  0  0  0
  3  2  1  0  0  0
 20 19  1  0  0  0
 24 23  1  0  0  0
 19 18  1  0  0  0
 18 17  1  0  0  0
 27 28  1  0  0  0
 17 16  1  0  0  0
 29 30  1  0  0  0
 16 15  1  0  0  0
 34 35  1  0  0  0
 34 36  1  0  0  0
 15 14  1  0  0  0
 31 32  1  0  0  0
 31 33  1  0  0  0
 14 13  1  0  0  0
 37  1  1  0  0  0
 37 39  1  0  0  0
 13 12  1  0  0  0
 38 39  2  0  0  0
 12 11  1  0  0  0
 11 10  1  0  0  0
 10  9  1  0  0  0
  9  8  1  0  0  0
  8  7  1  0  0  0
  7  6  1  0  0  0
  6  5  1  0  0  0
  2  1  1  0  0  0
  1 23  1  0  0  0
 30 32  1  0  0  0
 32 35  1  0  0  0
 39 40  1  0  0  0
 40 41  1  0  0  0
 41 42  1  0  0  0
 42 43  1  0  0  0
 43 44  1  0  0  0
 44 45  1  0  0  0
 45 46  1  0  0  0
 46 47  1  0  0  0
 47 48  2  0  0  0
 48 49  1  0  0  0
 49 50  1  0  0  0
 50 51  1  0  0  0
 51 52  1  0  0  0
 52 53  1  0  0  0
 53 54  1  0  0  0
 54 55  1  0  0  0
 55 56  1  0  0  0
M  CHG 1  26  -1
M  END
> <minimizedAffinity>
-8.58468

> <CNNscore>
0.5482349396

> <CNNaffinity>
7.4765176773

> <CNN_VS>
4.0988883972

> <CNNaffinity_variance>
0.7294157743

$$$$
/media/chris/experiments/cd1a-new-docking/inputs/ligands/7sh4_ligand.pdb


 56 55  0  0  0  0  0  0  0  0999 V2000
  -38.1361   60.6582   65.1908 C   0  0  0  0  0  0  0  0  0  0  0  0
  -38.0878   60.3959   63.7121 C   0  0  0  0  0  0  0  0  0  0  0  0
  -39.0244   61.3442   63.1584 O   0  0  0  0  0  0  0  0  0  0  0  0
  -41.2581   61.2469   63.1494 O   0  0  0  0  0  0  0  0  0  0  0  0
  -40.1956   60.8629   62.7407 C   0  0  0  0  0  0  0  0  0  0  0  0
  -40.0102   59.8830   61.6180 C   0  0  0  0  0  0  0  0  0  0  0  0
  -40.0550   60.5089   60.2343 C   0  0  0  0  0  0  0  0  0  0  0  0
  -39.4503   59.6193   59.1686 C   0  0  0  0  0  0  0  0  0  0  0  0
  -37.9737   59.3508   59.3507 C   0  0  0  0  0  0  0  0  0  0  0  0
  -37.4425   58.2913   58.4066 C   0  0  0  0  0  0  0  0  0  0  0  0
  -36.4052   57.3969   59.0404 C   0  0  0  0  0  0  0  0  0  0  0  0
  -35.2731   57.0562   58.1079 C   0  0  0  0  0  0  0  0  0  0  0  0
  -34.0469   56.5288   58.8197 C   0  0  0  0  0  0  0  0  0  0  0  0
  -34.3669   55.9409   60.1792 C   0  0  0  0  0  0  0  0  0  0  0  0
  -33.3852   56.3265   61.2658 C   0  0  0  0  0  0  0  0  0  0  0  0
  -33.1687   57.8301   61.3951 C   0  0  0  0  0  0  0  0  0  0  0  0
  -33.1283   58.3258   62.8279 C   0  0  0  0  0  0  0  0  0  0  0  0
  -34.4794   58.7701   63.3495 C   0  0  0  0  0  0  0  0  0  0  0  0
  -35.0451   57.8606   64.4314 C   0  0  0  0  0  0  0  0  0  0  0  0
  -36.3626   57.2095   64.0504 C   0  0  0  0  0  0  0  0  0  0  0  0
  -38.1817   56.9745   62.3265 C   0  0  0  0  0  0  0  0  0  0  0  0
  -36.7407   57.3502   62.5881 C   0  0  0  0  0  0  0  0  0  0  0  0
  -36.7583   60.7548   65.7941 C   0  0  0  0  0  0  0  0  0  0  0  0
  -36.7639   61.7892   66.8032 O   0  0  0  0  0  0  0  0  0  0  0  0
  -36.0032   63.1853   66.6186 P   0  0  0  0  0  0  0  0  0  0  0  0
  -36.3863   63.7452   65.3046 O   0  0  0  0  0  0  0  0  0  0  0  0
  -36.2341   64.0010   67.8351 O   0  0  0  0  0  0  0  0  0  0  0  0
  -37.1729   64.2382   67.8920 H   0  0  0  0  0  0  0  0  0  0  0  0
  -34.4526   62.8174   66.5625 O   0  0  0  0  0  0  0  0  0  0  0  0
  -33.6544   63.2270   65.4333 C   0  0  0  0  0  0  0  0  0  0  0  0
  -31.5636   64.2895   65.9255 O   0  0  0  0  0  0  0  0  0  0  0  0
  -32.9676   64.5246   65.7818 C   0  0  0  0  0  0  0  0  0  0  0  0
  -31.4179   63.5977   66.5896 H   0  0  0  0  0  0  0  0  0  0  0  0
  -34.6071   65.8060   64.5618 O   0  0  0  0  0  0  0  0  0  0  0  0
  -33.2131   65.6000   64.7508 C   0  0  0  0  0  0  0  0  0  0  0  0
  -34.7443   66.4990   63.8972 H   0  0  0  0  0  0  0  0  0  0  0  0
  -38.9305   59.5994   65.8216 O   0  0  0  0  0  0  0  0  0  0  0  0
  -40.7095   60.8665   66.3597 O   0  0  0  0  0  0  0  0  0  0  0  0
  -40.2497   59.8296   65.9659 C   0  0  0  0  0  0  0  0  0  0  0  0
  -41.0728   58.6465   65.5599 C   0  0  0  0  0  0  0  0  0  0  0  0
  -42.5529   59.0025   65.4625 C   0  0  0  0  0  0  0  0  0  0  0  0
  -43.4748   57.9916   66.1247 C   0  0  0  0  0  0  0  0  0  0  0  0
  -44.8123   58.5794   66.5596 C   0  0  0  0  0  0  0  0  0  0  0  0
  -45.5965   59.2279   65.4340 C   0  0  0  0  0  0  0  0  0  0  0  0
  -47.1076   58.9859   65.4892 C   0  0  0  0  0  0  0  0  0  0  0  0
  -47.7543   58.5975   64.1578 C   0  0  0  0  0  0  0  0  0  0  0  0
  -48.6756   59.6634   63.6451 C   0  0  0  0  0  0  0  0  0  0  0  0
  -49.8721   59.4843   63.1201 C   0  0  0  0  0  0  0  0  0  0  0  0
  -50.5639   58.1718   62.9272 C   0  0  0  0  0  0  0  0  0  0  0  0
  -50.9141   57.9073   61.4658 C   0  0  0  0  0  0  0  0  0  0  0  0
  -50.0541   56.8371   60.8168 C   0  0  0  0  0  0  0  0  0  0  0  0
  -49.5550   57.2126   59.4322 C   0  0  0  0  0  0  0  0  0  0  0  0
  -48.2243   56.5855   59.0510 C   0  0  0  0  0  0  0  0  0  0  0  0
  -47.6217   57.1680   57.7818 C   0  0  0  0  0  0  0  0  0  0  0  0
  -46.2557   57.7967   57.9734 C   0  0  0  0  0  0  0  0  0  0  0  0
  -45.7018   57.5747   59.3531 C   0  0  0  0  0  0  0  0  0  0  0  0
 21 22  1  0  0  0
  4  5  2  0  0  0
 25 24  1  0  0  0
 25 26  2  0  0  0
 25 27  1  0  0  0
 25 29  1  0  0  0
 22 20  1  0  0  0
  3  5  1  0  0  0
  3  2  1  0  0  0
 20 19  1  0  0  0
 24 23  1  0  0  0
 19 18  1  0  0  0
 18 17  1  0  0  0
 27 28  1  0  0  0
 17 16  1  0  0  0
 29 30  1  0  0  0
 16 15  1  0  0  0
 34 35  1  0  0  0
 34 36  1  0  0  0
 15 14  1  0  0  0
 31 32  1  0  0  0
 31 33  1  0  0  0
 14 13  1  0  0  0
 37  1  1  0  0  0
 37 39  1  0  0  0
 13 12  1  0  0  0
 38 39  2  0  0  0
 12 11  1  0  0  0
 11 10  1  0  0  0
 10  9  1  0  0  0
  9  8  1  0  0  0
  8  7  1  0  0  0
  7  6  1  0  0  0
  6  5  1  0  0  0
  2  1  1  0  0  0
  1 23  1  0  0  0
 30 32  1  0  0  0
 32 35  1  0  0  0
 39 40  1  0  0  0
 40 41  1  0  0  0
 41 42  1  0  0  0
 42 43  1  0  0  0
 43 44  1  0  0  0
 44 45  1  0  0  0
 45 46  1  0  0  0
 46 47  1  0  0  0
 47 48  2  0  0  0
 48 49  1  0  0  0
 49 50  1  0  0  0
 50 51  1  0  0  0
 51 52  1  0  0  0
 52 53  1  0  0  0
 53 54  1  0  0  0
 54 55  1  0  0  0
 55 56  1  0  0  0
M  CHG 1  26  -1
M  END
> <minimizedAffinity>
-8.78664

> <CNNscore>
0.4716145992

> <CNNaffinity>
7.5556411743

> <CNN_VS>
3.5633506775

> <CNNaffinity_variance>
0.6931784749

$$$$
/media/chris/experiments/cd1a-new-docking/inputs/ligands/7sh4_ligand.pdb


 56 55  0  0  0  0  0  0  0  0999 V2000
  -39.4088   60.6491   63.5982 C   0  0  0  0  0  0  0  0  0  0  0  0
  -40.1599   60.3261   62.3376 C   0  0  0  0  0  0  0  0  0  0  0  0
  -39.2551   60.7153   61.2826 O   0  0  0  0  0  0  0  0  0  0  0  0
  -39.8617   60.4957   59.1418 O   0  0  0  0  0  0  0  0  0  0  0  0
  -39.3472   60.0489   60.1313 C   0  0  0  0  0  0  0  0  0  0  0  0
  -38.6200   58.7372   60.2040 C   0  0  0  0  0  0  0  0  0  0  0  0
  -37.3045   58.7141   59.4443 C   0  0  0  0  0  0  0  0  0  0  0  0
  -37.4459   58.1559   58.0438 C   0  0  0  0  0  0  0  0  0  0  0  0
  -36.4012   57.1257   57.6793 C   0  0  0  0  0  0  0  0  0  0  0  0
  -34.9971   57.5407   58.0697 C   0  0  0  0  0  0  0  0  0  0  0  0
  -33.9686   56.4647   57.8204 C   0  0  0  0  0  0  0  0  0  0  0  0
  -33.5370   55.7604   59.0794 C   0  0  0  0  0  0  0  0  0  0  0  0
  -34.6410   55.6353   60.1060 C   0  0  0  0  0  0  0  0  0  0  0  0
  -34.1691   55.9409   61.5132 C   0  0  0  0  0  0  0  0  0  0  0  0
  -32.7437   56.4464   61.5909 C   0  0  0  0  0  0  0  0  0  0  0  0
  -32.6181   57.8473   62.1791 C   0  0  0  0  0  0  0  0  0  0  0  0
  -33.9420   58.5698   62.3379 C   0  0  0  0  0  0  0  0  0  0  0  0
  -33.9814   59.4981   63.5346 C   0  0  0  0  0  0  0  0  0  0  0  0
  -34.9257   59.0350   64.6353 C   0  0  0  0  0  0  0  0  0  0  0  0
  -35.3917   57.5993   64.4721 C   0  0  0  0  0  0  0  0  0  0  0  0
  -37.4236   57.2438   63.0295 C   0  0  0  0  0  0  0  0  0  0  0  0
  -36.8977   57.4210   64.4359 C   0  0  0  0  0  0  0  0  0  0  0  0
  -37.9361   60.8462   63.3452 C   0  0  0  0  0  0  0  0  0  0  0  0
  -37.4705   61.9542   64.1477 O   0  0  0  0  0  0  0  0  0  0  0  0
  -36.2096   62.8515   63.7392 P   0  0  0  0  0  0  0  0  0  0  0  0
  -35.7314   62.3943   62.4167 O   0  0  0  0  0  0  0  0  0  0  0  0
  -36.5832   64.2765   63.9080 O   0  0  0  0  0  0  0  0  0  0  0  0
  -37.2697   64.5093   63.2634 H   0  0  0  0  0  0  0  0  0  0  0  0
  -35.0822   62.5101   64.8141 O   0  0  0  0  0  0  0  0  0  0  0  0
  -33.7760   63.1119   64.7055 C   0  0  0  0  0  0  0  0  0  0  0  0
  -33.9818   65.4636   65.1172 O   0  0  0  0  0  0  0  0  0  0  0  0
  -33.6714   64.2107   65.7344 C   0  0  0  0  0  0  0  0  0  0  0  0
  -33.3953   65.6039   64.3575 H   0  0  0  0  0  0  0  0  0  0  0  0
  -34.1849   62.8052   67.6263 O   0  0  0  0  0  0  0  0  0  0  0  0
  -34.5759   63.9758   66.9204 C   0  0  0  0  0  0  0  0  0  0  0  0
  -34.7766   62.6714   68.3832 H   0  0  0  0  0  0  0  0  0  0  0  0
  -39.6530   59.5772   64.5684 O   0  0  0  0  0  0  0  0  0  0  0  0
  -40.3091   60.9584   66.2183 O   0  0  0  0  0  0  0  0  0  0  0  0
  -40.3710   59.8959   65.6625 C   0  0  0  0  0  0  0  0  0  0  0  0
  -41.2672   58.7754   66.0907 C   0  0  0  0  0  0  0  0  0  0  0  0
  -42.7359   59.1840   66.0403 C   0  0  0  0  0  0  0  0  0  0  0  0
  -43.7022   58.0108   66.0354 C   0  0  0  0  0  0  0  0  0  0  0  0
  -44.8589   58.1776   65.0567 C   0  0  0  0  0  0  0  0  0  0  0  0
  -45.6134   59.4851   65.2102 C   0  0  0  0  0  0  0  0  0  0  0  0
  -47.0194   59.3433   65.8004 C   0  0  0  0  0  0  0  0  0  0  0  0
  -48.1569   59.3259   64.7770 C   0  0  0  0  0  0  0  0  0  0  0  0
  -49.2882   58.4400   65.2049 C   0  0  0  0  0  0  0  0  0  0  0  0
  -50.4807   58.3609   64.6472 C   0  0  0  0  0  0  0  0  0  0  0  0
  -50.9550   59.1427   63.4631 C   0  0  0  0  0  0  0  0  0  0  0  0
  -51.0795   58.2823   62.2091 C   0  0  0  0  0  0  0  0  0  0  0  0
  -50.0459   58.6040   61.1440 C   0  0  0  0  0  0  0  0  0  0  0  0
  -48.7634   57.8010   61.2766 C   0  0  0  0  0  0  0  0  0  0  0  0
  -48.0310   57.5633   59.9665 C   0  0  0  0  0  0  0  0  0  0  0  0
  -48.6725   56.4903   59.1000 C   0  0  0  0  0  0  0  0  0  0  0  0
  -48.5056   56.7121   57.6098 C   0  0  0  0  0  0  0  0  0  0  0  0
  -47.3935   55.8901   57.0205 C   0  0  0  0  0  0  0  0  0  0  0  0
 21 22  1  0  0  0
  4  5  2  0  0  0
 25 24  1  0  0  0
 25 26  2  0  0  0
 25 27  1  0  0  0
 25 29  1  0  0  0
 22 20  1  0  0  0
  3  5  1  0  0  0
  3  2  1  0  0  0
 20 19  1  0  0  0
 24 23  1  0  0  0
 19 18  1  0  0  0
 18 17  1  0  0  0
 27 28  1  0  0  0
 17 16  1  0  0  0
 29 30  1  0  0  0
 16 15  1  0  0  0
 34 35  1  0  0  0
 34 36  1  0  0  0
 15 14  1  0  0  0
 31 32  1  0  0  0
 31 33  1  0  0  0
 14 13  1  0  0  0
 37  1  1  0  0  0
 37 39  1  0  0  0
 13 12  1  0  0  0
 38 39  2  0  0  0
 12 11  1  0  0  0
 11 10  1  0  0  0
 10  9  1  0  0  0
  9  8  1  0  0  0
  8  7  1  0  0  0
  7  6  1  0  0  0
  6  5  1  0  0  0
  2  1  1  0  0  0
  1 23  1  0  0  0
 30 32  1  0  0  0
 32 35  1  0  0  0
 39 40  1  0  0  0
 40 41  1  0  0  0
 41 42  1  0  0  0
 42 43  1  0  0  0
 43 44  1  0  0  0
 44 45  1  0  0  0
 45 46  1  0  0  0
 46 47  1  0  0  0
 47 48  2  0  0  0
 48 49  1  0  0  0
 49 50  1  0  0  0
 50 51  1  0  0  0
 51 52  1  0  0  0
 52 53  1  0  0  0
 53 54  1  0  0  0
 54 55  1  0  0  0
 55 56  1  0  0  0
M  CHG 1  26  -1
M  END
> <minimizedAffinity>
-8.63304

> <CNNscore>
0.4547340870

> <CNNaffinity>
7.4229011536

> <CNN_VS>
3.3754460812

> <CNNaffinity_variance>
0.8411860466

$$$$
/media/chris/experiments/cd1a-new-docking/inputs/ligands/7sh4_ligand.pdb


 56 55  0  0  0  0  0  0  0  0999 V2000
  -37.0953   60.2314   64.5647 C   0  0  0  0  0  0  0  0  0  0  0  0
  -35.7052   59.7238   64.8247 C   0  0  0  0  0  0  0  0  0  0  0  0
  -35.4318   58.8624   63.6994 O   0  0  0  0  0  0  0  0  0  0  0  0
  -36.1885   56.9878   64.6547 O   0  0  0  0  0  0  0  0  0  0  0  0
  -36.0447   57.6783   63.6820 C   0  0  0  0  0  0  0  0  0  0  0  0
  -36.6312   57.3907   62.3300 C   0  0  0  0  0  0  0  0  0  0  0  0
  -38.1311   57.1488   62.3429 C   0  0  0  0  0  0  0  0  0  0  0  0
  -38.9233   58.3538   61.8811 C   0  0  0  0  0  0  0  0  0  0  0  0
  -38.0994   59.3986   61.1633 C   0  0  0  0  0  0  0  0  0  0  0  0
  -38.7555   59.9020   59.8935 C   0  0  0  0  0  0  0  0  0  0  0  0
  -38.4946   59.0173   58.6991 C   0  0  0  0  0  0  0  0  0  0  0  0
  -37.1786   58.2901   58.7817 C   0  0  0  0  0  0  0  0  0  0  0  0
  -36.7897   57.6040   57.4909 C   0  0  0  0  0  0  0  0  0  0  0  0
  -36.3273   56.1766   57.7030 C   0  0  0  0  0  0  0  0  0  0  0  0
  -36.5479   55.6579   59.1086 C   0  0  0  0  0  0  0  0  0  0  0  0
  -35.2730   55.1847   59.7977 C   0  0  0  0  0  0  0  0  0  0  0  0
  -34.0217   55.9132   59.3463 C   0  0  0  0  0  0  0  0  0  0  0  0
  -33.5895   57.0122   60.2952 C   0  0  0  0  0  0  0  0  0  0  0  0
  -33.1335   56.5004   61.6545 C   0  0  0  0  0  0  0  0  0  0  0  0
  -32.4173   57.5472   62.4889 C   0  0  0  0  0  0  0  0  0  0  0  0
  -31.0820   59.6493   62.1225 C   0  0  0  0  0  0  0  0  0  0  0  0
  -32.3931   58.9365   61.8804 C   0  0  0  0  0  0  0  0  0  0  0  0
  -37.0900   61.5297   63.7991 C   0  0  0  0  0  0  0  0  0  0  0  0
  -35.7922   61.7037   63.1875 O   0  0  0  0  0  0  0  0  0  0  0  0
  -35.0378   63.1145   63.1402 P   0  0  0  0  0  0  0  0  0  0  0  0
  -33.6589   62.8805   62.6597 O   0  0  0  0  0  0  0  0  0  0  0  0
  -35.8962   64.0723   62.4025 O   0  0  0  0  0  0  0  0  0  0  0  0
  -35.9632   63.7981   61.4744 H   0  0  0  0  0  0  0  0  0  0  0  0
  -34.9537   63.5998   64.6569 O   0  0  0  0  0  0  0  0  0  0  0  0
  -33.9495   63.0518   65.5351 C   0  0  0  0  0  0  0  0  0  0  0  0
  -34.1984   64.4768   67.4455 O   0  0  0  0  0  0  0  0  0  0  0  0
  -34.4503   63.1567   66.9546 C   0  0  0  0  0  0  0  0  0  0  0  0
  -33.2525   64.6764   67.3656 H   0  0  0  0  0  0  0  0  0  0  0  0
  -36.7104   63.9976   66.8985 O   0  0  0  0  0  0  0  0  0  0  0  0
  -35.9195   62.8288   67.0716 C   0  0  0  0  0  0  0  0  0  0  0  0
  -37.6493   63.7671   66.9770 H   0  0  0  0  0  0  0  0  0  0  0  0
  -37.7864   60.3640   65.8510 O   0  0  0  0  0  0  0  0  0  0  0  0
  -39.9624   60.8788   66.0956 O   0  0  0  0  0  0  0  0  0  0  0  0
  -39.1013   60.0729   65.8706 C   0  0  0  0  0  0  0  0  0  0  0  0
  -39.3609   58.6312   65.5607 C   0  0  0  0  0  0  0  0  0  0  0  0
  -40.7487   58.4296   64.9607 C   0  0  0  0  0  0  0  0  0  0  0  0
  -41.7842   57.9321   65.9559 C   0  0  0  0  0  0  0  0  0  0  0  0
  -42.8104   58.9891   66.3478 C   0  0  0  0  0  0  0  0  0  0  0  0
  -43.9842   59.0935   65.3919 C   0  0  0  0  0  0  0  0  0  0  0  0
  -44.7550   57.7865   65.1850 C   0  0  0  0  0  0  0  0  0  0  0  0
  -46.0612   57.9180   64.3987 C   0  0  0  0  0  0  0  0  0  0  0  0
  -47.1249   58.6243   65.1844 C   0  0  0  0  0  0  0  0  0  0  0  0
  -48.4121   58.6725   64.9010 C   0  0  0  0  0  0  0  0  0  0  0  0
  -49.0827   58.0270   63.7297 C   0  0  0  0  0  0  0  0  0  0  0  0
  -50.5247   58.4942   63.5540 C   0  0  0  0  0  0  0  0  0  0  0  0
  -50.9109   58.7491   62.1076 C   0  0  0  0  0  0  0  0  0  0  0  0
  -51.0917   57.4804   61.2921 C   0  0  0  0  0  0  0  0  0  0  0  0
  -50.3526   57.4745   59.9644 C   0  0  0  0  0  0  0  0  0  0  0  0
  -48.9479   56.8983   60.0557 C   0  0  0  0  0  0  0  0  0  0  0  0
  -48.1169   57.0835   58.8015 C   0  0  0  0  0  0  0  0  0  0  0  0
  -46.6734   57.3798   59.0988 C   0  0  0  0  0  0  0  0  0  0  0  0
 21 22  1  0  0  0
  4  5  2  0  0  0
 25 24  1  0  0  0
 25 26  2  0  0  0
 25 27  1  0  0  0
 25 29  1  0  0  0
 22 20  1  0  0  0
  3  5  1  0  0  0
  3  2  1  0  0  0
 20 19  1  0  0  0
 24 23  1  0  0  0
 19 18  1  0  0  0
 18 17  1  0  0  0
 27 28  1  0  0  0
 17 16  1  0  0  0
 29 30  1  0  0  0
 16 15  1  0  0  0
 34 35  1  0  0  0
 34 36  1  0  0  0
 15 14  1  0  0  0
 31 32  1  0  0  0
 31 33  1  0  0  0
 14 13  1  0  0  0
 37  1  1  0  0  0
 37 39  1  0  0  0
 13 12  1  0  0  0
 38 39  2  0  0  0
 12 11  1  0  0  0
 11 10  1  0  0  0
 10  9  1  0  0  0
  9  8  1  0  0  0
  8  7  1  0  0  0
  7  6  1  0  0  0
  6  5  1  0  0  0
  2  1  1  0  0  0
  1 23  1  0  0  0
 30 32  1  0  0  0
 32 35  1  0  0  0
 39 40  1  0  0  0
 40 41  1  0  0  0
 41 42  1  0  0  0
 42 43  1  0  0  0
 43 44  1  0  0  0
 44 45  1  0  0  0
 45 46  1  0  0  0
 46 47  1  0  0  0
 47 48  2  0  0  0
 48 49  1  0  0  0
 49 50  1  0  0  0
 50 51  1  0  0  0
 51 52  1  0  0  0
 52 53  1  0  0  0
 53 54  1  0  0  0
 54 55  1  0  0  0
 55 56  1  0  0  0
M  CHG 1  26  -1
M  END
> <minimizedAffinity>
-8.82228

> <CNNscore>
0.4506745636

> <CNNaffinity>
7.4279394150

> <CNN_VS>
3.3475832939

> <CNNaffinity_variance>
1.1185990572

$$$$
