/media/chris/experiments/cd1a-new-docking/inputs/ligands/7sh4_ligand.pdb


 56 55  0  0  0  0  0  0  0  0999 V2000
  -38.6263   59.0305   63.4942 C   0  0  0  0  0  0  0  0  0  0  0  0
  -38.8423   58.2703   62.2162 C   0  0  0  0  0  0  0  0  0  0  0  0
  -39.3654   59.2601   61.3053 O   0  0  0  0  0  0  0  0  0  0  0  0
  -38.9752   60.2365   59.3319 O   0  0  0  0  0  0  0  0  0  0  0  0
  -38.8034   59.3268   60.0979 C   0  0  0  0  0  0  0  0  0  0  0  0
  -37.8440   58.1920   59.8827 C   0  0  0  0  0  0  0  0  0  0  0  0
  -37.2943   58.1039   58.4689 C   0  0  0  0  0  0  0  0  0  0  0  0
  -36.4305   56.8795   58.2511 C   0  0  0  0  0  0  0  0  0  0  0  0
  -35.0106   57.1895   57.8346 C   0  0  0  0  0  0  0  0  0  0  0  0
  -33.9748   56.5701   58.7510 C   0  0  0  0  0  0  0  0  0  0  0  0
  -34.5784   55.7093   59.8336 C   0  0  0  0  0  0  0  0  0  0  0  0
  -34.1055   56.0819   61.2139 C   0  0  0  0  0  0  0  0  0  0  0  0
  -33.7887   57.5534   61.3630 C   0  0  0  0  0  0  0  0  0  0  0  0
  -32.7713   57.8258   62.4525 C   0  0  0  0  0  0  0  0  0  0  0  0
  -32.7017   59.2756   62.8845 C   0  0  0  0  0  0  0  0  0  0  0  0
  -31.8642   60.1538   61.9619 C   0  0  0  0  0  0  0  0  0  0  0  0
  -30.3710   59.9091   62.0665 C   0  0  0  0  0  0  0  0  0  0  0  0
  -29.6263   61.0240   62.7722 C   0  0  0  0  0  0  0  0  0  0  0  0
  -29.9136   62.4060   62.2022 C   0  0  0  0  0  0  0  0  0  0  0  0
  -30.1588   63.4626   63.2645 C   0  0  0  0  0  0  0  0  0  0  0  0
  -31.6801   64.3876   65.0438 C   0  0  0  0  0  0  0  0  0  0  0  0
  -31.3806   63.2207   64.1304 C   0  0  0  0  0  0  0  0  0  0  0  0
  -37.2953   58.7108   64.1250 C   0  0  0  0  0  0  0  0  0  0  0  0
  -36.2994   59.6123   63.5921 O   0  0  0  0  0  0  0  0  0  0  0  0
  -36.1969   61.1484   64.0301 P   0  0  0  0  0  0  0  0  0  0  0  0
  -35.2070   61.8096   63.1529 O   0  0  0  0  0  0  0  0  0  0  0  0
  -37.5710   61.7017   64.0975 O   0  0  0  0  0  0  0  0  0  0  0  0
  -37.9541   61.7251   63.2067 H   0  0  0  0  0  0  0  0  0  0  0  0
  -35.6044   61.1269   65.5104 O   0  0  0  0  0  0  0  0  0  0  0  0
  -36.2487   61.8823   66.5564 C   0  0  0  0  0  0  0  0  0  0  0  0
  -37.0380   64.1364   66.7521 O   0  0  0  0  0  0  0  0  0  0  0  0
  -35.9134   63.3411   66.3655 C   0  0  0  0  0  0  0  0  0  0  0  0
  -37.8181   63.8613   66.2455 H   0  0  0  0  0  0  0  0  0  0  0  0
  -33.8994   62.6227   67.4816 O   0  0  0  0  0  0  0  0  0  0  0  0
  -34.6888   63.7563   67.1450 C   0  0  0  0  0  0  0  0  0  0  0  0
  -33.1187   62.9091   67.9812 H   0  0  0  0  0  0  0  0  0  0  0  0
  -39.7402   58.7353   64.4007 O   0  0  0  0  0  0  0  0  0  0  0  0
  -40.4489   60.8698   64.3567 O   0  0  0  0  0  0  0  0  0  0  0  0
  -40.4374   59.7861   64.8737 C   0  0  0  0  0  0  0  0  0  0  0  0
  -41.2094   59.4367   66.1082 C   0  0  0  0  0  0  0  0  0  0  0  0
  -42.4021   58.5418   65.7868 C   0  0  0  0  0  0  0  0  0  0  0  0
  -43.6732   58.9185   66.5300 C   0  0  0  0  0  0  0  0  0  0  0  0
  -44.8674   58.0376   66.1811 C   0  0  0  0  0  0  0  0  0  0  0  0
  -46.1978   58.5803   66.6687 C   0  0  0  0  0  0  0  0  0  0  0  0
  -46.9112   59.5031   65.6764 C   0  0  0  0  0  0  0  0  0  0  0  0
  -48.3738   59.8086   66.0064 C   0  0  0  0  0  0  0  0  0  0  0  0
  -49.2610   58.6185   65.7953 C   0  0  0  0  0  0  0  0  0  0  0  0
  -50.4038   58.5953   65.1373 C   0  0  0  0  0  0  0  0  0  0  0  0
  -51.0557   59.7587   64.4591 C   0  0  0  0  0  0  0  0  0  0  0  0
  -51.4300   59.4538   63.0116 C   0  0  0  0  0  0  0  0  0  0  0  0
  -50.3654   58.6765   62.2574 C   0  0  0  0  0  0  0  0  0  0  0  0
  -50.9189   57.5280   61.4317 C   0  0  0  0  0  0  0  0  0  0  0  0
  -50.4105   57.4793   60.0003 C   0  0  0  0  0  0  0  0  0  0  0  0
  -49.3424   56.4205   59.7727 C   0  0  0  0  0  0  0  0  0  0  0  0
  -48.4575   56.6782   58.5694 C   0  0  0  0  0  0  0  0  0  0  0  0
  -47.3309   57.6273   58.8686 C   0  0  0  0  0  0  0  0  0  0  0  0
 21 22  1  0  0  0
  4  5  2  0  0  0
 25 24  1  0  0  0
 25 26  2  0  0  0
 25 27  1  0  0  0
 25 29  1  0  0  0
 22 20  1  0  0  0
  3  5  1  0  0  0
  3  2  1  0  0  0
 20 19  1  0  0  0
 24 23  1  0  0  0
 19 18  1  0  0  0
 18 17  1  0  0  0
 27 28  1  0  0  0
 17 16  1  0  0  0
 29 30  1  0  0  0
 16 15  1  0  0  0
 34 35  1  0  0  0
 34 36  1  0  0  0
 15 14  1  0  0  0
 31 32  1  0  0  0
 31 33  1  0  0  0
 14 13  1  0  0  0
 37  1  1  0  0  0
 37 39  1  0  0  0
 13 12  1  0  0  0
 38 39  2  0  0  0
 12 11  1  0  0  0
 11 10  1  0  0  0
 10  9  1  0  0  0
  9  8  1  0  0  0
  8  7  1  0  0  0
  7  6  1  0  0  0
  6  5  1  0  0  0
  2  1  1  0  0  0
  1 23  1  0  0  0
 30 32  1  0  0  0
 32 35  1  0  0  0
 39 40  1  0  0  0
 40 41  1  0  0  0
 41 42  1  0  0  0
 42 43  1  0  0  0
 43 44  1  0  0  0
 44 45  1  0  0  0
 45 46  1  0  0  0
 46 47  1  0  0  0
 47 48  2  0  0  0
 48 49  1  0  0  0
 49 50  1  0  0  0
 50 51  1  0  0  0
 51 52  1  0  0  0
 52 53  1  0  0  0
 53 54  1  0  0  0
 54 55  1  0  0  0
 55 56  1  0  0  0
M  CHG 1  26  -1
M  END
> <minimizedAffinity>
-8.95017

> <CNNscore>
0.8710021377

> <CNNaffinity>
7.6478590965

> <CNN_VS>
6.6613016129

> <CNNaffinity_variance>
0.3570422530

$$$$
/media/chris/experiments/cd1a-new-docking/inputs/ligands/7sh4_ligand.pdb


 56 55  0  0  0  0  0  0  0  0999 V2000
  -38.5238   59.3850   62.4867 C   0  0  0  0  0  0  0  0  0  0  0  0
  -39.8253   59.7883   63.1200 C   0  0  0  0  0  0  0  0  0  0  0  0
  -39.5589   59.7238   64.5370 O   0  0  0  0  0  0  0  0  0  0  0  0
  -40.5474   61.0076   66.0779 O   0  0  0  0  0  0  0  0  0  0  0  0
  -40.5607   60.0477   65.3553 C   0  0  0  0  0  0  0  0  0  0  0  0
  -41.7376   59.1361   65.1595 C   0  0  0  0  0  0  0  0  0  0  0  0
  -42.2340   58.4805   66.4371 C   0  0  0  0  0  0  0  0  0  0  0  0
  -43.1139   57.2765   66.1746 C   0  0  0  0  0  0  0  0  0  0  0  0
  -44.5274   57.6205   65.7628 C   0  0  0  0  0  0  0  0  0  0  0  0
  -45.1479   58.7050   66.6201 C   0  0  0  0  0  0  0  0  0  0  0  0
  -46.6553   58.6426   66.6579 C   0  0  0  0  0  0  0  0  0  0  0  0
  -47.2378   57.8112   65.5456 C   0  0  0  0  0  0  0  0  0  0  0  0
  -48.0239   58.6216   64.5389 C   0  0  0  0  0  0  0  0  0  0  0  0
  -49.3821   58.0216   64.2367 C   0  0  0  0  0  0  0  0  0  0  0  0
  -50.5165   59.0249   64.2443 C   0  0  0  0  0  0  0  0  0  0  0  0
  -51.3340   59.0401   62.9577 C   0  0  0  0  0  0  0  0  0  0  0  0
  -50.5349   58.6944   61.7159 C   0  0  0  0  0  0  0  0  0  0  0  0
  -50.9907   57.4155   61.0433 C   0  0  0  0  0  0  0  0  0  0  0  0
  -49.8691   56.6611   60.3431 C   0  0  0  0  0  0  0  0  0  0  0  0
  -48.5788   57.4538   60.2347 C   0  0  0  0  0  0  0  0  0  0  0  0
  -46.3796   57.4668   59.0103 C   0  0  0  0  0  0  0  0  0  0  0  0
  -47.8824   57.3523   58.8909 C   0  0  0  0  0  0  0  0  0  0  0  0
  -37.3832   59.4098   63.4716 C   0  0  0  0  0  0  0  0  0  0  0  0
  -36.3040   60.1927   62.9140 O   0  0  0  0  0  0  0  0  0  0  0  0
  -35.9817   61.6871   63.3880 P   0  0  0  0  0  0  0  0  0  0  0  0
  -34.5633   61.7402   63.8026 O   0  0  0  0  0  0  0  0  0  0  0  0
  -36.4507   62.6173   62.3326 O   0  0  0  0  0  0  0  0  0  0  0  0
  -35.9174   62.4929   61.5319 H   0  0  0  0  0  0  0  0  0  0  0  0
  -36.8812   61.9227   64.6834 O   0  0  0  0  0  0  0  0  0  0  0  0
  -36.2576   62.1188   65.9689 C   0  0  0  0  0  0  0  0  0  0  0  0
  -37.0058   64.1458   67.0052 O   0  0  0  0  0  0  0  0  0  0  0  0
  -35.9986   63.5941   66.1520 C   0  0  0  0  0  0  0  0  0  0  0  0
  -37.8820   63.9621   66.6319 H   0  0  0  0  0  0  0  0  0  0  0  0
  -34.3293   62.9698   67.7774 O   0  0  0  0  0  0  0  0  0  0  0  0
  -34.6268   63.8710   66.7185 C   0  0  0  0  0  0  0  0  0  0  0  0
  -33.4457   63.1630   68.1278 H   0  0  0  0  0  0  0  0  0  0  0  0
  -38.2725   60.2695   61.3446 O   0  0  0  0  0  0  0  0  0  0  0  0
  -39.1993   60.2618   59.2949 O   0  0  0  0  0  0  0  0  0  0  0  0
  -38.4845   59.7571   60.1172 C   0  0  0  0  0  0  0  0  0  0  0  0
  -37.7092   58.4955   59.8949 C   0  0  0  0  0  0  0  0  0  0  0  0
  -37.4099   58.2770   58.4152 C   0  0  0  0  0  0  0  0  0  0  0  0
  -36.7818   56.9279   58.1062 C   0  0  0  0  0  0  0  0  0  0  0  0
  -36.5141   56.0817   59.3456 C   0  0  0  0  0  0  0  0  0  0  0  0
  -35.3815   55.0857   59.1797 C   0  0  0  0  0  0  0  0  0  0  0  0
  -33.9857   55.6600   59.4385 C   0  0  0  0  0  0  0  0  0  0  0  0
  -33.9397   56.8561   60.3919 C   0  0  0  0  0  0  0  0  0  0  0  0
  -33.2092   56.5383   61.6620 C   0  0  0  0  0  0  0  0  0  0  0  0
  -32.7092   57.4055   62.5208 C   0  0  0  0  0  0  0  0  0  0  0  0
  -32.7688   58.8960   62.4060 C   0  0  0  0  0  0  0  0  0  0  0  0
  -31.6324   59.4605   61.5584 C   0  0  0  0  0  0  0  0  0  0  0  0
  -30.4408   59.9324   62.3730 C   0  0  0  0  0  0  0  0  0  0  0  0
  -29.7118   61.1149   61.7585 C   0  0  0  0  0  0  0  0  0  0  0  0
  -30.5419   62.3840   61.6595 C   0  0  0  0  0  0  0  0  0  0  0  0
  -31.2920   62.7184   62.9398 C   0  0  0  0  0  0  0  0  0  0  0  0
  -30.5964   63.7377   63.8201 C   0  0  0  0  0  0  0  0  0  0  0  0
  -31.3908   64.0837   65.0484 C   0  0  0  0  0  0  0  0  0  0  0  0
 21 22  1  0  0  0
  4  5  2  0  0  0
 25 24  1  0  0  0
 25 26  2  0  0  0
 25 27  1  0  0  0
 25 29  1  0  0  0
 22 20  1  0  0  0
  3  5  1  0  0  0
  3  2  1  0  0  0
 20 19  1  0  0  0
 24 23  1  0  0  0
 19 18  1  0  0  0
 18 17  1  0  0  0
 27 28  1  0  0  0
 17 16  1  0  0  0
 29 30  1  0  0  0
 16 15  1  0  0  0
 34 35  1  0  0  0
 34 36  1  0  0  0
 15 14  1  0  0  0
 31 32  1  0  0  0
 31 33  1  0  0  0
 14 13  1  0  0  0
 37  1  1  0  0  0
 37 39  1  0  0  0
 13 12  1  0  0  0
 38 39  2  0  0  0
 12 11  1  0  0  0
 11 10  1  0  0  0
 10  9  1  0  0  0
  9  8  1  0  0  0
  8  7  1  0  0  0
  7  6  1  0  0  0
  6  5  1  0  0  0
  2  1  1  0  0  0
  1 23  1  0  0  0
 30 32  1  0  0  0
 32 35  1  0  0  0
 39 40  1  0  0  0
 40 41  1  0  0  0
 41 42  1  0  0  0
 42 43  1  0  0  0
 43 44  1  0  0  0
 44 45  1  0  0  0
 45 46  1  0  0  0
 46 47  1  0  0  0
 47 48  2  0  0  0
 48 49  1  0  0  0
 49 50  1  0  0  0
 50 51  1  0  0  0
 51 52  1  0  0  0
 52 53  1  0  0  0
 53 54  1  0  0  0
 54 55  1  0  0  0
 55 56  1  0  0  0
M  CHG 1  26  -1
M  END
> <minimizedAffinity>
-9.04720

> <CNNscore>
0.8670192957

> <CNNaffinity>
7.7167654037

> <CNN_VS>
6.6905846596

> <CNNaffinity_variance>
0.2903632522

$$$$
/media/chris/experiments/cd1a-new-docking/inputs/ligands/7sh4_ligand.pdb


 56 55  0  0  0  0  0  0  0  0999 V2000
  -37.7366   60.2040   65.1569 C   0  0  0  0  0  0  0  0  0  0  0  0
  -38.6782   60.9466   64.2516 C   0  0  0  0  0  0  0  0  0  0  0  0
  -39.8648   60.1252   64.2324 O   0  0  0  0  0  0  0  0  0  0  0  0
  -40.7431   61.0512   66.0685 O   0  0  0  0  0  0  0  0  0  0  0  0
  -40.6027   60.1038   65.3428 C   0  0  0  0  0  0  0  0  0  0  0  0
  -41.3230   58.7946   65.4905 C   0  0  0  0  0  0  0  0  0  0  0  0
  -42.3614   58.7793   66.5995 C   0  0  0  0  0  0  0  0  0  0  0  0
  -43.6948   58.2230   66.1465 C   0  0  0  0  0  0  0  0  0  0  0  0
  -44.4321   59.1047   65.1642 C   0  0  0  0  0  0  0  0  0  0  0  0
  -45.8772   59.3452   65.5515 C   0  0  0  0  0  0  0  0  0  0  0  0
  -46.8382   58.3948   64.8802 C   0  0  0  0  0  0  0  0  0  0  0  0
  -47.8335   57.7918   65.8359 C   0  0  0  0  0  0  0  0  0  0  0  0
  -49.2670   58.1552   65.5181 C   0  0  0  0  0  0  0  0  0  0  0  0
  -49.3822   59.1234   64.3582 C   0  0  0  0  0  0  0  0  0  0  0  0
  -50.8054   59.5137   64.0180 C   0  0  0  0  0  0  0  0  0  0  0  0
  -51.3423   58.8467   62.7568 C   0  0  0  0  0  0  0  0  0  0  0  0
  -50.2667   58.2489   61.8703 C   0  0  0  0  0  0  0  0  0  0  0  0
  -50.8135   57.3325   60.7948 C   0  0  0  0  0  0  0  0  0  0  0  0
  -49.9123   57.2197   59.5731 C   0  0  0  0  0  0  0  0  0  0  0  0
  -48.5426   57.8449   59.7685 C   0  0  0  0  0  0  0  0  0  0  0  0
  -46.9931   57.5155   57.8124 C   0  0  0  0  0  0  0  0  0  0  0  0
  -47.3908   57.0432   59.1924 C   0  0  0  0  0  0  0  0  0  0  0  0
  -36.9017   61.1382   65.9946 C   0  0  0  0  0  0  0  0  0  0  0  0
  -36.4389   62.2234   65.1600 O   0  0  0  0  0  0  0  0  0  0  0  0
  -36.0608   63.6654   65.7427 P   0  0  0  0  0  0  0  0  0  0  0  0
  -36.0271   64.6208   64.6145 O   0  0  0  0  0  0  0  0  0  0  0  0
  -36.9566   63.9490   66.8899 O   0  0  0  0  0  0  0  0  0  0  0  0
  -37.8683   64.0434   66.5724 H   0  0  0  0  0  0  0  0  0  0  0  0
  -34.5761   63.5176   66.3055 O   0  0  0  0  0  0  0  0  0  0  0  0
  -33.4893   63.2210   65.4050 C   0  0  0  0  0  0  0  0  0  0  0  0
  -31.4829   64.4533   65.8499 O   0  0  0  0  0  0  0  0  0  0  0  0
  -32.7264   64.4965   65.1439 C   0  0  0  0  0  0  0  0  0  0  0  0
  -31.6516   64.3034   66.7933 H   0  0  0  0  0  0  0  0  0  0  0  0
  -33.6295   64.3753   62.9105 O   0  0  0  0  0  0  0  0  0  0  0  0
  -32.4822   64.7293   63.6722 C   0  0  0  0  0  0  0  0  0  0  0  0
  -33.4536   64.5315   61.9694 H   0  0  0  0  0  0  0  0  0  0  0  0
  -36.9024   59.3235   64.3330 O   0  0  0  0  0  0  0  0  0  0  0  0
  -37.8044   57.4603   65.2133 O   0  0  0  0  0  0  0  0  0  0  0  0
  -37.2208   58.0149   64.3224 C   0  0  0  0  0  0  0  0  0  0  0  0
  -36.7774   57.3403   63.0613 C   0  0  0  0  0  0  0  0  0  0  0  0
  -37.9526   57.0779   62.1250 C   0  0  0  0  0  0  0  0  0  0  0  0
  -38.5370   58.3351   61.5021 C   0  0  0  0  0  0  0  0  0  0  0  0
  -37.6015   59.0149   60.5088 C   0  0  0  0  0  0  0  0  0  0  0  0
  -38.0829   58.9595   59.0709 C   0  0  0  0  0  0  0  0  0  0  0  0
  -37.1358   58.2354   58.1098 C   0  0  0  0  0  0  0  0  0  0  0  0
  -36.7361   56.8199   58.5319 C   0  0  0  0  0  0  0  0  0  0  0  0
  -35.3118   56.5074   58.1831 C   0  0  0  0  0  0  0  0  0  0  0  0
  -34.2574   56.6701   58.9585 C   0  0  0  0  0  0  0  0  0  0  0  0
  -34.2637   57.2022   60.3567 C   0  0  0  0  0  0  0  0  0  0  0  0
  -33.3488   56.4093   61.2855 C   0  0  0  0  0  0  0  0  0  0  0  0
  -32.8437   57.2101   62.4730 C   0  0  0  0  0  0  0  0  0  0  0  0
  -32.8477   58.7114   62.2423 C   0  0  0  0  0  0  0  0  0  0  0  0
  -31.4766   59.3115   61.9785 C   0  0  0  0  0  0  0  0  0  0  0  0
  -31.4509   60.8293   62.0757 C   0  0  0  0  0  0  0  0  0  0  0  0
  -30.1344   61.4568   61.6626 C   0  0  0  0  0  0  0  0  0  0  0  0
  -28.9454   60.6249   62.0546 C   0  0  0  0  0  0  0  0  0  0  0  0
 21 22  1  0  0  0
  4  5  2  0  0  0
 25 24  1  0  0  0
 25 26  2  0  0  0
 25 27  1  0  0  0
 25 29  1  0  0  0
 22 20  1  0  0  0
  3  5  1  0  0  0
  3  2  1  0  0  0
 20 19  1  0  0  0
 24 23  1  0  0  0
 19 18  1  0  0  0
 18 17  1  0  0  0
 27 28  1  0  0  0
 17 16  1  0  0  0
 29 30  1  0  0  0
 16 15  1  0  0  0
 34 35  1  0  0  0
 34 36  1  0  0  0
 15 14  1  0  0  0
 31 32  1  0  0  0
 31 33  1  0  0  0
 14 13  1  0  0  0
 37  1  1  0  0  0
 37 39  1  0  0  0
 13 12  1  0  0  0
 38 39  2  0  0  0
 12 11  1  0  0  0
 11 10  1  0  0  0
 10  9  1  0  0  0
  9  8  1  0  0  0
  8  7  1  0  0  0
  7  6  1  0  0  0
  6  5  1  0  0  0
  2  1  1  0  0  0
  1 23  1  0  0  0
 30 32  1  0  0  0
 32 35  1  0  0  0
 39 40  1  0  0  0
 40 41  1  0  0  0
 41 42  1  0  0  0
 42 43  1  0  0  0
 43 44  1  0  0  0
 44 45  1  0  0  0
 45 46  1  0  0  0
 46 47  1  0  0  0
 47 48  2  0  0  0
 48 49  1  0  0  0
 49 50  1  0  0  0
 50 51  1  0  0  0
 51 52  1  0  0  0
 52 53  1  0  0  0
 53 54  1  0  0  0
 54 55  1  0  0  0
 55 56  1  0  0  0
M  CHG 1  26  -1
M  END
> <minimizedAffinity>
-9.07568

> <CNNscore>
0.8019899130

> <CNNaffinity>
7.4775629044

> <CNN_VS>
5.9969301224

> <CNNaffinity_variance>
0.7682571411

$$$$
/media/chris/experiments/cd1a-new-docking/inputs/ligands/7sh4_ligand.pdb


 56 55  0  0  0  0  0  0  0  0999 V2000
  -37.6985   60.0636   62.3713 C   0  0  0  0  0  0  0  0  0  0  0  0
  -39.0523   60.4711   62.8800 C   0  0  0  0  0  0  0  0  0  0  0  0
  -39.2426   59.6576   64.0569 O   0  0  0  0  0  0  0  0  0  0  0  0
  -39.6053   60.7529   65.9723 O   0  0  0  0  0  0  0  0  0  0  0  0
  -40.0227   60.1565   65.0163 C   0  0  0  0  0  0  0  0  0  0  0  0
  -41.4756   59.9840   64.6787 C   0  0  0  0  0  0  0  0  0  0  0  0
  -42.1703   58.8876   65.4685 C   0  0  0  0  0  0  0  0  0  0  0  0
  -43.6798   58.9691   65.3819 C   0  0  0  0  0  0  0  0  0  0  0  0
  -44.3763   57.6282   65.4323 C   0  0  0  0  0  0  0  0  0  0  0  0
  -45.7854   57.7119   65.9834 C   0  0  0  0  0  0  0  0  0  0  0  0
  -46.3158   59.1233   66.0461 C   0  0  0  0  0  0  0  0  0  0  0  0
  -47.7742   59.1880   66.4156 C   0  0  0  0  0  0  0  0  0  0  0  0
  -48.6397   59.8036   65.3385 C   0  0  0  0  0  0  0  0  0  0  0  0
  -49.9748   59.1029   65.1885 C   0  0  0  0  0  0  0  0  0  0  0  0
  -50.1225   58.3241   63.8981 C   0  0  0  0  0  0  0  0  0  0  0  0
  -50.8583   59.0844   62.8006 C   0  0  0  0  0  0  0  0  0  0  0  0
  -50.2441   58.9257   61.4230 C   0  0  0  0  0  0  0  0  0  0  0  0
  -49.9176   57.4885   61.0714 C   0  0  0  0  0  0  0  0  0  0  0  0
  -49.8053   57.2370   59.5742 C   0  0  0  0  0  0  0  0  0  0  0  0
  -48.5659   56.4534   59.1809 C   0  0  0  0  0  0  0  0  0  0  0  0
  -47.5637   56.5085   56.8726 C   0  0  0  0  0  0  0  0  0  0  0  0
  -47.6338   57.1763   58.2271 C   0  0  0  0  0  0  0  0  0  0  0  0
  -36.5883   60.5384   63.2734 C   0  0  0  0  0  0  0  0  0  0  0  0
  -36.6882   61.9728   63.4185 O   0  0  0  0  0  0  0  0  0  0  0  0
  -35.4807   62.9656   63.0744 P   0  0  0  0  0  0  0  0  0  0  0  0
  -34.2985   62.1468   62.7303 O   0  0  0  0  0  0  0  0  0  0  0  0
  -35.9685   63.9617   62.0901 O   0  0  0  0  0  0  0  0  0  0  0  0
  -36.1675   63.5167   61.2515 H   0  0  0  0  0  0  0  0  0  0  0  0
  -35.1658   63.7352   64.4351 O   0  0  0  0  0  0  0  0  0  0  0  0
  -36.2457   64.1452   65.2986 C   0  0  0  0  0  0  0  0  0  0  0  0
  -36.9494   62.1474   66.4193 O   0  0  0  0  0  0  0  0  0  0  0  0
  -36.1701   63.3375   66.5711 C   0  0  0  0  0  0  0  0  0  0  0  0
  -37.8587   62.3848   66.1790 H   0  0  0  0  0  0  0  0  0  0  0  0
  -34.4800   61.6189   66.6643 O   0  0  0  0  0  0  0  0  0  0  0  0
  -34.7502   62.9863   66.9455 C   0  0  0  0  0  0  0  0  0  0  0  0
  -33.5649   61.4128   66.9111 H   0  0  0  0  0  0  0  0  0  0  0  0
  -37.5445   60.5771   61.0066 O   0  0  0  0  0  0  0  0  0  0  0  0
  -39.0734   60.2819   59.3831 O   0  0  0  0  0  0  0  0  0  0  0  0
  -38.1392   59.8783   60.0206 C   0  0  0  0  0  0  0  0  0  0  0  0
  -37.4856   58.5489   59.8028 C   0  0  0  0  0  0  0  0  0  0  0  0
  -36.9699   58.4072   58.3743 C   0  0  0  0  0  0  0  0  0  0  0  0
  -36.9024   56.9705   57.8831 C   0  0  0  0  0  0  0  0  0  0  0  0
  -36.6406   55.9584   58.9925 C   0  0  0  0  0  0  0  0  0  0  0  0
  -35.1702   55.7530   59.3058 C   0  0  0  0  0  0  0  0  0  0  0  0
  -34.7678   56.1152   60.7382 C   0  0  0  0  0  0  0  0  0  0  0  0
  -33.7249   57.2283   60.8604 C   0  0  0  0  0  0  0  0  0  0  0  0
  -33.8863   58.0173   62.1251 C   0  0  0  0  0  0  0  0  0  0  0  0
  -32.9584   58.7327   62.7306 C   0  0  0  0  0  0  0  0  0  0  0  0
  -31.5433   58.9080   62.2777 C   0  0  0  0  0  0  0  0  0  0  0  0
  -31.2652   60.3198   61.7699 C   0  0  0  0  0  0  0  0  0  0  0  0
  -29.8029   60.7211   61.8548 C   0  0  0  0  0  0  0  0  0  0  0  0
  -29.5914   62.1989   62.1355 C   0  0  0  0  0  0  0  0  0  0  0  0
  -30.8000   62.9072   62.7244 C   0  0  0  0  0  0  0  0  0  0  0  0
  -30.5094   63.6049   64.0444 C   0  0  0  0  0  0  0  0  0  0  0  0
  -31.6869   63.6476   64.9979 C   0  0  0  0  0  0  0  0  0  0  0  0
  -31.9927   65.0372   65.4826 C   0  0  0  0  0  0  0  0  0  0  0  0
 21 22  1  0  0  0
  4  5  2  0  0  0
 25 24  1  0  0  0
 25 26  2  0  0  0
 25 27  1  0  0  0
 25 29  1  0  0  0
 22 20  1  0  0  0
  3  5  1  0  0  0
  3  2  1  0  0  0
 20 19  1  0  0  0
 24 23  1  0  0  0
 19 18  1  0  0  0
 18 17  1  0  0  0
 27 28  1  0  0  0
 17 16  1  0  0  0
 29 30  1  0  0  0
 16 15  1  0  0  0
 34 35  1  0  0  0
 34 36  1  0  0  0
 15 14  1  0  0  0
 31 32  1  0  0  0
 31 33  1  0  0  0
 14 13  1  0  0  0
 37  1  1  0  0  0
 37 39  1  0  0  0
 13 12  1  0  0  0
 38 39  2  0  0  0
 12 11  1  0  0  0
 11 10  1  0  0  0
 10  9  1  0  0  0
  9  8  1  0  0  0
  8  7  1  0  0  0
  7  6  1  0  0  0
  6  5  1  0  0  0
  2  1  1  0  0  0
  1 23  1  0  0  0
 30 32  1  0  0  0
 32 35  1  0  0  0
 39 40  1  0  0  0
 40 41  1  0  0  0
 41 42  1  0  0  0
 42 43  1  0  0  0
 43 44  1  0  0  0
 44 45  1  0  0  0
 45 46  1  0  0  0
 46 47  1  0  0  0
 47 48  2  0  0  0
 48 49  1  0  0  0
 49 50  1  0  0  0
 50 51  1  0  0  0
 51 52  1  0  0  0
 52 53  1  0  0  0
 53 54  1  0  0  0
 54 55  1  0  0  0
 55 56  1  0  0  0
M  CHG 1  26  -1
M  END
> <minimizedAffinity>
-8.75435

> <CNNscore>
0.7345427871

> <CNNaffinity>
7.2995820045

> <CNN_VS>
5.3618555069

> <CNNaffinity_variance>
0.8088695407

$$$$
/media/chris/experiments/cd1a-new-docking/inputs/ligands/7sh4_ligand.pdb


 56 55  0  0  0  0  0  0  0  0999 V2000
  -39.1666   58.3869   64.2862 C   0  0  0  0  0  0  0  0  0  0  0  0
  -39.0996   57.6626   62.9714 C   0  0  0  0  0  0  0  0  0  0  0  0
  -39.0185   58.7209   61.9934 O   0  0  0  0  0  0  0  0  0  0  0  0
  -37.2400   59.7274   61.0857 O   0  0  0  0  0  0  0  0  0  0  0  0
  -37.9281   58.7525   61.2265 C   0  0  0  0  0  0  0  0  0  0  0  0
  -37.6134   57.3920   60.6746 C   0  0  0  0  0  0  0  0  0  0  0  0
  -36.8832   57.4164   59.3424 C   0  0  0  0  0  0  0  0  0  0  0  0
  -36.4606   56.0379   58.8802 C   0  0  0  0  0  0  0  0  0  0  0  0
  -35.4006   55.3930   59.7441 C   0  0  0  0  0  0  0  0  0  0  0  0
  -34.1098   56.1854   59.7902 C   0  0  0  0  0  0  0  0  0  0  0  0
  -33.5472   56.3238   61.1837 C   0  0  0  0  0  0  0  0  0  0  0  0
  -34.1952   57.4307   61.9726 C   0  0  0  0  0  0  0  0  0  0  0  0
  -33.2066   58.2751   62.7458 C   0  0  0  0  0  0  0  0  0  0  0  0
  -31.9363   58.5499   61.9668 C   0  0  0  0  0  0  0  0  0  0  0  0
  -31.5094   60.0029   61.9735 C   0  0  0  0  0  0  0  0  0  0  0  0
  -30.0171   60.2054   62.2101 C   0  0  0  0  0  0  0  0  0  0  0  0
  -29.5502   61.6347   62.0119 C   0  0  0  0  0  0  0  0  0  0  0  0
  -30.6671   62.5859   61.6333 C   0  0  0  0  0  0  0  0  0  0  0  0
  -30.3019   64.0540   61.8022 C   0  0  0  0  0  0  0  0  0  0  0  0
  -31.2259   64.8057   62.7437 C   0  0  0  0  0  0  0  0  0  0  0  0
  -31.7054   63.6750   64.9408 C   0  0  0  0  0  0  0  0  0  0  0  0
  -32.1826   63.9285   63.5288 C   0  0  0  0  0  0  0  0  0  0  0  0
  -37.9075   58.2091   65.0954 C   0  0  0  0  0  0  0  0  0  0  0  0
  -37.0114   59.3059   64.8085 O   0  0  0  0  0  0  0  0  0  0  0  0
  -37.3446   60.8225   65.1970 P   0  0  0  0  0  0  0  0  0  0  0  0
  -37.7846   61.5231   63.9713 O   0  0  0  0  0  0  0  0  0  0  0  0
  -38.2473   60.8099   66.3733 O   0  0  0  0  0  0  0  0  0  0  0  0
  -39.1021   60.4274   66.1208 H   0  0  0  0  0  0  0  0  0  0  0  0
  -35.9545   61.4569   65.6531 O   0  0  0  0  0  0  0  0  0  0  0  0
  -35.2581   62.3710   64.7817 C   0  0  0  0  0  0  0  0  0  0  0  0
  -36.5132   64.3987   64.5465 O   0  0  0  0  0  0  0  0  0  0  0  0
  -35.4683   63.7734   65.2974 C   0  0  0  0  0  0  0  0  0  0  0  0
  -36.2915   64.3754   63.6025 H   0  0  0  0  0  0  0  0  0  0  0  0
  -34.6121   63.7165   67.5518 O   0  0  0  0  0  0  0  0  0  0  0  0
  -35.7973   63.8008   66.7708 C   0  0  0  0  0  0  0  0  0  0  0  0
  -34.8436   63.7356   68.4936 H   0  0  0  0  0  0  0  0  0  0  0  0
  -40.3490   57.9148   65.0134 O   0  0  0  0  0  0  0  0  0  0  0  0
  -40.9746   60.0338   65.4364 O   0  0  0  0  0  0  0  0  0  0  0  0
  -41.1281   58.8523   65.5862 C   0  0  0  0  0  0  0  0  0  0  0  0
  -42.2175   58.2457   66.4154 C   0  0  0  0  0  0  0  0  0  0  0  0
  -43.5224   59.0238   66.2793 C   0  0  0  0  0  0  0  0  0  0  0  0
  -44.2462   58.7879   64.9639 C   0  0  0  0  0  0  0  0  0  0  0  0
  -45.3564   57.7474   65.0568 C   0  0  0  0  0  0  0  0  0  0  0  0
  -46.1923   57.8483   66.3191 C   0  0  0  0  0  0  0  0  0  0  0  0
  -47.7052   57.8028   66.0862 C   0  0  0  0  0  0  0  0  0  0  0  0
  -48.3850   59.1671   65.9513 C   0  0  0  0  0  0  0  0  0  0  0  0
  -48.2793   59.7158   64.5600 C   0  0  0  0  0  0  0  0  0  0  0  0
  -49.2304   59.7339   63.6465 C   0  0  0  0  0  0  0  0  0  0  0  0
  -50.6216   59.2085   63.8101 C   0  0  0  0  0  0  0  0  0  0  0  0
  -51.1715   58.6053   62.5209 C   0  0  0  0  0  0  0  0  0  0  0  0
  -50.0944   58.1939   61.5325 C   0  0  0  0  0  0  0  0  0  0  0  0
  -50.6076   57.3230   60.3986 C   0  0  0  0  0  0  0  0  0  0  0  0
  -49.6927   57.2638   59.1866 C   0  0  0  0  0  0  0  0  0  0  0  0
  -48.2480   57.6217   59.5002 C   0  0  0  0  0  0  0  0  0  0  0  0
  -47.2534   57.1720   58.4485 C   0  0  0  0  0  0  0  0  0  0  0  0
  -47.9153   56.7303   57.1733 C   0  0  0  0  0  0  0  0  0  0  0  0
 21 22  1  0  0  0
  4  5  2  0  0  0
 25 24  1  0  0  0
 25 26  2  0  0  0
 25 27  1  0  0  0
 25 29  1  0  0  0
 22 20  1  0  0  0
  3  5  1  0  0  0
  3  2  1  0  0  0
 20 19  1  0  0  0
 24 23  1  0  0  0
 19 18  1  0  0  0
 18 17  1  0  0  0
 27 28  1  0  0  0
 17 16  1  0  0  0
 29 30  1  0  0  0
 16 15  1  0  0  0
 34 35  1  0  0  0
 34 36  1  0  0  0
 15 14  1  0  0  0
 31 32  1  0  0  0
 31 33  1  0  0  0
 14 13  1  0  0  0
 37  1  1  0  0  0
 37 39  1  0  0  0
 13 12  1  0  0  0
 38 39  2  0  0  0
 12 11  1  0  0  0
 11 10  1  0  0  0
 10  9  1  0  0  0
  9  8  1  0  0  0
  8  7  1  0  0  0
  7  6  1  0  0  0
  6  5  1  0  0  0
  2  1  1  0  0  0
  1 23  1  0  0  0
 30 32  1  0  0  0
 32 35  1  0  0  0
 39 40  1  0  0  0
 40 41  1  0  0  0
 41 42  1  0  0  0
 42 43  1  0  0  0
 43 44  1  0  0  0
 44 45  1  0  0  0
 45 46  1  0  0  0
 46 47  1  0  0  0
 47 48  2  0  0  0
 48 49  1  0  0  0
 49 50  1  0  0  0
 50 51  1  0  0  0
 51 52  1  0  0  0
 52 53  1  0  0  0
 53 54  1  0  0  0
 54 55  1  0  0  0
 55 56  1  0  0  0
M  CHG 1  26  -1
M  END
> <minimizedAffinity>
-8.74191

> <CNNscore>
0.7100921869

> <CNNaffinity>
7.2129745483

> <CNN_VS>
5.1218767166

> <CNNaffinity_variance>
0.6927458644

$$$$
/media/chris/experiments/cd1a-new-docking/inputs/ligands/7sh4_ligand.pdb


 56 55  0  0  0  0  0  0  0  0999 V2000
  -37.5967   59.7358   63.2143 C   0  0  0  0  0  0  0  0  0  0  0  0
  -37.6520   58.8410   62.0085 C   0  0  0  0  0  0  0  0  0  0  0  0
  -38.6355   59.4644   61.1558 O   0  0  0  0  0  0  0  0  0  0  0  0
  -39.1292   59.9025   59.0194 O   0  0  0  0  0  0  0  0  0  0  0  0
  -38.4729   59.3200   59.8402 C   0  0  0  0  0  0  0  0  0  0  0  0
  -37.2942   58.4422   59.5324 C   0  0  0  0  0  0  0  0  0  0  0  0
  -37.2521   57.9399   58.0990 C   0  0  0  0  0  0  0  0  0  0  0  0
  -36.3109   56.7681   57.9159 C   0  0  0  0  0  0  0  0  0  0  0  0
  -34.8517   57.1538   57.8271 C   0  0  0  0  0  0  0  0  0  0  0  0
  -33.9926   56.4701   58.8714 C   0  0  0  0  0  0  0  0  0  0  0  0
  -34.7819   55.5802   59.8000 C   0  0  0  0  0  0  0  0  0  0  0  0
  -34.8118   56.0879   61.2174 C   0  0  0  0  0  0  0  0  0  0  0  0
  -34.2717   57.4933   61.3631 C   0  0  0  0  0  0  0  0  0  0  0  0
  -33.3636   57.6497   62.5661 C   0  0  0  0  0  0  0  0  0  0  0  0
  -32.0217   58.2765   62.2500 C   0  0  0  0  0  0  0  0  0  0  0  0
  -32.0239   59.7997   62.3101 C   0  0  0  0  0  0  0  0  0  0  0  0
  -30.8960   60.4487   61.5310 C   0  0  0  0  0  0  0  0  0  0  0  0
  -29.7398   60.8933   62.4033 C   0  0  0  0  0  0  0  0  0  0  0  0
  -29.4022   62.3711   62.2625 C   0  0  0  0  0  0  0  0  0  0  0  0
  -30.4342   63.2925   62.8878 C   0  0  0  0  0  0  0  0  0  0  0  0
  -32.6621   63.7753   61.8205 C   0  0  0  0  0  0  0  0  0  0  0  0
  -31.2000   64.1515   61.8995 C   0  0  0  0  0  0  0  0  0  0  0  0
  -36.1819   60.1005   63.5844 C   0  0  0  0  0  0  0  0  0  0  0  0
  -35.8589   61.3761   62.9871 O   0  0  0  0  0  0  0  0  0  0  0  0
  -36.0456   62.7667   63.7573 P   0  0  0  0  0  0  0  0  0  0  0  0
  -36.1717   63.8375   62.7453 O   0  0  0  0  0  0  0  0  0  0  0  0
  -37.1290   62.5992   64.7560 O   0  0  0  0  0  0  0  0  0  0  0  0
  -37.9719   62.4569   64.2976 H   0  0  0  0  0  0  0  0  0  0  0  0
  -34.6810   62.9976   64.5493 O   0  0  0  0  0  0  0  0  0  0  0  0
  -34.4464   64.2448   65.2343 C   0  0  0  0  0  0  0  0  0  0  0  0
  -33.6935   65.0013   67.3798 O   0  0  0  0  0  0  0  0  0  0  0  0
  -34.4457   63.9790   66.7197 C   0  0  0  0  0  0  0  0  0  0  0  0
  -32.7997   65.0384   67.0048 H   0  0  0  0  0  0  0  0  0  0  0  0
  -36.1352   62.5888   67.7353 O   0  0  0  0  0  0  0  0  0  0  0  0
  -35.8413   63.9073   67.2915 C   0  0  0  0  0  0  0  0  0  0  0  0
  -37.0342   62.5629   68.0987 H   0  0  0  0  0  0  0  0  0  0  0  0
  -38.2898   59.0652   64.3188 O   0  0  0  0  0  0  0  0  0  0  0  0
  -38.8973   60.6159   65.8309 O   0  0  0  0  0  0  0  0  0  0  0  0
  -39.1902   59.7934   65.0065 C   0  0  0  0  0  0  0  0  0  0  0  0
  -40.5963   59.4684   64.6076 C   0  0  0  0  0  0  0  0  0  0  0  0
  -41.2586   58.5288   65.6101 C   0  0  0  0  0  0  0  0  0  0  0  0
  -42.0559   59.2421   66.6896 C   0  0  0  0  0  0  0  0  0  0  0  0
  -43.5625   59.0461   66.5650 C   0  0  0  0  0  0  0  0  0  0  0  0
  -43.9710   58.0924   65.4577 C   0  0  0  0  0  0  0  0  0  0  0  0
  -44.9969   57.0347   65.8746 C   0  0  0  0  0  0  0  0  0  0  0  0
  -46.3045   57.5854   66.4476 C   0  0  0  0  0  0  0  0  0  0  0  0
  -47.4965   56.7978   65.9929 C   0  0  0  0  0  0  0  0  0  0  0  0
  -48.6972   57.2721   65.7228 C   0  0  0  0  0  0  0  0  0  0  0  0
  -49.1215   58.7039   65.8132 C   0  0  0  0  0  0  0  0  0  0  0  0
  -50.5960   58.8968   65.4710 C   0  0  0  0  0  0  0  0  0  0  0  0
  -50.8378   59.9093   64.3652 C   0  0  0  0  0  0  0  0  0  0  0  0
  -51.1058   59.2791   63.0093 C   0  0  0  0  0  0  0  0  0  0  0  0
  -49.9708   59.4293   62.0098 C   0  0  0  0  0  0  0  0  0  0  0  0
  -49.0659   58.2091   61.9333 C   0  0  0  0  0  0  0  0  0  0  0  0
  -48.9115   57.6357   60.5386 C   0  0  0  0  0  0  0  0  0  0  0  0
  -50.2282   57.4469   59.8385 C   0  0  0  0  0  0  0  0  0  0  0  0
 21 22  1  0  0  0
  4  5  2  0  0  0
 25 24  1  0  0  0
 25 26  2  0  0  0
 25 27  1  0  0  0
 25 29  1  0  0  0
 22 20  1  0  0  0
  3  5  1  0  0  0
  3  2  1  0  0  0
 20 19  1  0  0  0
 24 23  1  0  0  0
 19 18  1  0  0  0
 18 17  1  0  0  0
 27 28  1  0  0  0
 17 16  1  0  0  0
 29 30  1  0  0  0
 16 15  1  0  0  0
 34 35  1  0  0  0
 34 36  1  0  0  0
 15 14  1  0  0  0
 31 32  1  0  0  0
 31 33  1  0  0  0
 14 13  1  0  0  0
 37  1  1  0  0  0
 37 39  1  0  0  0
 13 12  1  0  0  0
 38 39  2  0  0  0
 12 11  1  0  0  0
 11 10  1  0  0  0
 10  9  1  0  0  0
  9  8  1  0  0  0
  8  7  1  0  0  0
  7  6  1  0  0  0
  6  5  1  0  0  0
  2  1  1  0  0  0
  1 23  1  0  0  0
 30 32  1  0  0  0
 32 35  1  0  0  0
 39 40  1  0  0  0
 40 41  1  0  0  0
 41 42  1  0  0  0
 42 43  1  0  0  0
 43 44  1  0  0  0
 44 45  1  0  0  0
 45 46  1  0  0  0
 46 47  1  0  0  0
 47 48  2  0  0  0
 48 49  1  0  0  0
 49 50  1  0  0  0
 50 51  1  0  0  0
 51 52  1  0  0  0
 52 53  1  0  0  0
 53 54  1  0  0  0
 54 55  1  0  0  0
 55 56  1  0  0  0
M  CHG 1  26  -1
M  END
> <minimizedAffinity>
-8.61623

> <CNNscore>
0.6948885918

> <CNNaffinity>
7.4020791054

> <CNN_VS>
5.1436204910

> <CNNaffinity_variance>
0.6428852677

$$$$
/media/chris/experiments/cd1a-new-docking/inputs/ligands/7sh4_ligand.pdb


 56 55  0  0  0  0  0  0  0  0999 V2000
  -39.2026   60.0051   65.0295 C   0  0  0  0  0  0  0  0  0  0  0  0
  -40.2212   60.1410   66.1257 C   0  0  0  0  0  0  0  0  0  0  0  0
  -41.0089   58.9361   66.0219 O   0  0  0  0  0  0  0  0  0  0  0  0
  -42.5064   59.4582   67.5982 O   0  0  0  0  0  0  0  0  0  0  0  0
  -42.2407   58.9740   66.5312 C   0  0  0  0  0  0  0  0  0  0  0  0
  -43.2499   58.4520   65.5495 C   0  0  0  0  0  0  0  0  0  0  0  0
  -44.0323   57.2475   66.0452 C   0  0  0  0  0  0  0  0  0  0  0  0
  -45.5294   57.4201   65.8980 C   0  0  0  0  0  0  0  0  0  0  0  0
  -46.1238   58.4723   66.8065 C   0  0  0  0  0  0  0  0  0  0  0  0
  -47.1809   59.3168   66.1242 C   0  0  0  0  0  0  0  0  0  0  0  0
  -47.9704   58.5563   65.0869 C   0  0  0  0  0  0  0  0  0  0  0  0
  -49.1463   57.8167   65.6682 C   0  0  0  0  0  0  0  0  0  0  0  0
  -50.4661   58.5239   65.4531 C   0  0  0  0  0  0  0  0  0  0  0  0
  -50.3593   59.6788   64.4780 C   0  0  0  0  0  0  0  0  0  0  0  0
  -51.3781   59.6382   63.3581 C   0  0  0  0  0  0  0  0  0  0  0  0
  -51.1440   58.5163   62.3529 C   0  0  0  0  0  0  0  0  0  0  0  0
  -49.9143   58.7117   61.4868 C   0  0  0  0  0  0  0  0  0  0  0  0
  -49.3673   57.4185   60.9175 C   0  0  0  0  0  0  0  0  0  0  0  0
  -49.4389   57.3419   59.3988 C   0  0  0  0  0  0  0  0  0  0  0  0
  -48.4335   56.3803   58.7908 C   0  0  0  0  0  0  0  0  0  0  0  0
  -46.2278   57.5929   58.7779 C   0  0  0  0  0  0  0  0  0  0  0  0
  -47.3594   57.0363   57.9440 C   0  0  0  0  0  0  0  0  0  0  0  0
  -37.7976   60.2158   65.5328 C   0  0  0  0  0  0  0  0  0  0  0  0
  -37.4036   61.5782   65.2554 O   0  0  0  0  0  0  0  0  0  0  0  0
  -36.2224   61.9502   64.2413 P   0  0  0  0  0  0  0  0  0  0  0  0
  -35.1837   60.9027   64.3441 O   0  0  0  0  0  0  0  0  0  0  0  0
  -36.8238   62.2294   62.9149 O   0  0  0  0  0  0  0  0  0  0  0  0
  -37.2082   61.4143   62.5562 H   0  0  0  0  0  0  0  0  0  0  0  0
  -35.6035   63.3115   64.7948 O   0  0  0  0  0  0  0  0  0  0  0  0
  -36.1979   63.9629   65.9360 C   0  0  0  0  0  0  0  0  0  0  0  0
  -36.1989   62.6077   67.9122 O   0  0  0  0  0  0  0  0  0  0  0  0
  -35.4289   63.5573   67.1693 C   0  0  0  0  0  0  0  0  0  0  0  0
  -37.0674   62.9867   68.1193 H   0  0  0  0  0  0  0  0  0  0  0  0
  -33.2291   63.9797   66.2744 O   0  0  0  0  0  0  0  0  0  0  0  0
  -34.0723   62.9832   66.8380 C   0  0  0  0  0  0  0  0  0  0  0  0
  -32.3638   63.5925   66.0686 H   0  0  0  0  0  0  0  0  0  0  0  0
  -39.5435   60.9516   63.9628 O   0  0  0  0  0  0  0  0  0  0  0  0
  -41.3220   60.0424   62.9281 O   0  0  0  0  0  0  0  0  0  0  0  0
  -40.1956   60.4571   62.8931 C   0  0  0  0  0  0  0  0  0  0  0  0
  -39.3562   60.5035   61.6541 C   0  0  0  0  0  0  0  0  0  0  0  0
  -40.1619   60.1154   60.4184 C   0  0  0  0  0  0  0  0  0  0  0  0
  -39.3151   59.5917   59.2701 C   0  0  0  0  0  0  0  0  0  0  0  0
  -37.8325   59.4807   59.6068 C   0  0  0  0  0  0  0  0  0  0  0  0
  -36.9851   58.9152   58.4823 C   0  0  0  0  0  0  0  0  0  0  0  0
  -37.4911   57.5884   57.9092 C   0  0  0  0  0  0  0  0  0  0  0  0
  -36.4940   56.4292   57.9713 C   0  0  0  0  0  0  0  0  0  0  0  0
  -35.0725   56.9059   57.9631 C   0  0  0  0  0  0  0  0  0  0  0  0
  -34.1420   56.6226   58.8539 C   0  0  0  0  0  0  0  0  0  0  0  0
  -34.3123   55.7603   60.0645 C   0  0  0  0  0  0  0  0  0  0  0  0
  -33.4030   56.1846   61.2141 C   0  0  0  0  0  0  0  0  0  0  0  0
  -33.3784   57.6846   61.4501 C   0  0  0  0  0  0  0  0  0  0  0  0
  -33.5843   58.0769   62.9030 C   0  0  0  0  0  0  0  0  0  0  0  0
  -34.9535   57.7267   63.4618 C   0  0  0  0  0  0  0  0  0  0  0  0
  -36.1014   58.1308   62.5492 C   0  0  0  0  0  0  0  0  0  0  0  0
  -37.4223   57.4643   62.8788 C   0  0  0  0  0  0  0  0  0  0  0  0
  -38.0222   56.7484   61.7011 C   0  0  0  0  0  0  0  0  0  0  0  0
 21 22  1  0  0  0
  4  5  2  0  0  0
 25 24  1  0  0  0
 25 26  2  0  0  0
 25 27  1  0  0  0
 25 29  1  0  0  0
 22 20  1  0  0  0
  3  5  1  0  0  0
  3  2  1  0  0  0
 20 19  1  0  0  0
 24 23  1  0  0  0
 19 18  1  0  0  0
 18 17  1  0  0  0
 27 28  1  0  0  0
 17 16  1  0  0  0
 29 30  1  0  0  0
 16 15  1  0  0  0
 34 35  1  0  0  0
 34 36  1  0  0  0
 15 14  1  0  0  0
 31 32  1  0  0  0
 31 33  1  0  0  0
 14 13  1  0  0  0
 37  1  1  0  0  0
 37 39  1  0  0  0
 13 12  1  0  0  0
 38 39  2  0  0  0
 12 11  1  0  0  0
 11 10  1  0  0  0
 10  9  1  0  0  0
  9  8  1  0  0  0
  8  7  1  0  0  0
  7  6  1  0  0  0
  6  5  1  0  0  0
  2  1  1  0  0  0
  1 23  1  0  0  0
 30 32  1  0  0  0
 32 35  1  0  0  0
 39 40  1  0  0  0
 40 41  1  0  0  0
 41 42  1  0  0  0
 42 43  1  0  0  0
 43 44  1  0  0  0
 44 45  1  0  0  0
 45 46  1  0  0  0
 46 47  1  0  0  0
 47 48  2  0  0  0
 48 49  1  0  0  0
 49 50  1  0  0  0
 50 51  1  0  0  0
 51 52  1  0  0  0
 52 53  1  0  0  0
 53 54  1  0  0  0
 54 55  1  0  0  0
 55 56  1  0  0  0
M  CHG 1  26  -1
M  END
> <minimizedAffinity>
-8.66789

> <CNNscore>
0.6948413849

> <CNNaffinity>
7.7231163979

> <CNN_VS>
5.3663411140

> <CNNaffinity_variance>
0.4909535944

$$$$
/media/chris/experiments/cd1a-new-docking/inputs/ligands/7sh4_ligand.pdb


 56 55  0  0  0  0  0  0  0  0999 V2000
  -39.1134   59.5841   65.0339 C   0  0  0  0  0  0  0  0  0  0  0  0
  -38.7315   58.1436   65.2253 C   0  0  0  0  0  0  0  0  0  0  0  0
  -38.7421   57.5989   63.8888 O   0  0  0  0  0  0  0  0  0  0  0  0
  -36.5717   57.0723   63.9971 O   0  0  0  0  0  0  0  0  0  0  0  0
  -37.5606   57.2938   63.3514 C   0  0  0  0  0  0  0  0  0  0  0  0
  -37.6650   57.1430   61.8611 C   0  0  0  0  0  0  0  0  0  0  0  0
  -38.4032   58.2787   61.1727 C   0  0  0  0  0  0  0  0  0  0  0  0
  -37.5566   58.9837   60.1341 C   0  0  0  0  0  0  0  0  0  0  0  0
  -37.8160   58.5335   58.7143 C   0  0  0  0  0  0  0  0  0  0  0  0
  -36.6205   57.8518   58.0801 C   0  0  0  0  0  0  0  0  0  0  0  0
  -36.7034   56.3456   58.1234 C   0  0  0  0  0  0  0  0  0  0  0  0
  -35.6732   55.7254   59.0299 C   0  0  0  0  0  0  0  0  0  0  0  0
  -34.5474   56.6682   59.3927 C   0  0  0  0  0  0  0  0  0  0  0  0
  -33.9524   56.3729   60.7547 C   0  0  0  0  0  0  0  0  0  0  0  0
  -33.9895   57.5453   61.7126 C   0  0  0  0  0  0  0  0  0  0  0  0
  -32.6127   57.9984   62.1851 C   0  0  0  0  0  0  0  0  0  0  0  0
  -32.4675   59.5032   62.3070 C   0  0  0  0  0  0  0  0  0  0  0  0
  -31.1136   60.0155   61.8599 C   0  0  0  0  0  0  0  0  0  0  0  0
  -30.9913   61.5324   61.9008 C   0  0  0  0  0  0  0  0  0  0  0  0
  -32.1317   62.2145   62.6352 C   0  0  0  0  0  0  0  0  0  0  0  0
  -31.8063   64.6203   61.9705 C   0  0  0  0  0  0  0  0  0  0  0  0
  -32.7190   63.4161   61.9197 C   0  0  0  0  0  0  0  0  0  0  0  0
  -38.0663   60.5241   65.5742 C   0  0  0  0  0  0  0  0  0  0  0  0
  -37.7266   61.4820   64.5468 O   0  0  0  0  0  0  0  0  0  0  0  0
  -36.3169   61.4778   63.7889 P   0  0  0  0  0  0  0  0  0  0  0  0
  -35.6599   60.1792   64.0511 O   0  0  0  0  0  0  0  0  0  0  0  0
  -36.5478   61.8883   62.3828 O   0  0  0  0  0  0  0  0  0  0  0  0
  -37.0725   61.2097   61.9299 H   0  0  0  0  0  0  0  0  0  0  0  0
  -35.4536   62.6167   64.4961 O   0  0  0  0  0  0  0  0  0  0  0  0
  -35.9979   63.9432   64.6512 C   0  0  0  0  0  0  0  0  0  0  0  0
  -37.0091   63.9619   66.8237 O   0  0  0  0  0  0  0  0  0  0  0  0
  -35.8427   64.3553   66.0946 C   0  0  0  0  0  0  0  0  0  0  0  0
  -37.7961   64.3457   66.4063 H   0  0  0  0  0  0  0  0  0  0  0  0
  -34.0502   64.6689   67.6778 O   0  0  0  0  0  0  0  0  0  0  0  0
  -34.6069   63.7659   66.7310 C   0  0  0  0  0  0  0  0  0  0  0  0
  -33.2586   64.2733   68.0752 H   0  0  0  0  0  0  0  0  0  0  0  0
  -40.4173   59.8040   65.6675 O   0  0  0  0  0  0  0  0  0  0  0  0
  -41.3337   61.0610   64.0425 O   0  0  0  0  0  0  0  0  0  0  0  0
  -41.4278   60.1923   64.8662 C   0  0  0  0  0  0  0  0  0  0  0  0
  -42.6744   59.4002   65.1122 C   0  0  0  0  0  0  0  0  0  0  0  0
  -42.4428   58.2991   66.1421 C   0  0  0  0  0  0  0  0  0  0  0  0
  -43.3307   57.0804   65.9517 C   0  0  0  0  0  0  0  0  0  0  0  0
  -44.7612   57.4246   65.5526 C   0  0  0  0  0  0  0  0  0  0  0  0
  -45.8156   56.8498   66.4800 C   0  0  0  0  0  0  0  0  0  0  0  0
  -47.2362   56.8524   65.9081 C   0  0  0  0  0  0  0  0  0  0  0  0
  -47.9463   58.2076   65.9333 C   0  0  0  0  0  0  0  0  0  0  0  0
  -49.4264   58.0736   65.7350 C   0  0  0  0  0  0  0  0  0  0  0  0
  -50.1426   58.6093   64.7657 C   0  0  0  0  0  0  0  0  0  0  0  0
  -49.6235   59.4664   63.6548 C   0  0  0  0  0  0  0  0  0  0  0  0
  -49.6214   58.7411   62.3122 C   0  0  0  0  0  0  0  0  0  0  0  0
  -50.8598   57.8948   62.0747 C   0  0  0  0  0  0  0  0  0  0  0  0
  -50.8611   57.1782   60.7353 C   0  0  0  0  0  0  0  0  0  0  0  0
  -50.0344   57.8583   59.6566 C   0  0  0  0  0  0  0  0  0  0  0  0
  -49.0017   56.9425   59.0175 C   0  0  0  0  0  0  0  0  0  0  0  0
  -47.5645   57.3343   59.2979 C   0  0  0  0  0  0  0  0  0  0  0  0
  -46.8551   57.8543   58.0790 C   0  0  0  0  0  0  0  0  0  0  0  0
 21 22  1  0  0  0
  4  5  2  0  0  0
 25 24  1  0  0  0
 25 26  2  0  0  0
 25 27  1  0  0  0
 25 29  1  0  0  0
 22 20  1  0  0  0
  3  5  1  0  0  0
  3  2  1  0  0  0
 20 19  1  0  0  0
 24 23  1  0  0  0
 19 18  1  0  0  0
 18 17  1  0  0  0
 27 28  1  0  0  0
 17 16  1  0  0  0
 29 30  1  0  0  0
 16 15  1  0  0  0
 34 35  1  0  0  0
 34 36  1  0  0  0
 15 14  1  0  0  0
 31 32  1  0  0  0
 31 33  1  0  0  0
 14 13  1  0  0  0
 37  1  1  0  0  0
 37 39  1  0  0  0
 13 12  1  0  0  0
 38 39  2  0  0  0
 12 11  1  0  0  0
 11 10  1  0  0  0
 10  9  1  0  0  0
  9  8  1  0  0  0
  8  7  1  0  0  0
  7  6  1  0  0  0
  6  5  1  0  0  0
  2  1  1  0  0  0
  1 23  1  0  0  0
 30 32  1  0  0  0
 32 35  1  0  0  0
 39 40  1  0  0  0
 40 41  1  0  0  0
 41 42  1  0  0  0
 42 43  1  0  0  0
 43 44  1  0  0  0
 44 45  1  0  0  0
 45 46  1  0  0  0
 46 47  1  0  0  0
 47 48  2  0  0  0
 48 49  1  0  0  0
 49 50  1  0  0  0
 50 51  1  0  0  0
 51 52  1  0  0  0
 52 53  1  0  0  0
 53 54  1  0  0  0
 54 55  1  0  0  0
 55 56  1  0  0  0
M  CHG 1  26  -1
M  END
> <minimizedAffinity>
-8.89767

> <CNNscore>
0.6558508873

> <CNNaffinity>
7.5176558495

> <CNN_VS>
4.9304614067

> <CNNaffinity_variance>
0.6808538437

$$$$
/media/chris/experiments/cd1a-new-docking/inputs/ligands/7sh4_ligand.pdb


 56 55  0  0  0  0  0  0  0  0999 V2000
  -38.0682   59.3681   62.4862 C   0  0  0  0  0  0  0  0  0  0  0  0
  -39.2431   60.2602   62.7714 C   0  0  0  0  0  0  0  0  0  0  0  0
  -39.8802   59.6450   63.9110 O   0  0  0  0  0  0  0  0  0  0  0  0
  -41.3511   61.3226   64.0600 O   0  0  0  0  0  0  0  0  0  0  0  0
  -41.0047   60.2098   64.3522 C   0  0  0  0  0  0  0  0  0  0  0  0
  -41.8254   59.2356   65.1473 C   0  0  0  0  0  0  0  0  0  0  0  0
  -43.3249   59.3820   64.9508 C   0  0  0  0  0  0  0  0  0  0  0  0
  -44.1243   58.8472   66.1202 C   0  0  0  0  0  0  0  0  0  0  0  0
  -45.1319   57.7836   65.7468 C   0  0  0  0  0  0  0  0  0  0  0  0
  -45.8943   58.1079   64.4781 C   0  0  0  0  0  0  0  0  0  0  0  0
  -47.3898   57.9795   64.6345 C   0  0  0  0  0  0  0  0  0  0  0  0
  -48.0413   59.2464   65.1225 C   0  0  0  0  0  0  0  0  0  0  0  0
  -49.2999   59.6049   64.3639 C   0  0  0  0  0  0  0  0  0  0  0  0
  -49.1046   59.5817   62.8614 C   0  0  0  0  0  0  0  0  0  0  0  0
  -50.3876   59.4165   62.0739 C   0  0  0  0  0  0  0  0  0  0  0  0
  -50.6979   57.9721   61.6980 C   0  0  0  0  0  0  0  0  0  0  0  0
  -49.5021   57.2019   61.1716 C   0  0  0  0  0  0  0  0  0  0  0  0
  -49.0032   57.7061   59.8328 C   0  0  0  0  0  0  0  0  0  0  0  0
  -47.6218   57.1856   59.4610 C   0  0  0  0  0  0  0  0  0  0  0  0
  -47.1780   57.5834   58.0646 C   0  0  0  0  0  0  0  0  0  0  0  0
  -47.5286   55.2155   57.2865 C   0  0  0  0  0  0  0  0  0  0  0  0
  -47.6872   56.6822   56.9558 C   0  0  0  0  0  0  0  0  0  0  0  0
  -36.7555   60.0889   62.6568 C   0  0  0  0  0  0  0  0  0  0  0  0
  -36.9687   61.5014   62.4384 O   0  0  0  0  0  0  0  0  0  0  0  0
  -36.0638   62.6310   63.1218 P   0  0  0  0  0  0  0  0  0  0  0  0
  -34.7242   62.0563   63.3707 O   0  0  0  0  0  0  0  0  0  0  0  0
  -36.1694   63.8639   62.3046 O   0  0  0  0  0  0  0  0  0  0  0  0
  -35.7612   63.7130   61.4377 H   0  0  0  0  0  0  0  0  0  0  0  0
  -36.7444   62.9201   64.5346 O   0  0  0  0  0  0  0  0  0  0  0  0
  -35.9234   63.1852   65.6902 C   0  0  0  0  0  0  0  0  0  0  0  0
  -36.4238   62.3867   67.8935 O   0  0  0  0  0  0  0  0  0  0  0  0
  -35.9753   61.9803   66.5972 C   0  0  0  0  0  0  0  0  0  0  0  0
  -35.8434   63.0863   68.2319 H   0  0  0  0  0  0  0  0  0  0  0  0
  -38.2373   61.2543   66.1796 O   0  0  0  0  0  0  0  0  0  0  0  0
  -36.8684   60.8905   66.0547 C   0  0  0  0  0  0  0  0  0  0  0  0
  -38.7944   60.5430   65.8264 H   0  0  0  0  0  0  0  0  0  0  0  0
  -38.2172   58.8275   61.1315 O   0  0  0  0  0  0  0  0  0  0  0  0
  -37.9917   56.6722   61.7350 O   0  0  0  0  0  0  0  0  0  0  0  0
  -37.8267   57.5534   60.9361 C   0  0  0  0  0  0  0  0  0  0  0  0
  -37.1802   57.3640   59.5989 C   0  0  0  0  0  0  0  0  0  0  0  0
  -36.0574   56.3334   59.6619 C   0  0  0  0  0  0  0  0  0  0  0  0
  -34.7311   56.8958   60.1463 C   0  0  0  0  0  0  0  0  0  0  0  0
  -34.2147   56.2312   61.4173 C   0  0  0  0  0  0  0  0  0  0  0  0
  -33.1138   57.0074   62.1158 C   0  0  0  0  0  0  0  0  0  0  0  0
  -32.9944   58.4716   61.6835 C   0  0  0  0  0  0  0  0  0  0  0  0
  -31.9988   59.3096   62.4886 C   0  0  0  0  0  0  0  0  0  0  0  0
  -30.6819   59.4514   61.7860 C   0  0  0  0  0  0  0  0  0  0  0  0
  -29.8390   60.4605   61.8896 C   0  0  0  0  0  0  0  0  0  0  0  0
  -30.0223   61.6805   62.7361 C   0  0  0  0  0  0  0  0  0  0  0  0
  -30.8880   62.7367   62.0553 C   0  0  0  0  0  0  0  0  0  0  0  0
  -30.7298   64.1271   62.6452 C   0  0  0  0  0  0  0  0  0  0  0  0
  -30.8264   64.1612   64.1608 C   0  0  0  0  0  0  0  0  0  0  0  0
  -32.2199   63.9018   64.7089 C   0  0  0  0  0  0  0  0  0  0  0  0
  -33.1092   65.1359   64.7111 C   0  0  0  0  0  0  0  0  0  0  0  0
  -32.4900   66.3476   65.3789 C   0  0  0  0  0  0  0  0  0  0  0  0
  -32.6863   66.3540   66.8691 C   0  0  0  0  0  0  0  0  0  0  0  0
 21 22  1  0  0  0
  4  5  2  0  0  0
 25 24  1  0  0  0
 25 26  2  0  0  0
 25 27  1  0  0  0
 25 29  1  0  0  0
 22 20  1  0  0  0
  3  5  1  0  0  0
  3  2  1  0  0  0
 20 19  1  0  0  0
 24 23  1  0  0  0
 19 18  1  0  0  0
 18 17  1  0  0  0
 27 28  1  0  0  0
 17 16  1  0  0  0
 29 30  1  0  0  0
 16 15  1  0  0  0
 34 35  1  0  0  0
 34 36  1  0  0  0
 15 14  1  0  0  0
 31 32  1  0  0  0
 31 33  1  0  0  0
 14 13  1  0  0  0
 37  1  1  0  0  0
 37 39  1  0  0  0
 13 12  1  0  0  0
 38 39  2  0  0  0
 12 11  1  0  0  0
 11 10  1  0  0  0
 10  9  1  0  0  0
  9  8  1  0  0  0
  8  7  1  0  0  0
  7  6  1  0  0  0
  6  5  1  0  0  0
  2  1  1  0  0  0
  1 23  1  0  0  0
 30 32  1  0  0  0
 32 35  1  0  0  0
 39 40  1  0  0  0
 40 41  1  0  0  0
 41 42  1  0  0  0
 42 43  1  0  0  0
 43 44  1  0  0  0
 44 45  1  0  0  0
 45 46  1  0  0  0
 46 47  1  0  0  0
 47 48  2  0  0  0
 48 49  1  0  0  0
 49 50  1  0  0  0
 50 51  1  0  0  0
 51 52  1  0  0  0
 52 53  1  0  0  0
 53 54  1  0  0  0
 54 55  1  0  0  0
 55 56  1  0  0  0
M  CHG 1  26  -1
M  END
> <minimizedAffinity>
-8.31108

> <CNNscore>
0.6098530889

> <CNNaffinity>
7.0651559830

> <CNN_VS>
4.3087072372

> <CNNaffinity_variance>
0.2652422786

$$$$
