/media/chris/experiments/cd1a-new-docking/inputs/ligands/7sh4_ligand.pdb


 56 55  0  0  0  0  0  0  0  0999 V2000
  -39.5093   60.6123   63.2406 C   0  0  0  0  0  0  0  0  0  0  0  0
  -40.3841   60.1972   62.0917 C   0  0  0  0  0  0  0  0  0  0  0  0
  -39.4996   59.4470   61.2326 O   0  0  0  0  0  0  0  0  0  0  0  0
  -40.4152   60.2389   59.3529 O   0  0  0  0  0  0  0  0  0  0  0  0
  -39.4696   59.7940   59.9456 C   0  0  0  0  0  0  0  0  0  0  0  0
  -38.0824   59.6738   59.3834 C   0  0  0  0  0  0  0  0  0  0  0  0
  -37.7289   58.2787   58.8964 C   0  0  0  0  0  0  0  0  0  0  0  0
  -36.5868   58.2765   57.9023 C   0  0  0  0  0  0  0  0  0  0  0  0
  -35.6144   57.1325   58.0788 C   0  0  0  0  0  0  0  0  0  0  0  0
  -36.2097   55.9580   58.8287 C   0  0  0  0  0  0  0  0  0  0  0  0
  -35.3647   55.5084   59.9955 C   0  0  0  0  0  0  0  0  0  0  0  0
  -34.1950   56.4191   60.2604 C   0  0  0  0  0  0  0  0  0  0  0  0
  -33.8454   56.5362   61.7274 C   0  0  0  0  0  0  0  0  0  0  0  0
  -32.4964   57.1868   61.9575 C   0  0  0  0  0  0  0  0  0  0  0  0
  -32.5728   58.6520   62.3323 C   0  0  0  0  0  0  0  0  0  0  0  0
  -31.5538   59.5265   61.6104 C   0  0  0  0  0  0  0  0  0  0  0  0
  -31.1145   60.7428   62.4027 C   0  0  0  0  0  0  0  0  0  0  0  0
  -32.0081   61.9490   62.1988 C   0  0  0  0  0  0  0  0  0  0  0  0
  -31.3977   63.2519   62.6962 C   0  0  0  0  0  0  0  0  0  0  0  0
  -32.4284   64.2858   63.1129 C   0  0  0  0  0  0  0  0  0  0  0  0
  -32.5951   66.5156   64.2687 C   0  0  0  0  0  0  0  0  0  0  0  0
  -31.9050   65.7073   63.1936 C   0  0  0  0  0  0  0  0  0  0  0  0
  -38.0695   60.7753   62.8259 C   0  0  0  0  0  0  0  0  0  0  0  0
  -37.3384   61.3854   63.9130 O   0  0  0  0  0  0  0  0  0  0  0  0
  -35.8274   60.9955   64.2687 P   0  0  0  0  0  0  0  0  0  0  0  0
  -35.8197   60.3665   65.6070 O   0  0  0  0  0  0  0  0  0  0  0  0
  -35.2636   60.2408   63.1237 O   0  0  0  0  0  0  0  0  0  0  0  0
  -35.7233   59.3909   63.0388 H   0  0  0  0  0  0  0  0  0  0  0  0
  -35.0469   62.3821   64.3734 O   0  0  0  0  0  0  0  0  0  0  0  0
  -34.4673   62.7907   65.6293 C   0  0  0  0  0  0  0  0  0  0  0  0
  -35.7743   64.6710   64.9231 O   0  0  0  0  0  0  0  0  0  0  0  0
  -35.1090   64.0904   66.0489 C   0  0  0  0  0  0  0  0  0  0  0  0
  -35.1422   64.7822   64.1959 H   0  0  0  0  0  0  0  0  0  0  0  0
  -36.0513   62.5703   67.6674 O   0  0  0  0  0  0  0  0  0  0  0  0
  -36.0793   63.9099   67.1915 C   0  0  0  0  0  0  0  0  0  0  0  0
  -36.6800   62.4742   68.3998 H   0  0  0  0  0  0  0  0  0  0  0  0
  -39.6553   59.6229   64.3129 O   0  0  0  0  0  0  0  0  0  0  0  0
  -40.5986   60.9180   65.8919 O   0  0  0  0  0  0  0  0  0  0  0  0
  -40.5630   59.8907   65.2713 C   0  0  0  0  0  0  0  0  0  0  0  0
  -41.5314   58.7639   65.4567 C   0  0  0  0  0  0  0  0  0  0  0  0
  -42.9378   59.2778   65.7477 C   0  0  0  0  0  0  0  0  0  0  0  0
  -44.0428   58.3270   65.3175 C   0  0  0  0  0  0  0  0  0  0  0  0
  -45.3414   58.5099   66.0946 C   0  0  0  0  0  0  0  0  0  0  0  0
  -46.2667   59.5616   65.5112 C   0  0  0  0  0  0  0  0  0  0  0  0
  -47.7543   59.3235   65.7853 C   0  0  0  0  0  0  0  0  0  0  0  0
  -48.5444   58.7266   64.6187 C   0  0  0  0  0  0  0  0  0  0  0  0
  -48.8584   59.7486   63.5676 C   0  0  0  0  0  0  0  0  0  0  0  0
  -49.8888   59.7407   62.7444 C   0  0  0  0  0  0  0  0  0  0  0  0
  -50.9664   58.7043   62.6892 C   0  0  0  0  0  0  0  0  0  0  0  0
  -50.7402   57.6877   61.5740 C   0  0  0  0  0  0  0  0  0  0  0  0
  -49.8891   58.2150   60.4321 C   0  0  0  0  0  0  0  0  0  0  0  0
  -48.6341   57.3978   60.1791 C   0  0  0  0  0  0  0  0  0  0  0  0
  -48.6214   56.6577   58.8519 C   0  0  0  0  0  0  0  0  0  0  0  0
  -47.4165   56.9894   57.9849 C   0  0  0  0  0  0  0  0  0  0  0  0
  -46.3144   57.7355   58.7105 C   0  0  0  0  0  0  0  0  0  0  0  0
  -45.1572   58.0787   57.8147 C   0  0  0  0  0  0  0  0  0  0  0  0
 21 22  1  0  0  0
  4  5  2  0  0  0
 25 24  1  0  0  0
 25 26  2  0  0  0
 25 27  1  0  0  0
 25 29  1  0  0  0
 22 20  1  0  0  0
  3  5  1  0  0  0
  3  2  1  0  0  0
 20 19  1  0  0  0
 24 23  1  0  0  0
 19 18  1  0  0  0
 18 17  1  0  0  0
 27 28  1  0  0  0
 17 16  1  0  0  0
 29 30  1  0  0  0
 16 15  1  0  0  0
 34 35  1  0  0  0
 34 36  1  0  0  0
 15 14  1  0  0  0
 31 32  1  0  0  0
 31 33  1  0  0  0
 14 13  1  0  0  0
 37  1  1  0  0  0
 37 39  1  0  0  0
 13 12  1  0  0  0
 38 39  2  0  0  0
 12 11  1  0  0  0
 11 10  1  0  0  0
 10  9  1  0  0  0
  9  8  1  0  0  0
  8  7  1  0  0  0
  7  6  1  0  0  0
  6  5  1  0  0  0
  2  1  1  0  0  0
  1 23  1  0  0  0
 30 32  1  0  0  0
 32 35  1  0  0  0
 39 40  1  0  0  0
 40 41  1  0  0  0
 41 42  1  0  0  0
 42 43  1  0  0  0
 43 44  1  0  0  0
 44 45  1  0  0  0
 45 46  1  0  0  0
 46 47  1  0  0  0
 47 48  2  0  0  0
 48 49  1  0  0  0
 49 50  1  0  0  0
 50 51  1  0  0  0
 51 52  1  0  0  0
 52 53  1  0  0  0
 53 54  1  0  0  0
 54 55  1  0  0  0
 55 56  1  0  0  0
M  CHG 1  26  -1
M  END
> <minimizedAffinity>
-8.46543

> <CNNscore>
0.7632516026

> <CNNaffinity>
7.5362749100

> <CNN_VS>
5.7520737648

> <CNNaffinity_variance>
0.5362950563

$$$$
/media/chris/experiments/cd1a-new-docking/inputs/ligands/7sh4_ligand.pdb


 56 55  0  0  0  0  0  0  0  0999 V2000
  -38.4317   60.3603   62.2853 C   0  0  0  0  0  0  0  0  0  0  0  0
  -39.9149   60.5914   62.3520 C   0  0  0  0  0  0  0  0  0  0  0  0
  -40.3741   59.6328   63.3284 O   0  0  0  0  0  0  0  0  0  0  0  0
  -41.0787   61.2789   64.6674 O   0  0  0  0  0  0  0  0  0  0  0  0
  -41.0373   60.1129   64.3808 C   0  0  0  0  0  0  0  0  0  0  0  0
  -41.8154   59.0303   65.0718 C   0  0  0  0  0  0  0  0  0  0  0  0
  -43.2786   59.3684   65.3024 C   0  0  0  0  0  0  0  0  0  0  0  0
  -43.8833   58.5983   66.4574 C   0  0  0  0  0  0  0  0  0  0  0  0
  -45.3803   58.4107   66.3604 C   0  0  0  0  0  0  0  0  0  0  0  0
  -45.8004   57.6100   65.1444 C   0  0  0  0  0  0  0  0  0  0  0  0
  -46.8918   58.2760   64.3427 C   0  0  0  0  0  0  0  0  0  0  0  0
  -47.4415   59.5098   65.0085 C   0  0  0  0  0  0  0  0  0  0  0  0
  -48.9110   59.7375   64.7311 C   0  0  0  0  0  0  0  0  0  0  0  0
  -49.6564   58.4524   64.4328 C   0  0  0  0  0  0  0  0  0  0  0  0
  -50.8405   58.6259   63.5050 C   0  0  0  0  0  0  0  0  0  0  0  0
  -50.4635   58.6828   62.0289 C   0  0  0  0  0  0  0  0  0  0  0  0
  -50.9612   57.5006   61.2199 C   0  0  0  0  0  0  0  0  0  0  0  0
  -50.1201   57.2140   59.9928 C   0  0  0  0  0  0  0  0  0  0  0  0
  -48.6295   57.4352   60.2094 C   0  0  0  0  0  0  0  0  0  0  0  0
  -47.7522   56.6106   59.2844 C   0  0  0  0  0  0  0  0  0  0  0  0
  -47.4136   55.8214   56.9184 C   0  0  0  0  0  0  0  0  0  0  0  0
  -47.8952   56.9425   57.8111 C   0  0  0  0  0  0  0  0  0  0  0  0
  -37.6790   61.2284   63.2608 C   0  0  0  0  0  0  0  0  0  0  0  0
  -36.6481   61.9456   62.5458 O   0  0  0  0  0  0  0  0  0  0  0  0
  -35.5947   62.9055   63.2743 P   0  0  0  0  0  0  0  0  0  0  0  0
  -34.2960   62.7706   62.5799 O   0  0  0  0  0  0  0  0  0  0  0  0
  -36.2026   64.2526   63.3926 O   0  0  0  0  0  0  0  0  0  0  0  0
  -36.3140   64.6360   62.5086 H   0  0  0  0  0  0  0  0  0  0  0  0
  -35.4291   62.3118   64.7449 O   0  0  0  0  0  0  0  0  0  0  0  0
  -34.2305   62.5807   65.5008 C   0  0  0  0  0  0  0  0  0  0  0  0
  -34.2475   64.9567   65.8115 O   0  0  0  0  0  0  0  0  0  0  0  0
  -34.5163   63.7101   66.4599 C   0  0  0  0  0  0  0  0  0  0  0  0
  -33.3334   64.9621   65.4872 H   0  0  0  0  0  0  0  0  0  0  0  0
  -36.1592   62.5347   67.7781 O   0  0  0  0  0  0  0  0  0  0  0  0
  -35.9367   63.6843   66.9715 C   0  0  0  0  0  0  0  0  0  0  0  0
  -37.0753   62.5358   68.0968 H   0  0  0  0  0  0  0  0  0  0  0  0
  -37.9907   60.5879   60.9056 O   0  0  0  0  0  0  0  0  0  0  0  0
  -39.1573   60.2225   59.0173 O   0  0  0  0  0  0  0  0  0  0  0  0
  -38.5333   59.8042   59.9540 C   0  0  0  0  0  0  0  0  0  0  0  0
  -38.2498   58.3537   60.1936 C   0  0  0  0  0  0  0  0  0  0  0  0
  -36.8422   57.9772   59.7422 C   0  0  0  0  0  0  0  0  0  0  0  0
  -36.6951   57.8362   58.2360 C   0  0  0  0  0  0  0  0  0  0  0  0
  -35.8168   56.6631   57.8164 C   0  0  0  0  0  0  0  0  0  0  0  0
  -34.3310   56.9064   58.0046 C   0  0  0  0  0  0  0  0  0  0  0  0
  -33.6730   56.0314   59.0753 C   0  0  0  0  0  0  0  0  0  0  0  0
  -34.2461   56.1861   60.4857 C   0  0  0  0  0  0  0  0  0  0  0  0
  -33.1855   56.0847   61.5406 C   0  0  0  0  0  0  0  0  0  0  0  0
  -32.4562   57.0728   62.0215 C   0  0  0  0  0  0  0  0  0  0  0  0
  -32.5374   58.5097   61.6129 C   0  0  0  0  0  0  0  0  0  0  0  0
  -32.9927   59.4148   62.7539 C   0  0  0  0  0  0  0  0  0  0  0  0
  -34.4463   59.2165   63.1462 C   0  0  0  0  0  0  0  0  0  0  0  0
  -34.6279   58.6043   64.5244 C   0  0  0  0  0  0  0  0  0  0  0  0
  -35.5451   57.3930   64.5595 C   0  0  0  0  0  0  0  0  0  0  0  0
  -36.4696   57.2982   63.3554 C   0  0  0  0  0  0  0  0  0  0  0  0
  -37.9452   57.3456   63.6988 C   0  0  0  0  0  0  0  0  0  0  0  0
  -38.1980   57.7574   65.1223 C   0  0  0  0  0  0  0  0  0  0  0  0
 21 22  1  0  0  0
  4  5  2  0  0  0
 25 24  1  0  0  0
 25 26  2  0  0  0
 25 27  1  0  0  0
 25 29  1  0  0  0
 22 20  1  0  0  0
  3  5  1  0  0  0
  3  2  1  0  0  0
 20 19  1  0  0  0
 24 23  1  0  0  0
 19 18  1  0  0  0
 18 17  1  0  0  0
 27 28  1  0  0  0
 17 16  1  0  0  0
 29 30  1  0  0  0
 16 15  1  0  0  0
 34 35  1  0  0  0
 34 36  1  0  0  0
 15 14  1  0  0  0
 31 32  1  0  0  0
 31 33  1  0  0  0
 14 13  1  0  0  0
 37  1  1  0  0  0
 37 39  1  0  0  0
 13 12  1  0  0  0
 38 39  2  0  0  0
 12 11  1  0  0  0
 11 10  1  0  0  0
 10  9  1  0  0  0
  9  8  1  0  0  0
  8  7  1  0  0  0
  7  6  1  0  0  0
  6  5  1  0  0  0
  2  1  1  0  0  0
  1 23  1  0  0  0
 30 32  1  0  0  0
 32 35  1  0  0  0
 39 40  1  0  0  0
 40 41  1  0  0  0
 41 42  1  0  0  0
 42 43  1  0  0  0
 43 44  1  0  0  0
 44 45  1  0  0  0
 45 46  1  0  0  0
 46 47  1  0  0  0
 47 48  2  0  0  0
 48 49  1  0  0  0
 49 50  1  0  0  0
 50 51  1  0  0  0
 51 52  1  0  0  0
 52 53  1  0  0  0
 53 54  1  0  0  0
 54 55  1  0  0  0
 55 56  1  0  0  0
M  CHG 1  26  -1
M  END
> <minimizedAffinity>
-8.83396

> <CNNscore>
0.6965565085

> <CNNaffinity>
7.6809358597

> <CNN_VS>
5.3502058983

> <CNNaffinity_variance>
0.7018854022

$$$$
/media/chris/experiments/cd1a-new-docking/inputs/ligands/7sh4_ligand.pdb


 56 55  0  0  0  0  0  0  0  0999 V2000
  -39.0349   60.1594   63.1019 C   0  0  0  0  0  0  0  0  0  0  0  0
  -39.4728   60.2659   61.6685 C   0  0  0  0  0  0  0  0  0  0  0  0
  -38.7365   59.2200   60.9998 O   0  0  0  0  0  0  0  0  0  0  0  0
  -39.2111   60.0515   58.9794 O   0  0  0  0  0  0  0  0  0  0  0  0
  -38.5227   59.3726   59.6926 C   0  0  0  0  0  0  0  0  0  0  0  0
  -37.2525   58.6938   59.2676 C   0  0  0  0  0  0  0  0  0  0  0  0
  -37.4651   57.4776   58.3821 C   0  0  0  0  0  0  0  0  0  0  0  0
  -36.1761   56.9563   57.7827 C   0  0  0  0  0  0  0  0  0  0  0  0
  -34.9945   56.9960   58.7249 C   0  0  0  0  0  0  0  0  0  0  0  0
  -34.9757   55.8383   59.7024 C   0  0  0  0  0  0  0  0  0  0  0  0
  -34.5416   56.2401   61.0907 C   0  0  0  0  0  0  0  0  0  0  0  0
  -33.0823   56.6033   61.1689 C   0  0  0  0  0  0  0  0  0  0  0  0
  -32.7203   57.3684   62.4226 C   0  0  0  0  0  0  0  0  0  0  0  0
  -32.5831   58.8579   62.1802 C   0  0  0  0  0  0  0  0  0  0  0  0
  -31.1620   59.3716   62.2774 C   0  0  0  0  0  0  0  0  0  0  0  0
  -30.9297   60.6848   61.5387 C   0  0  0  0  0  0  0  0  0  0  0  0
  -31.0558   61.9157   62.4155 C   0  0  0  0  0  0  0  0  0  0  0  0
  -32.0977   62.9001   61.9249 C   0  0  0  0  0  0  0  0  0  0  0  0
  -31.5785   64.3256   61.7979 C   0  0  0  0  0  0  0  0  0  0  0  0
  -31.2572   64.9763   63.1315 C   0  0  0  0  0  0  0  0  0  0  0  0
  -31.9719   65.0286   65.5444 C   0  0  0  0  0  0  0  0  0  0  0  0
  -32.4217   65.0453   64.1011 C   0  0  0  0  0  0  0  0  0  0  0  0
  -37.5512   60.3738   63.2581 C   0  0  0  0  0  0  0  0  0  0  0  0
  -37.2800   61.7928   63.2236 O   0  0  0  0  0  0  0  0  0  0  0  0
  -35.8194   62.3906   62.9573 P   0  0  0  0  0  0  0  0  0  0  0  0
  -34.8451   61.2831   63.0632 O   0  0  0  0  0  0  0  0  0  0  0  0
  -35.8656   63.1812   61.7038 O   0  0  0  0  0  0  0  0  0  0  0  0
  -36.0292   62.5885   60.9535 H   0  0  0  0  0  0  0  0  0  0  0  0
  -35.5494   63.3989   64.1628 O   0  0  0  0  0  0  0  0  0  0  0  0
  -35.6641   62.9412   65.5257 C   0  0  0  0  0  0  0  0  0  0  0  0
  -37.0620   64.2076   67.0037 O   0  0  0  0  0  0  0  0  0  0  0  0
  -35.7540   64.1482   66.4268 C   0  0  0  0  0  0  0  0  0  0  0  0
  -37.7268   64.2162   66.2975 H   0  0  0  0  0  0  0  0  0  0  0  0
  -34.1596   62.8301   67.6673 O   0  0  0  0  0  0  0  0  0  0  0  0
  -34.7055   64.1340   67.5131 C   0  0  0  0  0  0  0  0  0  0  0  0
  -33.4892   62.8411   68.3682 H   0  0  0  0  0  0  0  0  0  0  0  0
  -39.4500   58.8502   63.6152 O   0  0  0  0  0  0  0  0  0  0  0  0
  -38.4613   57.9047   65.4009 O   0  0  0  0  0  0  0  0  0  0  0  0
  -39.2936   58.6344   64.9355 C   0  0  0  0  0  0  0  0  0  0  0  0
  -40.2676   59.4258   65.7520 C   0  0  0  0  0  0  0  0  0  0  0  0
  -41.7082   59.0384   65.4339 C   0  0  0  0  0  0  0  0  0  0  0  0
  -42.4653   58.4561   66.6162 C   0  0  0  0  0  0  0  0  0  0  0  0
  -43.0073   57.0542   66.3624 C   0  0  0  0  0  0  0  0  0  0  0  0
  -44.5095   57.0016   66.1548 C   0  0  0  0  0  0  0  0  0  0  0  0
  -45.0188   57.8346   64.9751 C   0  0  0  0  0  0  0  0  0  0  0  0
  -45.7212   59.1401   65.3545 C   0  0  0  0  0  0  0  0  0  0  0  0
  -46.7596   58.9349   66.4164 C   0  0  0  0  0  0  0  0  0  0  0  0
  -47.9210   58.3261   66.2749 C   0  0  0  0  0  0  0  0  0  0  0  0
  -48.4462   57.7081   65.0176 C   0  0  0  0  0  0  0  0  0  0  0  0
  -49.0832   58.7351   64.0859 C   0  0  0  0  0  0  0  0  0  0  0  0
  -49.0021   58.3582   62.6171 C   0  0  0  0  0  0  0  0  0  0  0  0
  -50.3562   58.2686   61.9348 C   0  0  0  0  0  0  0  0  0  0  0  0
  -50.4858   57.1273   60.9398 C   0  0  0  0  0  0  0  0  0  0  0  0
  -50.2015   57.5404   59.5038 C   0  0  0  0  0  0  0  0  0  0  0  0
  -48.8186   57.1638   59.0103 C   0  0  0  0  0  0  0  0  0  0  0  0
  -48.4881   55.7178   59.2539 C   0  0  0  0  0  0  0  0  0  0  0  0
 21 22  1  0  0  0
  4  5  2  0  0  0
 25 24  1  0  0  0
 25 26  2  0  0  0
 25 27  1  0  0  0
 25 29  1  0  0  0
 22 20  1  0  0  0
  3  5  1  0  0  0
  3  2  1  0  0  0
 20 19  1  0  0  0
 24 23  1  0  0  0
 19 18  1  0  0  0
 18 17  1  0  0  0
 27 28  1  0  0  0
 17 16  1  0  0  0
 29 30  1  0  0  0
 16 15  1  0  0  0
 34 35  1  0  0  0
 34 36  1  0  0  0
 15 14  1  0  0  0
 31 32  1  0  0  0
 31 33  1  0  0  0
 14 13  1  0  0  0
 37  1  1  0  0  0
 37 39  1  0  0  0
 13 12  1  0  0  0
 38 39  2  0  0  0
 12 11  1  0  0  0
 11 10  1  0  0  0
 10  9  1  0  0  0
  9  8  1  0  0  0
  8  7  1  0  0  0
  7  6  1  0  0  0
  6  5  1  0  0  0
  2  1  1  0  0  0
  1 23  1  0  0  0
 30 32  1  0  0  0
 32 35  1  0  0  0
 39 40  1  0  0  0
 40 41  1  0  0  0
 41 42  1  0  0  0
 42 43  1  0  0  0
 43 44  1  0  0  0
 44 45  1  0  0  0
 45 46  1  0  0  0
 46 47  1  0  0  0
 47 48  2  0  0  0
 48 49  1  0  0  0
 49 50  1  0  0  0
 50 51  1  0  0  0
 51 52  1  0  0  0
 52 53  1  0  0  0
 53 54  1  0  0  0
 54 55  1  0  0  0
 55 56  1  0  0  0
M  CHG 1  26  -1
M  END
> <minimizedAffinity>
-8.33207

> <CNNscore>
0.6441160440

> <CNNaffinity>
7.3667612076

> <CNN_VS>
4.7450489998

> <CNNaffinity_variance>
0.6119580269

$$$$
/media/chris/experiments/cd1a-new-docking/inputs/ligands/7sh4_ligand.pdb


 56 55  0  0  0  0  0  0  0  0999 V2000
  -38.4868   61.0019   63.0353 C   0  0  0  0  0  0  0  0  0  0  0  0
  -38.1089   60.4974   61.6713 C   0  0  0  0  0  0  0  0  0  0  0  0
  -39.3764   60.2687   61.0201 O   0  0  0  0  0  0  0  0  0  0  0  0
  -40.2753   60.0388   58.9859 O   0  0  0  0  0  0  0  0  0  0  0  0
  -39.3406   59.9255   59.7321 C   0  0  0  0  0  0  0  0  0  0  0  0
  -37.9589   59.5052   59.3208 C   0  0  0  0  0  0  0  0  0  0  0  0
  -37.9305   58.3749   58.3059 C   0  0  0  0  0  0  0  0  0  0  0  0
  -36.5261   57.9047   57.9912 C   0  0  0  0  0  0  0  0  0  0  0  0
  -36.3893   56.4045   57.8636 C   0  0  0  0  0  0  0  0  0  0  0  0
  -36.5468   55.6797   59.1850 C   0  0  0  0  0  0  0  0  0  0  0  0
  -35.3620   54.8114   59.5311 C   0  0  0  0  0  0  0  0  0  0  0  0
  -34.0769   55.5880   59.6455 C   0  0  0  0  0  0  0  0  0  0  0  0
  -33.8384   56.1538   61.0280 C   0  0  0  0  0  0  0  0  0  0  0  0
  -33.4174   57.6092   61.0002 C   0  0  0  0  0  0  0  0  0  0  0  0
  -32.4524   57.9946   62.1016 C   0  0  0  0  0  0  0  0  0  0  0  0
  -32.8075   59.3010   62.8025 C   0  0  0  0  0  0  0  0  0  0  0  0
  -34.1588   59.2835   63.4908 C   0  0  0  0  0  0  0  0  0  0  0  0
  -34.2549   58.2589   64.6026 C   0  0  0  0  0  0  0  0  0  0  0  0
  -35.3077   57.1874   64.3559 C   0  0  0  0  0  0  0  0  0  0  0  0
  -36.6087   57.7319   63.7936 C   0  0  0  0  0  0  0  0  0  0  0  0
  -38.3924   56.9954   62.1775 C   0  0  0  0  0  0  0  0  0  0  0  0
  -36.9228   57.2888   62.3773 C   0  0  0  0  0  0  0  0  0  0  0  0
  -37.2992   61.5470   63.7864 C   0  0  0  0  0  0  0  0  0  0  0  0
  -36.3338   62.0439   62.8328 O   0  0  0  0  0  0  0  0  0  0  0  0
  -35.2726   63.1881   63.1888 P   0  0  0  0  0  0  0  0  0  0  0  0
  -34.3768   63.3600   62.0248 O   0  0  0  0  0  0  0  0  0  0  0  0
  -36.0167   64.3664   63.6951 O   0  0  0  0  0  0  0  0  0  0  0  0
  -36.5527   64.7424   62.9794 H   0  0  0  0  0  0  0  0  0  0  0  0
  -34.4067   62.6013   64.3923 O   0  0  0  0  0  0  0  0  0  0  0  0
  -34.0558   63.4459   65.5076 C   0  0  0  0  0  0  0  0  0  0  0  0
  -33.9262   62.5117   67.7105 O   0  0  0  0  0  0  0  0  0  0  0  0
  -34.8366   62.9882   66.7150 C   0  0  0  0  0  0  0  0  0  0  0  0
  -33.3729   61.8099   67.3333 H   0  0  0  0  0  0  0  0  0  0  0  0
  -36.9468   64.1505   66.5931 O   0  0  0  0  0  0  0  0  0  0  0  0
  -35.7067   64.0824   67.2855 C   0  0  0  0  0  0  0  0  0  0  0  0
  -37.4909   64.8578   66.9731 H   0  0  0  0  0  0  0  0  0  0  0  0
  -39.1363   59.9102   63.7676 O   0  0  0  0  0  0  0  0  0  0  0  0
  -40.8447   61.2178   64.4247 O   0  0  0  0  0  0  0  0  0  0  0  0
  -40.1613   60.2421   64.5758 C   0  0  0  0  0  0  0  0  0  0  0  0
  -40.3578   59.2411   65.6718 C   0  0  0  0  0  0  0  0  0  0  0  0
  -41.7475   58.6148   65.6142 C   0  0  0  0  0  0  0  0  0  0  0  0
  -42.6028   58.8992   66.8380 C   0  0  0  0  0  0  0  0  0  0  0  0
  -44.0974   58.7305   66.5899 C   0  0  0  0  0  0  0  0  0  0  0  0
  -44.4303   57.8069   65.4329 C   0  0  0  0  0  0  0  0  0  0  0  0
  -45.7805   58.0837   64.7654 C   0  0  0  0  0  0  0  0  0  0  0  0
  -46.6943   59.0514   65.5204 C   0  0  0  0  0  0  0  0  0  0  0  0
  -48.0244   58.4384   65.8411 C   0  0  0  0  0  0  0  0  0  0  0  0
  -48.9706   58.1156   64.9809 C   0  0  0  0  0  0  0  0  0  0  0  0
  -48.9121   58.2935   63.4965 C   0  0  0  0  0  0  0  0  0  0  0  0
  -50.2559   58.7111   62.9065 C   0  0  0  0  0  0  0  0  0  0  0  0
  -50.3377   58.5452   61.3993 C   0  0  0  0  0  0  0  0  0  0  0  0
  -50.8086   57.1689   60.9619 C   0  0  0  0  0  0  0  0  0  0  0  0
  -49.7605   56.3482   60.2289 C   0  0  0  0  0  0  0  0  0  0  0  0
  -49.0504   57.1183   59.1261 C   0  0  0  0  0  0  0  0  0  0  0  0
  -47.5376   57.0696   59.2082 C   0  0  0  0  0  0  0  0  0  0  0  0
  -46.8707   57.9020   58.1489 C   0  0  0  0  0  0  0  0  0  0  0  0
 21 22  1  0  0  0
  4  5  2  0  0  0
 25 24  1  0  0  0
 25 26  2  0  0  0
 25 27  1  0  0  0
 25 29  1  0  0  0
 22 20  1  0  0  0
  3  5  1  0  0  0
  3  2  1  0  0  0
 20 19  1  0  0  0
 24 23  1  0  0  0
 19 18  1  0  0  0
 18 17  1  0  0  0
 27 28  1  0  0  0
 17 16  1  0  0  0
 29 30  1  0  0  0
 16 15  1  0  0  0
 34 35  1  0  0  0
 34 36  1  0  0  0
 15 14  1  0  0  0
 31 32  1  0  0  0
 31 33  1  0  0  0
 14 13  1  0  0  0
 37  1  1  0  0  0
 37 39  1  0  0  0
 13 12  1  0  0  0
 38 39  2  0  0  0
 12 11  1  0  0  0
 11 10  1  0  0  0
 10  9  1  0  0  0
  9  8  1  0  0  0
  8  7  1  0  0  0
  7  6  1  0  0  0
  6  5  1  0  0  0
  2  1  1  0  0  0
  1 23  1  0  0  0
 30 32  1  0  0  0
 32 35  1  0  0  0
 39 40  1  0  0  0
 40 41  1  0  0  0
 41 42  1  0  0  0
 42 43  1  0  0  0
 43 44  1  0  0  0
 44 45  1  0  0  0
 45 46  1  0  0  0
 46 47  1  0  0  0
 47 48  2  0  0  0
 48 49  1  0  0  0
 49 50  1  0  0  0
 50 51  1  0  0  0
 51 52  1  0  0  0
 52 53  1  0  0  0
 53 54  1  0  0  0
 54 55  1  0  0  0
 55 56  1  0  0  0
M  CHG 1  26  -1
M  END
> <minimizedAffinity>
-8.89401

> <CNNscore>
0.6317982674

> <CNNaffinity>
7.7679033279

> <CNN_VS>
4.9077477455

> <CNNaffinity_variance>
0.9321113825

$$$$
/media/chris/experiments/cd1a-new-docking/inputs/ligands/7sh4_ligand.pdb


 56 55  0  0  0  0  0  0  0  0999 V2000
  -32.7738   58.2026   61.9990 C   0  0  0  0  0  0  0  0  0  0  0  0
  -33.3168   58.2649   63.3987 C   0  0  0  0  0  0  0  0  0  0  0  0
  -34.7313   58.4849   63.2150 O   0  0  0  0  0  0  0  0  0  0  0  0
  -34.9683   59.7550   65.0397 O   0  0  0  0  0  0  0  0  0  0  0  0
  -35.4109   58.9531   64.2623 C   0  0  0  0  0  0  0  0  0  0  0  0
  -36.8241   58.4454   64.2631 C   0  0  0  0  0  0  0  0  0  0  0  0
  -37.2191   57.7075   62.9951 C   0  0  0  0  0  0  0  0  0  0  0  0
  -38.7066   57.4370   62.9134 C   0  0  0  0  0  0  0  0  0  0  0  0
  -39.5457   58.3118   63.8169 C   0  0  0  0  0  0  0  0  0  0  0  0
  -40.0259   59.5783   63.1375 C   0  0  0  0  0  0  0  0  0  0  0  0
  -41.0545   60.3319   63.9448 C   0  0  0  0  0  0  0  0  0  0  0  0
  -42.0093   59.4248   64.6749 C   0  0  0  0  0  0  0  0  0  0  0  0
  -41.9756   59.6015   66.1769 C   0  0  0  0  0  0  0  0  0  0  0  0
  -42.4458   58.3687   66.9220 C   0  0  0  0  0  0  0  0  0  0  0  0
  -43.1133   57.3322   66.0426 C   0  0  0  0  0  0  0  0  0  0  0  0
  -44.5771   57.0821   66.3877 C   0  0  0  0  0  0  0  0  0  0  0  0
  -45.4667   58.2985   66.2178 C   0  0  0  0  0  0  0  0  0  0  0  0
  -46.8484   58.1218   66.8136 C   0  0  0  0  0  0  0  0  0  0  0  0
  -47.9646   58.1271   65.7785 C   0  0  0  0  0  0  0  0  0  0  0  0
  -47.4685   58.2684   64.3505 C   0  0  0  0  0  0  0  0  0  0  0  0
  -48.9623   60.1793   63.6777 C   0  0  0  0  0  0  0  0  0  0  0  0
  -48.5058   58.7723   63.3651 C   0  0  0  0  0  0  0  0  0  0  0  0
  -31.8640   59.3644   61.6924 C   0  0  0  0  0  0  0  0  0  0  0  0
  -32.4220   60.5602   62.2816 O   0  0  0  0  0  0  0  0  0  0  0  0
  -31.7566   62.0053   62.1063 P   0  0  0  0  0  0  0  0  0  0  0  0
  -31.1149   62.3724   63.3871 O   0  0  0  0  0  0  0  0  0  0  0  0
  -30.9304   61.9868   60.8752 O   0  0  0  0  0  0  0  0  0  0  0  0
  -30.1803   61.3842   60.9982 H   0  0  0  0  0  0  0  0  0  0  0  0
  -32.9752   63.0047   61.8635 O   0  0  0  0  0  0  0  0  0  0  0  0
  -33.2433   64.0590   62.8104 C   0  0  0  0  0  0  0  0  0  0  0  0
  -34.2384   62.3331   64.1420 O   0  0  0  0  0  0  0  0  0  0  0  0
  -34.4369   63.6589   63.6424 C   0  0  0  0  0  0  0  0  0  0  0  0
  -34.0783   61.7286   63.4005 H   0  0  0  0  0  0  0  0  0  0  0  0
  -36.0808   64.7327   65.0434 O   0  0  0  0  0  0  0  0  0  0  0  0
  -34.6877   64.6141   64.7845 C   0  0  0  0  0  0  0  0  0  0  0  0
  -36.2216   65.3493   65.7788 H   0  0  0  0  0  0  0  0  0  0  0  0
  -33.9046   58.1397   61.0677 O   0  0  0  0  0  0  0  0  0  0  0  0
  -34.0230   55.8957   61.1724 O   0  0  0  0  0  0  0  0  0  0  0  0
  -34.2360   56.9244   60.5908 C   0  0  0  0  0  0  0  0  0  0  0  0
  -34.9168   57.0110   59.2601 C   0  0  0  0  0  0  0  0  0  0  0  0
  -36.4350   56.9898   59.4066 C   0  0  0  0  0  0  0  0  0  0  0  0
  -37.1562   57.9666   58.4924 C   0  0  0  0  0  0  0  0  0  0  0  0
  -37.6405   59.2242   59.2046 C   0  0  0  0  0  0  0  0  0  0  0  0
  -39.0518   59.1185   59.7521 C   0  0  0  0  0  0  0  0  0  0  0  0
  -39.9888   60.2499   59.3198 C   0  0  0  0  0  0  0  0  0  0  0  0
  -41.4567   59.8517   59.1516 C   0  0  0  0  0  0  0  0  0  0  0  0
  -41.7852   59.4909   57.7339 C   0  0  0  0  0  0  0  0  0  0  0  0
  -42.8352   58.8100   57.3176 C   0  0  0  0  0  0  0  0  0  0  0  0
  -43.9249   58.2542   58.1791 C   0  0  0  0  0  0  0  0  0  0  0  0
  -45.2921   58.3222   57.5050 C   0  0  0  0  0  0  0  0  0  0  0  0
  -46.4236   57.7898   58.3667 C   0  0  0  0  0  0  0  0  0  0  0  0
  -47.3982   56.9015   57.6130 C   0  0  0  0  0  0  0  0  0  0  0  0
  -48.8100   56.8966   58.1753 C   0  0  0  0  0  0  0  0  0  0  0  0
  -48.8768   57.2712   59.6479 C   0  0  0  0  0  0  0  0  0  0  0  0
  -49.9046   56.4901   60.4425 C   0  0  0  0  0  0  0  0  0  0  0  0
  -50.9943   57.3627   61.0000 C   0  0  0  0  0  0  0  0  0  0  0  0
 21 22  1  0  0  0
  4  5  2  0  0  0
 25 24  1  0  0  0
 25 26  2  0  0  0
 25 27  1  0  0  0
 25 29  1  0  0  0
 22 20  1  0  0  0
  3  5  1  0  0  0
  3  2  1  0  0  0
 20 19  1  0  0  0
 24 23  1  0  0  0
 19 18  1  0  0  0
 18 17  1  0  0  0
 27 28  1  0  0  0
 17 16  1  0  0  0
 29 30  1  0  0  0
 16 15  1  0  0  0
 34 35  1  0  0  0
 34 36  1  0  0  0
 15 14  1  0  0  0
 31 32  1  0  0  0
 31 33  1  0  0  0
 14 13  1  0  0  0
 37  1  1  0  0  0
 37 39  1  0  0  0
 13 12  1  0  0  0
 38 39  2  0  0  0
 12 11  1  0  0  0
 11 10  1  0  0  0
 10  9  1  0  0  0
  9  8  1  0  0  0
  8  7  1  0  0  0
  7  6  1  0  0  0
  6  5  1  0  0  0
  2  1  1  0  0  0
  1 23  1  0  0  0
 30 32  1  0  0  0
 32 35  1  0  0  0
 39 40  1  0  0  0
 40 41  1  0  0  0
 41 42  1  0  0  0
 42 43  1  0  0  0
 43 44  1  0  0  0
 44 45  1  0  0  0
 45 46  1  0  0  0
 46 47  1  0  0  0
 47 48  2  0  0  0
 48 49  1  0  0  0
 49 50  1  0  0  0
 50 51  1  0  0  0
 51 52  1  0  0  0
 52 53  1  0  0  0
 53 54  1  0  0  0
 54 55  1  0  0  0
 55 56  1  0  0  0
M  CHG 1  26  -1
M  END
> <minimizedAffinity>
-7.79317

> <CNNscore>
0.5576759577

> <CNNaffinity>
7.5080590248

> <CNN_VS>
4.1870641708

> <CNNaffinity_variance>
0.7378898859

$$$$
/media/chris/experiments/cd1a-new-docking/inputs/ligands/7sh4_ligand.pdb


 56 55  0  0  0  0  0  0  0  0999 V2000
  -39.8914   59.5783   65.1113 C   0  0  0  0  0  0  0  0  0  0  0  0
  -39.5780   58.9454   63.7851 C   0  0  0  0  0  0  0  0  0  0  0  0
  -38.2723   58.3610   63.9769 O   0  0  0  0  0  0  0  0  0  0  0  0
  -38.3502   56.8601   62.3215 O   0  0  0  0  0  0  0  0  0  0  0  0
  -37.7518   57.6937   62.9465 C   0  0  0  0  0  0  0  0  0  0  0  0
  -36.3842   58.2090   62.6014 C   0  0  0  0  0  0  0  0  0  0  0  0
  -35.2556   57.5273   63.3563 C   0  0  0  0  0  0  0  0  0  0  0  0
  -34.0376   57.2795   62.4916 C   0  0  0  0  0  0  0  0  0  0  0  0
  -34.3259   57.2570   61.0077 C   0  0  0  0  0  0  0  0  0  0  0  0
  -34.0983   55.8969   60.3795 C   0  0  0  0  0  0  0  0  0  0  0  0
  -34.8317   55.7158   59.0731 C   0  0  0  0  0  0  0  0  0  0  0  0
  -36.2575   56.1974   59.1271 C   0  0  0  0  0  0  0  0  0  0  0  0
  -36.6991   56.9087   57.8673 C   0  0  0  0  0  0  0  0  0  0  0  0
  -37.5439   58.1339   58.1524 C   0  0  0  0  0  0  0  0  0  0  0  0
  -37.3043   58.7460   59.5166 C   0  0  0  0  0  0  0  0  0  0  0  0
  -38.1724   59.9655   59.8057 C   0  0  0  0  0  0  0  0  0  0  0  0
  -39.6187   59.6322   60.1176 C   0  0  0  0  0  0  0  0  0  0  0  0
  -40.6089   60.3660   59.2367 C   0  0  0  0  0  0  0  0  0  0  0  0
  -41.7966   59.5135   58.8121 C   0  0  0  0  0  0  0  0  0  0  0  0
  -41.9080   59.3322   57.3088 C   0  0  0  0  0  0  0  0  0  0  0  0
  -44.0897   58.2794   57.9924 C   0  0  0  0  0  0  0  0  0  0  0  0
  -43.1999   58.6896   56.8409 C   0  0  0  0  0  0  0  0  0  0  0  0
  -38.6519   59.8009   65.9394 C   0  0  0  0  0  0  0  0  0  0  0  0
  -38.1617   61.1378   65.6929 O   0  0  0  0  0  0  0  0  0  0  0  0
  -36.9123   61.4416   64.7397 P   0  0  0  0  0  0  0  0  0  0  0  0
  -35.8489   60.4628   65.0529 O   0  0  0  0  0  0  0  0  0  0  0  0
  -37.4073   61.5337   63.3451 O   0  0  0  0  0  0  0  0  0  0  0  0
  -37.7297   60.6650   63.0583 H   0  0  0  0  0  0  0  0  0  0  0  0
  -36.3928   62.8860   65.1716 O   0  0  0  0  0  0  0  0  0  0  0  0
  -34.9772   63.1451   65.2663 C   0  0  0  0  0  0  0  0  0  0  0  0
  -34.1254   62.8802   67.4904 O   0  0  0  0  0  0  0  0  0  0  0  0
  -34.7052   63.8248   66.5858 C   0  0  0  0  0  0  0  0  0  0  0  0
  -34.7127   62.1132   67.5774 H   0  0  0  0  0  0  0  0  0  0  0  0
  -32.4620   64.6212   66.1961 O   0  0  0  0  0  0  0  0  0  0  0  0
  -33.8032   65.0266   66.4382 C   0  0  0  0  0  0  0  0  0  0  0  0
  -31.8987   65.4054   66.1043 H   0  0  0  0  0  0  0  0  0  0  0  0
  -40.8638   58.7310   65.8088 O   0  0  0  0  0  0  0  0  0  0  0  0
  -42.1051   60.1117   67.0788 O   0  0  0  0  0  0  0  0  0  0  0  0
  -42.0186   59.3115   66.1877 C   0  0  0  0  0  0  0  0  0  0  0  0
  -43.1755   58.8544   65.3545 C   0  0  0  0  0  0  0  0  0  0  0  0
  -44.2787   58.2469   66.2152 C   0  0  0  0  0  0  0  0  0  0  0  0
  -45.6411   58.2196   65.5420 C   0  0  0  0  0  0  0  0  0  0  0  0
  -46.2887   59.5942   65.4203 C   0  0  0  0  0  0  0  0  0  0  0  0
  -47.7371   59.5563   64.9695 C   0  0  0  0  0  0  0  0  0  0  0  0
  -48.6776   58.7997   65.9118 C   0  0  0  0  0  0  0  0  0  0  0  0
  -50.0425   58.4410   65.3203 C   0  0  0  0  0  0  0  0  0  0  0  0
  -50.5809   59.5298   64.4413 C   0  0  0  0  0  0  0  0  0  0  0  0
  -50.8578   59.4388   63.1550 C   0  0  0  0  0  0  0  0  0  0  0  0
  -50.6930   58.2218   62.3006 C   0  0  0  0  0  0  0  0  0  0  0  0
  -49.2786   58.0884   61.7437 C   0  0  0  0  0  0  0  0  0  0  0  0
  -49.1841   58.3515   60.2511 C   0  0  0  0  0  0  0  0  0  0  0  0
  -49.7046   57.2090   59.3962 C   0  0  0  0  0  0  0  0  0  0  0  0
  -49.0031   55.8805   59.6257 C   0  0  0  0  0  0  0  0  0  0  0  0
  -47.6257   55.8043   58.9850 C   0  0  0  0  0  0  0  0  0  0  0  0
  -47.6435   55.4445   57.5126 C   0  0  0  0  0  0  0  0  0  0  0  0
  -47.5100   56.6458   56.6189 C   0  0  0  0  0  0  0  0  0  0  0  0
 21 22  1  0  0  0
  4  5  2  0  0  0
 25 24  1  0  0  0
 25 26  2  0  0  0
 25 27  1  0  0  0
 25 29  1  0  0  0
 22 20  1  0  0  0
  3  5  1  0  0  0
  3  2  1  0  0  0
 20 19  1  0  0  0
 24 23  1  0  0  0
 19 18  1  0  0  0
 18 17  1  0  0  0
 27 28  1  0  0  0
 17 16  1  0  0  0
 29 30  1  0  0  0
 16 15  1  0  0  0
 34 35  1  0  0  0
 34 36  1  0  0  0
 15 14  1  0  0  0
 31 32  1  0  0  0
 31 33  1  0  0  0
 14 13  1  0  0  0
 37  1  1  0  0  0
 37 39  1  0  0  0
 13 12  1  0  0  0
 38 39  2  0  0  0
 12 11  1  0  0  0
 11 10  1  0  0  0
 10  9  1  0  0  0
  9  8  1  0  0  0
  8  7  1  0  0  0
  7  6  1  0  0  0
  6  5  1  0  0  0
  2  1  1  0  0  0
  1 23  1  0  0  0
 30 32  1  0  0  0
 32 35  1  0  0  0
 39 40  1  0  0  0
 40 41  1  0  0  0
 41 42  1  0  0  0
 42 43  1  0  0  0
 43 44  1  0  0  0
 44 45  1  0  0  0
 45 46  1  0  0  0
 46 47  1  0  0  0
 47 48  2  0  0  0
 48 49  1  0  0  0
 49 50  1  0  0  0
 50 51  1  0  0  0
 51 52  1  0  0  0
 52 53  1  0  0  0
 53 54  1  0  0  0
 54 55  1  0  0  0
 55 56  1  0  0  0
M  CHG 1  26  -1
M  END
> <minimizedAffinity>
-8.06502

> <CNNscore>
0.5436285138

> <CNNaffinity>
7.5179700851

> <CNN_VS>
4.0869827271

> <CNNaffinity_variance>
0.5370093584

$$$$
/media/chris/experiments/cd1a-new-docking/inputs/ligands/7sh4_ligand.pdb


 56 55  0  0  0  0  0  0  0  0999 V2000
  -37.5215   61.0574   65.1727 C   0  0  0  0  0  0  0  0  0  0  0  0
  -36.6683   60.8456   63.9542 C   0  0  0  0  0  0  0  0  0  0  0  0
  -35.4868   60.1922   64.4644 O   0  0  0  0  0  0  0  0  0  0  0  0
  -33.9882   61.0299   63.0322 O   0  0  0  0  0  0  0  0  0  0  0  0
  -34.4441   60.0984   63.6387 C   0  0  0  0  0  0  0  0  0  0  0  0
  -33.8504   58.7195   63.6690 C   0  0  0  0  0  0  0  0  0  0  0  0
  -32.4894   58.6150   63.0016 C   0  0  0  0  0  0  0  0  0  0  0  0
  -32.4522   57.5702   61.9063 C   0  0  0  0  0  0  0  0  0  0  0  0
  -33.7576   57.4073   61.1613 C   0  0  0  0  0  0  0  0  0  0  0  0
  -34.1862   55.9603   61.0245 C   0  0  0  0  0  0  0  0  0  0  0  0
  -34.2627   55.4966   59.5904 C   0  0  0  0  0  0  0  0  0  0  0  0
  -34.0624   56.6128   58.5996 C   0  0  0  0  0  0  0  0  0  0  0  0
  -35.2428   56.8144   57.6754 C   0  0  0  0  0  0  0  0  0  0  0  0
  -36.5718   56.7492   58.4006 C   0  0  0  0  0  0  0  0  0  0  0  0
  -36.8584   57.9521   59.2748 C   0  0  0  0  0  0  0  0  0  0  0  0
  -37.8711   58.9215   58.6758 C   0  0  0  0  0  0  0  0  0  0  0  0
  -38.9822   59.3185   59.6287 C   0  0  0  0  0  0  0  0  0  0  0  0
  -38.4835   59.7141   61.0035 C   0  0  0  0  0  0  0  0  0  0  0  0
  -39.1543   58.9529   62.1384 C   0  0  0  0  0  0  0  0  0  0  0  0
  -38.6327   57.5377   62.3127 C   0  0  0  0  0  0  0  0  0  0  0  0
  -37.0576   57.1058   64.2279 C   0  0  0  0  0  0  0  0  0  0  0  0
  -37.1862   57.4450   62.7602 C   0  0  0  0  0  0  0  0  0  0  0  0
  -36.7146   61.5351   66.3528 C   0  0  0  0  0  0  0  0  0  0  0  0
  -36.8512   62.9698   66.4594 O   0  0  0  0  0  0  0  0  0  0  0  0
  -35.6288   63.9771   66.2288 P   0  0  0  0  0  0  0  0  0  0  0  0
  -36.0671   65.0179   65.2741 O   0  0  0  0  0  0  0  0  0  0  0  0
  -35.1201   64.3972   67.5566 O   0  0  0  0  0  0  0  0  0  0  0  0
  -35.7945   64.9284   68.0081 H   0  0  0  0  0  0  0  0  0  0  0  0
  -34.4937   63.1087   65.5216 O   0  0  0  0  0  0  0  0  0  0  0  0
  -33.1133   63.2771   65.9039 C   0  0  0  0  0  0  0  0  0  0  0  0
  -31.3251   64.8707   65.8304 O   0  0  0  0  0  0  0  0  0  0  0  0
  -32.5882   64.5316   65.2501 C   0  0  0  0  0  0  0  0  0  0  0  0
  -31.4245   64.9615   66.7909 H   0  0  0  0  0  0  0  0  0  0  0  0
  -33.7258   64.2055   63.1482 O   0  0  0  0  0  0  0  0  0  0  0  0
  -32.4518   64.3860   63.7534 C   0  0  0  0  0  0  0  0  0  0  0  0
  -33.6178   64.1140   62.1887 H   0  0  0  0  0  0  0  0  0  0  0  0
  -38.2234   59.8044   65.4681 O   0  0  0  0  0  0  0  0  0  0  0  0
  -40.0904   60.8909   66.0960 O   0  0  0  0  0  0  0  0  0  0  0  0
  -39.5433   59.8893   65.7228 C   0  0  0  0  0  0  0  0  0  0  0  0
  -40.2478   58.5930   65.4675 C   0  0  0  0  0  0  0  0  0  0  0  0
  -41.7598   58.7829   65.3983 C   0  0  0  0  0  0  0  0  0  0  0  0
  -42.5421   57.8277   66.2847 C   0  0  0  0  0  0  0  0  0  0  0  0
  -43.9488   57.5364   65.7747 C   0  0  0  0  0  0  0  0  0  0  0  0
  -44.7050   58.7681   65.3127 C   0  0  0  0  0  0  0  0  0  0  0  0
  -45.9739   59.0738   66.1135 C   0  0  0  0  0  0  0  0  0  0  0  0
  -47.1829   59.5036   65.2797 C   0  0  0  0  0  0  0  0  0  0  0  0
  -47.7564   58.3663   64.4886 C   0  0  0  0  0  0  0  0  0  0  0  0
  -48.6266   58.4537   63.5014 C   0  0  0  0  0  0  0  0  0  0  0  0
  -49.2248   59.7141   62.9611 C   0  0  0  0  0  0  0  0  0  0  0  0
  -50.3684   59.4453   61.9873 C   0  0  0  0  0  0  0  0  0  0  0  0
  -50.9605   58.0525   62.1123 C   0  0  0  0  0  0  0  0  0  0  0  0
  -50.9726   57.2755   60.8073 C   0  0  0  0  0  0  0  0  0  0  0  0
  -49.6515   57.2851   60.0563 C   0  0  0  0  0  0  0  0  0  0  0  0
  -49.0667   55.8975   59.8416 C   0  0  0  0  0  0  0  0  0  0  0  0
  -47.9861   55.8353   58.7803 C   0  0  0  0  0  0  0  0  0  0  0  0
  -47.5045   57.1959   58.3604 C   0  0  0  0  0  0  0  0  0  0  0  0
 21 22  1  0  0  0
  4  5  2  0  0  0
 25 24  1  0  0  0
 25 26  2  0  0  0
 25 27  1  0  0  0
 25 29  1  0  0  0
 22 20  1  0  0  0
  3  5  1  0  0  0
  3  2  1  0  0  0
 20 19  1  0  0  0
 24 23  1  0  0  0
 19 18  1  0  0  0
 18 17  1  0  0  0
 27 28  1  0  0  0
 17 16  1  0  0  0
 29 30  1  0  0  0
 16 15  1  0  0  0
 34 35  1  0  0  0
 34 36  1  0  0  0
 15 14  1  0  0  0
 31 32  1  0  0  0
 31 33  1  0  0  0
 14 13  1  0  0  0
 37  1  1  0  0  0
 37 39  1  0  0  0
 13 12  1  0  0  0
 38 39  2  0  0  0
 12 11  1  0  0  0
 11 10  1  0  0  0
 10  9  1  0  0  0
  9  8  1  0  0  0
  8  7  1  0  0  0
  7  6  1  0  0  0
  6  5  1  0  0  0
  2  1  1  0  0  0
  1 23  1  0  0  0
 30 32  1  0  0  0
 32 35  1  0  0  0
 39 40  1  0  0  0
 40 41  1  0  0  0
 41 42  1  0  0  0
 42 43  1  0  0  0
 43 44  1  0  0  0
 44 45  1  0  0  0
 45 46  1  0  0  0
 46 47  1  0  0  0
 47 48  2  0  0  0
 48 49  1  0  0  0
 49 50  1  0  0  0
 50 51  1  0  0  0
 51 52  1  0  0  0
 52 53  1  0  0  0
 53 54  1  0  0  0
 54 55  1  0  0  0
 55 56  1  0  0  0
M  CHG 1  26  -1
M  END
> <minimizedAffinity>
-8.70003

> <CNNscore>
0.4940984547

> <CNNaffinity>
7.4079184532

> <CNN_VS>
3.6602411270

> <CNNaffinity_variance>
0.6241554022

$$$$
/media/chris/experiments/cd1a-new-docking/inputs/ligands/7sh4_ligand.pdb


 56 55  0  0  0  0  0  0  0  0999 V2000
  -35.3321   60.0549   63.9947 C   0  0  0  0  0  0  0  0  0  0  0  0
  -36.7328   59.5360   63.8319 C   0  0  0  0  0  0  0  0  0  0  0  0
  -37.1835   59.3166   65.1854 O   0  0  0  0  0  0  0  0  0  0  0  0
  -38.5652   60.9335   65.8749 O   0  0  0  0  0  0  0  0  0  0  0  0
  -38.3816   59.8037   65.5096 C   0  0  0  0  0  0  0  0  0  0  0  0
  -39.4664   58.8016   65.2382 C   0  0  0  0  0  0  0  0  0  0  0  0
  -40.5123   59.2735   64.2423 C   0  0  0  0  0  0  0  0  0  0  0  0
  -41.9064   59.3149   64.8316 C   0  0  0  0  0  0  0  0  0  0  0  0
  -41.9442   59.6196   66.3119 C   0  0  0  0  0  0  0  0  0  0  0  0
  -42.6732   58.5628   67.1168 C   0  0  0  0  0  0  0  0  0  0  0  0
  -42.6716   57.2063   66.4554 C   0  0  0  0  0  0  0  0  0  0  0  0
  -43.9800   56.8761   65.7870 C   0  0  0  0  0  0  0  0  0  0  0  0
  -45.1174   57.7763   66.2161 C   0  0  0  0  0  0  0  0  0  0  0  0
  -45.5802   58.7026   65.1098 C   0  0  0  0  0  0  0  0  0  0  0  0
  -46.9831   58.4209   64.6142 C   0  0  0  0  0  0  0  0  0  0  0  0
  -48.0766   59.0511   65.4694 C   0  0  0  0  0  0  0  0  0  0  0  0
  -49.1425   58.0734   65.9254 C   0  0  0  0  0  0  0  0  0  0  0  0
  -50.4532   58.2210   65.1802 C   0  0  0  0  0  0  0  0  0  0  0  0
  -50.6479   59.5950   64.5541 C   0  0  0  0  0  0  0  0  0  0  0  0
  -51.1772   59.5453   63.1319 C   0  0  0  0  0  0  0  0  0  0  0  0
  -49.5088   58.1419   61.8738 C   0  0  0  0  0  0  0  0  0  0  0  0
  -50.9211   58.2389   62.4047 C   0  0  0  0  0  0  0  0  0  0  0  0
  -35.3007   61.5496   64.1857 C   0  0  0  0  0  0  0  0  0  0  0  0
  -34.0277   62.0513   63.7208 O   0  0  0  0  0  0  0  0  0  0  0  0
  -33.8917   63.3599   62.8092 P   0  0  0  0  0  0  0  0  0  0  0  0
  -32.9219   63.0685   61.7316 O   0  0  0  0  0  0  0  0  0  0  0  0
  -35.2556   63.8078   62.4381 O   0  0  0  0  0  0  0  0  0  0  0  0
  -35.6667   63.1468   61.8594 H   0  0  0  0  0  0  0  0  0  0  0  0
  -33.2525   64.4708   63.7579 O   0  0  0  0  0  0  0  0  0  0  0  0
  -34.0603   65.1085   64.7683 C   0  0  0  0  0  0  0  0  0  0  0  0
  -33.0431   65.6560   66.8678 O   0  0  0  0  0  0  0  0  0  0  0  0
  -33.6314   64.5886   66.1184 C   0  0  0  0  0  0  0  0  0  0  0  0
  -32.3091   66.0394   66.3628 H   0  0  0  0  0  0  0  0  0  0  0  0
  -34.3320   62.8672   67.6559 O   0  0  0  0  0  0  0  0  0  0  0  0
  -34.7772   63.9795   66.8903 C   0  0  0  0  0  0  0  0  0  0  0  0
  -35.0806   62.4900   68.1439 H   0  0  0  0  0  0  0  0  0  0  0  0
  -34.5481   59.6415   62.8267 O   0  0  0  0  0  0  0  0  0  0  0  0
  -33.5876   57.9858   64.0084 O   0  0  0  0  0  0  0  0  0  0  0  0
  -33.7882   58.5375   62.9610 C   0  0  0  0  0  0  0  0  0  0  0  0
  -33.2401   58.0713   61.6479 C   0  0  0  0  0  0  0  0  0  0  0  0
  -33.3479   56.5566   61.5035 C   0  0  0  0  0  0  0  0  0  0  0  0
  -34.4963   56.1021   60.6176 C   0  0  0  0  0  0  0  0  0  0  0  0
  -35.5987   57.1438   60.4661 C   0  0  0  0  0  0  0  0  0  0  0  0
  -37.0020   56.5791   60.5857 C   0  0  0  0  0  0  0  0  0  0  0  0
  -38.0374   57.5592   61.1445 C   0  0  0  0  0  0  0  0  0  0  0  0
  -38.0314   58.9487   60.5036 C   0  0  0  0  0  0  0  0  0  0  0  0
  -39.1649   59.8005   60.9911 C   0  0  0  0  0  0  0  0  0  0  0  0
  -40.1940   60.2228   60.2825 C   0  0  0  0  0  0  0  0  0  0  0  0
  -40.4467   59.9363   58.8360 C   0  0  0  0  0  0  0  0  0  0  0  0
  -41.8860   59.5047   58.5706 C   0  0  0  0  0  0  0  0  0  0  0  0
  -42.1497   59.1180   57.1259 C   0  0  0  0  0  0  0  0  0  0  0  0
  -43.5411   58.5569   56.8890 C   0  0  0  0  0  0  0  0  0  0  0  0
  -44.3337   58.2825   58.1562 C   0  0  0  0  0  0  0  0  0  0  0  0
  -45.7828   57.9018   57.8938 C   0  0  0  0  0  0  0  0  0  0  0  0
  -46.5101   57.3506   59.1041 C   0  0  0  0  0  0  0  0  0  0  0  0
  -47.8925   56.8586   58.7775 C   0  0  0  0  0  0  0  0  0  0  0  0
 21 22  1  0  0  0
  4  5  2  0  0  0
 25 24  1  0  0  0
 25 26  2  0  0  0
 25 27  1  0  0  0
 25 29  1  0  0  0
 22 20  1  0  0  0
  3  5  1  0  0  0
  3  2  1  0  0  0
 20 19  1  0  0  0
 24 23  1  0  0  0
 19 18  1  0  0  0
 18 17  1  0  0  0
 27 28  1  0  0  0
 17 16  1  0  0  0
 29 30  1  0  0  0
 16 15  1  0  0  0
 34 35  1  0  0  0
 34 36  1  0  0  0
 15 14  1  0  0  0
 31 32  1  0  0  0
 31 33  1  0  0  0
 14 13  1  0  0  0
 37  1  1  0  0  0
 37 39  1  0  0  0
 13 12  1  0  0  0
 38 39  2  0  0  0
 12 11  1  0  0  0
 11 10  1  0  0  0
 10  9  1  0  0  0
  9  8  1  0  0  0
  8  7  1  0  0  0
  7  6  1  0  0  0
  6  5  1  0  0  0
  2  1  1  0  0  0
  1 23  1  0  0  0
 30 32  1  0  0  0
 32 35  1  0  0  0
 39 40  1  0  0  0
 40 41  1  0  0  0
 41 42  1  0  0  0
 42 43  1  0  0  0
 43 44  1  0  0  0
 44 45  1  0  0  0
 45 46  1  0  0  0
 46 47  1  0  0  0
 47 48  2  0  0  0
 48 49  1  0  0  0
 49 50  1  0  0  0
 50 51  1  0  0  0
 51 52  1  0  0  0
 52 53  1  0  0  0
 53 54  1  0  0  0
 54 55  1  0  0  0
 55 56  1  0  0  0
M  CHG 1  26  -1
M  END
> <minimizedAffinity>
-8.39399

> <CNNscore>
0.4889482558

> <CNNaffinity>
7.4114966393

> <CNN_VS>
3.6238384247

> <CNNaffinity_variance>
0.9462369680

$$$$
/media/chris/experiments/cd1a-new-docking/inputs/ligands/7sh4_ligand.pdb


 56 55  0  0  0  0  0  0  0  0999 V2000
  -34.7215   59.4455   63.6518 C   0  0  0  0  0  0  0  0  0  0  0  0
  -35.4499   59.6984   64.9414 C   0  0  0  0  0  0  0  0  0  0  0  0
  -36.7784   60.0774   64.5235 O   0  0  0  0  0  0  0  0  0  0  0  0
  -37.8940   61.3992   65.9403 O   0  0  0  0  0  0  0  0  0  0  0  0
  -37.6713   60.3094   65.4862 C   0  0  0  0  0  0  0  0  0  0  0  0
  -38.4364   59.0634   65.8283 C   0  0  0  0  0  0  0  0  0  0  0  0
  -38.6329   58.1147   64.6579 C   0  0  0  0  0  0  0  0  0  0  0  0
  -39.9975   58.2503   64.0160 C   0  0  0  0  0  0  0  0  0  0  0  0
  -40.5722   59.6476   64.0721 C   0  0  0  0  0  0  0  0  0  0  0  0
  -41.9314   59.7038   64.7395 C   0  0  0  0  0  0  0  0  0  0  0  0
  -41.8635   59.5494   66.2392 C   0  0  0  0  0  0  0  0  0  0  0  0
  -42.9116   58.6145   66.7825 C   0  0  0  0  0  0  0  0  0  0  0  0
  -43.0261   57.3230   66.0034 C   0  0  0  0  0  0  0  0  0  0  0  0
  -44.4638   56.9278   65.7333 C   0  0  0  0  0  0  0  0  0  0  0  0
  -45.2789   57.9984   65.0386 C   0  0  0  0  0  0  0  0  0  0  0  0
  -45.9535   58.9761   65.9941 C   0  0  0  0  0  0  0  0  0  0  0  0
  -47.1819   59.6531   65.4172 C   0  0  0  0  0  0  0  0  0  0  0  0
  -48.4671   59.2704   66.1222 C   0  0  0  0  0  0  0  0  0  0  0  0
  -49.4919   58.6127   65.2086 C   0  0  0  0  0  0  0  0  0  0  0  0
  -48.9192   58.1660   63.8753 C   0  0  0  0  0  0  0  0  0  0  0  0
  -50.7698   58.1183   62.1698 C   0  0  0  0  0  0  0  0  0  0  0  0
  -49.5351   58.8380   62.6628 C   0  0  0  0  0  0  0  0  0  0  0  0
  -33.7997   60.5817   63.2899 C   0  0  0  0  0  0  0  0  0  0  0  0
  -34.5847   61.7842   63.1286 O   0  0  0  0  0  0  0  0  0  0  0  0
  -33.9274   63.2229   62.8836 P   0  0  0  0  0  0  0  0  0  0  0  0
  -32.5480   63.1927   63.4158 O   0  0  0  0  0  0  0  0  0  0  0  0
  -34.1344   63.5889   61.4618 O   0  0  0  0  0  0  0  0  0  0  0  0
  -33.6265   62.9870   60.8956 H   0  0  0  0  0  0  0  0  0  0  0  0
  -34.7768   64.2332   63.7783 O   0  0  0  0  0  0  0  0  0  0  0  0
  -35.9149   63.7549   64.5239 C   0  0  0  0  0  0  0  0  0  0  0  0
  -36.9890   64.2400   66.6103 O   0  0  0  0  0  0  0  0  0  0  0  0
  -35.7129   64.1055   65.9776 C   0  0  0  0  0  0  0  0  0  0  0  0
  -37.5177   64.8999   66.1351 H   0  0  0  0  0  0  0  0  0  0  0  0
  -35.6618   62.3736   67.6556 O   0  0  0  0  0  0  0  0  0  0  0  0
  -34.8758   63.0810   66.7051 C   0  0  0  0  0  0  0  0  0  0  0  0
  -35.1077   61.7213   68.1120 H   0  0  0  0  0  0  0  0  0  0  0  0
  -35.7145   59.1982   62.6017 O   0  0  0  0  0  0  0  0  0  0  0  0
  -34.5503   57.8967   61.1835 O   0  0  0  0  0  0  0  0  0  0  0  0
  -35.5356   58.1033   61.8378 C   0  0  0  0  0  0  0  0  0  0  0  0
  -36.7023   57.1681   61.9168 C   0  0  0  0  0  0  0  0  0  0  0  0
  -37.8833   57.6774   61.0967 C   0  0  0  0  0  0  0  0  0  0  0  0
  -37.5854   57.8265   59.6138 C   0  0  0  0  0  0  0  0  0  0  0  0
  -38.1060   59.1282   59.0152 C   0  0  0  0  0  0  0  0  0  0  0  0
  -38.9307   59.9633   59.9770 C   0  0  0  0  0  0  0  0  0  0  0  0
  -40.2141   60.5442   59.3767 C   0  0  0  0  0  0  0  0  0  0  0  0
  -41.3640   59.5484   59.2095 C   0  0  0  0  0  0  0  0  0  0  0  0
  -41.8437   59.4726   57.7910 C   0  0  0  0  0  0  0  0  0  0  0  0
  -42.9721   58.9359   57.3690 C   0  0  0  0  0  0  0  0  0  0  0  0
  -44.0155   58.2886   58.2238 C   0  0  0  0  0  0  0  0  0  0  0  0
  -45.2963   57.9868   57.4513 C   0  0  0  0  0  0  0  0  0  0  0  0
  -46.5634   58.3358   58.2120 C   0  0  0  0  0  0  0  0  0  0  0  0
  -46.7160   57.5814   59.5215 C   0  0  0  0  0  0  0  0  0  0  0  0
  -48.1058   57.0170   59.7650 C   0  0  0  0  0  0  0  0  0  0  0  0
  -48.3199   55.6452   59.1439 C   0  0  0  0  0  0  0  0  0  0  0  0
  -48.5372   55.6683   57.6440 C   0  0  0  0  0  0  0  0  0  0  0  0
  -47.4235   55.0029   56.8847 C   0  0  0  0  0  0  0  0  0  0  0  0
 21 22  1  0  0  0
  4  5  2  0  0  0
 25 24  1  0  0  0
 25 26  2  0  0  0
 25 27  1  0  0  0
 25 29  1  0  0  0
 22 20  1  0  0  0
  3  5  1  0  0  0
  3  2  1  0  0  0
 20 19  1  0  0  0
 24 23  1  0  0  0
 19 18  1  0  0  0
 18 17  1  0  0  0
 27 28  1  0  0  0
 17 16  1  0  0  0
 29 30  1  0  0  0
 16 15  1  0  0  0
 34 35  1  0  0  0
 34 36  1  0  0  0
 15 14  1  0  0  0
 31 32  1  0  0  0
 31 33  1  0  0  0
 14 13  1  0  0  0
 37  1  1  0  0  0
 37 39  1  0  0  0
 13 12  1  0  0  0
 38 39  2  0  0  0
 12 11  1  0  0  0
 11 10  1  0  0  0
 10  9  1  0  0  0
  9  8  1  0  0  0
  8  7  1  0  0  0
  7  6  1  0  0  0
  6  5  1  0  0  0
  2  1  1  0  0  0
  1 23  1  0  0  0
 30 32  1  0  0  0
 32 35  1  0  0  0
 39 40  1  0  0  0
 40 41  1  0  0  0
 41 42  1  0  0  0
 42 43  1  0  0  0
 43 44  1  0  0  0
 44 45  1  0  0  0
 45 46  1  0  0  0
 46 47  1  0  0  0
 47 48  2  0  0  0
 48 49  1  0  0  0
 49 50  1  0  0  0
 50 51  1  0  0  0
 51 52  1  0  0  0
 52 53  1  0  0  0
 53 54  1  0  0  0
 54 55  1  0  0  0
 55 56  1  0  0  0
M  CHG 1  26  -1
M  END
> <minimizedAffinity>
-8.00726

> <CNNscore>
0.4766096771

> <CNNaffinity>
7.6065263748

> <CNN_VS>
3.6253440380

> <CNNaffinity_variance>
0.8957852125

$$$$
