/media/chris/experiments/cd1a-new-docking/inputs/ligands/7sh4_ligand.pdb


 56 55  0  0  0  0  0  0  0  0999 V2000
  -38.6900   60.2548   64.3263 C   0  0  0  0  0  0  0  0  0  0  0  0
  -37.7585   59.6564   65.3422 C   0  0  0  0  0  0  0  0  0  0  0  0
  -38.0058   58.2375   65.2496 O   0  0  0  0  0  0  0  0  0  0  0  0
  -39.0483   57.4317   63.4433 O   0  0  0  0  0  0  0  0  0  0  0  0
  -38.0347   57.7078   64.0263 C   0  0  0  0  0  0  0  0  0  0  0  0
  -36.6555   57.6240   63.4386 C   0  0  0  0  0  0  0  0  0  0  0  0
  -35.5932   57.1466   64.4143 C   0  0  0  0  0  0  0  0  0  0  0  0
  -34.5087   58.1766   64.6504 C   0  0  0  0  0  0  0  0  0  0  0  0
  -34.2984   59.1301   63.4961 C   0  0  0  0  0  0  0  0  0  0  0  0
  -32.9103   59.0374   62.8954 C   0  0  0  0  0  0  0  0  0  0  0  0
  -32.6407   57.7127   62.2246 C   0  0  0  0  0  0  0  0  0  0  0  0
  -33.5702   57.4366   61.0725 C   0  0  0  0  0  0  0  0  0  0  0  0
  -34.1540   56.0413   61.0931 C   0  0  0  0  0  0  0  0  0  0  0  0
  -34.5152   55.5375   59.7103 C   0  0  0  0  0  0  0  0  0  0  0  0
  -33.8817   56.3234   58.5814 C   0  0  0  0  0  0  0  0  0  0  0  0
  -34.8759   57.1464   57.7700 C   0  0  0  0  0  0  0  0  0  0  0  0
  -36.3184   56.7077   57.9350 C   0  0  0  0  0  0  0  0  0  0  0  0
  -37.2290   57.8097   58.4364 C   0  0  0  0  0  0  0  0  0  0  0  0
  -37.4904   57.7508   59.9349 C   0  0  0  0  0  0  0  0  0  0  0  0
  -38.0574   59.0391   60.5039 C   0  0  0  0  0  0  0  0  0  0  0  0
  -40.2308   60.2235   60.0461 C   0  0  0  0  0  0  0  0  0  0  0  0
  -38.8586   59.8695   59.5192 C   0  0  0  0  0  0  0  0  0  0  0  0
  -38.0017   61.2793   63.4612 C   0  0  0  0  0  0  0  0  0  0  0  0
  -36.8887   61.8360   64.1957 O   0  0  0  0  0  0  0  0  0  0  0  0
  -35.9585   62.9997   63.6106 P   0  0  0  0  0  0  0  0  0  0  0  0
  -35.5457   62.6126   62.2443 O   0  0  0  0  0  0  0  0  0  0  0  0
  -36.6594   64.2920   63.8036 O   0  0  0  0  0  0  0  0  0  0  0  0
  -37.4565   64.3132   63.2511 H   0  0  0  0  0  0  0  0  0  0  0  0
  -34.6581   63.0052   64.5334 O   0  0  0  0  0  0  0  0  0  0  0  0
  -34.6510   62.2707   65.7745 C   0  0  0  0  0  0  0  0  0  0  0  0
  -33.7312   64.3878   66.4182 O   0  0  0  0  0  0  0  0  0  0  0  0
  -34.4477   63.2491   66.9052 C   0  0  0  0  0  0  0  0  0  0  0  0
  -32.8964   64.0977   66.0183 H   0  0  0  0  0  0  0  0  0  0  0  0
  -36.7186   63.9707   66.5303 O   0  0  0  0  0  0  0  0  0  0  0  0
  -35.7513   63.6826   67.5317 C   0  0  0  0  0  0  0  0  0  0  0  0
  -37.5477   64.2468   66.9515 H   0  0  0  0  0  0  0  0  0  0  0  0
  -39.8388   60.8279   65.0347 O   0  0  0  0  0  0  0  0  0  0  0  0
  -41.5089   61.5073   63.6896 O   0  0  0  0  0  0  0  0  0  0  0  0
  -41.0441   60.7001   64.4473 C   0  0  0  0  0  0  0  0  0  0  0  0
  -41.7253   59.4250   64.8372 C   0  0  0  0  0  0  0  0  0  0  0  0
  -41.9422   59.3457   66.3450 C   0  0  0  0  0  0  0  0  0  0  0  0
  -43.3519   58.9414   66.7444 C   0  0  0  0  0  0  0  0  0  0  0  0
  -44.2062   58.4707   65.5730 C   0  0  0  0  0  0  0  0  0  0  0  0
  -45.3966   59.3645   65.2790 C   0  0  0  0  0  0  0  0  0  0  0  0
  -46.7402   58.8172   65.7688 C   0  0  0  0  0  0  0  0  0  0  0  0
  -47.7090   58.3856   64.6658 C   0  0  0  0  0  0  0  0  0  0  0  0
  -49.0579   58.0210   65.2095 C   0  0  0  0  0  0  0  0  0  0  0  0
  -50.2278   58.3980   64.7314 C   0  0  0  0  0  0  0  0  0  0  0  0
  -50.4535   59.2720   63.5382 C   0  0  0  0  0  0  0  0  0  0  0  0
  -50.8677   58.4765   62.3037 C   0  0  0  0  0  0  0  0  0  0  0  0
  -49.9174   58.6344   61.1298 C   0  0  0  0  0  0  0  0  0  0  0  0
  -49.2191   57.3453   60.7327 C   0  0  0  0  0  0  0  0  0  0  0  0
  -49.2104   57.0684   59.2385 C   0  0  0  0  0  0  0  0  0  0  0  0
  -47.8498   57.2780   58.5916 C   0  0  0  0  0  0  0  0  0  0  0  0
  -47.7380   56.7248   57.1848 C   0  0  0  0  0  0  0  0  0  0  0  0
  -47.5743   55.2308   57.1586 C   0  0  0  0  0  0  0  0  0  0  0  0
 21 22  1  0  0  0
  4  5  2  0  0  0
 25 24  1  0  0  0
 25 26  2  0  0  0
 25 27  1  0  0  0
 25 29  1  0  0  0
 22 20  1  0  0  0
  3  5  1  0  0  0
  3  2  1  0  0  0
 20 19  1  0  0  0
 24 23  1  0  0  0
 19 18  1  0  0  0
 18 17  1  0  0  0
 27 28  1  0  0  0
 17 16  1  0  0  0
 29 30  1  0  0  0
 16 15  1  0  0  0
 34 35  1  0  0  0
 34 36  1  0  0  0
 15 14  1  0  0  0
 31 32  1  0  0  0
 31 33  1  0  0  0
 14 13  1  0  0  0
 37  1  1  0  0  0
 37 39  1  0  0  0
 13 12  1  0  0  0
 38 39  2  0  0  0
 12 11  1  0  0  0
 11 10  1  0  0  0
 10  9  1  0  0  0
  9  8  1  0  0  0
  8  7  1  0  0  0
  7  6  1  0  0  0
  6  5  1  0  0  0
  2  1  1  0  0  0
  1 23  1  0  0  0
 30 32  1  0  0  0
 32 35  1  0  0  0
 39 40  1  0  0  0
 40 41  1  0  0  0
 41 42  1  0  0  0
 42 43  1  0  0  0
 43 44  1  0  0  0
 44 45  1  0  0  0
 45 46  1  0  0  0
 46 47  1  0  0  0
 47 48  2  0  0  0
 48 49  1  0  0  0
 49 50  1  0  0  0
 50 51  1  0  0  0
 51 52  1  0  0  0
 52 53  1  0  0  0
 53 54  1  0  0  0
 54 55  1  0  0  0
 55 56  1  0  0  0
M  CHG 1  26  -1
M  END
> <minimizedAffinity>
-8.72967

> <CNNscore>
0.6425535083

> <CNNaffinity>
7.7486181259

> <CNN_VS>
4.9789018631

> <CNNaffinity_variance>
0.7970575094

$$$$
/media/chris/experiments/cd1a-new-docking/inputs/ligands/7sh4_ligand.pdb


 56 55  0  0  0  0  0  0  0  0999 V2000
  -38.4776   60.9947   63.3679 C   0  0  0  0  0  0  0  0  0  0  0  0
  -38.0099   60.3595   62.0891 C   0  0  0  0  0  0  0  0  0  0  0  0
  -39.2167   60.2109   61.3113 O   0  0  0  0  0  0  0  0  0  0  0  0
  -39.8772   60.4732   59.1915 O   0  0  0  0  0  0  0  0  0  0  0  0
  -39.0730   60.0792   59.9923 C   0  0  0  0  0  0  0  0  0  0  0  0
  -37.7329   59.4956   59.6481 C   0  0  0  0  0  0  0  0  0  0  0  0
  -37.7832   58.4094   58.5869 C   0  0  0  0  0  0  0  0  0  0  0  0
  -36.5098   58.3265   57.7719 C   0  0  0  0  0  0  0  0  0  0  0  0
  -35.8223   56.9813   57.8323 C   0  0  0  0  0  0  0  0  0  0  0  0
  -36.6770   55.9066   58.4732 C   0  0  0  0  0  0  0  0  0  0  0  0
  -35.9479   55.1241   59.5378 C   0  0  0  0  0  0  0  0  0  0  0  0
  -34.4812   55.4572   59.6121 C   0  0  0  0  0  0  0  0  0  0  0  0
  -34.0241   55.8496   60.9997 C   0  0  0  0  0  0  0  0  0  0  0  0
  -33.5855   57.2976   61.0838 C   0  0  0  0  0  0  0  0  0  0  0  0
  -32.5636   57.5718   62.1672 C   0  0  0  0  0  0  0  0  0  0  0  0
  -33.0532   58.5291   63.2479 C   0  0  0  0  0  0  0  0  0  0  0  0
  -34.5414   58.8157   63.1889 C   0  0  0  0  0  0  0  0  0  0  0  0
  -35.2988   58.3181   64.4029 C   0  0  0  0  0  0  0  0  0  0  0  0
  -36.1918   57.1191   64.1160 C   0  0  0  0  0  0  0  0  0  0  0  0
  -37.6428   57.3347   64.5071 C   0  0  0  0  0  0  0  0  0  0  0  0
  -37.9685   56.8803   62.0527 C   0  0  0  0  0  0  0  0  0  0  0  0
  -38.6413   57.1195   63.3855 C   0  0  0  0  0  0  0  0  0  0  0  0
  -37.3266   61.4031   64.2511 C   0  0  0  0  0  0  0  0  0  0  0  0
  -37.0171   62.7921   63.9992 O   0  0  0  0  0  0  0  0  0  0  0  0
  -35.6401   63.2676   63.3362 P   0  0  0  0  0  0  0  0  0  0  0  0
  -34.7786   62.0776   63.1668 O   0  0  0  0  0  0  0  0  0  0  0  0
  -35.9612   64.0899   62.1449 O   0  0  0  0  0  0  0  0  0  0  0  0
  -36.3792   63.5323   61.4702 H   0  0  0  0  0  0  0  0  0  0  0  0
  -34.9566   64.2187   64.4182 O   0  0  0  0  0  0  0  0  0  0  0  0
  -33.9929   63.6800   65.3462 C   0  0  0  0  0  0  0  0  0  0  0  0
  -33.8056   62.3642   67.3403 O   0  0  0  0  0  0  0  0  0  0  0  0
  -34.7405   63.0225   66.4802 C   0  0  0  0  0  0  0  0  0  0  0  0
  -33.2786   61.7349   66.8235 H   0  0  0  0  0  0  0  0  0  0  0  0
  -36.8966   64.0672   66.7598 O   0  0  0  0  0  0  0  0  0  0  0  0
  -35.5704   64.0070   67.2689 C   0  0  0  0  0  0  0  0  0  0  0  0
  -37.4133   64.7036   67.2784 H   0  0  0  0  0  0  0  0  0  0  0  0
  -39.3755   60.0560   64.0480 O   0  0  0  0  0  0  0  0  0  0  0  0
  -41.1676   61.4086   63.9095 O   0  0  0  0  0  0  0  0  0  0  0  0
  -40.5579   60.5413   64.4732 C   0  0  0  0  0  0  0  0  0  0  0  0
  -41.0285   59.8582   65.7197 C   0  0  0  0  0  0  0  0  0  0  0  0
  -41.7074   58.5287   65.4061 C   0  0  0  0  0  0  0  0  0  0  0  0
  -42.8359   58.1727   66.3600 C   0  0  0  0  0  0  0  0  0  0  0  0
  -44.0929   59.0107   66.1570 C   0  0  0  0  0  0  0  0  0  0  0  0
  -45.3321   58.1963   65.8349 C   0  0  0  0  0  0  0  0  0  0  0  0
  -46.6103   59.0221   65.6647 C   0  0  0  0  0  0  0  0  0  0  0  0
  -47.6197   58.4610   64.6607 C   0  0  0  0  0  0  0  0  0  0  0  0
  -48.8744   57.9834   65.3282 C   0  0  0  0  0  0  0  0  0  0  0  0
  -50.1044   58.3844   65.0717 C   0  0  0  0  0  0  0  0  0  0  0  0
  -50.5060   59.4045   64.0536 C   0  0  0  0  0  0  0  0  0  0  0  0
  -51.1748   58.7777   62.8337 C   0  0  0  0  0  0  0  0  0  0  0  0
  -50.1961   58.3544   61.7524 C   0  0  0  0  0  0  0  0  0  0  0  0
  -50.7777   57.3664   60.7562 C   0  0  0  0  0  0  0  0  0  0  0  0
  -49.8619   57.0356   59.5894 C   0  0  0  0  0  0  0  0  0  0  0  0
  -48.4902   57.6846   59.6931 C   0  0  0  0  0  0  0  0  0  0  0  0
  -47.3630   56.8527   59.1143 C   0  0  0  0  0  0  0  0  0  0  0  0
  -47.8170   55.4933   58.6608 C   0  0  0  0  0  0  0  0  0  0  0  0
 21 22  1  0  0  0
  4  5  2  0  0  0
 25 24  1  0  0  0
 25 26  2  0  0  0
 25 27  1  0  0  0
 25 29  1  0  0  0
 22 20  1  0  0  0
  3  5  1  0  0  0
  3  2  1  0  0  0
 20 19  1  0  0  0
 24 23  1  0  0  0
 19 18  1  0  0  0
 18 17  1  0  0  0
 27 28  1  0  0  0
 17 16  1  0  0  0
 29 30  1  0  0  0
 16 15  1  0  0  0
 34 35  1  0  0  0
 34 36  1  0  0  0
 15 14  1  0  0  0
 31 32  1  0  0  0
 31 33  1  0  0  0
 14 13  1  0  0  0
 37  1  1  0  0  0
 37 39  1  0  0  0
 13 12  1  0  0  0
 38 39  2  0  0  0
 12 11  1  0  0  0
 11 10  1  0  0  0
 10  9  1  0  0  0
  9  8  1  0  0  0
  8  7  1  0  0  0
  7  6  1  0  0  0
  6  5  1  0  0  0
  2  1  1  0  0  0
  1 23  1  0  0  0
 30 32  1  0  0  0
 32 35  1  0  0  0
 39 40  1  0  0  0
 40 41  1  0  0  0
 41 42  1  0  0  0
 42 43  1  0  0  0
 43 44  1  0  0  0
 44 45  1  0  0  0
 45 46  1  0  0  0
 46 47  1  0  0  0
 47 48  2  0  0  0
 48 49  1  0  0  0
 49 50  1  0  0  0
 50 51  1  0  0  0
 51 52  1  0  0  0
 52 53  1  0  0  0
 53 54  1  0  0  0
 54 55  1  0  0  0
 55 56  1  0  0  0
M  CHG 1  26  -1
M  END
> <minimizedAffinity>
-9.08835

> <CNNscore>
0.5877502561

> <CNNaffinity>
7.6685028076

> <CNN_VS>
4.5071644783

> <CNNaffinity_variance>
0.8408977389

$$$$
/media/chris/experiments/cd1a-new-docking/inputs/ligands/7sh4_ligand.pdb


 56 55  0  0  0  0  0  0  0  0999 V2000
  -38.4426   60.8632   64.8272 C   0  0  0  0  0  0  0  0  0  0  0  0
  -37.9582   60.6324   63.4238 C   0  0  0  0  0  0  0  0  0  0  0  0
  -37.4987   59.2642   63.4336 O   0  0  0  0  0  0  0  0  0  0  0  0
  -35.4931   59.9124   62.6876 O   0  0  0  0  0  0  0  0  0  0  0  0
  -36.2282   59.0512   63.0894 C   0  0  0  0  0  0  0  0  0  0  0  0
  -35.8145   57.6391   63.3885 C   0  0  0  0  0  0  0  0  0  0  0  0
  -34.4287   57.2778   62.8811 C   0  0  0  0  0  0  0  0  0  0  0  0
  -34.4647   56.3176   61.7109 C   0  0  0  0  0  0  0  0  0  0  0  0
  -33.8089   56.8464   60.4555 C   0  0  0  0  0  0  0  0  0  0  0  0
  -33.7573   55.8247   59.3375 C   0  0  0  0  0  0  0  0  0  0  0  0
  -33.7276   56.4486   57.9637 C   0  0  0  0  0  0  0  0  0  0  0  0
  -34.8427   57.4359   57.7417 C   0  0  0  0  0  0  0  0  0  0  0  0
  -36.2147   56.7991   57.7280 C   0  0  0  0  0  0  0  0  0  0  0  0
  -37.2969   57.7295   58.2373 C   0  0  0  0  0  0  0  0  0  0  0  0
  -37.3959   57.7943   59.7471 C   0  0  0  0  0  0  0  0  0  0  0  0
  -38.4234   58.7998   60.2545 C   0  0  0  0  0  0  0  0  0  0  0  0
  -39.1879   59.5086   59.1529 C   0  0  0  0  0  0  0  0  0  0  0  0
  -40.4420   60.2037   59.6418 C   0  0  0  0  0  0  0  0  0  0  0  0
  -41.7064   59.7610   58.9188 C   0  0  0  0  0  0  0  0  0  0  0  0
  -41.4763   59.3881   57.4652 C   0  0  0  0  0  0  0  0  0  0  0  0
  -43.8343   58.5392   57.7000 C   0  0  0  0  0  0  0  0  0  0  0  0
  -42.6003   58.5933   56.8281 C   0  0  0  0  0  0  0  0  0  0  0  0
  -37.3439   60.6801   65.8427 C   0  0  0  0  0  0  0  0  0  0  0  0
  -37.2140   61.8965   66.6120 O   0  0  0  0  0  0  0  0  0  0  0  0
  -36.0243   62.9431   66.3857 P   0  0  0  0  0  0  0  0  0  0  0  0
  -36.6196   64.2893   66.2435 O   0  0  0  0  0  0  0  0  0  0  0  0
  -35.0077   62.7218   67.4421 O   0  0  0  0  0  0  0  0  0  0  0  0
  -35.3818   62.9577   68.3054 H   0  0  0  0  0  0  0  0  0  0  0  0
  -35.3716   62.5445   64.9865 O   0  0  0  0  0  0  0  0  0  0  0  0
  -33.9580   62.7322   64.7702 C   0  0  0  0  0  0  0  0  0  0  0  0
  -34.8854   63.9384   62.9188 O   0  0  0  0  0  0  0  0  0  0  0  0
  -33.7720   63.8862   63.8158 C   0  0  0  0  0  0  0  0  0  0  0  0
  -34.9745   63.0861   62.4642 H   0  0  0  0  0  0  0  0  0  0  0  0
  -33.5539   65.0090   65.9395 O   0  0  0  0  0  0  0  0  0  0  0  0
  -33.6181   65.2060   64.5328 C   0  0  0  0  0  0  0  0  0  0  0  0
  -33.4552   65.8667   66.3819 H   0  0  0  0  0  0  0  0  0  0  0  0
  -39.5702   59.9609   65.0806 O   0  0  0  0  0  0  0  0  0  0  0  0
  -41.0061   61.4467   64.1912 O   0  0  0  0  0  0  0  0  0  0  0  0
  -40.7793   60.3550   64.6368 C   0  0  0  0  0  0  0  0  0  0  0  0
  -41.7998   59.2650   64.7482 C   0  0  0  0  0  0  0  0  0  0  0  0
  -41.4575   58.2916   65.8716 C   0  0  0  0  0  0  0  0  0  0  0  0
  -42.6692   57.7741   66.6292 C   0  0  0  0  0  0  0  0  0  0  0  0
  -43.7789   58.8077   66.7837 C   0  0  0  0  0  0  0  0  0  0  0  0
  -45.1457   58.3159   66.3450 C   0  0  0  0  0  0  0  0  0  0  0  0
  -45.9307   59.3053   65.4791 C   0  0  0  0  0  0  0  0  0  0  0  0
  -47.3888   59.5180   65.8917 C   0  0  0  0  0  0  0  0  0  0  0  0
  -48.1006   60.4717   64.9797 C   0  0  0  0  0  0  0  0  0  0  0  0
  -48.7531   60.1663   63.8749 C   0  0  0  0  0  0  0  0  0  0  0  0
  -48.9212   58.7955   63.2995 C   0  0  0  0  0  0  0  0  0  0  0  0
  -50.3869   58.3852   63.1910 C   0  0  0  0  0  0  0  0  0  0  0  0
  -50.9589   58.5321   61.7920 C   0  0  0  0  0  0  0  0  0  0  0  0
  -50.8125   57.2839   60.9390 C   0  0  0  0  0  0  0  0  0  0  0  0
  -50.2790   57.5369   59.5388 C   0  0  0  0  0  0  0  0  0  0  0  0
  -49.1263   56.6217   59.1553 C   0  0  0  0  0  0  0  0  0  0  0  0
  -47.8842   57.3504   58.6822 C   0  0  0  0  0  0  0  0  0  0  0  0
  -46.8486   57.4961   59.7620 C   0  0  0  0  0  0  0  0  0  0  0  0
 21 22  1  0  0  0
  4  5  2  0  0  0
 25 24  1  0  0  0
 25 26  2  0  0  0
 25 27  1  0  0  0
 25 29  1  0  0  0
 22 20  1  0  0  0
  3  5  1  0  0  0
  3  2  1  0  0  0
 20 19  1  0  0  0
 24 23  1  0  0  0
 19 18  1  0  0  0
 18 17  1  0  0  0
 27 28  1  0  0  0
 17 16  1  0  0  0
 29 30  1  0  0  0
 16 15  1  0  0  0
 34 35  1  0  0  0
 34 36  1  0  0  0
 15 14  1  0  0  0
 31 32  1  0  0  0
 31 33  1  0  0  0
 14 13  1  0  0  0
 37  1  1  0  0  0
 37 39  1  0  0  0
 13 12  1  0  0  0
 38 39  2  0  0  0
 12 11  1  0  0  0
 11 10  1  0  0  0
 10  9  1  0  0  0
  9  8  1  0  0  0
  8  7  1  0  0  0
  7  6  1  0  0  0
  6  5  1  0  0  0
  2  1  1  0  0  0
  1 23  1  0  0  0
 30 32  1  0  0  0
 32 35  1  0  0  0
 39 40  1  0  0  0
 40 41  1  0  0  0
 41 42  1  0  0  0
 42 43  1  0  0  0
 43 44  1  0  0  0
 44 45  1  0  0  0
 45 46  1  0  0  0
 46 47  1  0  0  0
 47 48  2  0  0  0
 48 49  1  0  0  0
 49 50  1  0  0  0
 50 51  1  0  0  0
 51 52  1  0  0  0
 52 53  1  0  0  0
 53 54  1  0  0  0
 54 55  1  0  0  0
 55 56  1  0  0  0
M  CHG 1  26  -1
M  END
> <minimizedAffinity>
-7.93609

> <CNNscore>
0.5432710052

> <CNNaffinity>
7.5193686485

> <CNN_VS>
4.0850548744

> <CNNaffinity_variance>
0.6238955259

$$$$
/media/chris/experiments/cd1a-new-docking/inputs/ligands/7sh4_ligand.pdb


 56 55  0  0  0  0  0  0  0  0999 V2000
  -37.6519   60.2464   65.5149 C   0  0  0  0  0  0  0  0  0  0  0  0
  -38.5285   60.9363   64.5082 C   0  0  0  0  0  0  0  0  0  0  0  0
  -39.8481   60.8673   65.0888 O   0  0  0  0  0  0  0  0  0  0  0  0
  -41.0449   60.4820   63.2401 O   0  0  0  0  0  0  0  0  0  0  0  0
  -40.7849   60.2303   64.3857 C   0  0  0  0  0  0  0  0  0  0  0  0
  -41.3709   59.0913   65.1694 C   0  0  0  0  0  0  0  0  0  0  0  0
  -42.8870   59.0123   65.1099 C   0  0  0  0  0  0  0  0  0  0  0  0
  -43.5257   58.9612   66.4818 C   0  0  0  0  0  0  0  0  0  0  0  0
  -44.9994   58.6238   66.4666 C   0  0  0  0  0  0  0  0  0  0  0  0
  -45.7049   59.1033   65.2141 C   0  0  0  0  0  0  0  0  0  0  0  0
  -46.7215   58.1182   64.6910 C   0  0  0  0  0  0  0  0  0  0  0  0
  -48.1307   58.4520   65.1035 C   0  0  0  0  0  0  0  0  0  0  0  0
  -48.4653   59.9206   64.9641 C   0  0  0  0  0  0  0  0  0  0  0  0
  -49.5363   60.1807   63.9242 C   0  0  0  0  0  0  0  0  0  0  0  0
  -50.6139   59.1182   63.8678 C   0  0  0  0  0  0  0  0  0  0  0  0
  -51.0185   58.7256   62.4514 C   0  0  0  0  0  0  0  0  0  0  0  0
  -49.9413   58.9717   61.4124 C   0  0  0  0  0  0  0  0  0  0  0  0
  -49.1219   57.7387   61.0912 C   0  0  0  0  0  0  0  0  0  0  0  0
  -48.2328   57.8990   59.8659 C   0  0  0  0  0  0  0  0  0  0  0  0
  -48.1735   56.6591   58.9917 C   0  0  0  0  0  0  0  0  0  0  0  0
  -46.1995   57.8111   57.9372 C   0  0  0  0  0  0  0  0  0  0  0  0
  -47.3038   56.7944   57.7563 C   0  0  0  0  0  0  0  0  0  0  0  0
  -36.8853   61.2272   66.3646 C   0  0  0  0  0  0  0  0  0  0  0  0
  -36.4593   62.3296   65.5329 O   0  0  0  0  0  0  0  0  0  0  0  0
  -36.0230   63.7489   66.1304 P   0  0  0  0  0  0  0  0  0  0  0  0
  -36.5454   64.8030   65.2344 O   0  0  0  0  0  0  0  0  0  0  0  0
  -36.3997   63.7817   67.5641 O   0  0  0  0  0  0  0  0  0  0  0  0
  -37.3662   63.7675   67.6450 H   0  0  0  0  0  0  0  0  0  0  0  0
  -34.4312   63.7734   66.0415 O   0  0  0  0  0  0  0  0  0  0  0  0
  -33.7519   62.9821   65.0451 C   0  0  0  0  0  0  0  0  0  0  0  0
  -33.6705   65.1255   63.9764 O   0  0  0  0  0  0  0  0  0  0  0  0
  -32.9426   63.9094   64.1720 C   0  0  0  0  0  0  0  0  0  0  0  0
  -34.5425   64.9237   63.6024 H   0  0  0  0  0  0  0  0  0  0  0  0
  -31.6990   64.6931   66.0844 O   0  0  0  0  0  0  0  0  0  0  0  0
  -31.5812   64.2049   64.7542 C   0  0  0  0  0  0  0  0  0  0  0  0
  -30.8156   64.8768   66.4407 H   0  0  0  0  0  0  0  0  0  0  0  0
  -36.7552   59.3344   64.7979 O   0  0  0  0  0  0  0  0  0  0  0  0
  -38.0043   57.5153   65.2345 O   0  0  0  0  0  0  0  0  0  0  0  0
  -37.2238   58.0996   64.5337 C   0  0  0  0  0  0  0  0  0  0  0  0
  -36.6704   57.5518   63.2548 C   0  0  0  0  0  0  0  0  0  0  0  0
  -37.7826   57.1281   62.3007 C   0  0  0  0  0  0  0  0  0  0  0  0
  -38.7754   58.2339   61.9814 C   0  0  0  0  0  0  0  0  0  0  0  0
  -38.1401   59.4510   61.3192 C   0  0  0  0  0  0  0  0  0  0  0  0
  -38.8085   59.8667   60.0218 C   0  0  0  0  0  0  0  0  0  0  0  0
  -38.4733   58.9790   58.8200 C   0  0  0  0  0  0  0  0  0  0  0  0
  -37.0307   58.4715   58.7670 C   0  0  0  0  0  0  0  0  0  0  0  0
  -36.8615   57.3519   57.7842 C   0  0  0  0  0  0  0  0  0  0  0  0
  -36.6037   56.0894   58.0655 C   0  0  0  0  0  0  0  0  0  0  0  0
  -36.4272   55.5081   59.4327 C   0  0  0  0  0  0  0  0  0  0  0  0
  -34.9930   55.0569   59.6931 C   0  0  0  0  0  0  0  0  0  0  0  0
  -33.9714   56.1741   59.5731 C   0  0  0  0  0  0  0  0  0  0  0  0
  -33.9548   57.1159   60.7646 C   0  0  0  0  0  0  0  0  0  0  0  0
  -32.9214   56.7724   61.8246 C   0  0  0  0  0  0  0  0  0  0  0  0
  -32.7967   57.8272   62.9133 C   0  0  0  0  0  0  0  0  0  0  0  0
  -32.6966   59.2479   62.3944 C   0  0  0  0  0  0  0  0  0  0  0  0
  -31.3295   59.5784   61.8639 C   0  0  0  0  0  0  0  0  0  0  0  0
 21 22  1  0  0  0
  4  5  2  0  0  0
 25 24  1  0  0  0
 25 26  2  0  0  0
 25 27  1  0  0  0
 25 29  1  0  0  0
 22 20  1  0  0  0
  3  5  1  0  0  0
  3  2  1  0  0  0
 20 19  1  0  0  0
 24 23  1  0  0  0
 19 18  1  0  0  0
 18 17  1  0  0  0
 27 28  1  0  0  0
 17 16  1  0  0  0
 29 30  1  0  0  0
 16 15  1  0  0  0
 34 35  1  0  0  0
 34 36  1  0  0  0
 15 14  1  0  0  0
 31 32  1  0  0  0
 31 33  1  0  0  0
 14 13  1  0  0  0
 37  1  1  0  0  0
 37 39  1  0  0  0
 13 12  1  0  0  0
 38 39  2  0  0  0
 12 11  1  0  0  0
 11 10  1  0  0  0
 10  9  1  0  0  0
  9  8  1  0  0  0
  8  7  1  0  0  0
  7  6  1  0  0  0
  6  5  1  0  0  0
  2  1  1  0  0  0
  1 23  1  0  0  0
 30 32  1  0  0  0
 32 35  1  0  0  0
 39 40  1  0  0  0
 40 41  1  0  0  0
 41 42  1  0  0  0
 42 43  1  0  0  0
 43 44  1  0  0  0
 44 45  1  0  0  0
 45 46  1  0  0  0
 46 47  1  0  0  0
 47 48  2  0  0  0
 48 49  1  0  0  0
 49 50  1  0  0  0
 50 51  1  0  0  0
 51 52  1  0  0  0
 52 53  1  0  0  0
 53 54  1  0  0  0
 54 55  1  0  0  0
 55 56  1  0  0  0
M  CHG 1  26  -1
M  END
> <minimizedAffinity>
-8.80410

> <CNNscore>
0.4845145047

> <CNNaffinity>
7.4989852905

> <CNN_VS>
3.6333670616

> <CNNaffinity_variance>
0.7533361316

$$$$
/media/chris/experiments/cd1a-new-docking/inputs/ligands/7sh4_ligand.pdb


 56 55  0  0  0  0  0  0  0  0999 V2000
  -39.3578   58.8863   63.5938 C   0  0  0  0  0  0  0  0  0  0  0  0
  -37.9911   58.2951   63.7946 C   0  0  0  0  0  0  0  0  0  0  0  0
  -37.2686   59.3204   64.5087 O   0  0  0  0  0  0  0  0  0  0  0  0
  -35.2177   60.0201   65.0592 O   0  0  0  0  0  0  0  0  0  0  0  0
  -35.9372   59.2614   64.4675 C   0  0  0  0  0  0  0  0  0  0  0  0
  -35.4710   58.0603   63.6963 C   0  0  0  0  0  0  0  0  0  0  0  0
  -33.9603   57.9433   63.5836 C   0  0  0  0  0  0  0  0  0  0  0  0
  -33.4055   58.6614   62.3715 C   0  0  0  0  0  0  0  0  0  0  0  0
  -31.9047   58.5553   62.2220 C   0  0  0  0  0  0  0  0  0  0  0  0
  -31.2533   59.8664   61.8311 C   0  0  0  0  0  0  0  0  0  0  0  0
  -32.0068   61.0756   62.3288 C   0  0  0  0  0  0  0  0  0  0  0  0
  -31.4528   62.3725   61.8009 C   0  0  0  0  0  0  0  0  0  0  0  0
  -32.4236   63.5276   61.9071 C   0  0  0  0  0  0  0  0  0  0  0  0
  -31.7488   64.8246   62.3054 C   0  0  0  0  0  0  0  0  0  0  0  0
  -32.1089   65.3072   63.6950 C   0  0  0  0  0  0  0  0  0  0  0  0
  -31.5510   64.4348   64.8139 C   0  0  0  0  0  0  0  0  0  0  0  0
  -32.6027   63.6207   65.5429 C   0  0  0  0  0  0  0  0  0  0  0  0
  -33.7688   64.4505   66.0396 C   0  0  0  0  0  0  0  0  0  0  0  0
  -35.0762   63.6754   66.1264 C   0  0  0  0  0  0  0  0  0  0  0  0
  -36.0695   64.0353   65.0361 C   0  0  0  0  0  0  0  0  0  0  0  0
  -36.4911   62.6094   63.0051 C   0  0  0  0  0  0  0  0  0  0  0  0
  -35.6251   63.6796   63.6300 C   0  0  0  0  0  0  0  0  0  0  0  0
  -39.5600   59.3788   62.1837 C   0  0  0  0  0  0  0  0  0  0  0  0
  -38.7731   58.5618   61.2883 O   0  0  0  0  0  0  0  0  0  0  0  0
  -37.9327   59.1719   60.0703 P   0  0  0  0  0  0  0  0  0  0  0  0
  -38.7442   59.0373   58.8414 O   0  0  0  0  0  0  0  0  0  0  0  0
  -37.4579   60.5196   60.4663 O   0  0  0  0  0  0  0  0  0  0  0  0
  -38.2178   61.1146   60.5631 H   0  0  0  0  0  0  0  0  0  0  0  0
  -36.6569   58.2269   59.9222 O   0  0  0  0  0  0  0  0  0  0  0  0
  -36.8281   56.8056   59.7471 C   0  0  0  0  0  0  0  0  0  0  0  0
  -37.1764   56.8091   57.3762 O   0  0  0  0  0  0  0  0  0  0  0  0
  -36.2597   56.4200   58.4035 C   0  0  0  0  0  0  0  0  0  0  0  0
  -38.0426   56.4070   57.5466 H   0  0  0  0  0  0  0  0  0  0  0  0
  -34.0564   56.8598   59.2812 O   0  0  0  0  0  0  0  0  0  0  0  0
  -34.9047   57.0374   58.1539 C   0  0  0  0  0  0  0  0  0  0  0  0
  -33.1922   57.2623   59.1020 H   0  0  0  0  0  0  0  0  0  0  0  0
  -39.5449   59.9601   64.5746 O   0  0  0  0  0  0  0  0  0  0  0  0
  -41.3440   61.2239   64.0992 O   0  0  0  0  0  0  0  0  0  0  0  0
  -40.8051   60.3908   64.7754 C   0  0  0  0  0  0  0  0  0  0  0  0
  -41.4583   59.6945   65.9288 C   0  0  0  0  0  0  0  0  0  0  0  0
  -42.4826   58.6684   65.4548 C   0  0  0  0  0  0  0  0  0  0  0  0
  -43.8600   59.2517   65.1851 C   0  0  0  0  0  0  0  0  0  0  0  0
  -44.9510   58.6790   66.0825 C   0  0  0  0  0  0  0  0  0  0  0  0
  -46.3450   59.1822   65.7569 C   0  0  0  0  0  0  0  0  0  0  0  0
  -47.0701   58.3882   64.6666 C   0  0  0  0  0  0  0  0  0  0  0  0
  -48.2237   57.5109   65.1576 C   0  0  0  0  0  0  0  0  0  0  0  0
  -49.3049   58.3152   65.8148 C   0  0  0  0  0  0  0  0  0  0  0  0
  -50.3981   58.7812   65.2427 C   0  0  0  0  0  0  0  0  0  0  0  0
  -50.7897   58.6012   63.8100 C   0  0  0  0  0  0  0  0  0  0  0  0
  -50.2886   59.7366   62.9222 C   0  0  0  0  0  0  0  0  0  0  0  0
  -49.6868   59.2642   61.6104 C   0  0  0  0  0  0  0  0  0  0  0  0
  -49.5975   57.7528   61.4896 C   0  0  0  0  0  0  0  0  0  0  0  0
  -49.8832   57.2143   60.0975 C   0  0  0  0  0  0  0  0  0  0  0  0
  -48.7227   56.4331   59.5003 C   0  0  0  0  0  0  0  0  0  0  0  0
  -48.3120   56.8910   58.1149 C   0  0  0  0  0  0  0  0  0  0  0  0
  -47.0160   57.6525   58.1145 C   0  0  0  0  0  0  0  0  0  0  0  0
 21 22  1  0  0  0
  4  5  2  0  0  0
 25 24  1  0  0  0
 25 26  2  0  0  0
 25 27  1  0  0  0
 25 29  1  0  0  0
 22 20  1  0  0  0
  3  5  1  0  0  0
  3  2  1  0  0  0
 20 19  1  0  0  0
 24 23  1  0  0  0
 19 18  1  0  0  0
 18 17  1  0  0  0
 27 28  1  0  0  0
 17 16  1  0  0  0
 29 30  1  0  0  0
 16 15  1  0  0  0
 34 35  1  0  0  0
 34 36  1  0  0  0
 15 14  1  0  0  0
 31 32  1  0  0  0
 31 33  1  0  0  0
 14 13  1  0  0  0
 37  1  1  0  0  0
 37 39  1  0  0  0
 13 12  1  0  0  0
 38 39  2  0  0  0
 12 11  1  0  0  0
 11 10  1  0  0  0
 10  9  1  0  0  0
  9  8  1  0  0  0
  8  7  1  0  0  0
  7  6  1  0  0  0
  6  5  1  0  0  0
  2  1  1  0  0  0
  1 23  1  0  0  0
 30 32  1  0  0  0
 32 35  1  0  0  0
 39 40  1  0  0  0
 40 41  1  0  0  0
 41 42  1  0  0  0
 42 43  1  0  0  0
 43 44  1  0  0  0
 44 45  1  0  0  0
 45 46  1  0  0  0
 46 47  1  0  0  0
 47 48  2  0  0  0
 48 49  1  0  0  0
 49 50  1  0  0  0
 50 51  1  0  0  0
 51 52  1  0  0  0
 52 53  1  0  0  0
 53 54  1  0  0  0
 54 55  1  0  0  0
 55 56  1  0  0  0
M  CHG 1  26  -1
M  END
> <minimizedAffinity>
-8.13182

> <CNNscore>
0.4730197787

> <CNNaffinity>
7.3066520691

> <CNN_VS>
3.4561910629

> <CNNaffinity_variance>
0.5021339655

$$$$
/media/chris/experiments/cd1a-new-docking/inputs/ligands/7sh4_ligand.pdb


 56 55  0  0  0  0  0  0  0  0999 V2000
  -37.6309   60.9972   65.2973 C   0  0  0  0  0  0  0  0  0  0  0  0
  -36.8957   60.7038   64.0202 C   0  0  0  0  0  0  0  0  0  0  0  0
  -35.9876   59.6400   64.3765 O   0  0  0  0  0  0  0  0  0  0  0  0
  -34.2739   60.5270   63.2472 O   0  0  0  0  0  0  0  0  0  0  0  0
  -34.8435   59.5689   63.6955 C   0  0  0  0  0  0  0  0  0  0  0  0
  -34.3096   58.1655   63.6766 C   0  0  0  0  0  0  0  0  0  0  0  0
  -32.8327   58.0680   63.3339 C   0  0  0  0  0  0  0  0  0  0  0  0
  -32.5690   57.2090   62.1151 C   0  0  0  0  0  0  0  0  0  0  0  0
  -33.6231   57.3232   61.0373 C   0  0  0  0  0  0  0  0  0  0  0  0
  -34.0764   55.9784   60.5060 C   0  0  0  0  0  0  0  0  0  0  0  0
  -33.6831   55.7447   59.0679 C   0  0  0  0  0  0  0  0  0  0  0  0
  -34.2059   56.8051   58.1352 C   0  0  0  0  0  0  0  0  0  0  0  0
  -35.6998   56.7243   57.9113 C   0  0  0  0  0  0  0  0  0  0  0  0
  -36.3462   58.0883   57.7781 C   0  0  0  0  0  0  0  0  0  0  0  0
  -37.4433   58.3535   58.7879 C   0  0  0  0  0  0  0  0  0  0  0  0
  -37.4914   57.3400   59.9257 C   0  0  0  0  0  0  0  0  0  0  0  0
  -37.1764   57.9277   61.2879 C   0  0  0  0  0  0  0  0  0  0  0  0
  -38.1242   57.4666   62.3762 C   0  0  0  0  0  0  0  0  0  0  0  0
  -39.3294   58.3779   62.5621 C   0  0  0  0  0  0  0  0  0  0  0  0
  -39.1555   59.7505   61.9372 C   0  0  0  0  0  0  0  0  0  0  0  0
  -40.3510   60.3465   59.8036 C   0  0  0  0  0  0  0  0  0  0  0  0
  -40.4123   60.3282   61.3142 C   0  0  0  0  0  0  0  0  0  0  0  0
  -36.7049   61.4734   66.3871 C   0  0  0  0  0  0  0  0  0  0  0  0
  -36.8198   62.9095   66.5005 O   0  0  0  0  0  0  0  0  0  0  0  0
  -35.6008   63.9033   66.2032 P   0  0  0  0  0  0  0  0  0  0  0  0
  -36.0825   64.9565   65.2837 O   0  0  0  0  0  0  0  0  0  0  0  0
  -35.0077   64.3073   67.5008 O   0  0  0  0  0  0  0  0  0  0  0  0
  -35.6470   64.8434   67.9956 H   0  0  0  0  0  0  0  0  0  0  0  0
  -34.5215   63.0264   65.4231 O   0  0  0  0  0  0  0  0  0  0  0  0
  -33.1191   63.1688   65.7284 C   0  0  0  0  0  0  0  0  0  0  0  0
  -31.2977   64.7068   65.4841 O   0  0  0  0  0  0  0  0  0  0  0  0
  -32.5846   64.3564   64.9662 C   0  0  0  0  0  0  0  0  0  0  0  0
  -31.3673   64.8730   66.4373 H   0  0  0  0  0  0  0  0  0  0  0  0
  -32.4547   62.6969   63.2205 O   0  0  0  0  0  0  0  0  0  0  0  0
  -32.4950   64.0939   63.4820 C   0  0  0  0  0  0  0  0  0  0  0  0
  -32.3974   62.5486   62.2635 H   0  0  0  0  0  0  0  0  0  0  0  0
  -38.3619   59.7906   65.6966 O   0  0  0  0  0  0  0  0  0  0  0  0
  -40.2582   60.9301   66.1041 O   0  0  0  0  0  0  0  0  0  0  0  0
  -39.6970   59.9032   65.8349 C   0  0  0  0  0  0  0  0  0  0  0  0
  -40.3972   58.6017   65.5951 C   0  0  0  0  0  0  0  0  0  0  0  0
  -41.8686   58.8133   65.2533 C   0  0  0  0  0  0  0  0  0  0  0  0
  -42.8211   58.4590   66.3835 C   0  0  0  0  0  0  0  0  0  0  0  0
  -44.2776   58.7907   66.0799 C   0  0  0  0  0  0  0  0  0  0  0  0
  -45.0840   57.6133   65.5641 C   0  0  0  0  0  0  0  0  0  0  0  0
  -46.3860   57.3506   66.3261 C   0  0  0  0  0  0  0  0  0  0  0  0
  -47.6276   57.1672   65.4505 C   0  0  0  0  0  0  0  0  0  0  0  0
  -48.4002   58.4422   65.2919 C   0  0  0  0  0  0  0  0  0  0  0  0
  -49.0761   58.8260   64.2264 C   0  0  0  0  0  0  0  0  0  0  0  0
  -49.2146   58.0630   62.9469 C   0  0  0  0  0  0  0  0  0  0  0  0
  -50.6580   58.0080   62.4550 C   0  0  0  0  0  0  0  0  0  0  0  0
  -50.7964   57.5129   61.0260 C   0  0  0  0  0  0  0  0  0  0  0  0
  -49.7133   58.0286   60.0943 C   0  0  0  0  0  0  0  0  0  0  0  0
  -49.3403   57.0736   58.9726 C   0  0  0  0  0  0  0  0  0  0  0  0
  -48.6440   55.8115   59.4581 C   0  0  0  0  0  0  0  0  0  0  0  0
  -47.4530   55.3955   58.6177 C   0  0  0  0  0  0  0  0  0  0  0  0
  -47.7972   55.2279   57.1640 C   0  0  0  0  0  0  0  0  0  0  0  0
 21 22  1  0  0  0
  4  5  2  0  0  0
 25 24  1  0  0  0
 25 26  2  0  0  0
 25 27  1  0  0  0
 25 29  1  0  0  0
 22 20  1  0  0  0
  3  5  1  0  0  0
  3  2  1  0  0  0
 20 19  1  0  0  0
 24 23  1  0  0  0
 19 18  1  0  0  0
 18 17  1  0  0  0
 27 28  1  0  0  0
 17 16  1  0  0  0
 29 30  1  0  0  0
 16 15  1  0  0  0
 34 35  1  0  0  0
 34 36  1  0  0  0
 15 14  1  0  0  0
 31 32  1  0  0  0
 31 33  1  0  0  0
 14 13  1  0  0  0
 37  1  1  0  0  0
 37 39  1  0  0  0
 13 12  1  0  0  0
 38 39  2  0  0  0
 12 11  1  0  0  0
 11 10  1  0  0  0
 10  9  1  0  0  0
  9  8  1  0  0  0
  8  7  1  0  0  0
  7  6  1  0  0  0
  6  5  1  0  0  0
  2  1  1  0  0  0
  1 23  1  0  0  0
 30 32  1  0  0  0
 32 35  1  0  0  0
 39 40  1  0  0  0
 40 41  1  0  0  0
 41 42  1  0  0  0
 42 43  1  0  0  0
 43 44  1  0  0  0
 44 45  1  0  0  0
 45 46  1  0  0  0
 46 47  1  0  0  0
 47 48  2  0  0  0
 48 49  1  0  0  0
 49 50  1  0  0  0
 50 51  1  0  0  0
 51 52  1  0  0  0
 52 53  1  0  0  0
 53 54  1  0  0  0
 54 55  1  0  0  0
 55 56  1  0  0  0
M  CHG 1  26  -1
M  END
> <minimizedAffinity>
-8.79490

> <CNNscore>
0.4491115510

> <CNNaffinity>
7.3767724037

> <CNN_VS>
3.3129937649

> <CNNaffinity_variance>
0.7885027528

$$$$
/media/chris/experiments/cd1a-new-docking/inputs/ligands/7sh4_ligand.pdb


 56 55  0  0  0  0  0  0  0  0999 V2000
  -38.9962   58.7206   63.6697 C   0  0  0  0  0  0  0  0  0  0  0  0
  -39.4646   57.7823   64.7457 C   0  0  0  0  0  0  0  0  0  0  0  0
  -40.8475   58.1435   64.9463 O   0  0  0  0  0  0  0  0  0  0  0  0
  -40.4875   59.9223   66.2521 O   0  0  0  0  0  0  0  0  0  0  0  0
  -41.1204   58.9374   65.9822 C   0  0  0  0  0  0  0  0  0  0  0  0
  -42.3811   58.5094   66.6766 C   0  0  0  0  0  0  0  0  0  0  0  0
  -43.0118   57.2535   66.0991 C   0  0  0  0  0  0  0  0  0  0  0  0
  -44.5016   57.3977   65.8702 C   0  0  0  0  0  0  0  0  0  0  0  0
  -45.1018   58.6498   66.4683 C   0  0  0  0  0  0  0  0  0  0  0  0
  -46.0599   59.3552   65.5299 C   0  0  0  0  0  0  0  0  0  0  0  0
  -47.4626   59.4545   66.0778 C   0  0  0  0  0  0  0  0  0  0  0  0
  -48.2612   58.1929   65.8827 C   0  0  0  0  0  0  0  0  0  0  0  0
  -49.7306   58.4458   65.6274 C   0  0  0  0  0  0  0  0  0  0  0  0
  -50.1130   58.2570   64.1733 C   0  0  0  0  0  0  0  0  0  0  0  0
  -49.9659   59.5052   63.3286 C   0  0  0  0  0  0  0  0  0  0  0  0
  -50.5830   59.3855   61.9397 C   0  0  0  0  0  0  0  0  0  0  0  0
  -49.6514   58.7912   60.9008 C   0  0  0  0  0  0  0  0  0  0  0  0
  -50.0313   57.3845   60.4861 C   0  0  0  0  0  0  0  0  0  0  0  0
  -49.0583   56.7555   59.4987 C   0  0  0  0  0  0  0  0  0  0  0  0
  -47.6701   57.3689   59.5391 C   0  0  0  0  0  0  0  0  0  0  0  0
  -47.7471   56.7307   57.1054 C   0  0  0  0  0  0  0  0  0  0  0  0
  -46.9406   57.3767   58.2091 C   0  0  0  0  0  0  0  0  0  0  0  0
  -38.6971   57.9995   62.3804 C   0  0  0  0  0  0  0  0  0  0  0  0
  -39.2177   58.7784   61.2802 O   0  0  0  0  0  0  0  0  0  0  0  0
  -38.2905   59.3527   60.1087 P   0  0  0  0  0  0  0  0  0  0  0  0
  -39.1525   59.6409   58.9422 O   0  0  0  0  0  0  0  0  0  0  0  0
  -37.4623   60.4470   60.6700 O   0  0  0  0  0  0  0  0  0  0  0  0
  -38.0338   61.1905   60.9180 H   0  0  0  0  0  0  0  0  0  0  0  0
  -37.3161   58.1535   59.7149 O   0  0  0  0  0  0  0  0  0  0  0  0
  -37.0158   57.8933   58.3285 C   0  0  0  0  0  0  0  0  0  0  0  0
  -34.7799   57.1334   57.9210 O   0  0  0  0  0  0  0  0  0  0  0  0
  -36.1002   56.6960   58.2567 C   0  0  0  0  0  0  0  0  0  0  0  0
  -34.8069   57.6355   57.0915 H   0  0  0  0  0  0  0  0  0  0  0  0
  -34.8702   55.1688   59.6614 O   0  0  0  0  0  0  0  0  0  0  0  0
  -36.0771   55.9118   59.5468 C   0  0  0  0  0  0  0  0  0  0  0  0
  -34.8739   54.6727   60.4950 H   0  0  0  0  0  0  0  0  0  0  0  0
  -37.8242   59.4467   64.1687 O   0  0  0  0  0  0  0  0  0  0  0  0
  -38.8484   61.4311   63.8976 O   0  0  0  0  0  0  0  0  0  0  0  0
  -37.8472   60.7893   64.0633 C   0  0  0  0  0  0  0  0  0  0  0  0
  -36.4801   61.3855   64.1959 C   0  0  0  0  0  0  0  0  0  0  0  0
  -36.3272   62.6312   63.3290 C   0  0  0  0  0  0  0  0  0  0  0  0
  -35.4917   63.7282   63.9683 C   0  0  0  0  0  0  0  0  0  0  0  0
  -35.9298   64.0810   65.3851 C   0  0  0  0  0  0  0  0  0  0  0  0
  -34.8210   63.9826   66.4163 C   0  0  0  0  0  0  0  0  0  0  0  0
  -33.5026   63.4161   65.8817 C   0  0  0  0  0  0  0  0  0  0  0  0
  -32.5068   64.4579   65.3674 C   0  0  0  0  0  0  0  0  0  0  0  0
  -31.2250   63.8335   64.9035 C   0  0  0  0  0  0  0  0  0  0  0  0
  -31.0416   63.1425   63.7952 C   0  0  0  0  0  0  0  0  0  0  0  0
  -32.0808   62.8379   62.7629 C   0  0  0  0  0  0  0  0  0  0  0  0
  -31.6522   61.7196   61.8173 C   0  0  0  0  0  0  0  0  0  0  0  0
  -31.4491   60.3823   62.5076 C   0  0  0  0  0  0  0  0  0  0  0  0
  -31.8343   59.1888   61.6506 C   0  0  0  0  0  0  0  0  0  0  0  0
  -32.5338   58.0709   62.4058 C   0  0  0  0  0  0  0  0  0  0  0  0
  -34.0118   57.9449   62.0690 C   0  0  0  0  0  0  0  0  0  0  0  0
  -34.9119   57.7675   63.2757 C   0  0  0  0  0  0  0  0  0  0  0  0
  -34.2501   58.1807   64.5606 C   0  0  0  0  0  0  0  0  0  0  0  0
 21 22  1  0  0  0
  4  5  2  0  0  0
 25 24  1  0  0  0
 25 26  2  0  0  0
 25 27  1  0  0  0
 25 29  1  0  0  0
 22 20  1  0  0  0
  3  5  1  0  0  0
  3  2  1  0  0  0
 20 19  1  0  0  0
 24 23  1  0  0  0
 19 18  1  0  0  0
 18 17  1  0  0  0
 27 28  1  0  0  0
 17 16  1  0  0  0
 29 30  1  0  0  0
 16 15  1  0  0  0
 34 35  1  0  0  0
 34 36  1  0  0  0
 15 14  1  0  0  0
 31 32  1  0  0  0
 31 33  1  0  0  0
 14 13  1  0  0  0
 37  1  1  0  0  0
 37 39  1  0  0  0
 13 12  1  0  0  0
 38 39  2  0  0  0
 12 11  1  0  0  0
 11 10  1  0  0  0
 10  9  1  0  0  0
  9  8  1  0  0  0
  8  7  1  0  0  0
  7  6  1  0  0  0
  6  5  1  0  0  0
  2  1  1  0  0  0
  1 23  1  0  0  0
 30 32  1  0  0  0
 32 35  1  0  0  0
 39 40  1  0  0  0
 40 41  1  0  0  0
 41 42  1  0  0  0
 42 43  1  0  0  0
 43 44  1  0  0  0
 44 45  1  0  0  0
 45 46  1  0  0  0
 46 47  1  0  0  0
 47 48  2  0  0  0
 48 49  1  0  0  0
 49 50  1  0  0  0
 50 51  1  0  0  0
 51 52  1  0  0  0
 52 53  1  0  0  0
 53 54  1  0  0  0
 54 55  1  0  0  0
 55 56  1  0  0  0
M  CHG 1  26  -1
M  END
> <minimizedAffinity>
-8.22325

> <CNNscore>
0.4281158745

> <CNNaffinity>
7.2331047058

> <CNN_VS>
3.0966069698

> <CNNaffinity_variance>
0.8097759485

$$$$
/media/chris/experiments/cd1a-new-docking/inputs/ligands/7sh4_ligand.pdb


 56 55  0  0  0  0  0  0  0  0999 V2000
  -37.9707   57.7874   63.3691 C   0  0  0  0  0  0  0  0  0  0  0  0
  -36.5818   57.5850   63.9053 C   0  0  0  0  0  0  0  0  0  0  0  0
  -35.7550   58.4034   63.0510 O   0  0  0  0  0  0  0  0  0  0  0  0
  -34.5341   56.7818   62.1134 O   0  0  0  0  0  0  0  0  0  0  0  0
  -34.6117   57.8671   62.6230 C   0  0  0  0  0  0  0  0  0  0  0  0
  -33.4754   58.8408   62.7476 C   0  0  0  0  0  0  0  0  0  0  0  0
  -32.3919   58.6677   61.6966 C   0  0  0  0  0  0  0  0  0  0  0  0
  -31.3761   59.7905   61.7114 C   0  0  0  0  0  0  0  0  0  0  0  0
  -31.6667   60.8752   62.7236 C   0  0  0  0  0  0  0  0  0  0  0  0
  -32.0691   62.1895   62.0857 C   0  0  0  0  0  0  0  0  0  0  0  0
  -30.9774   63.2305   62.1309 C   0  0  0  0  0  0  0  0  0  0  0  0
  -31.2202   64.2930   63.1700 C   0  0  0  0  0  0  0  0  0  0  0  0
  -31.3156   63.7460   64.5771 C   0  0  0  0  0  0  0  0  0  0  0  0
  -31.8621   64.7588   65.5629 C   0  0  0  0  0  0  0  0  0  0  0  0
  -32.9126   65.6820   64.9819 C   0  0  0  0  0  0  0  0  0  0  0  0
  -34.3434   65.2063   65.2071 C   0  0  0  0  0  0  0  0  0  0  0  0
  -34.5009   64.2631   66.3843 C   0  0  0  0  0  0  0  0  0  0  0  0
  -35.9148   63.7470   66.5571 C   0  0  0  0  0  0  0  0  0  0  0  0
  -36.0730   62.2731   66.2109 C   0  0  0  0  0  0  0  0  0  0  0  0
  -34.9797   61.7417   65.3014 C   0  0  0  0  0  0  0  0  0  0  0  0
  -36.3492   62.6656   63.4021 C   0  0  0  0  0  0  0  0  0  0  0  0
  -35.3814   61.5922   63.8462 C   0  0  0  0  0  0  0  0  0  0  0  0
  -38.1361   57.2020   61.9901 C   0  0  0  0  0  0  0  0  0  0  0  0
  -38.7611   58.1879   61.1381 O   0  0  0  0  0  0  0  0  0  0  0  0
  -37.9331   59.1052   60.1209 P   0  0  0  0  0  0  0  0  0  0  0  0
  -38.8111   59.4259   58.9750 O   0  0  0  0  0  0  0  0  0  0  0  0
  -37.3306   60.2202   60.8905 O   0  0  0  0  0  0  0  0  0  0  0  0
  -38.0335   60.7982   61.2264 H   0  0  0  0  0  0  0  0  0  0  0  0
  -36.7478   58.1812   59.5878 O   0  0  0  0  0  0  0  0  0  0  0  0
  -36.8455   57.5593   58.2902 C   0  0  0  0  0  0  0  0  0  0  0  0
  -34.4976   57.5695   57.8109 O   0  0  0  0  0  0  0  0  0  0  0  0
  -35.6141   56.7144   58.0738 C   0  0  0  0  0  0  0  0  0  0  0  0
  -34.6990   58.1403   57.0528 H   0  0  0  0  0  0  0  0  0  0  0  0
  -36.5185   55.4534   59.9205 O   0  0  0  0  0  0  0  0  0  0  0  0
  -35.3177   55.8179   59.2521 C   0  0  0  0  0  0  0  0  0  0  0  0
  -36.3080   54.8785   60.6729 H   0  0  0  0  0  0  0  0  0  0  0  0
  -38.2678   59.2232   63.3871 O   0  0  0  0  0  0  0  0  0  0  0  0
  -38.9993   60.7428   64.8756 O   0  0  0  0  0  0  0  0  0  0  0  0
  -39.0921   59.6640   64.3568 C   0  0  0  0  0  0  0  0  0  0  0  0
  -40.1470   58.6571   64.6963 C   0  0  0  0  0  0  0  0  0  0  0  0
  -41.0020   59.1182   65.8724 C   0  0  0  0  0  0  0  0  0  0  0  0
  -42.2928   58.3337   66.0410 C   0  0  0  0  0  0  0  0  0  0  0  0
  -43.3224   59.0354   66.9192 C   0  0  0  0  0  0  0  0  0  0  0  0
  -44.7560   58.6267   66.6361 C   0  0  0  0  0  0  0  0  0  0  0  0
  -44.9539   57.1285   66.3884 C   0  0  0  0  0  0  0  0  0  0  0  0
  -46.2069   56.7599   65.5911 C   0  0  0  0  0  0  0  0  0  0  0  0
  -47.4637   56.9907   66.3755 C   0  0  0  0  0  0  0  0  0  0  0  0
  -48.4566   57.7965   66.0527 C   0  0  0  0  0  0  0  0  0  0  0  0
  -48.5365   58.6519   64.8279 C   0  0  0  0  0  0  0  0  0  0  0  0
  -49.9702   59.0472   64.4861 C   0  0  0  0  0  0  0  0  0  0  0  0
  -50.6777   58.0525   63.5827 C   0  0  0  0  0  0  0  0  0  0  0  0
  -50.9934   58.6002   62.2016 C   0  0  0  0  0  0  0  0  0  0  0  0
  -50.8402   57.5925   61.0744 C   0  0  0  0  0  0  0  0  0  0  0  0
  -49.5192   57.7126   60.3300 C   0  0  0  0  0  0  0  0  0  0  0  0
  -49.5326   57.1122   58.9382 C   0  0  0  0  0  0  0  0  0  0  0  0
  -48.1643   57.0485   58.3191 C   0  0  0  0  0  0  0  0  0  0  0  0
 21 22  1  0  0  0
  4  5  2  0  0  0
 25 24  1  0  0  0
 25 26  2  0  0  0
 25 27  1  0  0  0
 25 29  1  0  0  0
 22 20  1  0  0  0
  3  5  1  0  0  0
  3  2  1  0  0  0
 20 19  1  0  0  0
 24 23  1  0  0  0
 19 18  1  0  0  0
 18 17  1  0  0  0
 27 28  1  0  0  0
 17 16  1  0  0  0
 29 30  1  0  0  0
 16 15  1  0  0  0
 34 35  1  0  0  0
 34 36  1  0  0  0
 15 14  1  0  0  0
 31 32  1  0  0  0
 31 33  1  0  0  0
 14 13  1  0  0  0
 37  1  1  0  0  0
 37 39  1  0  0  0
 13 12  1  0  0  0
 38 39  2  0  0  0
 12 11  1  0  0  0
 11 10  1  0  0  0
 10  9  1  0  0  0
  9  8  1  0  0  0
  8  7  1  0  0  0
  7  6  1  0  0  0
  6  5  1  0  0  0
  2  1  1  0  0  0
  1 23  1  0  0  0
 30 32  1  0  0  0
 32 35  1  0  0  0
 39 40  1  0  0  0
 40 41  1  0  0  0
 41 42  1  0  0  0
 42 43  1  0  0  0
 43 44  1  0  0  0
 44 45  1  0  0  0
 45 46  1  0  0  0
 46 47  1  0  0  0
 47 48  2  0  0  0
 48 49  1  0  0  0
 49 50  1  0  0  0
 50 51  1  0  0  0
 51 52  1  0  0  0
 52 53  1  0  0  0
 53 54  1  0  0  0
 54 55  1  0  0  0
 55 56  1  0  0  0
M  CHG 1  26  -1
M  END
> <minimizedAffinity>
-7.86188

> <CNNscore>
0.3490296900

> <CNNaffinity>
6.9863386154

> <CNN_VS>
2.4384396076

> <CNNaffinity_variance>
0.7761595845

$$$$
/media/chris/experiments/cd1a-new-docking/inputs/ligands/7sh4_ligand.pdb


 56 55  0  0  0  0  0  0  0  0999 V2000
  -40.6125   59.8637   65.1378 C   0  0  0  0  0  0  0  0  0  0  0  0
  -40.4352   59.0966   63.8581 C   0  0  0  0  0  0  0  0  0  0  0  0
  -39.9798   57.7969   64.2903 O   0  0  0  0  0  0  0  0  0  0  0  0
  -37.9765   57.4738   65.2289 O   0  0  0  0  0  0  0  0  0  0  0  0
  -38.6660   57.5730   64.2501 C   0  0  0  0  0  0  0  0  0  0  0  0
  -38.1982   57.3395   62.8424 C   0  0  0  0  0  0  0  0  0  0  0  0
  -36.8231   57.9118   62.5426 C   0  0  0  0  0  0  0  0  0  0  0  0
  -35.7020   57.0882   63.1406 C   0  0  0  0  0  0  0  0  0  0  0  0
  -34.6401   57.9043   63.8421 C   0  0  0  0  0  0  0  0  0  0  0  0
  -34.0315   58.9726   62.9564 C   0  0  0  0  0  0  0  0  0  0  0  0
  -33.1620   58.4097   61.8588 C   0  0  0  0  0  0  0  0  0  0  0  0
  -32.4292   57.1605   62.2711 C   0  0  0  0  0  0  0  0  0  0  0  0
  -32.8295   55.9388   61.4739 C   0  0  0  0  0  0  0  0  0  0  0  0
  -33.6253   56.2853   60.2319 C   0  0  0  0  0  0  0  0  0  0  0  0
  -34.8034   55.3684   59.9769 C   0  0  0  0  0  0  0  0  0  0  0  0
  -35.9991   56.0650   59.3372 C   0  0  0  0  0  0  0  0  0  0  0  0
  -35.7468   57.5168   58.9784 C   0  0  0  0  0  0  0  0  0  0  0  0
  -36.8008   58.1020   58.0609 C   0  0  0  0  0  0  0  0  0  0  0  0
  -38.1194   58.4024   58.7596 C   0  0  0  0  0  0  0  0  0  0  0  0
  -38.1168   59.7140   59.5243 C   0  0  0  0  0  0  0  0  0  0  0  0
  -40.5302   60.3733   59.8022 C   0  0  0  0  0  0  0  0  0  0  0  0
  -39.2739   59.8883   60.4896 C   0  0  0  0  0  0  0  0  0  0  0  0
  -39.3665   60.6200   65.5218 C   0  0  0  0  0  0  0  0  0  0  0  0
  -38.6585   60.9916   64.3181 O   0  0  0  0  0  0  0  0  0  0  0  0
  -37.1060   61.3810   64.3102 P   0  0  0  0  0  0  0  0  0  0  0  0
  -36.4160   60.5325   65.3056 O   0  0  0  0  0  0  0  0  0  0  0  0
  -36.6319   61.3597   62.9054 O   0  0  0  0  0  0  0  0  0  0  0  0
  -36.6591   60.4505   62.5686 H   0  0  0  0  0  0  0  0  0  0  0  0
  -37.0461   62.8890   64.8247 O   0  0  0  0  0  0  0  0  0  0  0  0
  -36.1271   63.2577   65.8733 C   0  0  0  0  0  0  0  0  0  0  0  0
  -34.7568   65.0182   64.9981 O   0  0  0  0  0  0  0  0  0  0  0  0
  -34.8020   63.6092   65.2427 C   0  0  0  0  0  0  0  0  0  0  0  0
  -35.5138   65.2753   64.4488 H   0  0  0  0  0  0  0  0  0  0  0  0
  -34.0642   62.8209   67.3997 O   0  0  0  0  0  0  0  0  0  0  0  0
  -33.6297   63.1908   66.0973 C   0  0  0  0  0  0  0  0  0  0  0  0
  -33.2984   62.5557   67.9328 H   0  0  0  0  0  0  0  0  0  0  0  0
  -41.0204   58.9238   66.1867 O   0  0  0  0  0  0  0  0  0  0  0  0
  -42.5427   59.8670   67.5480 O   0  0  0  0  0  0  0  0  0  0  0  0
  -42.2598   59.0735   66.6924 C   0  0  0  0  0  0  0  0  0  0  0  0
  -43.2437   58.1469   66.0481 C   0  0  0  0  0  0  0  0  0  0  0  0
  -44.4497   58.9044   65.5016 C   0  0  0  0  0  0  0  0  0  0  0  0
  -45.3962   58.0454   64.6792 C   0  0  0  0  0  0  0  0  0  0  0  0
  -46.8608   58.4429   64.8228 C   0  0  0  0  0  0  0  0  0  0  0  0
  -47.7433   57.3501   65.3967 C   0  0  0  0  0  0  0  0  0  0  0  0
  -49.1565   57.8046   65.7727 C   0  0  0  0  0  0  0  0  0  0  0  0
  -49.5278   59.2188   65.3211 C   0  0  0  0  0  0  0  0  0  0  0  0
  -50.8018   59.2431   64.5310 C   0  0  0  0  0  0  0  0  0  0  0  0
  -50.9139   59.3343   63.2201 C   0  0  0  0  0  0  0  0  0  0  0  0
  -49.7855   59.4310   62.2424 C   0  0  0  0  0  0  0  0  0  0  0  0
  -49.2651   58.0613   61.8164 C   0  0  0  0  0  0  0  0  0  0  0  0
  -49.5487   57.7269   60.3625 C   0  0  0  0  0  0  0  0  0  0  0  0
  -49.3083   56.2682   60.0140 C   0  0  0  0  0  0  0  0  0  0  0  0
  -48.0375   56.0113   59.2212 C   0  0  0  0  0  0  0  0  0  0  0  0
  -47.2039   57.2625   58.9909 C   0  0  0  0  0  0  0  0  0  0  0  0
  -46.7897   57.4773   57.5487 C   0  0  0  0  0  0  0  0  0  0  0  0
  -47.5965   56.6549   56.5832 C   0  0  0  0  0  0  0  0  0  0  0  0
 21 22  1  0  0  0
  4  5  2  0  0  0
 25 24  1  0  0  0
 25 26  2  0  0  0
 25 27  1  0  0  0
 25 29  1  0  0  0
 22 20  1  0  0  0
  3  5  1  0  0  0
  3  2  1  0  0  0
 20 19  1  0  0  0
 24 23  1  0  0  0
 19 18  1  0  0  0
 18 17  1  0  0  0
 27 28  1  0  0  0
 17 16  1  0  0  0
 29 30  1  0  0  0
 16 15  1  0  0  0
 34 35  1  0  0  0
 34 36  1  0  0  0
 15 14  1  0  0  0
 31 32  1  0  0  0
 31 33  1  0  0  0
 14 13  1  0  0  0
 37  1  1  0  0  0
 37 39  1  0  0  0
 13 12  1  0  0  0
 38 39  2  0  0  0
 12 11  1  0  0  0
 11 10  1  0  0  0
 10  9  1  0  0  0
  9  8  1  0  0  0
  8  7  1  0  0  0
  7  6  1  0  0  0
  6  5  1  0  0  0
  2  1  1  0  0  0
  1 23  1  0  0  0
 30 32  1  0  0  0
 32 35  1  0  0  0
 39 40  1  0  0  0
 40 41  1  0  0  0
 41 42  1  0  0  0
 42 43  1  0  0  0
 43 44  1  0  0  0
 44 45  1  0  0  0
 45 46  1  0  0  0
 46 47  1  0  0  0
 47 48  2  0  0  0
 48 49  1  0  0  0
 49 50  1  0  0  0
 50 51  1  0  0  0
 51 52  1  0  0  0
 52 53  1  0  0  0
 53 54  1  0  0  0
 54 55  1  0  0  0
 55 56  1  0  0  0
M  CHG 1  26  -1
M  END
> <minimizedAffinity>
-8.38099

> <CNNscore>
0.2973997593

> <CNNaffinity>
7.2866430283

> <CNN_VS>
2.1670458317

> <CNNaffinity_variance>
0.8140833974

$$$$
