/media/chris/experiments/cd1a-new-docking/inputs/ligands/7sh4_ligand.pdb


 56 55  0  0  0  0  0  0  0  0999 V2000
  -38.2998   60.4257   64.5613 C   0  0  0  0  0  0  0  0  0  0  0  0
  -38.7396   60.0938   65.9592 C   0  0  0  0  0  0  0  0  0  0  0  0
  -39.6945   59.0264   65.7806 O   0  0  0  0  0  0  0  0  0  0  0  0
  -41.3299   60.3176   66.5914 O   0  0  0  0  0  0  0  0  0  0  0  0
  -40.9689   59.3030   66.0587 C   0  0  0  0  0  0  0  0  0  0  0  0
  -41.8854   58.2478   65.5097 C   0  0  0  0  0  0  0  0  0  0  0  0
  -42.7994   57.6187   66.5475 C   0  0  0  0  0  0  0  0  0  0  0  0
  -44.1782   57.3092   66.0037 C   0  0  0  0  0  0  0  0  0  0  0  0
  -45.2653   58.2288   66.5123 C   0  0  0  0  0  0  0  0  0  0  0  0
  -45.8884   59.0725   65.4188 C   0  0  0  0  0  0  0  0  0  0  0  0
  -46.8950   58.3169   64.5862 C   0  0  0  0  0  0  0  0  0  0  0  0
  -48.1734   58.0279   65.3277 C   0  0  0  0  0  0  0  0  0  0  0  0
  -49.3197   58.9272   64.9212 C   0  0  0  0  0  0  0  0  0  0  0  0
  -50.1346   58.3564   63.7782 C   0  0  0  0  0  0  0  0  0  0  0  0
  -50.3801   59.3320   62.6465 C   0  0  0  0  0  0  0  0  0  0  0  0
  -49.5935   59.0162   61.3794 C   0  0  0  0  0  0  0  0  0  0  0  0
  -50.2602   57.9941   60.4788 C   0  0  0  0  0  0  0  0  0  0  0  0
  -49.6654   56.6061   60.5999 C   0  0  0  0  0  0  0  0  0  0  0  0
  -48.7828   56.2155   59.4227 C   0  0  0  0  0  0  0  0  0  0  0  0
  -47.4200   56.8848   59.4365 C   0  0  0  0  0  0  0  0  0  0  0  0
  -47.0945   56.8616   56.9407 C   0  0  0  0  0  0  0  0  0  0  0  0
  -47.1010   57.7008   58.1982 C   0  0  0  0  0  0  0  0  0  0  0  0
  -36.9470   61.0899   64.5361 C   0  0  0  0  0  0  0  0  0  0  0  0
  -36.9411   62.0940   63.4968 O   0  0  0  0  0  0  0  0  0  0  0  0
  -35.7037   63.0784   63.2488 P   0  0  0  0  0  0  0  0  0  0  0  0
  -34.4678   62.3687   63.6430 O   0  0  0  0  0  0  0  0  0  0  0  0
  -35.8088   63.6135   61.8699 O   0  0  0  0  0  0  0  0  0  0  0  0
  -35.6814   62.8931   61.2329 H   0  0  0  0  0  0  0  0  0  0  0  0
  -35.9185   64.2906   64.2625 O   0  0  0  0  0  0  0  0  0  0  0  0
  -34.9654   64.5248   65.3192 C   0  0  0  0  0  0  0  0  0  0  0  0
  -37.0360   64.2996   66.5043 O   0  0  0  0  0  0  0  0  0  0  0  0
  -35.6169   64.1731   66.6341 C   0  0  0  0  0  0  0  0  0  0  0  0
  -37.2547   65.1959   66.2052 H   0  0  0  0  0  0  0  0  0  0  0  0
  -36.2269   62.2945   68.0187 O   0  0  0  0  0  0  0  0  0  0  0  0
  -35.2580   62.7823   67.0995 C   0  0  0  0  0  0  0  0  0  0  0  0
  -35.9796   61.4015   68.3058 H   0  0  0  0  0  0  0  0  0  0  0  0
  -39.3280   61.2674   63.9415 O   0  0  0  0  0  0  0  0  0  0  0  0
  -41.3370   60.8690   63.0113 O   0  0  0  0  0  0  0  0  0  0  0  0
  -40.1535   60.6726   63.0589 C   0  0  0  0  0  0  0  0  0  0  0  0
  -39.4171   59.7533   62.1344 C   0  0  0  0  0  0  0  0  0  0  0  0
  -38.8912   60.4957   60.9101 C   0  0  0  0  0  0  0  0  0  0  0  0
  -38.9683   59.6925   59.6220 C   0  0  0  0  0  0  0  0  0  0  0  0
  -37.9907   58.5239   59.5726 C   0  0  0  0  0  0  0  0  0  0  0  0
  -37.0612   58.5475   58.3735 C   0  0  0  0  0  0  0  0  0  0  0  0
  -37.1243   57.2952   57.4944 C   0  0  0  0  0  0  0  0  0  0  0  0
  -36.1933   56.1561   57.9154 C   0  0  0  0  0  0  0  0  0  0  0  0
  -34.7565   56.5830   57.9464 C   0  0  0  0  0  0  0  0  0  0  0  0
  -33.9337   56.5048   58.9743 C   0  0  0  0  0  0  0  0  0  0  0  0
  -34.2651   55.9688   60.3312 C   0  0  0  0  0  0  0  0  0  0  0  0
  -33.2559   56.4019   61.3907 C   0  0  0  0  0  0  0  0  0  0  0  0
  -33.0325   57.9031   61.4422 C   0  0  0  0  0  0  0  0  0  0  0  0
  -32.8488   58.4444   62.8495 C   0  0  0  0  0  0  0  0  0  0  0  0
  -34.1282   58.9327   63.5084 C   0  0  0  0  0  0  0  0  0  0  0  0
  -34.6589   57.9873   64.5754 C   0  0  0  0  0  0  0  0  0  0  0  0
  -35.9095   57.2322   64.1712 C   0  0  0  0  0  0  0  0  0  0  0  0
  -36.4585   57.6833   62.8465 C   0  0  0  0  0  0  0  0  0  0  0  0
 21 22  1  0  0  0
  4  5  2  0  0  0
 25 24  1  0  0  0
 25 26  2  0  0  0
 25 27  1  0  0  0
 25 29  1  0  0  0
 22 20  1  0  0  0
  3  5  1  0  0  0
  3  2  1  0  0  0
 20 19  1  0  0  0
 24 23  1  0  0  0
 19 18  1  0  0  0
 18 17  1  0  0  0
 27 28  1  0  0  0
 17 16  1  0  0  0
 29 30  1  0  0  0
 16 15  1  0  0  0
 34 35  1  0  0  0
 34 36  1  0  0  0
 15 14  1  0  0  0
 31 32  1  0  0  0
 31 33  1  0  0  0
 14 13  1  0  0  0
 37  1  1  0  0  0
 37 39  1  0  0  0
 13 12  1  0  0  0
 38 39  2  0  0  0
 12 11  1  0  0  0
 11 10  1  0  0  0
 10  9  1  0  0  0
  9  8  1  0  0  0
  8  7  1  0  0  0
  7  6  1  0  0  0
  6  5  1  0  0  0
  2  1  1  0  0  0
  1 23  1  0  0  0
 30 32  1  0  0  0
 32 35  1  0  0  0
 39 40  1  0  0  0
 40 41  1  0  0  0
 41 42  1  0  0  0
 42 43  1  0  0  0
 43 44  1  0  0  0
 44 45  1  0  0  0
 45 46  1  0  0  0
 46 47  1  0  0  0
 47 48  2  0  0  0
 48 49  1  0  0  0
 49 50  1  0  0  0
 50 51  1  0  0  0
 51 52  1  0  0  0
 52 53  1  0  0  0
 53 54  1  0  0  0
 54 55  1  0  0  0
 55 56  1  0  0  0
M  CHG 1  26  -1
M  END
> <minimizedAffinity>
-8.62175

> <CNNscore>
0.6058006287

> <CNNaffinity>
7.7978372574

> <CNN_VS>
4.7239346504

> <CNNaffinity_variance>
0.8631430864

$$$$
/media/chris/experiments/cd1a-new-docking/inputs/ligands/7sh4_ligand.pdb


 56 55  0  0  0  0  0  0  0  0999 V2000
  -34.0047   59.5712   63.1330 C   0  0  0  0  0  0  0  0  0  0  0  0
  -35.4306   59.8678   63.5026 C   0  0  0  0  0  0  0  0  0  0  0  0
  -35.7291   58.9095   64.5397 O   0  0  0  0  0  0  0  0  0  0  0  0
  -36.4268   56.7887   64.6604 O   0  0  0  0  0  0  0  0  0  0  0  0
  -36.5359   57.8990   64.2145 C   0  0  0  0  0  0  0  0  0  0  0  0
  -37.6561   58.3627   63.3285 C   0  0  0  0  0  0  0  0  0  0  0  0
  -38.9285   57.5423   63.4562 C   0  0  0  0  0  0  0  0  0  0  0  0
  -39.7579   57.9308   64.6619 C   0  0  0  0  0  0  0  0  0  0  0  0
  -40.1061   59.4006   64.7265 C   0  0  0  0  0  0  0  0  0  0  0  0
  -41.5469   59.6523   65.1224 C   0  0  0  0  0  0  0  0  0  0  0  0
  -41.9119   59.0439   66.4544 C   0  0  0  0  0  0  0  0  0  0  0  0
  -43.3202   58.5120   66.4921 C   0  0  0  0  0  0  0  0  0  0  0  0
  -43.4442   57.1023   65.9580 C   0  0  0  0  0  0  0  0  0  0  0  0
  -44.8335   56.7935   65.4378 C   0  0  0  0  0  0  0  0  0  0  0  0
  -45.4448   57.9048   64.6105 C   0  0  0  0  0  0  0  0  0  0  0  0
  -46.6558   58.5629   65.2618 C   0  0  0  0  0  0  0  0  0  0  0  0
  -47.9427   57.7752   65.1074 C   0  0  0  0  0  0  0  0  0  0  0  0
  -49.1246   58.4090   65.8119 C   0  0  0  0  0  0  0  0  0  0  0  0
  -50.4358   58.2682   65.0513 C   0  0  0  0  0  0  0  0  0  0  0  0
  -50.8374   59.5220   64.2952 C   0  0  0  0  0  0  0  0  0  0  0  0
  -49.9398   59.2981   61.9543 C   0  0  0  0  0  0  0  0  0  0  0  0
  -51.1708   59.3015   62.8319 C   0  0  0  0  0  0  0  0  0  0  0  0
  -33.2124   60.8279   62.8792 C   0  0  0  0  0  0  0  0  0  0  0  0
  -33.8652   61.9318   63.5453 O   0  0  0  0  0  0  0  0  0  0  0  0
  -33.6961   63.4520   63.0737 P   0  0  0  0  0  0  0  0  0  0  0  0
  -32.3978   63.9468   63.5797 O   0  0  0  0  0  0  0  0  0  0  0  0
  -33.9637   63.5156   61.6166 O   0  0  0  0  0  0  0  0  0  0  0  0
  -33.2716   63.0317   61.1393 H   0  0  0  0  0  0  0  0  0  0  0  0
  -34.8530   64.2569   63.8199 O   0  0  0  0  0  0  0  0  0  0  0  0
  -34.7846   64.4626   65.2456 C   0  0  0  0  0  0  0  0  0  0  0  0
  -36.5250   62.8198   65.1240 O   0  0  0  0  0  0  0  0  0  0  0  0
  -36.0659   63.9566   65.8614 C   0  0  0  0  0  0  0  0  0  0  0  0
  -36.6269   63.0599   64.1898 H   0  0  0  0  0  0  0  0  0  0  0  0
  -34.6255   63.0182   67.5535 O   0  0  0  0  0  0  0  0  0  0  0  0
  -35.9015   63.6003   67.3194 C   0  0  0  0  0  0  0  0  0  0  0  0
  -34.5389   62.7965   68.4939 H   0  0  0  0  0  0  0  0  0  0  0  0
  -34.0055   58.6861   61.9641 O   0  0  0  0  0  0  0  0  0  0  0  0
  -32.4212   57.3122   62.7781 O   0  0  0  0  0  0  0  0  0  0  0  0
  -33.3966   57.4926   62.1015 C   0  0  0  0  0  0  0  0  0  0  0  0
  -34.0911   56.4164   61.3259 C   0  0  0  0  0  0  0  0  0  0  0  0
  -34.3476   56.8436   59.8842 C   0  0  0  0  0  0  0  0  0  0  0  0
  -35.6502   56.3143   59.3070 C   0  0  0  0  0  0  0  0  0  0  0  0
  -36.0304   56.9510   57.9752 C   0  0  0  0  0  0  0  0  0  0  0  0
  -37.3133   57.7601   58.0221 C   0  0  0  0  0  0  0  0  0  0  0  0
  -37.3818   58.7792   59.1631 C   0  0  0  0  0  0  0  0  0  0  0  0
  -38.7249   58.8510   59.8927 C   0  0  0  0  0  0  0  0  0  0  0  0
  -39.3695   60.1980   59.7582 C   0  0  0  0  0  0  0  0  0  0  0  0
  -40.5954   60.4460   59.3395 C   0  0  0  0  0  0  0  0  0  0  0  0
  -41.6044   59.4282   58.9105 C   0  0  0  0  0  0  0  0  0  0  0  0
  -41.8658   59.4647   57.4076 C   0  0  0  0  0  0  0  0  0  0  0  0
  -43.1115   58.7047   56.9869 C   0  0  0  0  0  0  0  0  0  0  0  0
  -44.0110   58.3176   58.1480 C   0  0  0  0  0  0  0  0  0  0  0  0
  -45.4562   58.0488   57.7625 C   0  0  0  0  0  0  0  0  0  0  0  0
  -46.3115   57.5606   58.9218 C   0  0  0  0  0  0  0  0  0  0  0  0
  -47.7927   57.4779   58.6104 C   0  0  0  0  0  0  0  0  0  0  0  0
  -48.5269   56.5354   59.5227 C   0  0  0  0  0  0  0  0  0  0  0  0
 21 22  1  0  0  0
  4  5  2  0  0  0
 25 24  1  0  0  0
 25 26  2  0  0  0
 25 27  1  0  0  0
 25 29  1  0  0  0
 22 20  1  0  0  0
  3  5  1  0  0  0
  3  2  1  0  0  0
 20 19  1  0  0  0
 24 23  1  0  0  0
 19 18  1  0  0  0
 18 17  1  0  0  0
 27 28  1  0  0  0
 17 16  1  0  0  0
 29 30  1  0  0  0
 16 15  1  0  0  0
 34 35  1  0  0  0
 34 36  1  0  0  0
 15 14  1  0  0  0
 31 32  1  0  0  0
 31 33  1  0  0  0
 14 13  1  0  0  0
 37  1  1  0  0  0
 37 39  1  0  0  0
 13 12  1  0  0  0
 38 39  2  0  0  0
 12 11  1  0  0  0
 11 10  1  0  0  0
 10  9  1  0  0  0
  9  8  1  0  0  0
  8  7  1  0  0  0
  7  6  1  0  0  0
  6  5  1  0  0  0
  2  1  1  0  0  0
  1 23  1  0  0  0
 30 32  1  0  0  0
 32 35  1  0  0  0
 39 40  1  0  0  0
 40 41  1  0  0  0
 41 42  1  0  0  0
 42 43  1  0  0  0
 43 44  1  0  0  0
 44 45  1  0  0  0
 45 46  1  0  0  0
 46 47  1  0  0  0
 47 48  2  0  0  0
 48 49  1  0  0  0
 49 50  1  0  0  0
 50 51  1  0  0  0
 51 52  1  0  0  0
 52 53  1  0  0  0
 53 54  1  0  0  0
 54 55  1  0  0  0
 55 56  1  0  0  0
M  CHG 1  26  -1
M  END
> <minimizedAffinity>
-8.01850

> <CNNscore>
0.6011262536

> <CNNaffinity>
7.5602483749

> <CNN_VS>
4.5446639061

> <CNNaffinity_variance>
0.9096252322

$$$$
/media/chris/experiments/cd1a-new-docking/inputs/ligands/7sh4_ligand.pdb


 56 55  0  0  0  0  0  0  0  0999 V2000
  -35.4344   59.2582   63.7159 C   0  0  0  0  0  0  0  0  0  0  0  0
  -36.9046   59.3766   64.0023 C   0  0  0  0  0  0  0  0  0  0  0  0
  -37.3497   58.0083   64.1153 O   0  0  0  0  0  0  0  0  0  0  0  0
  -38.0296   56.8122   62.3529 O   0  0  0  0  0  0  0  0  0  0  0  0
  -38.2613   57.5948   63.2345 C   0  0  0  0  0  0  0  0  0  0  0  0
  -39.6222   58.1347   63.5684 C   0  0  0  0  0  0  0  0  0  0  0  0
  -39.8694   58.3174   65.0563 C   0  0  0  0  0  0  0  0  0  0  0  0
  -40.6292   59.5882   65.3726 C   0  0  0  0  0  0  0  0  0  0  0  0
  -42.0442   59.6125   64.8405 C   0  0  0  0  0  0  0  0  0  0  0  0
  -43.0590   59.0736   65.8283 C   0  0  0  0  0  0  0  0  0  0  0  0
  -44.4510   58.9723   65.2544 C   0  0  0  0  0  0  0  0  0  0  0  0
  -45.5193   58.8922   66.3126 C   0  0  0  0  0  0  0  0  0  0  0  0
  -46.9233   58.9797   65.7564 C   0  0  0  0  0  0  0  0  0  0  0  0
  -47.5997   57.6272   65.6592 C   0  0  0  0  0  0  0  0  0  0  0  0
  -49.1125   57.6900   65.6777 C   0  0  0  0  0  0  0  0  0  0  0  0
  -49.6729   59.0966   65.4998 C   0  0  0  0  0  0  0  0  0  0  0  0
  -50.7394   59.2038   64.4267 C   0  0  0  0  0  0  0  0  0  0  0  0
  -50.2588   59.8951   63.1673 C   0  0  0  0  0  0  0  0  0  0  0  0
  -49.5760   58.9589   62.1799 C   0  0  0  0  0  0  0  0  0  0  0  0
  -50.2001   57.5760   62.1227 C   0  0  0  0  0  0  0  0  0  0  0  0
  -50.3706   57.7300   59.6161 C   0  0  0  0  0  0  0  0  0  0  0  0
  -51.0569   57.3164   60.8981 C   0  0  0  0  0  0  0  0  0  0  0  0
  -34.6715   60.4814   64.1556 C   0  0  0  0  0  0  0  0  0  0  0  0
  -34.6973   61.4546   63.0875 O   0  0  0  0  0  0  0  0  0  0  0  0
  -33.7990   62.7792   63.0992 P   0  0  0  0  0  0  0  0  0  0  0  0
  -32.6502   62.5615   62.1940 O   0  0  0  0  0  0  0  0  0  0  0  0
  -34.6873   63.9414   62.8560 O   0  0  0  0  0  0  0  0  0  0  0  0
  -35.0430   63.8935   61.9548 H   0  0  0  0  0  0  0  0  0  0  0  0
  -33.2368   62.8952   64.5869 O   0  0  0  0  0  0  0  0  0  0  0  0
  -33.8221   63.8381   65.5079 C   0  0  0  0  0  0  0  0  0  0  0  0
  -34.1646   62.7437   67.6120 O   0  0  0  0  0  0  0  0  0  0  0  0
  -34.8051   63.1004   66.3835 C   0  0  0  0  0  0  0  0  0  0  0  0
  -33.3677   62.2242   67.4224 H   0  0  0  0  0  0  0  0  0  0  0  0
  -36.3980   63.8405   68.0368 O   0  0  0  0  0  0  0  0  0  0  0  0
  -36.0489   63.9104   66.6603 C   0  0  0  0  0  0  0  0  0  0  0  0
  -37.1979   64.3661   68.1946 H   0  0  0  0  0  0  0  0  0  0  0  0
  -35.2628   58.9990   62.2829 O   0  0  0  0  0  0  0  0  0  0  0  0
  -33.1253   58.6353   61.6837 O   0  0  0  0  0  0  0  0  0  0  0  0
  -34.2255   58.2186   61.9236 C   0  0  0  0  0  0  0  0  0  0  0  0
  -34.6034   56.7704   61.8772 C   0  0  0  0  0  0  0  0  0  0  0  0
  -33.7468   56.0012   60.8766 C   0  0  0  0  0  0  0  0  0  0  0  0
  -34.4867   55.6021   59.6103 C   0  0  0  0  0  0  0  0  0  0  0  0
  -34.5863   56.7239   58.5830 C   0  0  0  0  0  0  0  0  0  0  0  0
  -35.9925   56.9632   58.0653 C   0  0  0  0  0  0  0  0  0  0  0  0
  -36.5108   58.3900   58.2669 C   0  0  0  0  0  0  0  0  0  0  0  0
  -38.0214   58.5104   58.4798 C   0  0  0  0  0  0  0  0  0  0  0  0
  -38.3602   59.0181   59.8492 C   0  0  0  0  0  0  0  0  0  0  0  0
  -39.3369   59.8474   60.1622 C   0  0  0  0  0  0  0  0  0  0  0  0
  -40.3169   60.4564   59.2098 C   0  0  0  0  0  0  0  0  0  0  0  0
  -41.5330   59.5648   58.9764 C   0  0  0  0  0  0  0  0  0  0  0  0
  -41.7275   59.1672   57.5237 C   0  0  0  0  0  0  0  0  0  0  0  0
  -43.1853   59.0454   57.1146 C   0  0  0  0  0  0  0  0  0  0  0  0
  -44.0682   58.3425   58.1324 C   0  0  0  0  0  0  0  0  0  0  0  0
  -45.4254   57.9361   57.5786 C   0  0  0  0  0  0  0  0  0  0  0  0
  -46.4806   57.6880   58.6382 C   0  0  0  0  0  0  0  0  0  0  0  0
  -47.1931   56.3773   58.4535 C   0  0  0  0  0  0  0  0  0  0  0  0
 21 22  1  0  0  0
  4  5  2  0  0  0
 25 24  1  0  0  0
 25 26  2  0  0  0
 25 27  1  0  0  0
 25 29  1  0  0  0
 22 20  1  0  0  0
  3  5  1  0  0  0
  3  2  1  0  0  0
 20 19  1  0  0  0
 24 23  1  0  0  0
 19 18  1  0  0  0
 18 17  1  0  0  0
 27 28  1  0  0  0
 17 16  1  0  0  0
 29 30  1  0  0  0
 16 15  1  0  0  0
 34 35  1  0  0  0
 34 36  1  0  0  0
 15 14  1  0  0  0
 31 32  1  0  0  0
 31 33  1  0  0  0
 14 13  1  0  0  0
 37  1  1  0  0  0
 37 39  1  0  0  0
 13 12  1  0  0  0
 38 39  2  0  0  0
 12 11  1  0  0  0
 11 10  1  0  0  0
 10  9  1  0  0  0
  9  8  1  0  0  0
  8  7  1  0  0  0
  7  6  1  0  0  0
  6  5  1  0  0  0
  2  1  1  0  0  0
  1 23  1  0  0  0
 30 32  1  0  0  0
 32 35  1  0  0  0
 39 40  1  0  0  0
 40 41  1  0  0  0
 41 42  1  0  0  0
 42 43  1  0  0  0
 43 44  1  0  0  0
 44 45  1  0  0  0
 45 46  1  0  0  0
 46 47  1  0  0  0
 47 48  2  0  0  0
 48 49  1  0  0  0
 49 50  1  0  0  0
 50 51  1  0  0  0
 51 52  1  0  0  0
 52 53  1  0  0  0
 53 54  1  0  0  0
 54 55  1  0  0  0
 55 56  1  0  0  0
M  CHG 1  26  -1
M  END
> <minimizedAffinity>
-8.25122

> <CNNscore>
0.5770002604

> <CNNaffinity>
7.5259528160

> <CNN_VS>
4.3424768448

> <CNNaffinity_variance>
0.6491163373

$$$$
/media/chris/experiments/cd1a-new-docking/inputs/ligands/7sh4_ligand.pdb


 56 55  0  0  0  0  0  0  0  0999 V2000
  -35.6045   59.1335   63.3049 C   0  0  0  0  0  0  0  0  0  0  0  0
  -35.0079   57.8946   62.6991 C   0  0  0  0  0  0  0  0  0  0  0  0
  -35.3890   57.9674   61.3089 O   0  0  0  0  0  0  0  0  0  0  0  0
  -33.5746   56.9986   60.4324 O   0  0  0  0  0  0  0  0  0  0  0  0
  -34.7671   57.1404   60.4680 C   0  0  0  0  0  0  0  0  0  0  0  0
  -35.7524   56.3322   59.6738 C   0  0  0  0  0  0  0  0  0  0  0  0
  -35.8938   56.7735   58.2269 C   0  0  0  0  0  0  0  0  0  0  0  0
  -37.2142   57.4609   57.9500 C   0  0  0  0  0  0  0  0  0  0  0  0
  -37.3609   58.8109   58.6148 C   0  0  0  0  0  0  0  0  0  0  0  0
  -38.4602   58.8427   59.6571 C   0  0  0  0  0  0  0  0  0  0  0  0
  -39.1250   60.1921   59.7784 C   0  0  0  0  0  0  0  0  0  0  0  0
  -40.6010   60.1494   59.4828 C   0  0  0  0  0  0  0  0  0  0  0  0
  -40.9415   59.3602   58.2381 C   0  0  0  0  0  0  0  0  0  0  0  0
  -42.3183   59.6871   57.6963 C   0  0  0  0  0  0  0  0  0  0  0  0
  -42.9621   58.5564   56.9216 C   0  0  0  0  0  0  0  0  0  0  0  0
  -44.3744   58.2179   57.3850 C   0  0  0  0  0  0  0  0  0  0  0  0
  -44.5106   58.0688   58.8882 C   0  0  0  0  0  0  0  0  0  0  0  0
  -45.8814   57.5937   59.3242 C   0  0  0  0  0  0  0  0  0  0  0  0
  -46.9377   57.6934   58.2325 C   0  0  0  0  0  0  0  0  0  0  0  0
  -48.2339   56.9804   58.5742 C   0  0  0  0  0  0  0  0  0  0  0  0
  -47.3360   55.2847   56.9450 C   0  0  0  0  0  0  0  0  0  0  0  0
  -48.3386   55.5639   58.0415 C   0  0  0  0  0  0  0  0  0  0  0  0
  -34.5713   60.2074   63.5306 C   0  0  0  0  0  0  0  0  0  0  0  0
  -35.2239   61.4962   63.4921 O   0  0  0  0  0  0  0  0  0  0  0  0
  -34.4221   62.8694   63.3099 P   0  0  0  0  0  0  0  0  0  0  0  0
  -33.4164   62.6745   62.2436 O   0  0  0  0  0  0  0  0  0  0  0  0
  -35.4106   63.9652   63.1652 O   0  0  0  0  0  0  0  0  0  0  0  0
  -35.8982   63.8532   62.3342 H   0  0  0  0  0  0  0  0  0  0  0  0
  -33.6441   63.0897   64.6844 O   0  0  0  0  0  0  0  0  0  0  0  0
  -34.0333   64.1592   65.5702 C   0  0  0  0  0  0  0  0  0  0  0  0
  -34.4367   64.5582   67.8984 O   0  0  0  0  0  0  0  0  0  0  0  0
  -34.4776   63.5548   66.8795 C   0  0  0  0  0  0  0  0  0  0  0  0
  -33.5450   64.9371   67.9436 H   0  0  0  0  0  0  0  0  0  0  0  0
  -36.3036   62.5319   68.0787 O   0  0  0  0  0  0  0  0  0  0  0  0
  -35.8601   62.9536   66.7953 C   0  0  0  0  0  0  0  0  0  0  0  0
  -37.1918   62.1492   68.0043 H   0  0  0  0  0  0  0  0  0  0  0  0
  -36.2778   58.7589   64.5524 O   0  0  0  0  0  0  0  0  0  0  0  0
  -38.2426   57.9066   65.2405 O   0  0  0  0  0  0  0  0  0  0  0  0
  -37.6168   58.6213   64.5060 C   0  0  0  0  0  0  0  0  0  0  0  0
  -38.2318   59.4783   63.4434 C   0  0  0  0  0  0  0  0  0  0  0  0
  -39.6965   59.1194   63.2143 C   0  0  0  0  0  0  0  0  0  0  0  0
  -40.6504   60.2923   63.3708 C   0  0  0  0  0  0  0  0  0  0  0  0
  -41.8577   59.9835   64.2487 C   0  0  0  0  0  0  0  0  0  0  0  0
  -41.5032   59.3814   65.5956 C   0  0  0  0  0  0  0  0  0  0  0  0
  -42.2821   58.1115   65.9501 C   0  0  0  0  0  0  0  0  0  0  0  0
  -43.7608   58.3252   66.2811 C   0  0  0  0  0  0  0  0  0  0  0  0
  -44.6622   57.8038   65.2025 C   0  0  0  0  0  0  0  0  0  0  0  0
  -45.8211   58.3121   64.8308 C   0  0  0  0  0  0  0  0  0  0  0  0
  -46.4804   59.5233   65.4108 C   0  0  0  0  0  0  0  0  0  0  0  0
  -47.5757   59.1671   66.4118 C   0  0  0  0  0  0  0  0  0  0  0  0
  -48.6537   58.2632   65.8397 C   0  0  0  0  0  0  0  0  0  0  0  0
  -50.0248   58.9139   65.7766 C   0  0  0  0  0  0  0  0  0  0  0  0
  -50.5446   59.1517   64.3685 C   0  0  0  0  0  0  0  0  0  0  0  0
  -49.5811   59.9371   63.4918 C   0  0  0  0  0  0  0  0  0  0  0  0
  -49.7032   59.6385   62.0107 C   0  0  0  0  0  0  0  0  0  0  0  0
  -49.5101   58.1820   61.6934 C   0  0  0  0  0  0  0  0  0  0  0  0
 21 22  1  0  0  0
  4  5  2  0  0  0
 25 24  1  0  0  0
 25 26  2  0  0  0
 25 27  1  0  0  0
 25 29  1  0  0  0
 22 20  1  0  0  0
  3  5  1  0  0  0
  3  2  1  0  0  0
 20 19  1  0  0  0
 24 23  1  0  0  0
 19 18  1  0  0  0
 18 17  1  0  0  0
 27 28  1  0  0  0
 17 16  1  0  0  0
 29 30  1  0  0  0
 16 15  1  0  0  0
 34 35  1  0  0  0
 34 36  1  0  0  0
 15 14  1  0  0  0
 31 32  1  0  0  0
 31 33  1  0  0  0
 14 13  1  0  0  0
 37  1  1  0  0  0
 37 39  1  0  0  0
 13 12  1  0  0  0
 38 39  2  0  0  0
 12 11  1  0  0  0
 11 10  1  0  0  0
 10  9  1  0  0  0
  9  8  1  0  0  0
  8  7  1  0  0  0
  7  6  1  0  0  0
  6  5  1  0  0  0
  2  1  1  0  0  0
  1 23  1  0  0  0
 30 32  1  0  0  0
 32 35  1  0  0  0
 39 40  1  0  0  0
 40 41  1  0  0  0
 41 42  1  0  0  0
 42 43  1  0  0  0
 43 44  1  0  0  0
 44 45  1  0  0  0
 45 46  1  0  0  0
 46 47  1  0  0  0
 47 48  2  0  0  0
 48 49  1  0  0  0
 49 50  1  0  0  0
 50 51  1  0  0  0
 51 52  1  0  0  0
 52 53  1  0  0  0
 53 54  1  0  0  0
 54 55  1  0  0  0
 55 56  1  0  0  0
M  CHG 1  26  -1
M  END
> <minimizedAffinity>
-8.07874

> <CNNscore>
0.5677922368

> <CNNaffinity>
7.7387962341

> <CNN_VS>
4.3940281868

> <CNNaffinity_variance>
0.6939204335

$$$$
/media/chris/experiments/cd1a-new-docking/inputs/ligands/7sh4_ligand.pdb


 56 55  0  0  0  0  0  0  0  0999 V2000
  -36.7001   59.9616   63.7866 C   0  0  0  0  0  0  0  0  0  0  0  0
  -35.4252   59.1794   63.9290 C   0  0  0  0  0  0  0  0  0  0  0  0
  -35.1395   58.7301   62.5875 O   0  0  0  0  0  0  0  0  0  0  0  0
  -32.9703   59.2414   62.4070 O   0  0  0  0  0  0  0  0  0  0  0  0
  -33.8675   58.4493   62.3025 C   0  0  0  0  0  0  0  0  0  0  0  0
  -33.6960   56.9971   61.9611 C   0  0  0  0  0  0  0  0  0  0  0  0
  -33.7368   56.7008   60.4715 C   0  0  0  0  0  0  0  0  0  0  0  0
  -34.7840   55.6698   60.1073 C   0  0  0  0  0  0  0  0  0  0  0  0
  -35.6289   56.0415   58.9098 C   0  0  0  0  0  0  0  0  0  0  0  0
  -36.9376   56.7042   59.2897 C   0  0  0  0  0  0  0  0  0  0  0  0
  -37.2800   56.5485   60.7513 C   0  0  0  0  0  0  0  0  0  0  0  0
  -38.1072   57.6874   61.2863 C   0  0  0  0  0  0  0  0  0  0  0  0
  -38.1773   58.8714   60.3475 C   0  0  0  0  0  0  0  0  0  0  0  0
  -38.8487   60.0765   60.9744 C   0  0  0  0  0  0  0  0  0  0  0  0
  -40.2871   60.2757   60.5451 C   0  0  0  0  0  0  0  0  0  0  0  0
  -40.5223   60.0509   59.0558 C   0  0  0  0  0  0  0  0  0  0  0  0
  -41.8945   59.4957   58.7254 C   0  0  0  0  0  0  0  0  0  0  0  0
  -42.1975   59.4834   57.2412 C   0  0  0  0  0  0  0  0  0  0  0  0
  -43.3712   58.5897   56.8653 C   0  0  0  0  0  0  0  0  0  0  0  0
  -44.1365   58.0559   58.0630 C   0  0  0  0  0  0  0  0  0  0  0  0
  -46.3558   57.5853   59.1534 C   0  0  0  0  0  0  0  0  0  0  0  0
  -45.6457   58.0742   57.9115 C   0  0  0  0  0  0  0  0  0  0  0  0
  -36.4417   61.4297   63.5636 C   0  0  0  0  0  0  0  0  0  0  0  0
  -35.0468   61.6114   63.2325 O   0  0  0  0  0  0  0  0  0  0  0  0
  -34.3223   63.0378   63.2816 P   0  0  0  0  0  0  0  0  0  0  0  0
  -32.9475   62.8360   63.7873 O   0  0  0  0  0  0  0  0  0  0  0  0
  -34.5079   63.6952   61.9655 O   0  0  0  0  0  0  0  0  0  0  0  0
  -34.0269   63.1985   61.2852 H   0  0  0  0  0  0  0  0  0  0  0  0
  -35.1264   63.8827   64.3690 O   0  0  0  0  0  0  0  0  0  0  0  0
  -34.5847   64.0538   65.6946 C   0  0  0  0  0  0  0  0  0  0  0  0
  -33.9770   62.7405   67.6047 O   0  0  0  0  0  0  0  0  0  0  0  0
  -34.8731   62.8051   66.4913 C   0  0  0  0  0  0  0  0  0  0  0  0
  -33.0618   62.7791   67.2860 H   0  0  0  0  0  0  0  0  0  0  0  0
  -36.9378   64.0095   66.8152 O   0  0  0  0  0  0  0  0  0  0  0  0
  -36.3039   62.7461   66.9697 C   0  0  0  0  0  0  0  0  0  0  0  0
  -37.8544   63.9517   67.1274 H   0  0  0  0  0  0  0  0  0  0  0  0
  -37.5188   59.7312   64.9810 O   0  0  0  0  0  0  0  0  0  0  0  0
  -38.0759   57.5710   65.2697 O   0  0  0  0  0  0  0  0  0  0  0  0
  -38.3709   58.6888   64.9453 C   0  0  0  0  0  0  0  0  0  0  0  0
  -39.7323   59.0937   64.4713 C   0  0  0  0  0  0  0  0  0  0  0  0
  -40.4969   59.8532   65.5508 C   0  0  0  0  0  0  0  0  0  0  0  0
  -41.9163   59.3549   65.7670 C   0  0  0  0  0  0  0  0  0  0  0  0
  -42.0224   57.8369   65.8587 C   0  0  0  0  0  0  0  0  0  0  0  0
  -43.4225   57.3332   66.1560 C   0  0  0  0  0  0  0  0  0  0  0  0
  -44.4452   58.4336   66.4531 C   0  0  0  0  0  0  0  0  0  0  0  0
  -45.6424   58.4846   65.5014 C   0  0  0  0  0  0  0  0  0  0  0  0
  -46.6567   59.5047   65.9237 C   0  0  0  0  0  0  0  0  0  0  0  0
  -47.9551   59.3154   66.0578 C   0  0  0  0  0  0  0  0  0  0  0  0
  -48.6899   58.0347   65.8165 C   0  0  0  0  0  0  0  0  0  0  0  0
  -50.2019   58.2326   65.7603 C   0  0  0  0  0  0  0  0  0  0  0  0
  -50.6549   59.1545   64.6418 C   0  0  0  0  0  0  0  0  0  0  0  0
  -50.6519   58.4983   63.2718 C   0  0  0  0  0  0  0  0  0  0  0  0
  -49.4330   58.8190   62.4228 C   0  0  0  0  0  0  0  0  0  0  0  0
  -49.7158   58.8065   60.9282 C   0  0  0  0  0  0  0  0  0  0  0  0
  -50.2171   57.4766   60.4010 C   0  0  0  0  0  0  0  0  0  0  0  0
  -49.8635   57.2529   58.9573 C   0  0  0  0  0  0  0  0  0  0  0  0
 21 22  1  0  0  0
  4  5  2  0  0  0
 25 24  1  0  0  0
 25 26  2  0  0  0
 25 27  1  0  0  0
 25 29  1  0  0  0
 22 20  1  0  0  0
  3  5  1  0  0  0
  3  2  1  0  0  0
 20 19  1  0  0  0
 24 23  1  0  0  0
 19 18  1  0  0  0
 18 17  1  0  0  0
 27 28  1  0  0  0
 17 16  1  0  0  0
 29 30  1  0  0  0
 16 15  1  0  0  0
 34 35  1  0  0  0
 34 36  1  0  0  0
 15 14  1  0  0  0
 31 32  1  0  0  0
 31 33  1  0  0  0
 14 13  1  0  0  0
 37  1  1  0  0  0
 37 39  1  0  0  0
 13 12  1  0  0  0
 38 39  2  0  0  0
 12 11  1  0  0  0
 11 10  1  0  0  0
 10  9  1  0  0  0
  9  8  1  0  0  0
  8  7  1  0  0  0
  7  6  1  0  0  0
  6  5  1  0  0  0
  2  1  1  0  0  0
  1 23  1  0  0  0
 30 32  1  0  0  0
 32 35  1  0  0  0
 39 40  1  0  0  0
 40 41  1  0  0  0
 41 42  1  0  0  0
 42 43  1  0  0  0
 43 44  1  0  0  0
 44 45  1  0  0  0
 45 46  1  0  0  0
 46 47  1  0  0  0
 47 48  2  0  0  0
 48 49  1  0  0  0
 49 50  1  0  0  0
 50 51  1  0  0  0
 51 52  1  0  0  0
 52 53  1  0  0  0
 53 54  1  0  0  0
 54 55  1  0  0  0
 55 56  1  0  0  0
M  CHG 1  26  -1
M  END
> <minimizedAffinity>
-8.26641

> <CNNscore>
0.5124998093

> <CNNaffinity>
7.6439728737

> <CNN_VS>
3.9175345898

> <CNNaffinity_variance>
0.7803703547

$$$$
/media/chris/experiments/cd1a-new-docking/inputs/ligands/7sh4_ligand.pdb


 56 55  0  0  0  0  0  0  0  0999 V2000
  -38.8974   60.4088   62.3669 C   0  0  0  0  0  0  0  0  0  0  0  0
  -40.2814   60.5005   62.9445 C   0  0  0  0  0  0  0  0  0  0  0  0
  -40.0655   60.9511   64.2986 O   0  0  0  0  0  0  0  0  0  0  0  0
  -40.9770   60.9803   66.3400 O   0  0  0  0  0  0  0  0  0  0  0  0
  -40.9552   60.5641   65.2132 C   0  0  0  0  0  0  0  0  0  0  0  0
  -41.9848   59.6491   64.6153 C   0  0  0  0  0  0  0  0  0  0  0  0
  -42.6234   58.6975   65.6129 C   0  0  0  0  0  0  0  0  0  0  0  0
  -44.1049   58.9494   65.7978 C   0  0  0  0  0  0  0  0  0  0  0  0
  -44.9946   58.0329   64.9889 C   0  0  0  0  0  0  0  0  0  0  0  0
  -46.3951   58.5798   64.8006 C   0  0  0  0  0  0  0  0  0  0  0  0
  -46.8437   59.4675   65.9356 C   0  0  0  0  0  0  0  0  0  0  0  0
  -48.3374   59.4676   66.1274 C   0  0  0  0  0  0  0  0  0  0  0  0
  -49.0315   58.3149   65.4364 C   0  0  0  0  0  0  0  0  0  0  0  0
  -50.4841   58.6101   65.1217 C   0  0  0  0  0  0  0  0  0  0  0  0
  -50.7151   59.1632   63.7311 C   0  0  0  0  0  0  0  0  0  0  0  0
  -49.4949   59.0730   62.8216 C   0  0  0  0  0  0  0  0  0  0  0  0
  -49.7620   59.4922   61.3887 C   0  0  0  0  0  0  0  0  0  0  0  0
  -49.7801   58.3315   60.4154 C   0  0  0  0  0  0  0  0  0  0  0  0
  -48.4871   57.5280   60.3995 C   0  0  0  0  0  0  0  0  0  0  0  0
  -47.7507   57.5880   59.0732 C   0  0  0  0  0  0  0  0  0  0  0  0
  -47.4889   56.6516   56.7514 C   0  0  0  0  0  0  0  0  0  0  0  0
  -48.3958   56.7948   57.9525 C   0  0  0  0  0  0  0  0  0  0  0  0
  -37.8718   61.0784   63.2453 C   0  0  0  0  0  0  0  0  0  0  0  0
  -36.8883   61.7221   62.4045 O   0  0  0  0  0  0  0  0  0  0  0  0
  -35.9182   62.8796   62.9345 P   0  0  0  0  0  0  0  0  0  0  0  0
  -34.6392   62.2563   63.3374 O   0  0  0  0  0  0  0  0  0  0  0  0
  -35.8951   63.9622   61.9216 O   0  0  0  0  0  0  0  0  0  0  0  0
  -35.4713   63.6381   61.1115 H   0  0  0  0  0  0  0  0  0  0  0  0
  -36.6207   63.4514   64.2469 O   0  0  0  0  0  0  0  0  0  0  0  0
  -35.8767   64.2854   65.1583 C   0  0  0  0  0  0  0  0  0  0  0  0
  -36.9577   62.6403   66.5249 O   0  0  0  0  0  0  0  0  0  0  0  0
  -36.0005   63.7033   66.5450 C   0  0  0  0  0  0  0  0  0  0  0  0
  -37.8017   62.9716   66.1803 H   0  0  0  0  0  0  0  0  0  0  0  0
  -34.3534   61.9412   66.5143 O   0  0  0  0  0  0  0  0  0  0  0  0
  -34.6792   63.2047   67.0792 C   0  0  0  0  0  0  0  0  0  0  0  0
  -33.5030   61.6380   66.8689 H   0  0  0  0  0  0  0  0  0  0  0  0
  -38.9197   60.9897   61.0208 O   0  0  0  0  0  0  0  0  0  0  0  0
  -39.9779   60.0633   59.2652 O   0  0  0  0  0  0  0  0  0  0  0  0
  -39.0210   60.1320   59.9873 C   0  0  0  0  0  0  0  0  0  0  0  0
  -37.7926   59.2894   59.8358 C   0  0  0  0  0  0  0  0  0  0  0  0
  -37.8879   58.3765   58.6174 C   0  0  0  0  0  0  0  0  0  0  0  0
  -36.5866   58.2436   57.8436 C   0  0  0  0  0  0  0  0  0  0  0  0
  -36.0384   56.8215   57.8120 C   0  0  0  0  0  0  0  0  0  0  0  0
  -36.5294   55.9456   58.9496 C   0  0  0  0  0  0  0  0  0  0  0  0
  -35.4422   55.5210   59.9410 C   0  0  0  0  0  0  0  0  0  0  0  0
  -34.4192   56.6043   60.2894 C   0  0  0  0  0  0  0  0  0  0  0  0
  -33.4425   56.1452   61.3301 C   0  0  0  0  0  0  0  0  0  0  0  0
  -32.6012   56.9013   62.0086 C   0  0  0  0  0  0  0  0  0  0  0  0
  -32.4471   58.3839   61.8811 C   0  0  0  0  0  0  0  0  0  0  0  0
  -33.2586   59.1456   62.9250 C   0  0  0  0  0  0  0  0  0  0  0  0
  -33.8984   58.2505   63.9718 C   0  0  0  0  0  0  0  0  0  0  0  0
  -35.3966   58.4553   64.1160 C   0  0  0  0  0  0  0  0  0  0  0  0
  -36.2233   57.1903   63.9556 C   0  0  0  0  0  0  0  0  0  0  0  0
  -37.1657   57.2300   62.7622 C   0  0  0  0  0  0  0  0  0  0  0  0
  -38.6362   57.2165   63.1300 C   0  0  0  0  0  0  0  0  0  0  0  0
  -38.8740   57.5049   64.5859 C   0  0  0  0  0  0  0  0  0  0  0  0
 21 22  1  0  0  0
  4  5  2  0  0  0
 25 24  1  0  0  0
 25 26  2  0  0  0
 25 27  1  0  0  0
 25 29  1  0  0  0
 22 20  1  0  0  0
  3  5  1  0  0  0
  3  2  1  0  0  0
 20 19  1  0  0  0
 24 23  1  0  0  0
 19 18  1  0  0  0
 18 17  1  0  0  0
 27 28  1  0  0  0
 17 16  1  0  0  0
 29 30  1  0  0  0
 16 15  1  0  0  0
 34 35  1  0  0  0
 34 36  1  0  0  0
 15 14  1  0  0  0
 31 32  1  0  0  0
 31 33  1  0  0  0
 14 13  1  0  0  0
 37  1  1  0  0  0
 37 39  1  0  0  0
 13 12  1  0  0  0
 38 39  2  0  0  0
 12 11  1  0  0  0
 11 10  1  0  0  0
 10  9  1  0  0  0
  9  8  1  0  0  0
  8  7  1  0  0  0
  7  6  1  0  0  0
  6  5  1  0  0  0
  2  1  1  0  0  0
  1 23  1  0  0  0
 30 32  1  0  0  0
 32 35  1  0  0  0
 39 40  1  0  0  0
 40 41  1  0  0  0
 41 42  1  0  0  0
 42 43  1  0  0  0
 43 44  1  0  0  0
 44 45  1  0  0  0
 45 46  1  0  0  0
 46 47  1  0  0  0
 47 48  2  0  0  0
 48 49  1  0  0  0
 49 50  1  0  0  0
 50 51  1  0  0  0
 51 52  1  0  0  0
 52 53  1  0  0  0
 53 54  1  0  0  0
 54 55  1  0  0  0
 55 56  1  0  0  0
M  CHG 1  26  -1
M  END
> <minimizedAffinity>
-8.89270

> <CNNscore>
0.5103981495

> <CNNaffinity>
7.5369520187

> <CNN_VS>
3.8468463421

> <CNNaffinity_variance>
1.1247218847

$$$$
/media/chris/experiments/cd1a-new-docking/inputs/ligands/7sh4_ligand.pdb


 56 55  0  0  0  0  0  0  0  0999 V2000
  -34.4631   58.9595   62.9357 C   0  0  0  0  0  0  0  0  0  0  0  0
  -33.6437   58.0346   62.0809 C   0  0  0  0  0  0  0  0  0  0  0  0
  -34.4752   57.7990   60.9249 O   0  0  0  0  0  0  0  0  0  0  0  0
  -33.4666   55.8473   60.5092 O   0  0  0  0  0  0  0  0  0  0  0  0
  -34.3954   56.5944   60.3588 C   0  0  0  0  0  0  0  0  0  0  0  0
  -35.6604   56.2554   59.6241 C   0  0  0  0  0  0  0  0  0  0  0  0
  -35.7662   56.8875   58.2465 C   0  0  0  0  0  0  0  0  0  0  0  0
  -37.0764   57.6162   58.0350 C   0  0  0  0  0  0  0  0  0  0  0  0
  -37.1954   58.9124   58.8041 C   0  0  0  0  0  0  0  0  0  0  0  0
  -38.1576   58.8237   59.9713 C   0  0  0  0  0  0  0  0  0  0  0  0
  -38.7910   60.1481   60.3209 C   0  0  0  0  0  0  0  0  0  0  0  0
  -40.2608   60.2008   59.9976 C   0  0  0  0  0  0  0  0  0  0  0  0
  -40.5718   59.8548   58.5583 C   0  0  0  0  0  0  0  0  0  0  0  0
  -42.0197   59.4584   58.3513 C   0  0  0  0  0  0  0  0  0  0  0  0
  -42.2978   58.8117   57.0107 C   0  0  0  0  0  0  0  0  0  0  0  0
  -43.7335   58.3259   56.8471 C   0  0  0  0  0  0  0  0  0  0  0  0
  -44.5229   58.2891   58.1416 C   0  0  0  0  0  0  0  0  0  0  0  0
  -45.9976   58.0069   57.9396 C   0  0  0  0  0  0  0  0  0  0  0  0
  -46.6423   57.2665   59.1031 C   0  0  0  0  0  0  0  0  0  0  0  0
  -48.1054   56.9315   58.8742 C   0  0  0  0  0  0  0  0  0  0  0  0
  -50.3794   57.1305   59.9350 C   0  0  0  0  0  0  0  0  0  0  0  0
  -48.9253   56.7709   60.1403 C   0  0  0  0  0  0  0  0  0  0  0  0
  -33.7721   60.2791   63.1656 C   0  0  0  0  0  0  0  0  0  0  0  0
  -34.7746   61.3089   63.3172 O   0  0  0  0  0  0  0  0  0  0  0  0
  -34.8385   62.2765   64.5905 P   0  0  0  0  0  0  0  0  0  0  0  0
  -35.9238   63.2557   64.3676 O   0  0  0  0  0  0  0  0  0  0  0  0
  -34.8792   61.4332   65.8095 O   0  0  0  0  0  0  0  0  0  0  0  0
  -35.7141   60.9398   65.8335 H   0  0  0  0  0  0  0  0  0  0  0  0
  -33.4544   63.0687   64.5889 O   0  0  0  0  0  0  0  0  0  0  0  0
  -33.0632   63.8348   63.4314 C   0  0  0  0  0  0  0  0  0  0  0  0
  -32.3280   66.0741   62.9981 O   0  0  0  0  0  0  0  0  0  0  0  0
  -32.1723   64.9642   63.8873 C   0  0  0  0  0  0  0  0  0  0  0  0
  -32.1389   65.7901   62.0902 H   0  0  0  0  0  0  0  0  0  0  0  0
  -31.4394   64.9399   66.1853 O   0  0  0  0  0  0  0  0  0  0  0  0
  -32.4632   65.3888   65.3067 C   0  0  0  0  0  0  0  0  0  0  0  0
  -31.6436   65.2217   67.0907 H   0  0  0  0  0  0  0  0  0  0  0  0
  -34.7618   58.2772   64.1987 O   0  0  0  0  0  0  0  0  0  0  0  0
  -36.1651   56.5810   64.6611 O   0  0  0  0  0  0  0  0  0  0  0  0
  -35.9806   57.7163   64.3163 C   0  0  0  0  0  0  0  0  0  0  0  0
  -37.0762   58.6814   63.9842 C   0  0  0  0  0  0  0  0  0  0  0  0
  -38.4515   58.0399   64.1375 C   0  0  0  0  0  0  0  0  0  0  0  0
  -39.5482   58.7372   63.3494 C   0  0  0  0  0  0  0  0  0  0  0  0
  -40.7326   59.1712   64.2053 C   0  0  0  0  0  0  0  0  0  0  0  0
  -40.7662   58.5325   65.5813 C   0  0  0  0  0  0  0  0  0  0  0  0
  -42.1318   57.9731   65.9903 C   0  0  0  0  0  0  0  0  0  0  0  0
  -43.2220   59.0213   66.2232 C   0  0  0  0  0  0  0  0  0  0  0  0
  -44.2841   58.9763   65.1660 C   0  0  0  0  0  0  0  0  0  0  0  0
  -45.5858   58.8907   65.3606 C   0  0  0  0  0  0  0  0  0  0  0  0
  -46.2775   58.8219   66.6854 C   0  0  0  0  0  0  0  0  0  0  0  0
  -46.7344   57.4076   67.0310 C   0  0  0  0  0  0  0  0  0  0  0  0
  -47.7857   56.8579   66.0829 C   0  0  0  0  0  0  0  0  0  0  0  0
  -48.9992   57.7586   65.9296 C   0  0  0  0  0  0  0  0  0  0  0  0
  -49.5380   57.8532   64.5118 C   0  0  0  0  0  0  0  0  0  0  0  0
  -50.4215   59.0695   64.2795 C   0  0  0  0  0  0  0  0  0  0  0  0
  -50.9335   59.2043   62.8592 C   0  0  0  0  0  0  0  0  0  0  0  0
  -50.0207   60.0201   61.9870 C   0  0  0  0  0  0  0  0  0  0  0  0
 21 22  1  0  0  0
  4  5  2  0  0  0
 25 24  1  0  0  0
 25 26  2  0  0  0
 25 27  1  0  0  0
 25 29  1  0  0  0
 22 20  1  0  0  0
  3  5  1  0  0  0
  3  2  1  0  0  0
 20 19  1  0  0  0
 24 23  1  0  0  0
 19 18  1  0  0  0
 18 17  1  0  0  0
 27 28  1  0  0  0
 17 16  1  0  0  0
 29 30  1  0  0  0
 16 15  1  0  0  0
 34 35  1  0  0  0
 34 36  1  0  0  0
 15 14  1  0  0  0
 31 32  1  0  0  0
 31 33  1  0  0  0
 14 13  1  0  0  0
 37  1  1  0  0  0
 37 39  1  0  0  0
 13 12  1  0  0  0
 38 39  2  0  0  0
 12 11  1  0  0  0
 11 10  1  0  0  0
 10  9  1  0  0  0
  9  8  1  0  0  0
  8  7  1  0  0  0
  7  6  1  0  0  0
  6  5  1  0  0  0
  2  1  1  0  0  0
  1 23  1  0  0  0
 30 32  1  0  0  0
 32 35  1  0  0  0
 39 40  1  0  0  0
 40 41  1  0  0  0
 41 42  1  0  0  0
 42 43  1  0  0  0
 43 44  1  0  0  0
 44 45  1  0  0  0
 45 46  1  0  0  0
 46 47  1  0  0  0
 47 48  2  0  0  0
 48 49  1  0  0  0
 49 50  1  0  0  0
 50 51  1  0  0  0
 51 52  1  0  0  0
 52 53  1  0  0  0
 53 54  1  0  0  0
 54 55  1  0  0  0
 55 56  1  0  0  0
M  CHG 1  26  -1
M  END
> <minimizedAffinity>
-7.71963

> <CNNscore>
0.5091688633

> <CNNaffinity>
7.3651762009

> <CNN_VS>
3.7501184940

> <CNNaffinity_variance>
0.6317806840

$$$$
/media/chris/experiments/cd1a-new-docking/inputs/ligands/7sh4_ligand.pdb


 56 55  0  0  0  0  0  0  0  0999 V2000
  -36.9027   60.5014   65.0695 C   0  0  0  0  0  0  0  0  0  0  0  0
  -38.2650   60.1964   64.5139 C   0  0  0  0  0  0  0  0  0  0  0  0
  -38.9450   59.5334   65.6007 O   0  0  0  0  0  0  0  0  0  0  0  0
  -40.7274   60.8381   65.9470 O   0  0  0  0  0  0  0  0  0  0  0  0
  -40.2540   59.7573   65.7206 C   0  0  0  0  0  0  0  0  0  0  0  0
  -41.0466   58.5195   65.4132 C   0  0  0  0  0  0  0  0  0  0  0  0
  -42.3811   58.4421   66.1353 C   0  0  0  0  0  0  0  0  0  0  0  0
  -42.9367   57.0347   66.1909 C   0  0  0  0  0  0  0  0  0  0  0  0
  -44.3908   56.9266   65.7911 C   0  0  0  0  0  0  0  0  0  0  0  0
  -44.8385   58.0458   64.8730 C   0  0  0  0  0  0  0  0  0  0  0  0
  -46.0480   58.7878   65.3869 C   0  0  0  0  0  0  0  0  0  0  0  0
  -47.2843   58.5389   64.5639 C   0  0  0  0  0  0  0  0  0  0  0  0
  -48.1874   59.7476   64.4565 C   0  0  0  0  0  0  0  0  0  0  0  0
  -49.1475   59.6588   63.2874 C   0  0  0  0  0  0  0  0  0  0  0  0
  -50.3520   58.7773   63.5424 C   0  0  0  0  0  0  0  0  0  0  0  0
  -50.9019   58.1077   62.2881 C   0  0  0  0  0  0  0  0  0  0  0  0
  -49.8320   57.5741   61.3548 C   0  0  0  0  0  0  0  0  0  0  0  0
  -50.3335   57.3170   59.9486 C   0  0  0  0  0  0  0  0  0  0  0  0
  -49.2209   57.1931   58.9170 C   0  0  0  0  0  0  0  0  0  0  0  0
  -47.8472   57.5443   59.4597 C   0  0  0  0  0  0  0  0  0  0  0  0
  -47.1920   56.9098   57.1136 C   0  0  0  0  0  0  0  0  0  0  0  0
  -46.7166   57.4165   58.4564 C   0  0  0  0  0  0  0  0  0  0  0  0
  -36.9669   61.4570   66.2333 C   0  0  0  0  0  0  0  0  0  0  0  0
  -35.8014   62.3107   66.1990 O   0  0  0  0  0  0  0  0  0  0  0  0
  -35.8566   63.8691   66.5597 P   0  0  0  0  0  0  0  0  0  0  0  0
  -36.4867   64.5794   65.4261 O   0  0  0  0  0  0  0  0  0  0  0  0
  -36.4546   64.0096   67.9093 O   0  0  0  0  0  0  0  0  0  0  0  0
  -37.3832   63.7304   67.8821 H   0  0  0  0  0  0  0  0  0  0  0  0
  -34.3345   64.3366   66.6472 O   0  0  0  0  0  0  0  0  0  0  0  0
  -33.7313   65.0399   65.5421 C   0  0  0  0  0  0  0  0  0  0  0  0
  -34.0714   64.1058   63.3617 O   0  0  0  0  0  0  0  0  0  0  0  0
  -33.2553   64.0231   64.5338 C   0  0  0  0  0  0  0  0  0  0  0  0
  -35.0021   63.9844   63.6063 H   0  0  0  0  0  0  0  0  0  0  0  0
  -31.0619   64.6845   65.2888 O   0  0  0  0  0  0  0  0  0  0  0  0
  -31.8017   64.2102   64.1710 C   0  0  0  0  0  0  0  0  0  0  0  0
  -30.1322   64.7983   65.0365 H   0  0  0  0  0  0  0  0  0  0  0  0
  -36.0681   61.0254   63.9838 O   0  0  0  0  0  0  0  0  0  0  0  0
  -33.9914   60.9238   63.1254 O   0  0  0  0  0  0  0  0  0  0  0  0
  -34.8556   60.4625   63.8197 C   0  0  0  0  0  0  0  0  0  0  0  0
  -34.7084   59.2054   64.6196 C   0  0  0  0  0  0  0  0  0  0  0  0
  -34.3451   58.0183   63.7332 C   0  0  0  0  0  0  0  0  0  0  0  0
  -32.8564   57.8896   63.4551 C   0  0  0  0  0  0  0  0  0  0  0  0
  -32.5298   57.6383   61.9874 C   0  0  0  0  0  0  0  0  0  0  0  0
  -33.7516   57.4688   61.1038 C   0  0  0  0  0  0  0  0  0  0  0  0
  -34.1112   56.0143   60.7870 C   0  0  0  0  0  0  0  0  0  0  0  0
  -33.8170   55.5679   59.3532 C   0  0  0  0  0  0  0  0  0  0  0  0
  -33.9461   56.6950   58.3729 C   0  0  0  0  0  0  0  0  0  0  0  0
  -35.0465   57.0799   57.7560 C   0  0  0  0  0  0  0  0  0  0  0  0
  -36.4036   56.4691   57.9087 C   0  0  0  0  0  0  0  0  0  0  0  0
  -37.5229   57.4990   57.7861 C   0  0  0  0  0  0  0  0  0  0  0  0
  -37.2601   58.7796   58.5589 C   0  0  0  0  0  0  0  0  0  0  0  0
  -38.4943   59.3447   59.2405 C   0  0  0  0  0  0  0  0  0  0  0  0
  -38.4731   59.2537   60.7574 C   0  0  0  0  0  0  0  0  0  0  0  0
  -37.2344   58.5614   61.3053 C   0  0  0  0  0  0  0  0  0  0  0  0
  -37.4857   57.1629   61.8334 C   0  0  0  0  0  0  0  0  0  0  0  0
  -38.5840   57.1172   62.8586 C   0  0  0  0  0  0  0  0  0  0  0  0
 21 22  1  0  0  0
  4  5  2  0  0  0
 25 24  1  0  0  0
 25 26  2  0  0  0
 25 27  1  0  0  0
 25 29  1  0  0  0
 22 20  1  0  0  0
  3  5  1  0  0  0
  3  2  1  0  0  0
 20 19  1  0  0  0
 24 23  1  0  0  0
 19 18  1  0  0  0
 18 17  1  0  0  0
 27 28  1  0  0  0
 17 16  1  0  0  0
 29 30  1  0  0  0
 16 15  1  0  0  0
 34 35  1  0  0  0
 34 36  1  0  0  0
 15 14  1  0  0  0
 31 32  1  0  0  0
 31 33  1  0  0  0
 14 13  1  0  0  0
 37  1  1  0  0  0
 37 39  1  0  0  0
 13 12  1  0  0  0
 38 39  2  0  0  0
 12 11  1  0  0  0
 11 10  1  0  0  0
 10  9  1  0  0  0
  9  8  1  0  0  0
  8  7  1  0  0  0
  7  6  1  0  0  0
  6  5  1  0  0  0
  2  1  1  0  0  0
  1 23  1  0  0  0
 30 32  1  0  0  0
 32 35  1  0  0  0
 39 40  1  0  0  0
 40 41  1  0  0  0
 41 42  1  0  0  0
 42 43  1  0  0  0
 43 44  1  0  0  0
 44 45  1  0  0  0
 45 46  1  0  0  0
 46 47  1  0  0  0
 47 48  2  0  0  0
 48 49  1  0  0  0
 49 50  1  0  0  0
 50 51  1  0  0  0
 51 52  1  0  0  0
 52 53  1  0  0  0
 53 54  1  0  0  0
 54 55  1  0  0  0
 55 56  1  0  0  0
M  CHG 1  26  -1
M  END
> <minimizedAffinity>
-9.06631

> <CNNscore>
0.4981967211

> <CNNaffinity>
7.3727922440

> <CNN_VS>
3.6731009483

> <CNNaffinity_variance>
0.7264534235

$$$$
/media/chris/experiments/cd1a-new-docking/inputs/ligands/7sh4_ligand.pdb


 56 55  0  0  0  0  0  0  0  0999 V2000
  -37.7462   60.9331   65.0687 C   0  0  0  0  0  0  0  0  0  0  0  0
  -37.4516   60.3542   63.7139 C   0  0  0  0  0  0  0  0  0  0  0  0
  -38.4040   61.0007   62.8432 O   0  0  0  0  0  0  0  0  0  0  0  0
  -40.3160   60.1870   62.0178 O   0  0  0  0  0  0  0  0  0  0  0  0
  -39.1150   60.2137   62.0351 C   0  0  0  0  0  0  0  0  0  0  0  0
  -38.2254   59.4725   61.0791 C   0  0  0  0  0  0  0  0  0  0  0  0
  -38.2121   57.9670   61.2840 C   0  0  0  0  0  0  0  0  0  0  0  0
  -37.6086   57.2213   60.1127 C   0  0  0  0  0  0  0  0  0  0  0  0
  -37.3528   58.0818   58.8962 C   0  0  0  0  0  0  0  0  0  0  0  0
  -37.0110   57.2750   57.6599 C   0  0  0  0  0  0  0  0  0  0  0  0
  -35.8289   56.3578   57.8572 C   0  0  0  0  0  0  0  0  0  0  0  0
  -34.5131   57.0898   57.8774 C   0  0  0  0  0  0  0  0  0  0  0  0
  -33.5942   56.6426   58.9926 C   0  0  0  0  0  0  0  0  0  0  0  0
  -34.2905   55.7549   60.0042 C   0  0  0  0  0  0  0  0  0  0  0  0
  -34.1799   56.2421   61.4336 C   0  0  0  0  0  0  0  0  0  0  0  0
  -34.4745   57.7283   61.6025 C   0  0  0  0  0  0  0  0  0  0  0  0
  -33.6921   58.3884   62.7216 C   0  0  0  0  0  0  0  0  0  0  0  0
  -32.1924   58.3509   62.5109 C   0  0  0  0  0  0  0  0  0  0  0  0
  -31.6778   59.4483   61.5897 C   0  0  0  0  0  0  0  0  0  0  0  0
  -31.1814   60.6784   62.3283 C   0  0  0  0  0  0  0  0  0  0  0  0
  -31.2776   63.1726   62.0034 C   0  0  0  0  0  0  0  0  0  0  0  0
  -32.0708   61.9001   62.1961 C   0  0  0  0  0  0  0  0  0  0  0  0
  -36.5462   61.6262   65.6615 C   0  0  0  0  0  0  0  0  0  0  0  0
  -35.6319   61.9664   64.5953 O   0  0  0  0  0  0  0  0  0  0  0  0
  -35.6806   63.3687   63.8252 P   0  0  0  0  0  0  0  0  0  0  0  0
  -35.8175   63.0925   62.3791 O   0  0  0  0  0  0  0  0  0  0  0  0
  -36.6961   64.2233   64.4865 O   0  0  0  0  0  0  0  0  0  0  0  0
  -37.5772   63.8395   64.3544 H   0  0  0  0  0  0  0  0  0  0  0  0
  -34.2506   64.0323   64.0652 O   0  0  0  0  0  0  0  0  0  0  0  0
  -34.1393   65.2492   64.8310 C   0  0  0  0  0  0  0  0  0  0  0  0
  -33.4740   63.5604   66.3955 O   0  0  0  0  0  0  0  0  0  0  0  0
  -33.3553   64.9520   66.0856 C   0  0  0  0  0  0  0  0  0  0  0  0
  -34.4117   63.3255   66.4746 H   0  0  0  0  0  0  0  0  0  0  0  0
  -31.5340   65.4706   64.5915 O   0  0  0  0  0  0  0  0  0  0  0  0
  -31.9004   65.3354   65.9586 C   0  0  0  0  0  0  0  0  0  0  0  0
  -30.5977   65.7168   64.5305 H   0  0  0  0  0  0  0  0  0  0  0  0
  -38.2320   59.8550   65.9356 O   0  0  0  0  0  0  0  0  0  0  0  0
  -39.4656   58.0993   65.2604 O   0  0  0  0  0  0  0  0  0  0  0  0
  -39.3830   59.2546   65.5766 C   0  0  0  0  0  0  0  0  0  0  0  0
  -40.5476   60.1938   65.6370 C   0  0  0  0  0  0  0  0  0  0  0  0
  -41.7121   59.5908   66.4160 C   0  0  0  0  0  0  0  0  0  0  0  0
  -42.9240   59.2646   65.5588 C   0  0  0  0  0  0  0  0  0  0  0  0
  -43.5054   57.8810   65.8259 C   0  0  0  0  0  0  0  0  0  0  0  0
  -45.0222   57.8411   65.8383 C   0  0  0  0  0  0  0  0  0  0  0  0
  -45.6968   59.1230   65.3417 C   0  0  0  0  0  0  0  0  0  0  0  0
  -47.1940   59.2289   65.6399 C   0  0  0  0  0  0  0  0  0  0  0  0
  -47.8735   60.2413   64.7675 C   0  0  0  0  0  0  0  0  0  0  0  0
  -49.1121   60.1880   64.3171 C   0  0  0  0  0  0  0  0  0  0  0  0
  -50.1030   59.1000   64.5864 C   0  0  0  0  0  0  0  0  0  0  0  0
  -50.6309   58.4628   63.3043 C   0  0  0  0  0  0  0  0  0  0  0  0
  -49.5457   57.8490   62.4372 C   0  0  0  0  0  0  0  0  0  0  0  0
  -50.0467   57.3576   61.0900 C   0  0  0  0  0  0  0  0  0  0  0  0
  -49.3532   57.9864   59.8929 C   0  0  0  0  0  0  0  0  0  0  0  0
  -47.9287   57.4930   59.6901 C   0  0  0  0  0  0  0  0  0  0  0  0
  -47.5650   57.2193   58.2442 C   0  0  0  0  0  0  0  0  0  0  0  0
  -46.2725   57.8695   57.8366 C   0  0  0  0  0  0  0  0  0  0  0  0
 21 22  1  0  0  0
  4  5  2  0  0  0
 25 24  1  0  0  0
 25 26  2  0  0  0
 25 27  1  0  0  0
 25 29  1  0  0  0
 22 20  1  0  0  0
  3  5  1  0  0  0
  3  2  1  0  0  0
 20 19  1  0  0  0
 24 23  1  0  0  0
 19 18  1  0  0  0
 18 17  1  0  0  0
 27 28  1  0  0  0
 17 16  1  0  0  0
 29 30  1  0  0  0
 16 15  1  0  0  0
 34 35  1  0  0  0
 34 36  1  0  0  0
 15 14  1  0  0  0
 31 32  1  0  0  0
 31 33  1  0  0  0
 14 13  1  0  0  0
 37  1  1  0  0  0
 37 39  1  0  0  0
 13 12  1  0  0  0
 38 39  2  0  0  0
 12 11  1  0  0  0
 11 10  1  0  0  0
 10  9  1  0  0  0
  9  8  1  0  0  0
  8  7  1  0  0  0
  7  6  1  0  0  0
  6  5  1  0  0  0
  2  1  1  0  0  0
  1 23  1  0  0  0
 30 32  1  0  0  0
 32 35  1  0  0  0
 39 40  1  0  0  0
 40 41  1  0  0  0
 41 42  1  0  0  0
 42 43  1  0  0  0
 43 44  1  0  0  0
 44 45  1  0  0  0
 45 46  1  0  0  0
 46 47  1  0  0  0
 47 48  2  0  0  0
 48 49  1  0  0  0
 49 50  1  0  0  0
 50 51  1  0  0  0
 51 52  1  0  0  0
 52 53  1  0  0  0
 53 54  1  0  0  0
 54 55  1  0  0  0
 55 56  1  0  0  0
M  CHG 1  26  -1
M  END
> <minimizedAffinity>
-8.27826

> <CNNscore>
0.4850921333

> <CNNaffinity>
7.1441216469

> <CNN_VS>
3.4655570984

> <CNNaffinity_variance>
0.9216152430

$$$$
