/media/chris/experiments/cd1a-new-docking/inputs/ligands/7sh4_ligand.pdb


 56 55  0  0  0  0  0  0  0  0999 V2000
  -38.7524   60.5974   63.3336 C   0  0  0  0  0  0  0  0  0  0  0  0
  -39.3394   59.9623   62.1049 C   0  0  0  0  0  0  0  0  0  0  0  0
  -38.3024   60.1010   61.1107 O   0  0  0  0  0  0  0  0  0  0  0  0
  -39.2730   60.1629   59.0974 O   0  0  0  0  0  0  0  0  0  0  0  0
  -38.5612   59.6158   59.8960 C   0  0  0  0  0  0  0  0  0  0  0  0
  -37.7546   58.3791   59.6225 C   0  0  0  0  0  0  0  0  0  0  0  0
  -37.2853   58.2501   58.1832 C   0  0  0  0  0  0  0  0  0  0  0  0
  -36.1958   57.2127   58.0126 C   0  0  0  0  0  0  0  0  0  0  0  0
  -36.5797   55.8281   58.4833 C   0  0  0  0  0  0  0  0  0  0  0  0
  -35.6761   55.3028   59.5805 C   0  0  0  0  0  0  0  0  0  0  0  0
  -34.2901   55.8988   59.5446 C   0  0  0  0  0  0  0  0  0  0  0  0
  -33.8187   56.3736   60.8936 C   0  0  0  0  0  0  0  0  0  0  0  0
  -34.7295   57.4073   61.5181 C   0  0  0  0  0  0  0  0  0  0  0  0
  -33.9924   58.3541   62.4436 C   0  0  0  0  0  0  0  0  0  0  0  0
  -32.6284   57.8585   62.8761 C   0  0  0  0  0  0  0  0  0  0  0  0
  -31.4833   58.7847   62.4824 C   0  0  0  0  0  0  0  0  0  0  0  0
  -31.9338   60.1461   61.9888 C   0  0  0  0  0  0  0  0  0  0  0  0
  -30.7878   61.0443   61.5702 C   0  0  0  0  0  0  0  0  0  0  0  0
  -29.8568   61.4190   62.7149 C   0  0  0  0  0  0  0  0  0  0  0  0
  -29.8672   62.9006   63.0466 C   0  0  0  0  0  0  0  0  0  0  0  0
  -31.9187   64.3173   63.3930 C   0  0  0  0  0  0  0  0  0  0  0  0
  -30.9573   63.3275   64.0111 C   0  0  0  0  0  0  0  0  0  0  0  0
  -37.3113   60.9913   63.1339 C   0  0  0  0  0  0  0  0  0  0  0  0
  -37.1565   62.3840   63.4873 O   0  0  0  0  0  0  0  0  0  0  0  0
  -35.7973   63.1941   63.2462 P   0  0  0  0  0  0  0  0  0  0  0  0
  -34.6776   62.2287   63.2741 O   0  0  0  0  0  0  0  0  0  0  0  0
  -35.9742   64.0452   62.0448 O   0  0  0  0  0  0  0  0  0  0  0  0
  -36.0672   63.4821   61.2606 H   0  0  0  0  0  0  0  0  0  0  0  0
  -35.6485   64.1553   64.5098 O   0  0  0  0  0  0  0  0  0  0  0  0
  -34.8085   63.7677   65.6162 C   0  0  0  0  0  0  0  0  0  0  0  0
  -36.8850   64.2524   66.7099 O   0  0  0  0  0  0  0  0  0  0  0  0
  -35.6921   63.4679   66.8022 C   0  0  0  0  0  0  0  0  0  0  0  0
  -36.6503   65.1913   66.6446 H   0  0  0  0  0  0  0  0  0  0  0  0
  -37.3370   61.7551   66.3795 O   0  0  0  0  0  0  0  0  0  0  0  0
  -36.0390   62.0020   66.9047 C   0  0  0  0  0  0  0  0  0  0  0  0
  -37.5415   60.8099   66.4539 H   0  0  0  0  0  0  0  0  0  0  0  0
  -38.9087   59.6652   64.4545 O   0  0  0  0  0  0  0  0  0  0  0  0
  -40.0868   60.8157   65.9870 O   0  0  0  0  0  0  0  0  0  0  0  0
  -39.9632   59.8612   65.2691 C   0  0  0  0  0  0  0  0  0  0  0  0
  -40.9694   58.7579   65.1587 C   0  0  0  0  0  0  0  0  0  0  0  0
  -42.3957   59.2982   65.1770 C   0  0  0  0  0  0  0  0  0  0  0  0
  -43.3291   58.5426   66.1088 C   0  0  0  0  0  0  0  0  0  0  0  0
  -44.6701   58.1908   65.4748 C   0  0  0  0  0  0  0  0  0  0  0  0
  -45.8396   58.9869   66.0233 C   0  0  0  0  0  0  0  0  0  0  0  0
  -46.8663   59.4169   64.9715 C   0  0  0  0  0  0  0  0  0  0  0  0
  -48.2216   59.8599   65.5269 C   0  0  0  0  0  0  0  0  0  0  0  0
  -49.2095   58.7330   65.5713 C   0  0  0  0  0  0  0  0  0  0  0  0
  -50.4337   58.7392   65.0806 C   0  0  0  0  0  0  0  0  0  0  0  0
  -51.0946   59.8789   64.3717 C   0  0  0  0  0  0  0  0  0  0  0  0
  -51.6031   59.4873   62.9874 C   0  0  0  0  0  0  0  0  0  0  0  0
  -50.9195   58.2595   62.4117 C   0  0  0  0  0  0  0  0  0  0  0  0
  -49.7800   58.5850   61.4616 C   0  0  0  0  0  0  0  0  0  0  0  0
  -49.8536   57.8711   60.1220 C   0  0  0  0  0  0  0  0  0  0  0  0
  -49.5430   56.3847   60.2101 C   0  0  0  0  0  0  0  0  0  0  0  0
  -48.4921   55.9095   59.2264 C   0  0  0  0  0  0  0  0  0  0  0  0
  -47.3864   56.9085   59.0288 C   0  0  0  0  0  0  0  0  0  0  0  0
 21 22  1  0  0  0
  4  5  2  0  0  0
 25 24  1  0  0  0
 25 26  2  0  0  0
 25 27  1  0  0  0
 25 29  1  0  0  0
 22 20  1  0  0  0
  3  5  1  0  0  0
  3  2  1  0  0  0
 20 19  1  0  0  0
 24 23  1  0  0  0
 19 18  1  0  0  0
 18 17  1  0  0  0
 27 28  1  0  0  0
 17 16  1  0  0  0
 29 30  1  0  0  0
 16 15  1  0  0  0
 34 35  1  0  0  0
 34 36  1  0  0  0
 15 14  1  0  0  0
 31 32  1  0  0  0
 31 33  1  0  0  0
 14 13  1  0  0  0
 37  1  1  0  0  0
 37 39  1  0  0  0
 13 12  1  0  0  0
 38 39  2  0  0  0
 12 11  1  0  0  0
 11 10  1  0  0  0
 10  9  1  0  0  0
  9  8  1  0  0  0
  8  7  1  0  0  0
  7  6  1  0  0  0
  6  5  1  0  0  0
  2  1  1  0  0  0
  1 23  1  0  0  0
 30 32  1  0  0  0
 32 35  1  0  0  0
 39 40  1  0  0  0
 40 41  1  0  0  0
 41 42  1  0  0  0
 42 43  1  0  0  0
 43 44  1  0  0  0
 44 45  1  0  0  0
 45 46  1  0  0  0
 46 47  1  0  0  0
 47 48  2  0  0  0
 48 49  1  0  0  0
 49 50  1  0  0  0
 50 51  1  0  0  0
 51 52  1  0  0  0
 52 53  1  0  0  0
 53 54  1  0  0  0
 54 55  1  0  0  0
 55 56  1  0  0  0
M  CHG 1  26  -1
M  END
> <minimizedAffinity>
-8.89749

> <CNNscore>
0.7705721259

> <CNNaffinity>
7.3695974350

> <CNN_VS>
5.6788063049

> <CNNaffinity_variance>
0.8064578176

$$$$
/media/chris/experiments/cd1a-new-docking/inputs/ligands/7sh4_ligand.pdb


 56 55  0  0  0  0  0  0  0  0999 V2000
  -37.6483   59.7897   62.2883 C   0  0  0  0  0  0  0  0  0  0  0  0
  -38.9611   60.4479   62.6061 C   0  0  0  0  0  0  0  0  0  0  0  0
  -39.3074   59.9265   63.9066 O   0  0  0  0  0  0  0  0  0  0  0  0
  -41.2599   61.0142   63.8422 O   0  0  0  0  0  0  0  0  0  0  0  0
  -40.4706   60.3210   64.4254 C   0  0  0  0  0  0  0  0  0  0  0  0
  -40.7101   59.6865   65.7651 C   0  0  0  0  0  0  0  0  0  0  0  0
  -41.8638   58.6981   65.7863 C   0  0  0  0  0  0  0  0  0  0  0  0
  -42.7825   58.8946   66.9737 C   0  0  0  0  0  0  0  0  0  0  0  0
  -44.2530   58.7642   66.6473 C   0  0  0  0  0  0  0  0  0  0  0  0
  -44.5635   59.0365   65.1893 C   0  0  0  0  0  0  0  0  0  0  0  0
  -45.7363   58.2394   64.6730 C   0  0  0  0  0  0  0  0  0  0  0  0
  -47.0658   58.8441   65.0396 C   0  0  0  0  0  0  0  0  0  0  0  0
  -48.1542   58.5590   64.0286 C   0  0  0  0  0  0  0  0  0  0  0  0
  -49.0020   59.7770   63.7221 C   0  0  0  0  0  0  0  0  0  0  0  0
  -50.3135   59.4599   63.0345 C   0  0  0  0  0  0  0  0  0  0  0  0
  -50.5137   57.9770   62.7435 C   0  0  0  0  0  0  0  0  0  0  0  0
  -50.9107   57.6783   61.3106 C   0  0  0  0  0  0  0  0  0  0  0  0
  -49.9224   58.2042   60.2899 C   0  0  0  0  0  0  0  0  0  0  0  0
  -48.5244   57.6197   60.4367 C   0  0  0  0  0  0  0  0  0  0  0  0
  -47.8720   57.2647   59.1125 C   0  0  0  0  0  0  0  0  0  0  0  0
  -45.8085   58.0912   57.9315 C   0  0  0  0  0  0  0  0  0  0  0  0
  -46.3563   57.3263   59.1150 C   0  0  0  0  0  0  0  0  0  0  0  0
  -36.4919   60.4741   62.9710 C   0  0  0  0  0  0  0  0  0  0  0  0
  -36.6385   61.9032   62.8138 O   0  0  0  0  0  0  0  0  0  0  0  0
  -35.3905   62.9048   62.7820 P   0  0  0  0  0  0  0  0  0  0  0  0
  -34.1757   62.1339   63.1234 O   0  0  0  0  0  0  0  0  0  0  0  0
  -35.4264   63.6461   61.4982 O   0  0  0  0  0  0  0  0  0  0  0  0
  -35.2668   63.0312   60.7653 H   0  0  0  0  0  0  0  0  0  0  0  0
  -35.6564   63.9485   63.9579 O   0  0  0  0  0  0  0  0  0  0  0  0
  -36.4626   63.5681   65.0916 C   0  0  0  0  0  0  0  0  0  0  0  0
  -36.4289   63.9106   67.4632 O   0  0  0  0  0  0  0  0  0  0  0  0
  -35.6021   63.6307   66.3297 C   0  0  0  0  0  0  0  0  0  0  0  0
  -36.9234   64.7306   67.3081 H   0  0  0  0  0  0  0  0  0  0  0  0
  -33.8509   62.5351   67.5751 O   0  0  0  0  0  0  0  0  0  0  0  0
  -34.8241   62.3563   66.5541 C   0  0  0  0  0  0  0  0  0  0  0  0
  -33.3624   61.7073   67.7046 H   0  0  0  0  0  0  0  0  0  0  0  0
  -37.4825   59.7701   60.8316 O   0  0  0  0  0  0  0  0  0  0  0  0
  -37.9266   57.5654   60.7826 O   0  0  0  0  0  0  0  0  0  0  0  0
  -37.6174   58.5789   60.2177 C   0  0  0  0  0  0  0  0  0  0  0  0
  -37.3541   58.6734   58.7467 C   0  0  0  0  0  0  0  0  0  0  0  0
  -37.0214   57.3097   58.1497 C   0  0  0  0  0  0  0  0  0  0  0  0
  -35.5478   56.9456   58.2278 C   0  0  0  0  0  0  0  0  0  0  0  0
  -35.2608   55.7571   59.1383 C   0  0  0  0  0  0  0  0  0  0  0  0
  -34.1390   55.9976   60.1315 C   0  0  0  0  0  0  0  0  0  0  0  0
  -34.5966   56.5319   61.4916 C   0  0  0  0  0  0  0  0  0  0  0  0
  -34.0388   57.9047   61.8736 C   0  0  0  0  0  0  0  0  0  0  0  0
  -32.7429   57.8000   62.6203 C   0  0  0  0  0  0  0  0  0  0  0  0
  -31.7177   58.6255   62.5380 C   0  0  0  0  0  0  0  0  0  0  0  0
  -31.6350   59.8470   61.6779 C   0  0  0  0  0  0  0  0  0  0  0  0
  -30.2359   60.4557   61.6642 C   0  0  0  0  0  0  0  0  0  0  0  0
  -30.0301   61.5343   62.7132 C   0  0  0  0  0  0  0  0  0  0  0  0
  -30.3876   62.9298   62.2316 C   0  0  0  0  0  0  0  0  0  0  0  0
  -30.4326   63.9818   63.3273 C   0  0  0  0  0  0  0  0  0  0  0  0
  -31.1640   63.5217   64.5791 C   0  0  0  0  0  0  0  0  0  0  0  0
  -32.1025   64.5567   65.1671 C   0  0  0  0  0  0  0  0  0  0  0  0
  -32.5528   65.5743   64.1564 C   0  0  0  0  0  0  0  0  0  0  0  0
 21 22  1  0  0  0
  4  5  2  0  0  0
 25 24  1  0  0  0
 25 26  2  0  0  0
 25 27  1  0  0  0
 25 29  1  0  0  0
 22 20  1  0  0  0
  3  5  1  0  0  0
  3  2  1  0  0  0
 20 19  1  0  0  0
 24 23  1  0  0  0
 19 18  1  0  0  0
 18 17  1  0  0  0
 27 28  1  0  0  0
 17 16  1  0  0  0
 29 30  1  0  0  0
 16 15  1  0  0  0
 34 35  1  0  0  0
 34 36  1  0  0  0
 15 14  1  0  0  0
 31 32  1  0  0  0
 31 33  1  0  0  0
 14 13  1  0  0  0
 37  1  1  0  0  0
 37 39  1  0  0  0
 13 12  1  0  0  0
 38 39  2  0  0  0
 12 11  1  0  0  0
 11 10  1  0  0  0
 10  9  1  0  0  0
  9  8  1  0  0  0
  8  7  1  0  0  0
  7  6  1  0  0  0
  6  5  1  0  0  0
  2  1  1  0  0  0
  1 23  1  0  0  0
 30 32  1  0  0  0
 32 35  1  0  0  0
 39 40  1  0  0  0
 40 41  1  0  0  0
 41 42  1  0  0  0
 42 43  1  0  0  0
 43 44  1  0  0  0
 44 45  1  0  0  0
 45 46  1  0  0  0
 46 47  1  0  0  0
 47 48  2  0  0  0
 48 49  1  0  0  0
 49 50  1  0  0  0
 50 51  1  0  0  0
 51 52  1  0  0  0
 52 53  1  0  0  0
 53 54  1  0  0  0
 54 55  1  0  0  0
 55 56  1  0  0  0
M  CHG 1  26  -1
M  END
> <minimizedAffinity>
-8.74875

> <CNNscore>
0.7482559085

> <CNNaffinity>
7.2548446655

> <CNN_VS>
5.4284801483

> <CNNaffinity_variance>
0.7012842894

$$$$
/media/chris/experiments/cd1a-new-docking/inputs/ligands/7sh4_ligand.pdb


 56 55  0  0  0  0  0  0  0  0999 V2000
  -37.4678   60.2172   64.5001 C   0  0  0  0  0  0  0  0  0  0  0  0
  -38.5490   60.8886   63.7012 C   0  0  0  0  0  0  0  0  0  0  0  0
  -39.7182   60.7868   64.5413 O   0  0  0  0  0  0  0  0  0  0  0  0
  -40.9603   60.1358   62.7998 O   0  0  0  0  0  0  0  0  0  0  0  0
  -40.8209   60.2857   63.9837 C   0  0  0  0  0  0  0  0  0  0  0  0
  -41.7960   59.8253   65.0286 C   0  0  0  0  0  0  0  0  0  0  0  0
  -41.5192   58.4307   65.5642 C   0  0  0  0  0  0  0  0  0  0  0  0
  -42.7113   57.8295   66.2783 C   0  0  0  0  0  0  0  0  0  0  0  0
  -44.0321   58.4799   65.9340 C   0  0  0  0  0  0  0  0  0  0  0  0
  -44.9792   57.5493   65.2038 C   0  0  0  0  0  0  0  0  0  0  0  0
  -46.2323   58.2371   64.7201 C   0  0  0  0  0  0  0  0  0  0  0  0
  -46.5654   59.4759   65.5087 C   0  0  0  0  0  0  0  0  0  0  0  0
  -47.9994   59.5146   65.9886 C   0  0  0  0  0  0  0  0  0  0  0  0
  -48.7036   58.1816   65.8367 C   0  0  0  0  0  0  0  0  0  0  0  0
  -50.1189   58.2869   65.3085 C   0  0  0  0  0  0  0  0  0  0  0  0
  -50.2274   59.0289   63.9812 C   0  0  0  0  0  0  0  0  0  0  0  0
  -50.8111   58.1965   62.8558 C   0  0  0  0  0  0  0  0  0  0  0  0
  -49.8001   57.8362   61.7866 C   0  0  0  0  0  0  0  0  0  0  0  0
  -50.4298   57.4727   60.4491 C   0  0  0  0  0  0  0  0  0  0  0  0
  -49.4198   57.0541   59.3957 C   0  0  0  0  0  0  0  0  0  0  0  0
  -47.1739   57.6885   58.4525 C   0  0  0  0  0  0  0  0  0  0  0  0
  -47.9851   57.4385   59.7036 C   0  0  0  0  0  0  0  0  0  0  0  0
  -36.2352   61.0765   64.6189 C   0  0  0  0  0  0  0  0  0  0  0  0
  -36.0453   61.7916   63.3776 O   0  0  0  0  0  0  0  0  0  0  0  0
  -35.3809   63.2461   63.3075 P   0  0  0  0  0  0  0  0  0  0  0  0
  -34.5635   63.3175   62.0773 O   0  0  0  0  0  0  0  0  0  0  0  0
  -36.4507   64.2525   63.5113 O   0  0  0  0  0  0  0  0  0  0  0  0
  -37.0657   64.2268   62.7617 H   0  0  0  0  0  0  0  0  0  0  0  0
  -34.3939   63.3204   64.5578 O   0  0  0  0  0  0  0  0  0  0  0  0
  -34.4800   64.4255   65.4804 C   0  0  0  0  0  0  0  0  0  0  0  0
  -34.0161   64.8413   67.7945 O   0  0  0  0  0  0  0  0  0  0  0  0
  -34.5397   63.8711   66.8826 C   0  0  0  0  0  0  0  0  0  0  0  0
  -33.1167   65.0855   67.5255 H   0  0  0  0  0  0  0  0  0  0  0  0
  -36.9026   64.2307   66.5579 O   0  0  0  0  0  0  0  0  0  0  0  0
  -35.9407   63.4790   67.2867 C   0  0  0  0  0  0  0  0  0  0  0  0
  -37.7947   63.9652   66.8307 H   0  0  0  0  0  0  0  0  0  0  0  0
  -37.1686   58.9243   63.8766 O   0  0  0  0  0  0  0  0  0  0  0  0
  -38.0909   57.4748   65.3288 O   0  0  0  0  0  0  0  0  0  0  0  0
  -37.9624   57.8881   64.2088 C   0  0  0  0  0  0  0  0  0  0  0  0
  -38.6778   57.3264   63.0193 C   0  0  0  0  0  0  0  0  0  0  0  0
  -37.9242   57.6169   61.7253 C   0  0  0  0  0  0  0  0  0  0  0  0
  -38.5992   58.6497   60.8377 C   0  0  0  0  0  0  0  0  0  0  0  0
  -37.6982   59.1839   59.7301 C   0  0  0  0  0  0  0  0  0  0  0  0
  -37.8328   58.4416   58.4135 C   0  0  0  0  0  0  0  0  0  0  0  0
  -36.5099   57.9407   57.8269 C   0  0  0  0  0  0  0  0  0  0  0  0
  -36.3841   56.4203   57.7079 C   0  0  0  0  0  0  0  0  0  0  0  0
  -36.4881   55.7389   59.0394 C   0  0  0  0  0  0  0  0  0  0  0  0
  -35.4944   55.4566   59.8592 C   0  0  0  0  0  0  0  0  0  0  0  0
  -34.0476   55.7611   59.6302 C   0  0  0  0  0  0  0  0  0  0  0  0
  -33.6975   57.2086   59.9624 C   0  0  0  0  0  0  0  0  0  0  0  0
  -34.0389   57.6067   61.3876 C   0  0  0  0  0  0  0  0  0  0  0  0
  -32.9144   57.3552   62.3772 C   0  0  0  0  0  0  0  0  0  0  0  0
  -31.8381   58.4279   62.3933 C   0  0  0  0  0  0  0  0  0  0  0  0
  -32.3808   59.8336   62.1851 C   0  0  0  0  0  0  0  0  0  0  0  0
  -31.3487   60.9306   62.3560 C   0  0  0  0  0  0  0  0  0  0  0  0
  -30.1181   60.7064   61.5224 C   0  0  0  0  0  0  0  0  0  0  0  0
 21 22  1  0  0  0
  4  5  2  0  0  0
 25 24  1  0  0  0
 25 26  2  0  0  0
 25 27  1  0  0  0
 25 29  1  0  0  0
 22 20  1  0  0  0
  3  5  1  0  0  0
  3  2  1  0  0  0
 20 19  1  0  0  0
 24 23  1  0  0  0
 19 18  1  0  0  0
 18 17  1  0  0  0
 27 28  1  0  0  0
 17 16  1  0  0  0
 29 30  1  0  0  0
 16 15  1  0  0  0
 34 35  1  0  0  0
 34 36  1  0  0  0
 15 14  1  0  0  0
 31 32  1  0  0  0
 31 33  1  0  0  0
 14 13  1  0  0  0
 37  1  1  0  0  0
 37 39  1  0  0  0
 13 12  1  0  0  0
 38 39  2  0  0  0
 12 11  1  0  0  0
 11 10  1  0  0  0
 10  9  1  0  0  0
  9  8  1  0  0  0
  8  7  1  0  0  0
  7  6  1  0  0  0
  6  5  1  0  0  0
  2  1  1  0  0  0
  1 23  1  0  0  0
 30 32  1  0  0  0
 32 35  1  0  0  0
 39 40  1  0  0  0
 40 41  1  0  0  0
 41 42  1  0  0  0
 42 43  1  0  0  0
 43 44  1  0  0  0
 44 45  1  0  0  0
 45 46  1  0  0  0
 46 47  1  0  0  0
 47 48  2  0  0  0
 48 49  1  0  0  0
 49 50  1  0  0  0
 50 51  1  0  0  0
 51 52  1  0  0  0
 52 53  1  0  0  0
 53 54  1  0  0  0
 54 55  1  0  0  0
 55 56  1  0  0  0
M  CHG 1  26  -1
M  END
> <minimizedAffinity>
-8.88067

> <CNNscore>
0.6421449184

> <CNNaffinity>
7.6057000160

> <CNN_VS>
4.8839616776

> <CNNaffinity_variance>
0.8837354779

$$$$
/media/chris/experiments/cd1a-new-docking/inputs/ligands/7sh4_ligand.pdb


 56 55  0  0  0  0  0  0  0  0999 V2000
  -39.9320   59.1102   64.1410 C   0  0  0  0  0  0  0  0  0  0  0  0
  -38.9056   58.0226   64.2868 C   0  0  0  0  0  0  0  0  0  0  0  0
  -38.8184   57.4454   62.9668 O   0  0  0  0  0  0  0  0  0  0  0  0
  -36.6119   57.1488   63.1741 O   0  0  0  0  0  0  0  0  0  0  0  0
  -37.5956   57.2160   62.4873 C   0  0  0  0  0  0  0  0  0  0  0  0
  -37.6351   56.9323   61.0133 C   0  0  0  0  0  0  0  0  0  0  0  0
  -37.6226   58.1764   60.1413 C   0  0  0  0  0  0  0  0  0  0  0  0
  -37.2325   57.8838   58.7079 C   0  0  0  0  0  0  0  0  0  0  0  0
  -36.3746   56.6503   58.5390 C   0  0  0  0  0  0  0  0  0  0  0  0
  -35.0186   56.9492   57.9323 C   0  0  0  0  0  0  0  0  0  0  0  0
  -33.8680   56.5035   58.8012 C   0  0  0  0  0  0  0  0  0  0  0  0
  -34.3162   55.8646   60.0890 C   0  0  0  0  0  0  0  0  0  0  0  0
  -33.4714   56.2583   61.2803 C   0  0  0  0  0  0  0  0  0  0  0  0
  -33.5630   57.7367   61.5998 C   0  0  0  0  0  0  0  0  0  0  0  0
  -32.3321   58.2998   62.2788 C   0  0  0  0  0  0  0  0  0  0  0  0
  -31.7495   59.5237   61.5814 C   0  0  0  0  0  0  0  0  0  0  0  0
  -30.5704   60.1432   62.3068 C   0  0  0  0  0  0  0  0  0  0  0  0
  -30.6074   61.6575   62.3326 C   0  0  0  0  0  0  0  0  0  0  0  0
  -32.0152   62.2323   62.4071 C   0  0  0  0  0  0  0  0  0  0  0  0
  -32.1053   63.5169   63.2114 C   0  0  0  0  0  0  0  0  0  0  0  0
  -31.8638   64.6638   65.4390 C   0  0  0  0  0  0  0  0  0  0  0  0
  -31.5963   63.4107   64.6364 C   0  0  0  0  0  0  0  0  0  0  0  0
  -39.3146   60.4183   63.7175 C   0  0  0  0  0  0  0  0  0  0  0  0
  -37.9213   60.4208   64.1012 O   0  0  0  0  0  0  0  0  0  0  0  0
  -36.7672   61.0276   63.1729 P   0  0  0  0  0  0  0  0  0  0  0  0
  -35.5496   60.2102   63.3627 O   0  0  0  0  0  0  0  0  0  0  0  0
  -37.3123   61.1862   61.8031 O   0  0  0  0  0  0  0  0  0  0  0  0
  -37.4973   60.3121   61.4256 H   0  0  0  0  0  0  0  0  0  0  0  0
  -36.4773   62.4831   63.7564 O   0  0  0  0  0  0  0  0  0  0  0  0
  -35.4292   62.6752   64.7282 C   0  0  0  0  0  0  0  0  0  0  0  0
  -36.9935   62.1510   66.4664 O   0  0  0  0  0  0  0  0  0  0  0  0
  -36.0573   63.1367   66.0204 C   0  0  0  0  0  0  0  0  0  0  0  0
  -37.6473   61.9872   65.7688 H   0  0  0  0  0  0  0  0  0  0  0  0
  -34.0347   62.3902   67.1021 O   0  0  0  0  0  0  0  0  0  0  0  0
  -35.0310   63.4046   67.0950 C   0  0  0  0  0  0  0  0  0  0  0  0
  -33.3857   62.5793   67.7977 H   0  0  0  0  0  0  0  0  0  0  0  0
  -40.6529   59.2377   65.4114 O   0  0  0  0  0  0  0  0  0  0  0  0
  -42.6961   59.7085   64.5965 O   0  0  0  0  0  0  0  0  0  0  0  0
  -41.9934   59.1143   65.3678 C   0  0  0  0  0  0  0  0  0  0  0  0
  -42.4995   58.1357   66.3818 C   0  0  0  0  0  0  0  0  0  0  0  0
  -43.9554   57.7630   66.1209 C   0  0  0  0  0  0  0  0  0  0  0  0
  -44.9579   58.7188   66.7470 C   0  0  0  0  0  0  0  0  0  0  0  0
  -46.2016   58.9425   65.8944 C   0  0  0  0  0  0  0  0  0  0  0  0
  -47.4760   58.3904   66.5055 C   0  0  0  0  0  0  0  0  0  0  0  0
  -48.3451   57.5787   65.5407 C   0  0  0  0  0  0  0  0  0  0  0  0
  -49.8332   57.9349   65.5473 C   0  0  0  0  0  0  0  0  0  0  0  0
  -50.0877   59.3085   65.0029 C   0  0  0  0  0  0  0  0  0  0  0  0
  -50.0670   59.6691   63.7345 C   0  0  0  0  0  0  0  0  0  0  0  0
  -49.7851   58.7762   62.5676 C   0  0  0  0  0  0  0  0  0  0  0  0
  -51.0475   58.1153   62.0218 C   0  0  0  0  0  0  0  0  0  0  0  0
  -50.7808   57.1193   60.9069 C   0  0  0  0  0  0  0  0  0  0  0  0
  -50.1318   57.7363   59.6800 C   0  0  0  0  0  0  0  0  0  0  0  0
  -49.0288   56.8944   59.0604 C   0  0  0  0  0  0  0  0  0  0  0  0
  -47.6796   57.5960   59.0234 C   0  0  0  0  0  0  0  0  0  0  0  0
  -46.9361   57.4458   57.7110 C   0  0  0  0  0  0  0  0  0  0  0  0
  -47.6579   56.5631   56.7314 C   0  0  0  0  0  0  0  0  0  0  0  0
 21 22  1  0  0  0
  4  5  2  0  0  0
 25 24  1  0  0  0
 25 26  2  0  0  0
 25 27  1  0  0  0
 25 29  1  0  0  0
 22 20  1  0  0  0
  3  5  1  0  0  0
  3  2  1  0  0  0
 20 19  1  0  0  0
 24 23  1  0  0  0
 19 18  1  0  0  0
 18 17  1  0  0  0
 27 28  1  0  0  0
 17 16  1  0  0  0
 29 30  1  0  0  0
 16 15  1  0  0  0
 34 35  1  0  0  0
 34 36  1  0  0  0
 15 14  1  0  0  0
 31 32  1  0  0  0
 31 33  1  0  0  0
 14 13  1  0  0  0
 37  1  1  0  0  0
 37 39  1  0  0  0
 13 12  1  0  0  0
 38 39  2  0  0  0
 12 11  1  0  0  0
 11 10  1  0  0  0
 10  9  1  0  0  0
  9  8  1  0  0  0
  8  7  1  0  0  0
  7  6  1  0  0  0
  6  5  1  0  0  0
  2  1  1  0  0  0
  1 23  1  0  0  0
 30 32  1  0  0  0
 32 35  1  0  0  0
 39 40  1  0  0  0
 40 41  1  0  0  0
 41 42  1  0  0  0
 42 43  1  0  0  0
 43 44  1  0  0  0
 44 45  1  0  0  0
 45 46  1  0  0  0
 46 47  1  0  0  0
 47 48  2  0  0  0
 48 49  1  0  0  0
 49 50  1  0  0  0
 50 51  1  0  0  0
 51 52  1  0  0  0
 52 53  1  0  0  0
 53 54  1  0  0  0
 54 55  1  0  0  0
 55 56  1  0  0  0
M  CHG 1  26  -1
M  END
> <minimizedAffinity>
-8.81244

> <CNNscore>
0.5950089693

> <CNNaffinity>
7.0689163208

> <CNN_VS>
4.2060685158

> <CNNaffinity_variance>
0.5477985144

$$$$
/media/chris/experiments/cd1a-new-docking/inputs/ligands/7sh4_ligand.pdb


 56 55  0  0  0  0  0  0  0  0999 V2000
  -37.4952   60.5812   65.4161 C   0  0  0  0  0  0  0  0  0  0  0  0
  -38.8528   60.1764   65.9170 C   0  0  0  0  0  0  0  0  0  0  0  0
  -39.7582   60.6628   64.9037 O   0  0  0  0  0  0  0  0  0  0  0  0
  -41.5017   59.8672   63.7518 O   0  0  0  0  0  0  0  0  0  0  0  0
  -40.9337   60.0427   64.7960 C   0  0  0  0  0  0  0  0  0  0  0  0
  -41.3802   59.4925   66.1198 C   0  0  0  0  0  0  0  0  0  0  0  0
  -42.3031   58.2903   66.0128 C   0  0  0  0  0  0  0  0  0  0  0  0
  -43.7142   58.5917   66.4716 C   0  0  0  0  0  0  0  0  0  0  0  0
  -44.6424   59.0407   65.3659 C   0  0  0  0  0  0  0  0  0  0  0  0
  -45.3408   57.8882   64.6730 C   0  0  0  0  0  0  0  0  0  0  0  0
  -46.8065   58.1460   64.4227 C   0  0  0  0  0  0  0  0  0  0  0  0
  -47.6870   57.6817   65.5526 C   0  0  0  0  0  0  0  0  0  0  0  0
  -49.1556   57.9627   65.3238 C   0  0  0  0  0  0  0  0  0  0  0  0
  -49.3899   59.0536   64.2986 C   0  0  0  0  0  0  0  0  0  0  0  0
  -50.8494   59.2919   63.9722 C   0  0  0  0  0  0  0  0  0  0  0  0
  -51.1776   59.1646   62.4890 C   0  0  0  0  0  0  0  0  0  0  0  0
  -51.2777   57.7322   62.0008 C   0  0  0  0  0  0  0  0  0  0  0  0
  -50.6669   57.5190   60.6309 C   0  0  0  0  0  0  0  0  0  0  0  0
  -49.4422   58.3839   60.3675 C   0  0  0  0  0  0  0  0  0  0  0  0
  -48.1462   57.5964   60.2950 C   0  0  0  0  0  0  0  0  0  0  0  0
  -45.9540   57.5034   59.0614 C   0  0  0  0  0  0  0  0  0  0  0  0
  -47.4558   57.6329   58.9448 C   0  0  0  0  0  0  0  0  0  0  0  0
  -36.7080   61.3328   66.4588 C   0  0  0  0  0  0  0  0  0  0  0  0
  -36.9799   62.7451   66.3185 O   0  0  0  0  0  0  0  0  0  0  0  0
  -35.8281   63.8563   66.3387 P   0  0  0  0  0  0  0  0  0  0  0  0
  -36.1533   64.8717   65.3141 O   0  0  0  0  0  0  0  0  0  0  0  0
  -35.6358   64.2963   67.7417 O   0  0  0  0  0  0  0  0  0  0  0  0
  -36.4308   64.7608   68.0467 H   0  0  0  0  0  0  0  0  0  0  0  0
  -34.5028   63.0994   65.8766 O   0  0  0  0  0  0  0  0  0  0  0  0
  -33.6176   63.7142   64.9183 C   0  0  0  0  0  0  0  0  0  0  0  0
  -31.2985   64.2460   65.2039 O   0  0  0  0  0  0  0  0  0  0  0  0
  -32.6155   64.5567   65.6686 C   0  0  0  0  0  0  0  0  0  0  0  0
  -31.1371   63.2946   65.3020 H   0  0  0  0  0  0  0  0  0  0  0  0
  -33.7103   66.2872   64.3938 O   0  0  0  0  0  0  0  0  0  0  0  0
  -32.8840   66.0354   65.5232 C   0  0  0  0  0  0  0  0  0  0  0  0
  -33.8714   67.2406   64.3173 H   0  0  0  0  0  0  0  0  0  0  0  0
  -37.6712   61.3736   64.1950 O   0  0  0  0  0  0  0  0  0  0  0  0
  -36.2379   62.4029   62.7999 O   0  0  0  0  0  0  0  0  0  0  0  0
  -36.6373   61.4036   63.3323 C   0  0  0  0  0  0  0  0  0  0  0  0
  -36.0353   60.0473   63.1316 C   0  0  0  0  0  0  0  0  0  0  0  0
  -34.6033   59.9885   63.6537 C   0  0  0  0  0  0  0  0  0  0  0  0
  -33.9411   58.6308   63.4851 C   0  0  0  0  0  0  0  0  0  0  0  0
  -32.8565   58.6103   62.4140 C   0  0  0  0  0  0  0  0  0  0  0  0
  -33.0559   57.5426   61.3545 C   0  0  0  0  0  0  0  0  0  0  0  0
  -34.2379   56.6035   61.6115 C   0  0  0  0  0  0  0  0  0  0  0  0
  -34.7213   55.8158   60.3919 C   0  0  0  0  0  0  0  0  0  0  0  0
  -34.2889   56.4484   59.1032 C   0  0  0  0  0  0  0  0  0  0  0  0
  -35.0672   56.7976   58.0974 C   0  0  0  0  0  0  0  0  0  0  0  0
  -36.5532   56.6357   58.0336 C   0  0  0  0  0  0  0  0  0  0  0  0
  -37.2852   57.9745   58.0299 C   0  0  0  0  0  0  0  0  0  0  0  0
  -37.2224   58.7073   59.3585 C   0  0  0  0  0  0  0  0  0  0  0  0
  -38.5072   59.4346   59.7153 C   0  0  0  0  0  0  0  0  0  0  0  0
  -39.0600   59.0987   61.0905 C   0  0  0  0  0  0  0  0  0  0  0  0
  -38.4145   57.8734   61.7199 C   0  0  0  0  0  0  0  0  0  0  0  0
  -38.9150   57.5540   63.1146 C   0  0  0  0  0  0  0  0  0  0  0  0
  -37.8073   57.1748   64.0573 C   0  0  0  0  0  0  0  0  0  0  0  0
 21 22  1  0  0  0
  4  5  2  0  0  0
 25 24  1  0  0  0
 25 26  2  0  0  0
 25 27  1  0  0  0
 25 29  1  0  0  0
 22 20  1  0  0  0
  3  5  1  0  0  0
  3  2  1  0  0  0
 20 19  1  0  0  0
 24 23  1  0  0  0
 19 18  1  0  0  0
 18 17  1  0  0  0
 27 28  1  0  0  0
 17 16  1  0  0  0
 29 30  1  0  0  0
 16 15  1  0  0  0
 34 35  1  0  0  0
 34 36  1  0  0  0
 15 14  1  0  0  0
 31 32  1  0  0  0
 31 33  1  0  0  0
 14 13  1  0  0  0
 37  1  1  0  0  0
 37 39  1  0  0  0
 13 12  1  0  0  0
 38 39  2  0  0  0
 12 11  1  0  0  0
 11 10  1  0  0  0
 10  9  1  0  0  0
  9  8  1  0  0  0
  8  7  1  0  0  0
  7  6  1  0  0  0
  6  5  1  0  0  0
  2  1  1  0  0  0
  1 23  1  0  0  0
 30 32  1  0  0  0
 32 35  1  0  0  0
 39 40  1  0  0  0
 40 41  1  0  0  0
 41 42  1  0  0  0
 42 43  1  0  0  0
 43 44  1  0  0  0
 44 45  1  0  0  0
 45 46  1  0  0  0
 46 47  1  0  0  0
 47 48  2  0  0  0
 48 49  1  0  0  0
 49 50  1  0  0  0
 50 51  1  0  0  0
 51 52  1  0  0  0
 52 53  1  0  0  0
 53 54  1  0  0  0
 54 55  1  0  0  0
 55 56  1  0  0  0
M  CHG 1  26  -1
M  END
> <minimizedAffinity>
-8.85302

> <CNNscore>
0.5343381166

> <CNNaffinity>
7.4187493324

> <CNN_VS>
3.9641206264

> <CNNaffinity_variance>
0.7887225151

$$$$
/media/chris/experiments/cd1a-new-docking/inputs/ligands/7sh4_ligand.pdb


 56 55  0  0  0  0  0  0  0  0999 V2000
  -39.4429   60.3184   63.4931 C   0  0  0  0  0  0  0  0  0  0  0  0
  -39.6373   59.6186   62.1778 C   0  0  0  0  0  0  0  0  0  0  0  0
  -38.3166   59.5950   61.5962 O   0  0  0  0  0  0  0  0  0  0  0  0
  -38.2570   59.2689   59.3850 O   0  0  0  0  0  0  0  0  0  0  0  0
  -38.1503   58.8471   60.5049 C   0  0  0  0  0  0  0  0  0  0  0  0
  -37.6950   57.4612   60.8612 C   0  0  0  0  0  0  0  0  0  0  0  0
  -36.9711   56.7380   59.7381 C   0  0  0  0  0  0  0  0  0  0  0  0
  -35.4894   57.0472   59.7009 C   0  0  0  0  0  0  0  0  0  0  0  0
  -34.6420   56.1207   60.5431 C   0  0  0  0  0  0  0  0  0  0  0  0
  -34.2120   56.7407   61.8573 C   0  0  0  0  0  0  0  0  0  0  0  0
  -32.7270   56.9985   61.9346 C   0  0  0  0  0  0  0  0  0  0  0  0
  -32.3877   58.2665   62.6726 C   0  0  0  0  0  0  0  0  0  0  0  0
  -31.8463   59.3570   61.7749 C   0  0  0  0  0  0  0  0  0  0  0  0
  -30.5849   59.9934   62.3224 C   0  0  0  0  0  0  0  0  0  0  0  0
  -30.2292   61.3159   61.6761 C   0  0  0  0  0  0  0  0  0  0  0  0
  -31.3222   62.3722   61.7927 C   0  0  0  0  0  0  0  0  0  0  0  0
  -30.9032   63.6102   62.5621 C   0  0  0  0  0  0  0  0  0  0  0  0
  -30.6156   63.3412   64.0250 C   0  0  0  0  0  0  0  0  0  0  0  0
  -31.6781   63.8905   64.9668 C   0  0  0  0  0  0  0  0  0  0  0  0
  -32.7224   64.7460   64.2720 C   0  0  0  0  0  0  0  0  0  0  0  0
  -32.4346   66.1048   66.3713 C   0  0  0  0  0  0  0  0  0  0  0  0
  -33.1356   65.9892   65.0367 C   0  0  0  0  0  0  0  0  0  0  0  0
  -38.0816   60.9566   63.5991 C   0  0  0  0  0  0  0  0  0  0  0  0
  -37.2795   60.1904   64.5254 O   0  0  0  0  0  0  0  0  0  0  0  0
  -35.8310   59.6204   64.1527 P   0  0  0  0  0  0  0  0  0  0  0  0
  -35.7863   58.1942   64.5405 O   0  0  0  0  0  0  0  0  0  0  0  0
  -35.5395   59.9855   62.7454 O   0  0  0  0  0  0  0  0  0  0  0  0
  -36.1484   59.5134   62.1562 H   0  0  0  0  0  0  0  0  0  0  0  0
  -34.8113   60.4152   65.0863 O   0  0  0  0  0  0  0  0  0  0  0  0
  -34.8392   61.8568   65.1218 C   0  0  0  0  0  0  0  0  0  0  0  0
  -33.9905   62.5145   67.2643 O   0  0  0  0  0  0  0  0  0  0  0  0
  -35.1936   62.2912   66.5228 C   0  0  0  0  0  0  0  0  0  0  0  0
  -33.4463   61.7118   67.2468 H   0  0  0  0  0  0  0  0  0  0  0  0
  -36.3554   63.9161   67.8750 O   0  0  0  0  0  0  0  0  0  0  0  0
  -36.0539   63.5320   66.5396 C   0  0  0  0  0  0  0  0  0  0  0  0
  -36.9076   64.7134   67.8651 H   0  0  0  0  0  0  0  0  0  0  0  0
  -39.6722   59.3497   64.5696 O   0  0  0  0  0  0  0  0  0  0  0  0
  -40.9861   60.6906   65.8090 O   0  0  0  0  0  0  0  0  0  0  0  0
  -40.6996   59.5968   65.4048 C   0  0  0  0  0  0  0  0  0  0  0  0
  -41.4511   58.3495   65.7533 C   0  0  0  0  0  0  0  0  0  0  0  0
  -42.6311   58.6465   66.6731 C   0  0  0  0  0  0  0  0  0  0  0  0
  -43.9037   57.9022   66.3029 C   0  0  0  0  0  0  0  0  0  0  0  0
  -45.1625   58.5036   66.9174 C   0  0  0  0  0  0  0  0  0  0  0  0
  -46.3505   58.5443   65.9742 C   0  0  0  0  0  0  0  0  0  0  0  0
  -46.5783   59.8979   65.2953 C   0  0  0  0  0  0  0  0  0  0  0  0
  -47.9959   60.1324   64.7689 C   0  0  0  0  0  0  0  0  0  0  0  0
  -48.9507   59.0702   65.2250 C   0  0  0  0  0  0  0  0  0  0  0  0
  -50.2457   59.0178   64.9805 C   0  0  0  0  0  0  0  0  0  0  0  0
  -51.0357   60.0129   64.1906 C   0  0  0  0  0  0  0  0  0  0  0  0
  -51.6661   59.3986   62.9442 C   0  0  0  0  0  0  0  0  0  0  0  0
  -50.9695   58.1361   62.4679 C   0  0  0  0  0  0  0  0  0  0  0  0
  -50.1196   58.3400   61.2256 C   0  0  0  0  0  0  0  0  0  0  0  0
  -49.8192   57.0669   60.4521 C   0  0  0  0  0  0  0  0  0  0  0  0
  -49.6759   57.2880   58.9540 C   0  0  0  0  0  0  0  0  0  0  0  0
  -48.3714   56.7802   58.3723 C   0  0  0  0  0  0  0  0  0  0  0  0
  -47.1688   57.4757   58.9465 C   0  0  0  0  0  0  0  0  0  0  0  0
 21 22  1  0  0  0
  4  5  2  0  0  0
 25 24  1  0  0  0
 25 26  2  0  0  0
 25 27  1  0  0  0
 25 29  1  0  0  0
 22 20  1  0  0  0
  3  5  1  0  0  0
  3  2  1  0  0  0
 20 19  1  0  0  0
 24 23  1  0  0  0
 19 18  1  0  0  0
 18 17  1  0  0  0
 27 28  1  0  0  0
 17 16  1  0  0  0
 29 30  1  0  0  0
 16 15  1  0  0  0
 34 35  1  0  0  0
 34 36  1  0  0  0
 15 14  1  0  0  0
 31 32  1  0  0  0
 31 33  1  0  0  0
 14 13  1  0  0  0
 37  1  1  0  0  0
 37 39  1  0  0  0
 13 12  1  0  0  0
 38 39  2  0  0  0
 12 11  1  0  0  0
 11 10  1  0  0  0
 10  9  1  0  0  0
  9  8  1  0  0  0
  8  7  1  0  0  0
  7  6  1  0  0  0
  6  5  1  0  0  0
  2  1  1  0  0  0
  1 23  1  0  0  0
 30 32  1  0  0  0
 32 35  1  0  0  0
 39 40  1  0  0  0
 40 41  1  0  0  0
 41 42  1  0  0  0
 42 43  1  0  0  0
 43 44  1  0  0  0
 44 45  1  0  0  0
 45 46  1  0  0  0
 46 47  1  0  0  0
 47 48  2  0  0  0
 48 49  1  0  0  0
 49 50  1  0  0  0
 50 51  1  0  0  0
 51 52  1  0  0  0
 52 53  1  0  0  0
 53 54  1  0  0  0
 54 55  1  0  0  0
 55 56  1  0  0  0
M  CHG 1  26  -1
M  END
> <minimizedAffinity>
-8.70708

> <CNNscore>
0.5322417021

> <CNNaffinity>
6.9595971107

> <CNN_VS>
3.7041878700

> <CNNaffinity_variance>
0.4054657817

$$$$
/media/chris/experiments/cd1a-new-docking/inputs/ligands/7sh4_ligand.pdb


 56 55  0  0  0  0  0  0  0  0999 V2000
  -39.4582   60.1503   63.5072 C   0  0  0  0  0  0  0  0  0  0  0  0
  -40.7415   60.9317   63.5202 C   0  0  0  0  0  0  0  0  0  0  0  0
  -41.0805   61.0233   64.9201 O   0  0  0  0  0  0  0  0  0  0  0  0
  -40.8698   59.3995   66.4427 O   0  0  0  0  0  0  0  0  0  0  0  0
  -41.4627   59.8976   65.5240 C   0  0  0  0  0  0  0  0  0  0  0  0
  -42.7813   59.4164   64.9906 C   0  0  0  0  0  0  0  0  0  0  0  0
  -43.3746   58.2501   65.7626 C   0  0  0  0  0  0  0  0  0  0  0  0
  -44.7974   57.9371   65.3501 C   0  0  0  0  0  0  0  0  0  0  0  0
  -45.6743   59.1565   65.1763 C   0  0  0  0  0  0  0  0  0  0  0  0
  -47.0145   59.0273   65.8715 C   0  0  0  0  0  0  0  0  0  0  0  0
  -48.1087   58.5225   64.9630 C   0  0  0  0  0  0  0  0  0  0  0  0
  -49.3930   58.2321   65.6937 C   0  0  0  0  0  0  0  0  0  0  0  0
  -50.5358   59.1325   65.2799 C   0  0  0  0  0  0  0  0  0  0  0  0
  -50.3198   59.7651   63.9200 C   0  0  0  0  0  0  0  0  0  0  0  0
  -51.3346   59.3481   62.8762 C   0  0  0  0  0  0  0  0  0  0  0  0
  -51.0108   58.0219   62.1976 C   0  0  0  0  0  0  0  0  0  0  0  0
  -49.9803   58.1317   61.0903 C   0  0  0  0  0  0  0  0  0  0  0  0
  -49.9338   56.9155   60.1883 C   0  0  0  0  0  0  0  0  0  0  0  0
  -49.1341   57.1330   58.9113 C   0  0  0  0  0  0  0  0  0  0  0  0
  -47.7314   57.6606   59.1551 C   0  0  0  0  0  0  0  0  0  0  0  0
  -45.4072   57.9940   58.2479 C   0  0  0  0  0  0  0  0  0  0  0  0
  -46.8614   57.7470   57.9156 C   0  0  0  0  0  0  0  0  0  0  0  0
  -38.3072   60.9609   62.9687 C   0  0  0  0  0  0  0  0  0  0  0  0
  -37.7576   61.7580   64.0416 O   0  0  0  0  0  0  0  0  0  0  0  0
  -36.3527   62.5163   63.9267 P   0  0  0  0  0  0  0  0  0  0  0  0
  -35.4588   61.6984   63.0791 O   0  0  0  0  0  0  0  0  0  0  0  0
  -36.6175   63.9216   63.5342 O   0  0  0  0  0  0  0  0  0  0  0  0
  -36.9825   63.9429   62.6358 H   0  0  0  0  0  0  0  0  0  0  0  0
  -35.7553   62.5249   65.4052 O   0  0  0  0  0  0  0  0  0  0  0  0
  -36.0616   63.6129   66.3009 C   0  0  0  0  0  0  0  0  0  0  0  0
  -34.1579   62.9094   67.5752 O   0  0  0  0  0  0  0  0  0  0  0  0
  -34.7839   64.0477   66.9757 C   0  0  0  0  0  0  0  0  0  0  0  0
  -34.7790   62.4835   68.1865 H   0  0  0  0  0  0  0  0  0  0  0  0
  -34.5443   65.4244   65.0096 O   0  0  0  0  0  0  0  0  0  0  0  0
  -33.8303   64.7238   66.0200 C   0  0  0  0  0  0  0  0  0  0  0  0
  -33.9158   65.8513   64.4066 H   0  0  0  0  0  0  0  0  0  0  0  0
  -39.6707   58.9269   62.7274 O   0  0  0  0  0  0  0  0  0  0  0  0
  -39.2506   57.3568   64.2825 O   0  0  0  0  0  0  0  0  0  0  0  0
  -39.0817   57.8038   63.1810 C   0  0  0  0  0  0  0  0  0  0  0  0
  -38.2076   57.1709   62.1430 C   0  0  0  0  0  0  0  0  0  0  0  0
  -36.8188   56.8632   62.6939 C   0  0  0  0  0  0  0  0  0  0  0  0
  -36.0049   58.0996   63.0391 C   0  0  0  0  0  0  0  0  0  0  0  0
  -35.1605   57.9416   64.2985 C   0  0  0  0  0  0  0  0  0  0  0  0
  -33.7303   58.4254   64.1470 C   0  0  0  0  0  0  0  0  0  0  0  0
  -33.4076   59.0409   62.7824 C   0  0  0  0  0  0  0  0  0  0  0  0
  -32.3684   58.2816   61.9546 C   0  0  0  0  0  0  0  0  0  0  0  0
  -32.5259   56.7955   62.0757 C   0  0  0  0  0  0  0  0  0  0  0  0
  -33.2909   56.0215   61.3307 C   0  0  0  0  0  0  0  0  0  0  0  0
  -34.1649   56.4681   60.2016 C   0  0  0  0  0  0  0  0  0  0  0  0
  -35.2117   55.4231   59.8269 C   0  0  0  0  0  0  0  0  0  0  0  0
  -36.3809   55.9868   59.0387 C   0  0  0  0  0  0  0  0  0  0  0  0
  -35.9638   56.8854   57.8873 C   0  0  0  0  0  0  0  0  0  0  0  0
  -36.6140   58.2588   57.8928 C   0  0  0  0  0  0  0  0  0  0  0  0
  -37.8812   58.3257   58.7317 C   0  0  0  0  0  0  0  0  0  0  0  0
  -38.0522   59.6223   59.4980 C   0  0  0  0  0  0  0  0  0  0  0  0
  -39.4884   60.0553   59.5953 C   0  0  0  0  0  0  0  0  0  0  0  0
 21 22  1  0  0  0
  4  5  2  0  0  0
 25 24  1  0  0  0
 25 26  2  0  0  0
 25 27  1  0  0  0
 25 29  1  0  0  0
 22 20  1  0  0  0
  3  5  1  0  0  0
  3  2  1  0  0  0
 20 19  1  0  0  0
 24 23  1  0  0  0
 19 18  1  0  0  0
 18 17  1  0  0  0
 27 28  1  0  0  0
 17 16  1  0  0  0
 29 30  1  0  0  0
 16 15  1  0  0  0
 34 35  1  0  0  0
 34 36  1  0  0  0
 15 14  1  0  0  0
 31 32  1  0  0  0
 31 33  1  0  0  0
 14 13  1  0  0  0
 37  1  1  0  0  0
 37 39  1  0  0  0
 13 12  1  0  0  0
 38 39  2  0  0  0
 12 11  1  0  0  0
 11 10  1  0  0  0
 10  9  1  0  0  0
  9  8  1  0  0  0
  8  7  1  0  0  0
  7  6  1  0  0  0
  6  5  1  0  0  0
  2  1  1  0  0  0
  1 23  1  0  0  0
 30 32  1  0  0  0
 32 35  1  0  0  0
 39 40  1  0  0  0
 40 41  1  0  0  0
 41 42  1  0  0  0
 42 43  1  0  0  0
 43 44  1  0  0  0
 44 45  1  0  0  0
 45 46  1  0  0  0
 46 47  1  0  0  0
 47 48  2  0  0  0
 48 49  1  0  0  0
 49 50  1  0  0  0
 50 51  1  0  0  0
 51 52  1  0  0  0
 52 53  1  0  0  0
 53 54  1  0  0  0
 54 55  1  0  0  0
 55 56  1  0  0  0
M  CHG 1  26  -1
M  END
> <minimizedAffinity>
-8.85330

> <CNNscore>
0.5009246469

> <CNNaffinity>
7.5437011719

> <CNN_VS>
3.7788257599

> <CNNaffinity_variance>
0.6827181578

$$$$
/media/chris/experiments/cd1a-new-docking/inputs/ligands/7sh4_ligand.pdb


 56 55  0  0  0  0  0  0  0  0999 V2000
  -36.6030   60.4285   65.3576 C   0  0  0  0  0  0  0  0  0  0  0  0
  -38.0351   60.7078   64.9990 C   0  0  0  0  0  0  0  0  0  0  0  0
  -38.7788   59.7071   65.7261 O   0  0  0  0  0  0  0  0  0  0  0  0
  -40.5753   61.0009   66.0391 O   0  0  0  0  0  0  0  0  0  0  0  0
  -40.0875   59.9154   65.8736 C   0  0  0  0  0  0  0  0  0  0  0  0
  -40.8643   58.6450   65.6808 C   0  0  0  0  0  0  0  0  0  0  0  0
  -42.1686   58.5910   66.4581 C   0  0  0  0  0  0  0  0  0  0  0  0
  -43.0154   57.3881   66.0998 C   0  0  0  0  0  0  0  0  0  0  0  0
  -44.4846   57.6963   65.9202 C   0  0  0  0  0  0  0  0  0  0  0  0
  -44.8402   58.0826   64.4987 C   0  0  0  0  0  0  0  0  0  0  0  0
  -46.3175   57.9805   64.2074 C   0  0  0  0  0  0  0  0  0  0  0  0
  -47.1766   58.4456   65.3534 C   0  0  0  0  0  0  0  0  0  0  0  0
  -48.5625   57.8394   65.3492 C   0  0  0  0  0  0  0  0  0  0  0  0
  -49.6266   58.8149   64.8884 C   0  0  0  0  0  0  0  0  0  0  0  0
  -50.4678   58.3121   63.7339 C   0  0  0  0  0  0  0  0  0  0  0  0
  -50.3743   59.1762   62.4815 C   0  0  0  0  0  0  0  0  0  0  0  0
  -50.1058   58.3927   61.2110 C   0  0  0  0  0  0  0  0  0  0  0  0
  -48.6966   57.8427   61.1293 C   0  0  0  0  0  0  0  0  0  0  0  0
  -48.3620   57.2195   59.7812 C   0  0  0  0  0  0  0  0  0  0  0  0
  -46.9247   57.4450   59.3473 C   0  0  0  0  0  0  0  0  0  0  0  0
  -47.8771   56.7405   57.1264 C   0  0  0  0  0  0  0  0  0  0  0  0
  -46.6847   57.3179   57.8549 C   0  0  0  0  0  0  0  0  0  0  0  0
  -35.9890   61.5519   66.1530 C   0  0  0  0  0  0  0  0  0  0  0  0
  -35.1420   62.3315   65.2794 O   0  0  0  0  0  0  0  0  0  0  0  0
  -35.3879   63.8873   64.9946 P   0  0  0  0  0  0  0  0  0  0  0  0
  -36.3450   64.0019   63.8733 O   0  0  0  0  0  0  0  0  0  0  0  0
  -35.7167   64.5458   66.2820 O   0  0  0  0  0  0  0  0  0  0  0  0
  -36.5703   64.2169   66.6045 H   0  0  0  0  0  0  0  0  0  0  0  0
  -33.9817   64.4536   64.4998 O   0  0  0  0  0  0  0  0  0  0  0  0
  -32.7566   63.8749   64.9939 C   0  0  0  0  0  0  0  0  0  0  0  0
  -30.4640   63.9762   64.3034 O   0  0  0  0  0  0  0  0  0  0  0  0
  -31.7958   63.7369   63.8385 C   0  0  0  0  0  0  0  0  0  0  0  0
  -30.4207   64.8486   64.7253 H   0  0  0  0  0  0  0  0  0  0  0  0
  -33.2381   61.9982   62.9930 O   0  0  0  0  0  0  0  0  0  0  0  0
  -31.8815   62.3818   63.1782 C   0  0  0  0  0  0  0  0  0  0  0  0
  -33.2726   61.1269   62.5683 H   0  0  0  0  0  0  0  0  0  0  0  0
  -35.8592   60.1713   64.1204 O   0  0  0  0  0  0  0  0  0  0  0  0
  -35.7410   57.9799   64.6147 O   0  0  0  0  0  0  0  0  0  0  0  0
  -35.4680   58.9022   63.8958 C   0  0  0  0  0  0  0  0  0  0  0  0
  -34.6694   58.7765   62.6355 C   0  0  0  0  0  0  0  0  0  0  0  0
  -33.4016   57.9577   62.8564 C   0  0  0  0  0  0  0  0  0  0  0  0
  -33.1669   56.8885   61.8019 C   0  0  0  0  0  0  0  0  0  0  0  0
  -34.4411   56.4368   61.0974 C   0  0  0  0  0  0  0  0  0  0  0  0
  -34.1993   55.5196   59.9131 C   0  0  0  0  0  0  0  0  0  0  0  0
  -33.5707   56.2038   58.6958 C   0  0  0  0  0  0  0  0  0  0  0  0
  -34.5169   57.0953   57.8886 C   0  0  0  0  0  0  0  0  0  0  0  0
  -35.9019   56.5263   57.8128 C   0  0  0  0  0  0  0  0  0  0  0  0
  -37.0276   57.1545   58.0913 C   0  0  0  0  0  0  0  0  0  0  0  0
  -37.1574   58.5751   58.5420 C   0  0  0  0  0  0  0  0  0  0  0  0
  -38.6068   58.9721   58.8063 C   0  0  0  0  0  0  0  0  0  0  0  0
  -38.7545   60.1269   59.7813 C   0  0  0  0  0  0  0  0  0  0  0  0
  -40.1170   60.1904   60.4498 C   0  0  0  0  0  0  0  0  0  0  0  0
  -40.1394   59.6857   61.8830 C   0  0  0  0  0  0  0  0  0  0  0  0
  -38.7997   59.1408   62.3542 C   0  0  0  0  0  0  0  0  0  0  0  0
  -38.8145   57.6643   62.6970 C   0  0  0  0  0  0  0  0  0  0  0  0
  -37.9440   56.8466   61.7842 C   0  0  0  0  0  0  0  0  0  0  0  0
 21 22  1  0  0  0
  4  5  2  0  0  0
 25 24  1  0  0  0
 25 26  2  0  0  0
 25 27  1  0  0  0
 25 29  1  0  0  0
 22 20  1  0  0  0
  3  5  1  0  0  0
  3  2  1  0  0  0
 20 19  1  0  0  0
 24 23  1  0  0  0
 19 18  1  0  0  0
 18 17  1  0  0  0
 27 28  1  0  0  0
 17 16  1  0  0  0
 29 30  1  0  0  0
 16 15  1  0  0  0
 34 35  1  0  0  0
 34 36  1  0  0  0
 15 14  1  0  0  0
 31 32  1  0  0  0
 31 33  1  0  0  0
 14 13  1  0  0  0
 37  1  1  0  0  0
 37 39  1  0  0  0
 13 12  1  0  0  0
 38 39  2  0  0  0
 12 11  1  0  0  0
 11 10  1  0  0  0
 10  9  1  0  0  0
  9  8  1  0  0  0
  8  7  1  0  0  0
  7  6  1  0  0  0
  6  5  1  0  0  0
  2  1  1  0  0  0
  1 23  1  0  0  0
 30 32  1  0  0  0
 32 35  1  0  0  0
 39 40  1  0  0  0
 40 41  1  0  0  0
 41 42  1  0  0  0
 42 43  1  0  0  0
 43 44  1  0  0  0
 44 45  1  0  0  0
 45 46  1  0  0  0
 46 47  1  0  0  0
 47 48  2  0  0  0
 48 49  1  0  0  0
 49 50  1  0  0  0
 50 51  1  0  0  0
 51 52  1  0  0  0
 52 53  1  0  0  0
 53 54  1  0  0  0
 54 55  1  0  0  0
 55 56  1  0  0  0
M  CHG 1  26  -1
M  END
> <minimizedAffinity>
-8.26541

> <CNNscore>
0.4842771888

> <CNNaffinity>
7.4885559082

> <CNN_VS>
3.6265368462

> <CNNaffinity_variance>
0.8346431851

$$$$
/media/chris/experiments/cd1a-new-docking/inputs/ligands/7sh4_ligand.pdb


 56 55  0  0  0  0  0  0  0  0999 V2000
  -37.5144   60.4827   65.2471 C   0  0  0  0  0  0  0  0  0  0  0  0
  -38.6156   59.5994   65.7618 C   0  0  0  0  0  0  0  0  0  0  0  0
  -39.7728   60.4617   65.7852 O   0  0  0  0  0  0  0  0  0  0  0  0
  -41.5069   60.6850   64.3915 O   0  0  0  0  0  0  0  0  0  0  0  0
  -40.8666   60.0219   65.1621 C   0  0  0  0  0  0  0  0  0  0  0  0
  -41.1100   58.5691   65.4537 C   0  0  0  0  0  0  0  0  0  0  0  0
  -42.1463   58.3186   66.5362 C   0  0  0  0  0  0  0  0  0  0  0  0
  -43.0011   57.1001   66.2588 C   0  0  0  0  0  0  0  0  0  0  0  0
  -44.4071   57.4202   65.8043 C   0  0  0  0  0  0  0  0  0  0  0  0
  -44.7785   58.8755   66.0050 C   0  0  0  0  0  0  0  0  0  0  0  0
  -46.0808   59.2530   65.3423 C   0  0  0  0  0  0  0  0  0  0  0  0
  -46.6796   58.1289   64.5388 C   0  0  0  0  0  0  0  0  0  0  0  0
  -48.1699   58.2726   64.3233 C   0  0  0  0  0  0  0  0  0  0  0  0
  -48.5964   59.7131   64.1257 C   0  0  0  0  0  0  0  0  0  0  0  0
  -49.9669   59.8717   63.5012 C   0  0  0  0  0  0  0  0  0  0  0  0
  -50.0774   59.2817   62.1000 C   0  0  0  0  0  0  0  0  0  0  0  0
  -51.0991   58.1674   61.9793 C   0  0  0  0  0  0  0  0  0  0  0  0
  -50.8127   57.2083   60.8421 C   0  0  0  0  0  0  0  0  0  0  0  0
  -49.3277   56.9965   60.5820 C   0  0  0  0  0  0  0  0  0  0  0  0
  -48.9203   57.2536   59.1421 C   0  0  0  0  0  0  0  0  0  0  0  0
  -46.7700   57.8955   58.0019 C   0  0  0  0  0  0  0  0  0  0  0  0
  -47.5014   56.8404   58.8005 C   0  0  0  0  0  0  0  0  0  0  0  0
  -36.9266   61.3461   66.3338 C   0  0  0  0  0  0  0  0  0  0  0  0
  -35.9959   62.2764   65.7364 O   0  0  0  0  0  0  0  0  0  0  0  0
  -35.7576   63.7523   66.3080 P   0  0  0  0  0  0  0  0  0  0  0  0
  -36.0384   64.7152   65.2214 O   0  0  0  0  0  0  0  0  0  0  0  0
  -36.5039   63.8795   67.5830 O   0  0  0  0  0  0  0  0  0  0  0  0
  -37.4565   63.8354   67.4058 H   0  0  0  0  0  0  0  0  0  0  0  0
  -34.2003   63.8295   66.6421 O   0  0  0  0  0  0  0  0  0  0  0  0
  -33.2297   63.4248   65.6552 C   0  0  0  0  0  0  0  0  0  0  0  0
  -31.2048   64.7042   65.5795 O   0  0  0  0  0  0  0  0  0  0  0  0
  -32.5570   64.6625   65.1141 C   0  0  0  0  0  0  0  0  0  0  0  0
  -31.1951   64.6653   66.5486 H   0  0  0  0  0  0  0  0  0  0  0  0
  -33.9053   64.4754   63.1227 O   0  0  0  0  0  0  0  0  0  0  0  0
  -32.5910   64.7224   63.6057 C   0  0  0  0  0  0  0  0  0  0  0  0
  -33.9070   64.5181   62.1537 H   0  0  0  0  0  0  0  0  0  0  0  0
  -38.0466   61.2884   64.1437 O   0  0  0  0  0  0  0  0  0  0  0  0
  -36.5641   61.1127   62.4609 O   0  0  0  0  0  0  0  0  0  0  0  0
  -37.6695   60.9424   62.8979 C   0  0  0  0  0  0  0  0  0  0  0  0
  -38.7864   60.3046   62.1311 C   0  0  0  0  0  0  0  0  0  0  0  0
  -38.7385   58.7835   62.2353 C   0  0  0  0  0  0  0  0  0  0  0  0
  -38.1426   58.1006   61.0150 C   0  0  0  0  0  0  0  0  0  0  0  0
  -37.8014   59.0634   59.8834 C   0  0  0  0  0  0  0  0  0  0  0  0
  -37.8530   58.4357   58.5029 C   0  0  0  0  0  0  0  0  0  0  0  0
  -36.4858   58.0704   57.9180 C   0  0  0  0  0  0  0  0  0  0  0  0
  -36.2949   56.5894   57.5834 C   0  0  0  0  0  0  0  0  0  0  0  0
  -36.5810   55.7034   58.7585 C   0  0  0  0  0  0  0  0  0  0  0  0
  -35.7323   55.3523   59.7050 C   0  0  0  0  0  0  0  0  0  0  0  0
  -34.2989   55.7692   59.8042 C   0  0  0  0  0  0  0  0  0  0  0  0
  -34.1211   57.0576   60.6021 C   0  0  0  0  0  0  0  0  0  0  0  0
  -34.6948   56.9891   62.0064 C   0  0  0  0  0  0  0  0  0  0  0  0
  -34.3396   58.1874   62.8696 C   0  0  0  0  0  0  0  0  0  0  0  0
  -32.8487   58.4532   62.9954 C   0  0  0  0  0  0  0  0  0  0  0  0
  -32.4335   59.8263   62.4896 C   0  0  0  0  0  0  0  0  0  0  0  0
  -31.1819   59.8219   61.6344 C   0  0  0  0  0  0  0  0  0  0  0  0
  -29.9805   60.3617   62.3590 C   0  0  0  0  0  0  0  0  0  0  0  0
 21 22  1  0  0  0
  4  5  2  0  0  0
 25 24  1  0  0  0
 25 26  2  0  0  0
 25 27  1  0  0  0
 25 29  1  0  0  0
 22 20  1  0  0  0
  3  5  1  0  0  0
  3  2  1  0  0  0
 20 19  1  0  0  0
 24 23  1  0  0  0
 19 18  1  0  0  0
 18 17  1  0  0  0
 27 28  1  0  0  0
 17 16  1  0  0  0
 29 30  1  0  0  0
 16 15  1  0  0  0
 34 35  1  0  0  0
 34 36  1  0  0  0
 15 14  1  0  0  0
 31 32  1  0  0  0
 31 33  1  0  0  0
 14 13  1  0  0  0
 37  1  1  0  0  0
 37 39  1  0  0  0
 13 12  1  0  0  0
 38 39  2  0  0  0
 12 11  1  0  0  0
 11 10  1  0  0  0
 10  9  1  0  0  0
  9  8  1  0  0  0
  8  7  1  0  0  0
  7  6  1  0  0  0
  6  5  1  0  0  0
  2  1  1  0  0  0
  1 23  1  0  0  0
 30 32  1  0  0  0
 32 35  1  0  0  0
 39 40  1  0  0  0
 40 41  1  0  0  0
 41 42  1  0  0  0
 42 43  1  0  0  0
 43 44  1  0  0  0
 44 45  1  0  0  0
 45 46  1  0  0  0
 46 47  1  0  0  0
 47 48  2  0  0  0
 48 49  1  0  0  0
 49 50  1  0  0  0
 50 51  1  0  0  0
 51 52  1  0  0  0
 52 53  1  0  0  0
 53 54  1  0  0  0
 54 55  1  0  0  0
 55 56  1  0  0  0
M  CHG 1  26  -1
M  END
> <minimizedAffinity>
-9.07098

> <CNNscore>
0.4672218263

> <CNNaffinity>
7.3595991135

> <CNN_VS>
3.4385652542

> <CNNaffinity_variance>
0.8873200417

$$$$
