/media/chris/experiments/cd1a-new-docking/inputs/ligands/7sh4_ligand.pdb


 56 55  0  0  0  0  0  0  0  0999 V2000
  -38.1540   60.4074   64.5651 C   0  0  0  0  0  0  0  0  0  0  0  0
  -38.6712   60.1651   65.9549 C   0  0  0  0  0  0  0  0  0  0  0  0
  -39.5836   59.0576   65.7999 O   0  0  0  0  0  0  0  0  0  0  0  0
  -41.3010   60.3736   66.3638 O   0  0  0  0  0  0  0  0  0  0  0  0
  -40.8752   59.3034   66.0219 C   0  0  0  0  0  0  0  0  0  0  0  0
  -41.7221   58.1147   65.6691 C   0  0  0  0  0  0  0  0  0  0  0  0
  -42.8701   57.8629   66.6320 C   0  0  0  0  0  0  0  0  0  0  0  0
  -44.0893   57.2782   65.9507 C   0  0  0  0  0  0  0  0  0  0  0  0
  -44.6676   58.1511   64.8601 C   0  0  0  0  0  0  0  0  0  0  0  0
  -46.1829   58.1518   64.8417 C   0  0  0  0  0  0  0  0  0  0  0  0
  -46.7874   59.1959   65.7483 C   0  0  0  0  0  0  0  0  0  0  0  0
  -48.2327   59.4811   65.4357 C   0  0  0  0  0  0  0  0  0  0  0  0
  -49.1198   58.2596   65.5308 C   0  0  0  0  0  0  0  0  0  0  0  0
  -50.3319   58.3445   64.6254 C   0  0  0  0  0  0  0  0  0  0  0  0
  -50.0805   59.0750   63.3230 C   0  0  0  0  0  0  0  0  0  0  0  0
  -50.8506   58.5040   62.1378 C   0  0  0  0  0  0  0  0  0  0  0  0
  -50.1018   57.4259   61.3781 C   0  0  0  0  0  0  0  0  0  0  0  0
  -49.4424   57.9301   60.1108 C   0  0  0  0  0  0  0  0  0  0  0  0
  -48.3221   57.0310   59.6064 C   0  0  0  0  0  0  0  0  0  0  0  0
  -47.3486   57.7355   58.6786 C   0  0  0  0  0  0  0  0  0  0  0  0
  -47.7615   55.6611   57.3139 C   0  0  0  0  0  0  0  0  0  0  0  0
  -47.0311   56.9820   57.4009 C   0  0  0  0  0  0  0  0  0  0  0  0
  -36.8114   61.0924   64.5720 C   0  0  0  0  0  0  0  0  0  0  0  0
  -36.8793   62.2576   63.7200 O   0  0  0  0  0  0  0  0  0  0  0  0
  -35.5811   63.0740   63.2618 P   0  0  0  0  0  0  0  0  0  0  0  0
  -34.3884   62.2792   63.6257 O   0  0  0  0  0  0  0  0  0  0  0  0
  -35.7645   63.4763   61.8465 O   0  0  0  0  0  0  0  0  0  0  0  0
  -35.7692   62.6862   61.2838 H   0  0  0  0  0  0  0  0  0  0  0  0
  -35.5791   64.3978   64.1510 O   0  0  0  0  0  0  0  0  0  0  0  0
  -34.6717   64.5169   65.2657 C   0  0  0  0  0  0  0  0  0  0  0  0
  -36.8318   64.2201   66.2598 O   0  0  0  0  0  0  0  0  0  0  0  0
  -35.4273   64.1927   66.5310 C   0  0  0  0  0  0  0  0  0  0  0  0
  -37.0729   65.0836   65.8895 H   0  0  0  0  0  0  0  0  0  0  0  0
  -36.0967   62.3078   67.8791 O   0  0  0  0  0  0  0  0  0  0  0  0
  -35.0340   62.8542   67.1085 C   0  0  0  0  0  0  0  0  0  0  0  0
  -35.8256   61.4497   68.2410 H   0  0  0  0  0  0  0  0  0  0  0  0
  -39.1553   61.1858   63.8293 O   0  0  0  0  0  0  0  0  0  0  0  0
  -41.1237   60.7320   62.8393 O   0  0  0  0  0  0  0  0  0  0  0  0
  -39.9524   60.5085   62.9808 C   0  0  0  0  0  0  0  0  0  0  0  0
  -39.2007   59.4581   62.2234 C   0  0  0  0  0  0  0  0  0  0  0  0
  -38.3628   60.0680   61.1043 C   0  0  0  0  0  0  0  0  0  0  0  0
  -39.0600   60.0894   59.7538 C   0  0  0  0  0  0  0  0  0  0  0  0
  -38.6082   58.9753   58.8167 C   0  0  0  0  0  0  0  0  0  0  0  0
  -37.2528   58.3882   59.1643 C   0  0  0  0  0  0  0  0  0  0  0  0
  -36.4121   57.9678   57.9554 C   0  0  0  0  0  0  0  0  0  0  0  0
  -36.2234   56.4588   57.7862 C   0  0  0  0  0  0  0  0  0  0  0  0
  -36.3513   55.7240   59.0869 C   0  0  0  0  0  0  0  0  0  0  0  0
  -35.3818   55.4623   59.9420 C   0  0  0  0  0  0  0  0  0  0  0  0
  -33.9442   55.8481   59.7915 C   0  0  0  0  0  0  0  0  0  0  0  0
  -33.5907   57.0999   60.5894 C   0  0  0  0  0  0  0  0  0  0  0  0
  -32.8409   56.8098   61.8779 C   0  0  0  0  0  0  0  0  0  0  0  0
  -32.7466   58.0047   62.8109 C   0  0  0  0  0  0  0  0  0  0  0  0
  -34.0788   58.6650   63.1250 C   0  0  0  0  0  0  0  0  0  0  0  0
  -34.7077   58.1740   64.4200 C   0  0  0  0  0  0  0  0  0  0  0  0
  -35.8427   57.1881   64.2256 C   0  0  0  0  0  0  0  0  0  0  0  0
  -36.5257   57.3428   62.8955 C   0  0  0  0  0  0  0  0  0  0  0  0
 21 22  1  0  0  0
  4  5  2  0  0  0
 25 24  1  0  0  0
 25 26  2  0  0  0
 25 27  1  0  0  0
 25 29  1  0  0  0
 22 20  1  0  0  0
  3  5  1  0  0  0
  3  2  1  0  0  0
 20 19  1  0  0  0
 24 23  1  0  0  0
 19 18  1  0  0  0
 18 17  1  0  0  0
 27 28  1  0  0  0
 17 16  1  0  0  0
 29 30  1  0  0  0
 16 15  1  0  0  0
 34 35  1  0  0  0
 34 36  1  0  0  0
 15 14  1  0  0  0
 31 32  1  0  0  0
 31 33  1  0  0  0
 14 13  1  0  0  0
 37  1  1  0  0  0
 37 39  1  0  0  0
 13 12  1  0  0  0
 38 39  2  0  0  0
 12 11  1  0  0  0
 11 10  1  0  0  0
 10  9  1  0  0  0
  9  8  1  0  0  0
  8  7  1  0  0  0
  7  6  1  0  0  0
  6  5  1  0  0  0
  2  1  1  0  0  0
  1 23  1  0  0  0
 30 32  1  0  0  0
 32 35  1  0  0  0
 39 40  1  0  0  0
 40 41  1  0  0  0
 41 42  1  0  0  0
 42 43  1  0  0  0
 43 44  1  0  0  0
 44 45  1  0  0  0
 45 46  1  0  0  0
 46 47  1  0  0  0
 47 48  2  0  0  0
 48 49  1  0  0  0
 49 50  1  0  0  0
 50 51  1  0  0  0
 51 52  1  0  0  0
 52 53  1  0  0  0
 53 54  1  0  0  0
 54 55  1  0  0  0
 55 56  1  0  0  0
M  CHG 1  26  -1
M  END
> <minimizedAffinity>
-8.70501

> <CNNscore>
0.7506425381

> <CNNaffinity>
7.9858551025

> <CNN_VS>
5.9945225716

> <CNNaffinity_variance>
0.7736465335

$$$$
/media/chris/experiments/cd1a-new-docking/inputs/ligands/7sh4_ligand.pdb


 56 55  0  0  0  0  0  0  0  0999 V2000
  -38.1689   60.3865   63.4817 C   0  0  0  0  0  0  0  0  0  0  0  0
  -39.6047   60.8041   63.3343 C   0  0  0  0  0  0  0  0  0  0  0  0
  -40.1280   60.7358   64.6776 O   0  0  0  0  0  0  0  0  0  0  0  0
  -42.1090   59.9421   64.0108 O   0  0  0  0  0  0  0  0  0  0  0  0
  -41.2576   60.0491   64.8517 C   0  0  0  0  0  0  0  0  0  0  0  0
  -41.2609   59.3362   66.1732 C   0  0  0  0  0  0  0  0  0  0  0  0
  -42.6404   59.1800   66.7906 C   0  0  0  0  0  0  0  0  0  0  0  0
  -43.2326   57.8052   66.5623 C   0  0  0  0  0  0  0  0  0  0  0  0
  -44.4190   57.7898   65.6254 C   0  0  0  0  0  0  0  0  0  0  0  0
  -45.1595   59.1112   65.5839 C   0  0  0  0  0  0  0  0  0  0  0  0
  -46.6224   58.9836   65.9318 C   0  0  0  0  0  0  0  0  0  0  0  0
  -47.1013   57.5559   65.9466 C   0  0  0  0  0  0  0  0  0  0  0  0
  -48.6065   57.4269   65.8706 C   0  0  0  0  0  0  0  0  0  0  0  0
  -49.2884   58.7311   65.5094 C   0  0  0  0  0  0  0  0  0  0  0  0
  -50.4311   58.5798   64.5273 C   0  0  0  0  0  0  0  0  0  0  0  0
  -49.9810   58.3365   63.0913 C   0  0  0  0  0  0  0  0  0  0  0  0
  -51.1230   58.1516   62.1106 C   0  0  0  0  0  0  0  0  0  0  0  0
  -50.7529   57.3084   60.9076 C   0  0  0  0  0  0  0  0  0  0  0  0
  -49.2536   57.2297   60.6554 C   0  0  0  0  0  0  0  0  0  0  0  0
  -48.8777   57.3367   59.1884 C   0  0  0  0  0  0  0  0  0  0  0  0
  -46.3736   57.4591   58.9636 C   0  0  0  0  0  0  0  0  0  0  0  0
  -47.6081   56.6012   58.8031 C   0  0  0  0  0  0  0  0  0  0  0  0
  -37.2259   61.3575   62.8187 C   0  0  0  0  0  0  0  0  0  0  0  0
  -36.4844   62.0583   63.8422 O   0  0  0  0  0  0  0  0  0  0  0  0
  -35.5578   63.3251   63.5283 P   0  0  0  0  0  0  0  0  0  0  0  0
  -34.1502   62.8721   63.5203 O   0  0  0  0  0  0  0  0  0  0  0  0
  -36.0950   64.0026   62.3236 O   0  0  0  0  0  0  0  0  0  0  0  0
  -35.9890   63.4235   61.5527 H   0  0  0  0  0  0  0  0  0  0  0  0
  -35.7506   64.3073   64.7696 O   0  0  0  0  0  0  0  0  0  0  0  0
  -34.5987   64.8192   65.4703 C   0  0  0  0  0  0  0  0  0  0  0  0
  -34.0006   64.8453   67.7907 O   0  0  0  0  0  0  0  0  0  0  0  0
  -34.3898   63.9888   66.7128 C   0  0  0  0  0  0  0  0  0  0  0  0
  -33.2096   65.3458   67.5366 H   0  0  0  0  0  0  0  0  0  0  0  0
  -36.5558   64.0273   67.7737 O   0  0  0  0  0  0  0  0  0  0  0  0
  -35.6211   63.2011   67.0916 C   0  0  0  0  0  0  0  0  0  0  0  0
  -37.3384   63.5046   68.0083 H   0  0  0  0  0  0  0  0  0  0  0  0
  -38.0237   59.0329   62.9371 O   0  0  0  0  0  0  0  0  0  0  0  0
  -39.3746   57.3695   63.6214 O   0  0  0  0  0  0  0  0  0  0  0  0
  -38.3664   58.0102   63.7437 C   0  0  0  0  0  0  0  0  0  0  0  0
  -37.3331   57.7567   64.7973 C   0  0  0  0  0  0  0  0  0  0  0  0
  -35.9424   57.6018   64.1903 C   0  0  0  0  0  0  0  0  0  0  0  0
  -34.9756   58.7103   64.5737 C   0  0  0  0  0  0  0  0  0  0  0  0
  -34.1539   59.2350   63.4018 C   0  0  0  0  0  0  0  0  0  0  0  0
  -32.8106   58.5496   63.2342 C   0  0  0  0  0  0  0  0  0  0  0  0
  -32.5597   57.9734   61.8377 C   0  0  0  0  0  0  0  0  0  0  0  0
  -32.7258   56.4569   61.7192 C   0  0  0  0  0  0  0  0  0  0  0  0
  -34.1362   56.0670   61.3922 C   0  0  0  0  0  0  0  0  0  0  0  0
  -34.6604   55.9452   60.1880 C   0  0  0  0  0  0  0  0  0  0  0  0
  -33.9516   56.1706   58.8899 C   0  0  0  0  0  0  0  0  0  0  0  0
  -34.8391   56.8525   57.8527 C   0  0  0  0  0  0  0  0  0  0  0  0
  -36.2984   56.4400   57.9335 C   0  0  0  0  0  0  0  0  0  0  0  0
  -37.2694   57.5773   57.6673 C   0  0  0  0  0  0  0  0  0  0  0  0
  -37.2081   58.7079   58.6810 C   0  0  0  0  0  0  0  0  0  0  0  0
  -38.4383   58.7901   59.5717 C   0  0  0  0  0  0  0  0  0  0  0  0
  -38.9756   60.1947   59.7623 C   0  0  0  0  0  0  0  0  0  0  0  0
  -40.4778   60.2452   59.7800 C   0  0  0  0  0  0  0  0  0  0  0  0
 21 22  1  0  0  0
  4  5  2  0  0  0
 25 24  1  0  0  0
 25 26  2  0  0  0
 25 27  1  0  0  0
 25 29  1  0  0  0
 22 20  1  0  0  0
  3  5  1  0  0  0
  3  2  1  0  0  0
 20 19  1  0  0  0
 24 23  1  0  0  0
 19 18  1  0  0  0
 18 17  1  0  0  0
 27 28  1  0  0  0
 17 16  1  0  0  0
 29 30  1  0  0  0
 16 15  1  0  0  0
 34 35  1  0  0  0
 34 36  1  0  0  0
 15 14  1  0  0  0
 31 32  1  0  0  0
 31 33  1  0  0  0
 14 13  1  0  0  0
 37  1  1  0  0  0
 37 39  1  0  0  0
 13 12  1  0  0  0
 38 39  2  0  0  0
 12 11  1  0  0  0
 11 10  1  0  0  0
 10  9  1  0  0  0
  9  8  1  0  0  0
  8  7  1  0  0  0
  7  6  1  0  0  0
  6  5  1  0  0  0
  2  1  1  0  0  0
  1 23  1  0  0  0
 30 32  1  0  0  0
 32 35  1  0  0  0
 39 40  1  0  0  0
 40 41  1  0  0  0
 41 42  1  0  0  0
 42 43  1  0  0  0
 43 44  1  0  0  0
 44 45  1  0  0  0
 45 46  1  0  0  0
 46 47  1  0  0  0
 47 48  2  0  0  0
 48 49  1  0  0  0
 49 50  1  0  0  0
 50 51  1  0  0  0
 51 52  1  0  0  0
 52 53  1  0  0  0
 53 54  1  0  0  0
 54 55  1  0  0  0
 55 56  1  0  0  0
M  CHG 1  26  -1
M  END
> <minimizedAffinity>
-8.83792

> <CNNscore>
0.6948341727

> <CNNaffinity>
7.6716718674

> <CNN_VS>
5.3305397034

> <CNNaffinity_variance>
0.8973013163

$$$$
/media/chris/experiments/cd1a-new-docking/inputs/ligands/7sh4_ligand.pdb


 56 55  0  0  0  0  0  0  0  0999 V2000
  -35.0030   59.4118   63.9707 C   0  0  0  0  0  0  0  0  0  0  0  0
  -36.3608   58.9033   64.3650 C   0  0  0  0  0  0  0  0  0  0  0  0
  -36.9579   60.0122   65.0699 O   0  0  0  0  0  0  0  0  0  0  0  0
  -38.9637   60.9027   65.4976 O   0  0  0  0  0  0  0  0  0  0  0  0
  -38.2679   59.9417   65.3081 C   0  0  0  0  0  0  0  0  0  0  0  0
  -38.7670   58.5310   65.1828 C   0  0  0  0  0  0  0  0  0  0  0  0
  -40.2465   58.4231   64.8542 C   0  0  0  0  0  0  0  0  0  0  0  0
  -41.1351   58.7750   66.0286 C   0  0  0  0  0  0  0  0  0  0  0  0
  -42.5183   58.1683   65.9622 C   0  0  0  0  0  0  0  0  0  0  0  0
  -43.4969   59.0082   65.1664 C   0  0  0  0  0  0  0  0  0  0  0  0
  -44.8059   58.3048   64.9028 C   0  0  0  0  0  0  0  0  0  0  0  0
  -44.8673   56.9286   65.5109 C   0  0  0  0  0  0  0  0  0  0  0  0
  -46.2178   56.5944   66.1048 C   0  0  0  0  0  0  0  0  0  0  0  0
  -47.0994   57.8147   66.2777 C   0  0  0  0  0  0  0  0  0  0  0  0
  -48.5476   57.5899   65.8967 C   0  0  0  0  0  0  0  0  0  0  0  0
  -49.1140   58.6598   64.9702 C   0  0  0  0  0  0  0  0  0  0  0  0
  -50.5993   58.5163   64.6987 C   0  0  0  0  0  0  0  0  0  0  0  0
  -51.1482   59.5840   63.7747 C   0  0  0  0  0  0  0  0  0  0  0  0
  -50.7820   59.3726   62.3122 C   0  0  0  0  0  0  0  0  0  0  0  0
  -50.8055   57.9161   61.8843 C   0  0  0  0  0  0  0  0  0  0  0  0
  -49.7524   56.2652   60.3027 C   0  0  0  0  0  0  0  0  0  0  0  0
  -50.3083   57.6607   60.4740 C   0  0  0  0  0  0  0  0  0  0  0  0
  -34.8513   60.8873   64.2385 C   0  0  0  0  0  0  0  0  0  0  0  0
  -35.0278   61.6059   62.9971 O   0  0  0  0  0  0  0  0  0  0  0  0
  -34.6698   63.1574   62.8346 P   0  0  0  0  0  0  0  0  0  0  0  0
  -33.2846   63.3600   63.3108 O   0  0  0  0  0  0  0  0  0  0  0  0
  -35.0153   63.5685   61.4524 O   0  0  0  0  0  0  0  0  0  0  0  0
  -34.4316   63.1145   60.8247 H   0  0  0  0  0  0  0  0  0  0  0  0
  -35.6492   63.9237   63.8328 O   0  0  0  0  0  0  0  0  0  0  0  0
  -35.1539   64.4130   65.0958 C   0  0  0  0  0  0  0  0  0  0  0  0
  -36.9730   62.9909   65.7368 O   0  0  0  0  0  0  0  0  0  0  0  0
  -36.1761   64.1008   66.1610 C   0  0  0  0  0  0  0  0  0  0  0  0
  -37.3758   63.1918   64.8775 H   0  0  0  0  0  0  0  0  0  0  0  0
  -35.9282   62.5193   67.9654 O   0  0  0  0  0  0  0  0  0  0  0  0
  -35.5407   63.8052   67.4985 C   0  0  0  0  0  0  0  0  0  0  0  0
  -35.5108   62.3478   68.8240 H   0  0  0  0  0  0  0  0  0  0  0  0
  -34.7834   59.0926   62.5566 O   0  0  0  0  0  0  0  0  0  0  0  0
  -32.7696   58.1759   62.9620 O   0  0  0  0  0  0  0  0  0  0  0  0
  -33.7418   58.2895   62.2665 C   0  0  0  0  0  0  0  0  0  0  0  0
  -33.9493   57.5431   60.9851 C   0  0  0  0  0  0  0  0  0  0  0  0
  -35.1059   56.5548   61.0951 C   0  0  0  0  0  0  0  0  0  0  0  0
  -36.4043   57.0549   60.4834 C   0  0  0  0  0  0  0  0  0  0  0  0
  -37.6231   56.8285   61.3703 C   0  0  0  0  0  0  0  0  0  0  0  0
  -38.4525   58.0764   61.6097 C   0  0  0  0  0  0  0  0  0  0  0  0
  -37.9496   59.3249   60.8794 C   0  0  0  0  0  0  0  0  0  0  0  0
  -38.7164   59.6880   59.6060 C   0  0  0  0  0  0  0  0  0  0  0  0
  -40.0879   60.2158   59.9037 C   0  0  0  0  0  0  0  0  0  0  0  0
  -41.1785   60.0224   59.1876 C   0  0  0  0  0  0  0  0  0  0  0  0
  -41.2747   59.2297   57.9224 C   0  0  0  0  0  0  0  0  0  0  0  0
  -42.5296   59.5627   57.1206 C   0  0  0  0  0  0  0  0  0  0  0  0
  -43.5026   58.4028   57.0019 C   0  0  0  0  0  0  0  0  0  0  0  0
  -44.4623   58.2896   58.1738 C   0  0  0  0  0  0  0  0  0  0  0  0
  -45.9299   58.4170   57.8004 C   0  0  0  0  0  0  0  0  0  0  0  0
  -46.7535   57.1877   58.1528 C   0  0  0  0  0  0  0  0  0  0  0  0
  -47.4359   56.5352   56.9669 C   0  0  0  0  0  0  0  0  0  0  0  0
  -47.6563   55.0611   57.1616 C   0  0  0  0  0  0  0  0  0  0  0  0
 21 22  1  0  0  0
  4  5  2  0  0  0
 25 24  1  0  0  0
 25 26  2  0  0  0
 25 27  1  0  0  0
 25 29  1  0  0  0
 22 20  1  0  0  0
  3  5  1  0  0  0
  3  2  1  0  0  0
 20 19  1  0  0  0
 24 23  1  0  0  0
 19 18  1  0  0  0
 18 17  1  0  0  0
 27 28  1  0  0  0
 17 16  1  0  0  0
 29 30  1  0  0  0
 16 15  1  0  0  0
 34 35  1  0  0  0
 34 36  1  0  0  0
 15 14  1  0  0  0
 31 32  1  0  0  0
 31 33  1  0  0  0
 14 13  1  0  0  0
 37  1  1  0  0  0
 37 39  1  0  0  0
 13 12  1  0  0  0
 38 39  2  0  0  0
 12 11  1  0  0  0
 11 10  1  0  0  0
 10  9  1  0  0  0
  9  8  1  0  0  0
  8  7  1  0  0  0
  7  6  1  0  0  0
  6  5  1  0  0  0
  2  1  1  0  0  0
  1 23  1  0  0  0
 30 32  1  0  0  0
 32 35  1  0  0  0
 39 40  1  0  0  0
 40 41  1  0  0  0
 41 42  1  0  0  0
 42 43  1  0  0  0
 43 44  1  0  0  0
 44 45  1  0  0  0
 45 46  1  0  0  0
 46 47  1  0  0  0
 47 48  2  0  0  0
 48 49  1  0  0  0
 49 50  1  0  0  0
 50 51  1  0  0  0
 51 52  1  0  0  0
 52 53  1  0  0  0
 53 54  1  0  0  0
 54 55  1  0  0  0
 55 56  1  0  0  0
M  CHG 1  26  -1
M  END
> <minimizedAffinity>
-8.50915

> <CNNscore>
0.6318979859

> <CNNaffinity>
7.8356003761

> <CNN_VS>
4.9513001442

> <CNNaffinity_variance>
0.7955140471

$$$$
/media/chris/experiments/cd1a-new-docking/inputs/ligands/7sh4_ligand.pdb


 56 55  0  0  0  0  0  0  0  0999 V2000
  -36.2608   59.7856   63.8950 C   0  0  0  0  0  0  0  0  0  0  0  0
  -34.9255   59.1244   63.7015 C   0  0  0  0  0  0  0  0  0  0  0  0
  -34.9536   58.6754   62.3301 O   0  0  0  0  0  0  0  0  0  0  0  0
  -32.7683   58.5108   61.8869 O   0  0  0  0  0  0  0  0  0  0  0  0
  -33.8724   58.0371   61.8812 C   0  0  0  0  0  0  0  0  0  0  0  0
  -34.1990   56.6239   61.4926 C   0  0  0  0  0  0  0  0  0  0  0  0
  -34.1064   56.3535   60.0003 C   0  0  0  0  0  0  0  0  0  0  0  0
  -35.3807   55.7666   59.4307 C   0  0  0  0  0  0  0  0  0  0  0  0
  -36.6188   56.0675   60.2445 C   0  0  0  0  0  0  0  0  0  0  0  0
  -37.2821   57.3731   59.8549 C   0  0  0  0  0  0  0  0  0  0  0  0
  -38.1325   57.9589   60.9555 C   0  0  0  0  0  0  0  0  0  0  0  0
  -38.1605   59.4645   60.9394 C   0  0  0  0  0  0  0  0  0  0  0  0
  -39.5243   60.0361   60.6212 C   0  0  0  0  0  0  0  0  0  0  0  0
  -39.8623   59.9577   59.1461 C   0  0  0  0  0  0  0  0  0  0  0  0
  -41.3438   59.8352   58.8572 C   0  0  0  0  0  0  0  0  0  0  0  0
  -41.6642   58.9908   57.6291 C   0  0  0  0  0  0  0  0  0  0  0  0
  -42.9779   59.3485   56.9611 C   0  0  0  0  0  0  0  0  0  0  0  0
  -43.9936   58.2248   56.9901 C   0  0  0  0  0  0  0  0  0  0  0  0
  -44.7565   58.1254   58.3038 C   0  0  0  0  0  0  0  0  0  0  0  0
  -46.2649   58.1138   58.1311 C   0  0  0  0  0  0  0  0  0  0  0  0
  -47.3412   56.1436   56.9928 C   0  0  0  0  0  0  0  0  0  0  0  0
  -46.9136   56.7540   58.3082 C   0  0  0  0  0  0  0  0  0  0  0  0
  -36.3192   61.1443   63.2451 C   0  0  0  0  0  0  0  0  0  0  0  0
  -35.0220   61.7710   63.3599 O   0  0  0  0  0  0  0  0  0  0  0  0
  -34.7673   63.3097   63.0006 P   0  0  0  0  0  0  0  0  0  0  0  0
  -33.3127   63.5638   63.0803 O   0  0  0  0  0  0  0  0  0  0  0  0
  -35.4746   63.6109   61.7327 O   0  0  0  0  0  0  0  0  0  0  0  0
  -35.0615   63.1174   61.0069 H   0  0  0  0  0  0  0  0  0  0  0  0
  -35.4750   64.1381   64.1650 O   0  0  0  0  0  0  0  0  0  0  0  0
  -34.7166   64.5517   65.3199 C   0  0  0  0  0  0  0  0  0  0  0  0
  -36.7584   63.6744   66.2166 O   0  0  0  0  0  0  0  0  0  0  0  0
  -35.4196   64.0474   66.5563 C   0  0  0  0  0  0  0  0  0  0  0  0
  -37.2110   64.4294   65.8092 H   0  0  0  0  0  0  0  0  0  0  0  0
  -34.5724   61.8070   66.2712 O   0  0  0  0  0  0  0  0  0  0  0  0
  -34.6995   62.8826   67.1923 C   0  0  0  0  0  0  0  0  0  0  0  0
  -34.1082   61.0696   66.6971 H   0  0  0  0  0  0  0  0  0  0  0  0
  -36.5343   59.8611   65.3335 O   0  0  0  0  0  0  0  0  0  0  0  0
  -38.1099   61.3235   65.9965 O   0  0  0  0  0  0  0  0  0  0  0  0
  -37.7834   60.2065   65.7002 C   0  0  0  0  0  0  0  0  0  0  0  0
  -38.7182   59.0371   65.6763 C   0  0  0  0  0  0  0  0  0  0  0  0
  -39.4778   58.9557   64.3561 C   0  0  0  0  0  0  0  0  0  0  0  0
  -40.3069   60.1910   64.0449 C   0  0  0  0  0  0  0  0  0  0  0  0
  -41.7273   60.1264   64.5943 C   0  0  0  0  0  0  0  0  0  0  0  0
  -42.0307   58.8599   65.3730 C   0  0  0  0  0  0  0  0  0  0  0  0
  -42.8080   59.0829   66.6734 C   0  0  0  0  0  0  0  0  0  0  0  0
  -44.2841   58.6823   66.6269 C   0  0  0  0  0  0  0  0  0  0  0  0
  -44.6207   57.9083   65.3877 C   0  0  0  0  0  0  0  0  0  0  0  0
  -45.7078   58.0343   64.6516 C   0  0  0  0  0  0  0  0  0  0  0  0
  -46.8375   58.9829   64.9009 C   0  0  0  0  0  0  0  0  0  0  0  0
  -47.7820   58.4895   65.9931 C   0  0  0  0  0  0  0  0  0  0  0  0
  -49.1692   59.1033   65.9222 C   0  0  0  0  0  0  0  0  0  0  0  0
  -50.0914   58.4136   64.9318 C   0  0  0  0  0  0  0  0  0  0  0  0
  -51.0125   59.3521   64.1701 C   0  0  0  0  0  0  0  0  0  0  0  0
  -50.8405   59.2765   62.6606 C   0  0  0  0  0  0  0  0  0  0  0  0
  -50.6289   57.8730   62.1283 C   0  0  0  0  0  0  0  0  0  0  0  0
  -50.2491   57.8540   60.6740 C   0  0  0  0  0  0  0  0  0  0  0  0
 21 22  1  0  0  0
  4  5  2  0  0  0
 25 24  1  0  0  0
 25 26  2  0  0  0
 25 27  1  0  0  0
 25 29  1  0  0  0
 22 20  1  0  0  0
  3  5  1  0  0  0
  3  2  1  0  0  0
 20 19  1  0  0  0
 24 23  1  0  0  0
 19 18  1  0  0  0
 18 17  1  0  0  0
 27 28  1  0  0  0
 17 16  1  0  0  0
 29 30  1  0  0  0
 16 15  1  0  0  0
 34 35  1  0  0  0
 34 36  1  0  0  0
 15 14  1  0  0  0
 31 32  1  0  0  0
 31 33  1  0  0  0
 14 13  1  0  0  0
 37  1  1  0  0  0
 37 39  1  0  0  0
 13 12  1  0  0  0
 38 39  2  0  0  0
 12 11  1  0  0  0
 11 10  1  0  0  0
 10  9  1  0  0  0
  9  8  1  0  0  0
  8  7  1  0  0  0
  7  6  1  0  0  0
  6  5  1  0  0  0
  2  1  1  0  0  0
  1 23  1  0  0  0
 30 32  1  0  0  0
 32 35  1  0  0  0
 39 40  1  0  0  0
 40 41  1  0  0  0
 41 42  1  0  0  0
 42 43  1  0  0  0
 43 44  1  0  0  0
 44 45  1  0  0  0
 45 46  1  0  0  0
 46 47  1  0  0  0
 47 48  2  0  0  0
 48 49  1  0  0  0
 49 50  1  0  0  0
 50 51  1  0  0  0
 51 52  1  0  0  0
 52 53  1  0  0  0
 53 54  1  0  0  0
 54 55  1  0  0  0
 55 56  1  0  0  0
M  CHG 1  26  -1
M  END
> <minimizedAffinity>
-7.98514

> <CNNscore>
0.6151375771

> <CNNaffinity>
7.8093786240

> <CNN_VS>
4.8038420677

> <CNNaffinity_variance>
0.7950913310

$$$$
/media/chris/experiments/cd1a-new-docking/inputs/ligands/7sh4_ligand.pdb


 56 55  0  0  0  0  0  0  0  0999 V2000
  -35.0100   59.6110   64.0007 C   0  0  0  0  0  0  0  0  0  0  0  0
  -36.4152   59.1098   64.1797 C   0  0  0  0  0  0  0  0  0  0  0  0
  -37.2339   60.2759   63.9494 O   0  0  0  0  0  0  0  0  0  0  0  0
  -39.3567   60.9761   63.9999 O   0  0  0  0  0  0  0  0  0  0  0  0
  -38.4998   60.2167   64.3641 C   0  0  0  0  0  0  0  0  0  0  0  0
  -38.7301   59.0147   65.2341 C   0  0  0  0  0  0  0  0  0  0  0  0
  -40.1416   58.4573   65.1613 C   0  0  0  0  0  0  0  0  0  0  0  0
  -41.1079   59.1874   66.0701 C   0  0  0  0  0  0  0  0  0  0  0  0
  -42.4626   58.5274   66.1918 C   0  0  0  0  0  0  0  0  0  0  0  0
  -43.4704   59.0520   65.1892 C   0  0  0  0  0  0  0  0  0  0  0  0
  -44.8655   58.5236   65.4173 C   0  0  0  0  0  0  0  0  0  0  0  0
  -44.9498   57.0232   65.3197 C   0  0  0  0  0  0  0  0  0  0  0  0
  -46.1766   56.4459   65.9905 C   0  0  0  0  0  0  0  0  0  0  0  0
  -47.1711   57.5104   66.4078 C   0  0  0  0  0  0  0  0  0  0  0  0
  -48.4228   57.5544   65.5567 C   0  0  0  0  0  0  0  0  0  0  0  0
  -49.1494   58.8938   65.5987 C   0  0  0  0  0  0  0  0  0  0  0  0
  -50.5515   58.8525   65.0220 C   0  0  0  0  0  0  0  0  0  0  0  0
  -50.8369   59.9803   64.0516 C   0  0  0  0  0  0  0  0  0  0  0  0
  -51.1769   59.5047   62.6460 C   0  0  0  0  0  0  0  0  0  0  0  0
  -50.8747   58.0354   62.4119 C   0  0  0  0  0  0  0  0  0  0  0  0
  -49.8149   56.5485   60.6792 C   0  0  0  0  0  0  0  0  0  0  0  0
  -50.8486   57.6170   60.9540 C   0  0  0  0  0  0  0  0  0  0  0  0
  -34.9036   61.0953   64.2401 C   0  0  0  0  0  0  0  0  0  0  0  0
  -34.7729   61.3293   65.6601 O   0  0  0  0  0  0  0  0  0  0  0  0
  -35.2102   62.7023   66.3569 P   0  0  0  0  0  0  0  0  0  0  0  0
  -36.6529   62.9053   66.1033 O   0  0  0  0  0  0  0  0  0  0  0  0
  -34.7295   62.6818   67.7594 O   0  0  0  0  0  0  0  0  0  0  0  0
  -35.2025   61.9940   68.2533 H   0  0  0  0  0  0  0  0  0  0  0  0
  -34.4101   63.8430   65.5814 O   0  0  0  0  0  0  0  0  0  0  0  0
  -33.0142   63.6598   65.2685 C   0  0  0  0  0  0  0  0  0  0  0  0
  -30.9279   64.8367   65.1982 O   0  0  0  0  0  0  0  0  0  0  0  0
  -32.2614   64.8895   65.7138 C   0  0  0  0  0  0  0  0  0  0  0  0
  -30.5031   64.0128   65.4839 H   0  0  0  0  0  0  0  0  0  0  0  0
  -33.9036   65.9048   64.2679 O   0  0  0  0  0  0  0  0  0  0  0  0
  -32.9383   66.1670   65.2783 C   0  0  0  0  0  0  0  0  0  0  0  0
  -34.3270   66.7359   64.0016 H   0  0  0  0  0  0  0  0  0  0  0  0
  -34.5577   59.2457   62.6547 O   0  0  0  0  0  0  0  0  0  0  0  0
  -32.9227   57.9009   63.4155 O   0  0  0  0  0  0  0  0  0  0  0  0
  -33.7053   58.2074   62.5579 C   0  0  0  0  0  0  0  0  0  0  0  0
  -33.8630   57.4714   61.2634 C   0  0  0  0  0  0  0  0  0  0  0  0
  -34.9891   56.4452   61.3376 C   0  0  0  0  0  0  0  0  0  0  0  0
  -36.2599   56.8718   60.6212 C   0  0  0  0  0  0  0  0  0  0  0  0
  -37.5161   56.7337   61.4736 C   0  0  0  0  0  0  0  0  0  0  0  0
  -38.4320   57.9424   61.4230 C   0  0  0  0  0  0  0  0  0  0  0  0
  -37.8284   59.1703   60.7354 C   0  0  0  0  0  0  0  0  0  0  0  0
  -38.6106   59.6909   59.5277 C   0  0  0  0  0  0  0  0  0  0  0  0
  -39.9617   60.2148   59.9128 C   0  0  0  0  0  0  0  0  0  0  0  0
  -41.0838   60.0729   59.2344 C   0  0  0  0  0  0  0  0  0  0  0  0
  -41.2432   59.3536   57.9323 C   0  0  0  0  0  0  0  0  0  0  0  0
  -42.6090   59.5961   57.2965 C   0  0  0  0  0  0  0  0  0  0  0  0
  -43.4083   58.3254   57.0665 C   0  0  0  0  0  0  0  0  0  0  0  0
  -44.4428   58.0522   58.1446 C   0  0  0  0  0  0  0  0  0  0  0  0
  -45.8825   58.0876   57.6593 C   0  0  0  0  0  0  0  0  0  0  0  0
  -46.8577   57.4044   58.6059 C   0  0  0  0  0  0  0  0  0  0  0  0
  -47.5298   56.1756   58.0262 C   0  0  0  0  0  0  0  0  0  0  0  0
  -48.3182   56.4764   56.7823 C   0  0  0  0  0  0  0  0  0  0  0  0
 21 22  1  0  0  0
  4  5  2  0  0  0
 25 24  1  0  0  0
 25 26  2  0  0  0
 25 27  1  0  0  0
 25 29  1  0  0  0
 22 20  1  0  0  0
  3  5  1  0  0  0
  3  2  1  0  0  0
 20 19  1  0  0  0
 24 23  1  0  0  0
 19 18  1  0  0  0
 18 17  1  0  0  0
 27 28  1  0  0  0
 17 16  1  0  0  0
 29 30  1  0  0  0
 16 15  1  0  0  0
 34 35  1  0  0  0
 34 36  1  0  0  0
 15 14  1  0  0  0
 31 32  1  0  0  0
 31 33  1  0  0  0
 14 13  1  0  0  0
 37  1  1  0  0  0
 37 39  1  0  0  0
 13 12  1  0  0  0
 38 39  2  0  0  0
 12 11  1  0  0  0
 11 10  1  0  0  0
 10  9  1  0  0  0
  9  8  1  0  0  0
  8  7  1  0  0  0
  7  6  1  0  0  0
  6  5  1  0  0  0
  2  1  1  0  0  0
  1 23  1  0  0  0
 30 32  1  0  0  0
 32 35  1  0  0  0
 39 40  1  0  0  0
 40 41  1  0  0  0
 41 42  1  0  0  0
 42 43  1  0  0  0
 43 44  1  0  0  0
 44 45  1  0  0  0
 45 46  1  0  0  0
 46 47  1  0  0  0
 47 48  2  0  0  0
 48 49  1  0  0  0
 49 50  1  0  0  0
 50 51  1  0  0  0
 51 52  1  0  0  0
 52 53  1  0  0  0
 53 54  1  0  0  0
 54 55  1  0  0  0
 55 56  1  0  0  0
M  CHG 1  26  -1
M  END
> <minimizedAffinity>
-8.50869

> <CNNscore>
0.6116898060

> <CNNaffinity>
7.5871191025

> <CNN_VS>
4.6409635544

> <CNNaffinity_variance>
0.5058130026

$$$$
/media/chris/experiments/cd1a-new-docking/inputs/ligands/7sh4_ligand.pdb


 56 55  0  0  0  0  0  0  0  0999 V2000
  -36.2305   59.6057   63.4216 C   0  0  0  0  0  0  0  0  0  0  0  0
  -34.9132   59.0365   62.9762 C   0  0  0  0  0  0  0  0  0  0  0  0
  -35.2615   58.1698   61.8759 O   0  0  0  0  0  0  0  0  0  0  0  0
  -33.1382   58.0406   61.1874 O   0  0  0  0  0  0  0  0  0  0  0  0
  -34.2544   57.5970   61.2159 C   0  0  0  0  0  0  0  0  0  0  0  0
  -34.6701   56.2787   60.6295 C   0  0  0  0  0  0  0  0  0  0  0  0
  -34.2068   56.0621   59.1988 C   0  0  0  0  0  0  0  0  0  0  0  0
  -34.9333   56.9462   58.2072 C   0  0  0  0  0  0  0  0  0  0  0  0
  -36.4372   56.7927   58.2265 C   0  0  0  0  0  0  0  0  0  0  0  0
  -37.1659   58.1100   58.4001 C   0  0  0  0  0  0  0  0  0  0  0  0
  -37.7773   58.2746   59.7699 C   0  0  0  0  0  0  0  0  0  0  0  0
  -38.1834   59.6941   60.0664 C   0  0  0  0  0  0  0  0  0  0  0  0
  -39.6711   59.8599   60.2843 C   0  0  0  0  0  0  0  0  0  0  0  0
  -40.3979   60.3189   59.0364 C   0  0  0  0  0  0  0  0  0  0  0  0
  -41.6384   59.5133   58.7120 C   0  0  0  0  0  0  0  0  0  0  0  0
  -41.8569   59.2927   57.2195 C   0  0  0  0  0  0  0  0  0  0  0  0
  -43.2000   58.6768   56.8778 C   0  0  0  0  0  0  0  0  0  0  0  0
  -44.0578   58.3905   58.0934 C   0  0  0  0  0  0  0  0  0  0  0  0
  -45.4928   58.0134   57.7526 C   0  0  0  0  0  0  0  0  0  0  0  0
  -46.2538   57.4043   58.9165 C   0  0  0  0  0  0  0  0  0  0  0  0
  -48.5332   56.9773   59.8953 C   0  0  0  0  0  0  0  0  0  0  0  0
  -47.6696   57.9209   59.0892 C   0  0  0  0  0  0  0  0  0  0  0  0
  -36.2816   61.1040   63.2656 C   0  0  0  0  0  0  0  0  0  0  0  0
  -35.2292   61.6909   64.0633 O   0  0  0  0  0  0  0  0  0  0  0  0
  -35.0642   63.2715   64.2541 P   0  0  0  0  0  0  0  0  0  0  0  0
  -36.2132   63.9340   63.6003 O   0  0  0  0  0  0  0  0  0  0  0  0
  -34.8103   63.5390   65.6903 O   0  0  0  0  0  0  0  0  0  0  0  0
  -35.5992   63.3102   66.2062 H   0  0  0  0  0  0  0  0  0  0  0  0
  -33.7470   63.6595   63.4433 O   0  0  0  0  0  0  0  0  0  0  0  0
  -32.4515   63.2669   63.9409 C   0  0  0  0  0  0  0  0  0  0  0  0
  -32.7291   61.5269   62.3168 O   0  0  0  0  0  0  0  0  0  0  0  0
  -31.7730   62.4245   62.8887 C   0  0  0  0  0  0  0  0  0  0  0  0
  -33.1341   60.9950   63.0196 H   0  0  0  0  0  0  0  0  0  0  0  0
  -32.0092   64.2992   61.3893 O   0  0  0  0  0  0  0  0  0  0  0  0
  -31.1321   63.2613   61.8076 C   0  0  0  0  0  0  0  0  0  0  0  0
  -31.5807   64.8249   60.6959 H   0  0  0  0  0  0  0  0  0  0  0  0
  -36.4637   59.1975   64.8105 O   0  0  0  0  0  0  0  0  0  0  0  0
  -38.2592   59.4050   66.1498 O   0  0  0  0  0  0  0  0  0  0  0  0
  -37.7383   58.9498   65.1682 C   0  0  0  0  0  0  0  0  0  0  0  0
  -38.4321   58.0557   64.1877 C   0  0  0  0  0  0  0  0  0  0  0  0
  -39.9417   58.2732   64.2040 C   0  0  0  0  0  0  0  0  0  0  0  0
  -40.3797   59.5999   63.6055 C   0  0  0  0  0  0  0  0  0  0  0  0
  -41.4820   60.2924   64.3988 C   0  0  0  0  0  0  0  0  0  0  0  0
  -41.2454   60.3104   65.8975 C   0  0  0  0  0  0  0  0  0  0  0  0
  -42.2259   59.4571   66.7071 C   0  0  0  0  0  0  0  0  0  0  0  0
  -43.4814   59.0145   65.9525 C   0  0  0  0  0  0  0  0  0  0  0  0
  -43.5894   57.5217   65.8622 C   0  0  0  0  0  0  0  0  0  0  0  0
  -44.5743   56.7744   66.3216 C   0  0  0  0  0  0  0  0  0  0  0  0
  -45.7970   57.2642   67.0311 C   0  0  0  0  0  0  0  0  0  0  0  0
  -47.0834   56.8898   66.3006 C   0  0  0  0  0  0  0  0  0  0  0  0
  -48.1239   57.9960   66.2928 C   0  0  0  0  0  0  0  0  0  0  0  0
  -49.2451   57.7715   65.2931 C   0  0  0  0  0  0  0  0  0  0  0  0
  -50.4749   58.6345   65.5218 C   0  0  0  0  0  0  0  0  0  0  0  0
  -50.6940   59.6766   64.4357 C   0  0  0  0  0  0  0  0  0  0  0  0
  -50.1704   59.2730   63.0716 C   0  0  0  0  0  0  0  0  0  0  0  0
  -51.1756   58.4942   62.2701 C   0  0  0  0  0  0  0  0  0  0  0  0
 21 22  1  0  0  0
  4  5  2  0  0  0
 25 24  1  0  0  0
 25 26  2  0  0  0
 25 27  1  0  0  0
 25 29  1  0  0  0
 22 20  1  0  0  0
  3  5  1  0  0  0
  3  2  1  0  0  0
 20 19  1  0  0  0
 24 23  1  0  0  0
 19 18  1  0  0  0
 18 17  1  0  0  0
 27 28  1  0  0  0
 17 16  1  0  0  0
 29 30  1  0  0  0
 16 15  1  0  0  0
 34 35  1  0  0  0
 34 36  1  0  0  0
 15 14  1  0  0  0
 31 32  1  0  0  0
 31 33  1  0  0  0
 14 13  1  0  0  0
 37  1  1  0  0  0
 37 39  1  0  0  0
 13 12  1  0  0  0
 38 39  2  0  0  0
 12 11  1  0  0  0
 11 10  1  0  0  0
 10  9  1  0  0  0
  9  8  1  0  0  0
  8  7  1  0  0  0
  7  6  1  0  0  0
  6  5  1  0  0  0
  2  1  1  0  0  0
  1 23  1  0  0  0
 30 32  1  0  0  0
 32 35  1  0  0  0
 39 40  1  0  0  0
 40 41  1  0  0  0
 41 42  1  0  0  0
 42 43  1  0  0  0
 43 44  1  0  0  0
 44 45  1  0  0  0
 45 46  1  0  0  0
 46 47  1  0  0  0
 47 48  2  0  0  0
 48 49  1  0  0  0
 49 50  1  0  0  0
 50 51  1  0  0  0
 51 52  1  0  0  0
 52 53  1  0  0  0
 53 54  1  0  0  0
 54 55  1  0  0  0
 55 56  1  0  0  0
M  CHG 1  26  -1
M  END
> <minimizedAffinity>
-7.77882

> <CNNscore>
0.5796905756

> <CNNaffinity>
7.5959181786

> <CNN_VS>
4.4032821655

> <CNNaffinity_variance>
0.6136413813

$$$$
/media/chris/experiments/cd1a-new-docking/inputs/ligands/7sh4_ligand.pdb


 56 55  0  0  0  0  0  0  0  0999 V2000
  -35.7738   60.5058   64.1670 C   0  0  0  0  0  0  0  0  0  0  0  0
  -34.6561   59.5034   64.1069 C   0  0  0  0  0  0  0  0  0  0  0  0
  -33.9148   59.8773   62.9263 O   0  0  0  0  0  0  0  0  0  0  0  0
  -31.9474   59.2847   62.0448 O   0  0  0  0  0  0  0  0  0  0  0  0
  -33.0362   58.9902   62.4584 C   0  0  0  0  0  0  0  0  0  0  0  0
  -33.5372   57.5856   62.6347 C   0  0  0  0  0  0  0  0  0  0  0  0
  -33.5318   56.7602   61.3591 C   0  0  0  0  0  0  0  0  0  0  0  0
  -34.8117   56.9035   60.5626 C   0  0  0  0  0  0  0  0  0  0  0  0
  -36.0629   56.9731   61.4084 C   0  0  0  0  0  0  0  0  0  0  0  0
  -36.7328   58.3316   61.3661 C   0  0  0  0  0  0  0  0  0  0  0  0
  -38.1263   58.2890   60.7883 C   0  0  0  0  0  0  0  0  0  0  0  0
  -38.5183   59.5708   60.1019 C   0  0  0  0  0  0  0  0  0  0  0  0
  -39.9857   59.9065   60.2499 C   0  0  0  0  0  0  0  0  0  0  0  0
  -40.6433   60.2518   58.9290 C   0  0  0  0  0  0  0  0  0  0  0  0
  -41.9315   59.5007   58.6649 C   0  0  0  0  0  0  0  0  0  0  0  0
  -42.1993   59.2376   57.1875 C   0  0  0  0  0  0  0  0  0  0  0  0
  -43.4470   58.4166   56.9242 C   0  0  0  0  0  0  0  0  0  0  0  0
  -44.3999   58.3750   58.1013 C   0  0  0  0  0  0  0  0  0  0  0  0
  -45.8253   58.0004   57.7197 C   0  0  0  0  0  0  0  0  0  0  0  0
  -46.5675   57.2460   58.8083 C   0  0  0  0  0  0  0  0  0  0  0  0
  -48.0216   56.4748   56.9039 C   0  0  0  0  0  0  0  0  0  0  0  0
  -47.9233   56.7058   58.3949 C   0  0  0  0  0  0  0  0  0  0  0  0
  -35.2629   61.9237   64.1758 C   0  0  0  0  0  0  0  0  0  0  0  0
  -34.5562   62.1558   65.4149 O   0  0  0  0  0  0  0  0  0  0  0  0
  -34.9919   63.2835   66.4638 P   0  0  0  0  0  0  0  0  0  0  0  0
  -36.3809   63.6852   66.1538 O   0  0  0  0  0  0  0  0  0  0  0  0
  -34.6803   62.7909   67.8272 O   0  0  0  0  0  0  0  0  0  0  0  0
  -35.2467   62.0311   68.0338 H   0  0  0  0  0  0  0  0  0  0  0  0
  -34.0421   64.5288   66.1639 O   0  0  0  0  0  0  0  0  0  0  0  0
  -34.1693   65.2507   64.9218 C   0  0  0  0  0  0  0  0  0  0  0  0
  -32.4182   66.3000   63.6668 O   0  0  0  0  0  0  0  0  0  0  0  0
  -32.9127   65.0344   64.1149 C   0  0  0  0  0  0  0  0  0  0  0  0
  -33.1109   66.7591   63.1666 H   0  0  0  0  0  0  0  0  0  0  0  0
  -31.3634   65.1132   65.9620 O   0  0  0  0  0  0  0  0  0  0  0  0
  -31.8462   64.3052   64.8963 C   0  0  0  0  0  0  0  0  0  0  0  0
  -30.6804   64.6286   66.4514 H   0  0  0  0  0  0  0  0  0  0  0  0
  -36.5898   60.2167   65.3505 O   0  0  0  0  0  0  0  0  0  0  0  0
  -38.5372   60.9261   66.2250 O   0  0  0  0  0  0  0  0  0  0  0  0
  -37.8954   60.5410   65.2860 C   0  0  0  0  0  0  0  0  0  0  0  0
  -38.4448   60.3819   63.9022 C   0  0  0  0  0  0  0  0  0  0  0  0
  -39.9468   60.1170   63.9242 C   0  0  0  0  0  0  0  0  0  0  0  0
  -40.3125   58.6619   64.1678 C   0  0  0  0  0  0  0  0  0  0  0  0
  -40.8849   58.4013   65.5564 C   0  0  0  0  0  0  0  0  0  0  0  0
  -42.4011   58.3616   65.6013 C   0  0  0  0  0  0  0  0  0  0  0  0
  -42.9852   57.1364   66.3102 C   0  0  0  0  0  0  0  0  0  0  0  0
  -44.5073   57.0015   66.2303 C   0  0  0  0  0  0  0  0  0  0  0  0
  -45.0539   57.5272   64.9369 C   0  0  0  0  0  0  0  0  0  0  0  0
  -45.9722   58.4628   64.7925 C   0  0  0  0  0  0  0  0  0  0  0  0
  -46.6625   59.1999   65.8963 C   0  0  0  0  0  0  0  0  0  0  0  0
  -48.1215   59.5047   65.5696 C   0  0  0  0  0  0  0  0  0  0  0  0
  -49.0039   58.2701   65.5120 C   0  0  0  0  0  0  0  0  0  0  0  0
  -50.4151   58.5513   65.0256 C   0  0  0  0  0  0  0  0  0  0  0  0
  -50.5383   59.7632   64.1171 C   0  0  0  0  0  0  0  0  0  0  0  0
  -50.8485   59.4072   62.6712 C   0  0  0  0  0  0  0  0  0  0  0  0
  -50.9006   57.9176   62.3948 C   0  0  0  0  0  0  0  0  0  0  0  0
  -50.7755   57.5929   60.9325 C   0  0  0  0  0  0  0  0  0  0  0  0
 21 22  1  0  0  0
  4  5  2  0  0  0
 25 24  1  0  0  0
 25 26  2  0  0  0
 25 27  1  0  0  0
 25 29  1  0  0  0
 22 20  1  0  0  0
  3  5  1  0  0  0
  3  2  1  0  0  0
 20 19  1  0  0  0
 24 23  1  0  0  0
 19 18  1  0  0  0
 18 17  1  0  0  0
 27 28  1  0  0  0
 17 16  1  0  0  0
 29 30  1  0  0  0
 16 15  1  0  0  0
 34 35  1  0  0  0
 34 36  1  0  0  0
 15 14  1  0  0  0
 31 32  1  0  0  0
 31 33  1  0  0  0
 14 13  1  0  0  0
 37  1  1  0  0  0
 37 39  1  0  0  0
 13 12  1  0  0  0
 38 39  2  0  0  0
 12 11  1  0  0  0
 11 10  1  0  0  0
 10  9  1  0  0  0
  9  8  1  0  0  0
  8  7  1  0  0  0
  7  6  1  0  0  0
  6  5  1  0  0  0
  2  1  1  0  0  0
  1 23  1  0  0  0
 30 32  1  0  0  0
 32 35  1  0  0  0
 39 40  1  0  0  0
 40 41  1  0  0  0
 41 42  1  0  0  0
 42 43  1  0  0  0
 43 44  1  0  0  0
 44 45  1  0  0  0
 45 46  1  0  0  0
 46 47  1  0  0  0
 47 48  2  0  0  0
 48 49  1  0  0  0
 49 50  1  0  0  0
 50 51  1  0  0  0
 51 52  1  0  0  0
 52 53  1  0  0  0
 53 54  1  0  0  0
 54 55  1  0  0  0
 55 56  1  0  0  0
M  CHG 1  26  -1
M  END
> <minimizedAffinity>
-8.25492

> <CNNscore>
0.5633299947

> <CNNaffinity>
7.3632316589

> <CNN_VS>
4.1479291916

> <CNNaffinity_variance>
0.6208170056

$$$$
/media/chris/experiments/cd1a-new-docking/inputs/ligands/7sh4_ligand.pdb


 56 55  0  0  0  0  0  0  0  0999 V2000
  -36.8280   60.2173   65.4296 C   0  0  0  0  0  0  0  0  0  0  0  0
  -38.1525   59.5585   65.6925 C   0  0  0  0  0  0  0  0  0  0  0  0
  -39.1013   60.6442   65.6291 O   0  0  0  0  0  0  0  0  0  0  0  0
  -41.0428   61.0642   64.6027 O   0  0  0  0  0  0  0  0  0  0  0  0
  -40.3453   60.3386   65.2588 C   0  0  0  0  0  0  0  0  0  0  0  0
  -40.7016   58.9360   65.6597 C   0  0  0  0  0  0  0  0  0  0  0  0
  -42.1497   58.7611   66.0850 C   0  0  0  0  0  0  0  0  0  0  0  0
  -42.5949   57.3140   66.0679 C   0  0  0  0  0  0  0  0  0  0  0  0
  -44.0742   57.1183   66.3115 C   0  0  0  0  0  0  0  0  0  0  0  0
  -44.9287   57.5174   65.1255 C   0  0  0  0  0  0  0  0  0  0  0  0
  -46.3656   57.7938   65.4948 C   0  0  0  0  0  0  0  0  0  0  0  0
  -46.7424   59.2444   65.3480 C   0  0  0  0  0  0  0  0  0  0  0  0
  -48.2212   59.5023   65.5340 C   0  0  0  0  0  0  0  0  0  0  0  0
  -49.0238   58.2257   65.6840 C   0  0  0  0  0  0  0  0  0  0  0  0
  -50.4565   58.3367   65.2063 C   0  0  0  0  0  0  0  0  0  0  0  0
  -50.6488   59.3216   64.0588 C   0  0  0  0  0  0  0  0  0  0  0  0
  -50.9597   58.6641   62.7280 C   0  0  0  0  0  0  0  0  0  0  0  0
  -49.7230   58.3102   61.9278 C   0  0  0  0  0  0  0  0  0  0  0  0
  -49.9967   58.0900   60.4465 C   0  0  0  0  0  0  0  0  0  0  0  0
  -49.4043   56.8017   59.9040 C   0  0  0  0  0  0  0  0  0  0  0  0
  -46.9981   57.2925   59.3514 C   0  0  0  0  0  0  0  0  0  0  0  0
  -48.3751   56.9895   58.8055 C   0  0  0  0  0  0  0  0  0  0  0  0
  -36.9538   61.7147   65.3125 C   0  0  0  0  0  0  0  0  0  0  0  0
  -35.8437   62.3302   66.0035 O   0  0  0  0  0  0  0  0  0  0  0  0
  -35.8777   63.8432   66.5246 P   0  0  0  0  0  0  0  0  0  0  0  0
  -36.4808   64.6792   65.4644 O   0  0  0  0  0  0  0  0  0  0  0  0
  -36.4911   63.8527   67.8746 O   0  0  0  0  0  0  0  0  0  0  0  0
  -37.4237   63.5947   67.8078 H   0  0  0  0  0  0  0  0  0  0  0  0
  -34.3494   64.2715   66.6779 O   0  0  0  0  0  0  0  0  0  0  0  0
  -33.4104   63.9854   65.6213 C   0  0  0  0  0  0  0  0  0  0  0  0
  -31.7817   65.2574   64.4081 O   0  0  0  0  0  0  0  0  0  0  0  0
  -32.2678   64.9660   65.7217 C   0  0  0  0  0  0  0  0  0  0  0  0
  -31.5297   64.4317   63.9659 H   0  0  0  0  0  0  0  0  0  0  0  0
  -32.5194   66.1051   67.8330 O   0  0  0  0  0  0  0  0  0  0  0  0
  -32.6651   66.2415   66.4253 C   0  0  0  0  0  0  0  0  0  0  0  0
  -32.7789   66.9329   68.2667 H   0  0  0  0  0  0  0  0  0  0  0  0
  -36.2507   59.6259   64.2184 O   0  0  0  0  0  0  0  0  0  0  0  0
  -34.4218   58.5834   65.0112 O   0  0  0  0  0  0  0  0  0  0  0  0
  -35.4455   58.5591   64.3840 C   0  0  0  0  0  0  0  0  0  0  0  0
  -35.9878   57.3373   63.7093 C   0  0  0  0  0  0  0  0  0  0  0  0
  -36.6704   57.6840   62.3900 C   0  0  0  0  0  0  0  0  0  0  0  0
  -38.0546   57.0759   62.2339 C   0  0  0  0  0  0  0  0  0  0  0  0
  -39.1870   58.0662   62.4805 C   0  0  0  0  0  0  0  0  0  0  0  0
  -38.8621   59.4901   62.0686 C   0  0  0  0  0  0  0  0  0  0  0  0
  -39.6775   60.0113   60.8819 C   0  0  0  0  0  0  0  0  0  0  0  0
  -39.2269   59.5059   59.5096 C   0  0  0  0  0  0  0  0  0  0  0  0
  -37.7342   59.5115   59.3678 C   0  0  0  0  0  0  0  0  0  0  0  0
  -37.0077   58.6705   58.6576 C   0  0  0  0  0  0  0  0  0  0  0  0
  -37.5254   57.5300   57.8393 C   0  0  0  0  0  0  0  0  0  0  0  0
  -36.5750   56.3361   57.8375 C   0  0  0  0  0  0  0  0  0  0  0  0
  -35.2947   56.5751   58.6186 C   0  0  0  0  0  0  0  0  0  0  0  0
  -35.1727   55.7179   59.8665 C   0  0  0  0  0  0  0  0  0  0  0  0
  -33.8627   55.8838   60.6189 C   0  0  0  0  0  0  0  0  0  0  0  0
  -33.3839   57.3258   60.6904 C   0  0  0  0  0  0  0  0  0  0  0  0
  -32.7431   57.7037   62.0112 C   0  0  0  0  0  0  0  0  0  0  0  0
  -32.1390   59.0800   61.9916 C   0  0  0  0  0  0  0  0  0  0  0  0
 21 22  1  0  0  0
  4  5  2  0  0  0
 25 24  1  0  0  0
 25 26  2  0  0  0
 25 27  1  0  0  0
 25 29  1  0  0  0
 22 20  1  0  0  0
  3  5  1  0  0  0
  3  2  1  0  0  0
 20 19  1  0  0  0
 24 23  1  0  0  0
 19 18  1  0  0  0
 18 17  1  0  0  0
 27 28  1  0  0  0
 17 16  1  0  0  0
 29 30  1  0  0  0
 16 15  1  0  0  0
 34 35  1  0  0  0
 34 36  1  0  0  0
 15 14  1  0  0  0
 31 32  1  0  0  0
 31 33  1  0  0  0
 14 13  1  0  0  0
 37  1  1  0  0  0
 37 39  1  0  0  0
 13 12  1  0  0  0
 38 39  2  0  0  0
 12 11  1  0  0  0
 11 10  1  0  0  0
 10  9  1  0  0  0
  9  8  1  0  0  0
  8  7  1  0  0  0
  7  6  1  0  0  0
  6  5  1  0  0  0
  2  1  1  0  0  0
  1 23  1  0  0  0
 30 32  1  0  0  0
 32 35  1  0  0  0
 39 40  1  0  0  0
 40 41  1  0  0  0
 41 42  1  0  0  0
 42 43  1  0  0  0
 43 44  1  0  0  0
 44 45  1  0  0  0
 45 46  1  0  0  0
 46 47  1  0  0  0
 47 48  2  0  0  0
 48 49  1  0  0  0
 49 50  1  0  0  0
 50 51  1  0  0  0
 51 52  1  0  0  0
 52 53  1  0  0  0
 53 54  1  0  0  0
 54 55  1  0  0  0
 55 56  1  0  0  0
M  CHG 1  26  -1
M  END
> <minimizedAffinity>
-8.78125

> <CNNscore>
0.5314580798

> <CNNaffinity>
7.5439925194

> <CNN_VS>
4.0093159676

> <CNNaffinity_variance>
0.6654773355

$$$$
/media/chris/experiments/cd1a-new-docking/inputs/ligands/7sh4_ligand.pdb


 56 55  0  0  0  0  0  0  0  0999 V2000
  -39.8347   59.3525   65.0399 C   0  0  0  0  0  0  0  0  0  0  0  0
  -39.4128   57.9273   64.8198 C   0  0  0  0  0  0  0  0  0  0  0  0
  -39.2948   57.8155   63.3857 O   0  0  0  0  0  0  0  0  0  0  0  0
  -37.1437   57.2368   63.5777 O   0  0  0  0  0  0  0  0  0  0  0  0
  -38.0813   57.5562   62.8977 C   0  0  0  0  0  0  0  0  0  0  0  0
  -38.0807   57.5940   61.3966 C   0  0  0  0  0  0  0  0  0  0  0  0
  -38.6719   58.8637   60.8076 C   0  0  0  0  0  0  0  0  0  0  0  0
  -37.9008   59.3665   59.6054 C   0  0  0  0  0  0  0  0  0  0  0  0
  -37.7686   58.3568   58.4879 C   0  0  0  0  0  0  0  0  0  0  0  0
  -36.3503   58.2269   57.9705 C   0  0  0  0  0  0  0  0  0  0  0  0
  -35.9429   56.7979   57.7064 C   0  0  0  0  0  0  0  0  0  0  0  0
  -36.6570   55.8096   58.5902 C   0  0  0  0  0  0  0  0  0  0  0  0
  -35.8426   55.3795   59.7901 C   0  0  0  0  0  0  0  0  0  0  0  0
  -34.3497   55.4871   59.5535 C   0  0  0  0  0  0  0  0  0  0  0  0
  -33.6214   56.3345   60.5756 C   0  0  0  0  0  0  0  0  0  0  0  0
  -34.4388   57.5120   61.0945 C   0  0  0  0  0  0  0  0  0  0  0  0
  -34.0084   58.0057   62.4624 C   0  0  0  0  0  0  0  0  0  0  0  0
  -32.5074   57.9817   62.6662 C   0  0  0  0  0  0  0  0  0  0  0  0
  -31.7894   59.1772   62.0555 C   0  0  0  0  0  0  0  0  0  0  0  0
  -32.3790   60.5148   62.4658 C   0  0  0  0  0  0  0  0  0  0  0  0
  -32.3694   62.9941   62.0312 C   0  0  0  0  0  0  0  0  0  0  0  0
  -31.5525   61.7223   62.0659 C   0  0  0  0  0  0  0  0  0  0  0  0
  -38.6607   60.2520   65.3305 C   0  0  0  0  0  0  0  0  0  0  0  0
  -38.4433   61.1153   64.1921 O   0  0  0  0  0  0  0  0  0  0  0  0
  -36.9833   61.4880   63.6525 P   0  0  0  0  0  0  0  0  0  0  0  0
  -36.0265   60.5042   64.2035 O   0  0  0  0  0  0  0  0  0  0  0  0
  -37.0640   61.6566   62.1816 O   0  0  0  0  0  0  0  0  0  0  0  0
  -37.2679   60.8027   61.7690 H   0  0  0  0  0  0  0  0  0  0  0  0
  -36.6474   62.9102   64.2908 O   0  0  0  0  0  0  0  0  0  0  0  0
  -35.4519   63.0832   65.0789 C   0  0  0  0  0  0  0  0  0  0  0  0
  -36.9350   63.8836   66.7825 O   0  0  0  0  0  0  0  0  0  0  0  0
  -35.7083   64.1629   66.1014 C   0  0  0  0  0  0  0  0  0  0  0  0
  -37.6529   63.8017   66.1353 H   0  0  0  0  0  0  0  0  0  0  0  0
  -34.3537   63.0601   67.7648 O   0  0  0  0  0  0  0  0  0  0  0  0
  -34.5787   64.2937   67.0948 C   0  0  0  0  0  0  0  0  0  0  0  0
  -33.6259   63.1638   68.3976 H   0  0  0  0  0  0  0  0  0  0  0  0
  -40.8197   59.3798   66.1257 O   0  0  0  0  0  0  0  0  0  0  0  0
  -42.6202   59.7230   64.8216 O   0  0  0  0  0  0  0  0  0  0  0  0
  -42.1114   59.2134   65.7825 C   0  0  0  0  0  0  0  0  0  0  0  0
  -42.8306   58.3041   66.7302 C   0  0  0  0  0  0  0  0  0  0  0  0
  -43.2720   57.0162   66.0425 C   0  0  0  0  0  0  0  0  0  0  0  0
  -44.7772   56.8943   65.8699 C   0  0  0  0  0  0  0  0  0  0  0  0
  -45.3378   57.7807   64.7638 C   0  0  0  0  0  0  0  0  0  0  0  0
  -46.3394   58.8127   65.2481 C   0  0  0  0  0  0  0  0  0  0  0  0
  -47.5461   58.2299   65.9892 C   0  0  0  0  0  0  0  0  0  0  0  0
  -48.7869   57.9901   65.1264 C   0  0  0  0  0  0  0  0  0  0  0  0
  -49.2539   59.2430   64.4479 C   0  0  0  0  0  0  0  0  0  0  0  0
  -49.8848   59.3244   63.2926 C   0  0  0  0  0  0  0  0  0  0  0  0
  -50.2696   58.1760   62.4142 C   0  0  0  0  0  0  0  0  0  0  0  0
  -49.2100   57.8687   61.3601 C   0  0  0  0  0  0  0  0  0  0  0  0
  -49.7720   57.2440   60.0951 C   0  0  0  0  0  0  0  0  0  0  0  0
  -49.2677   55.8350   59.8347 C   0  0  0  0  0  0  0  0  0  0  0  0
  -47.9627   55.7666   59.0589 C   0  0  0  0  0  0  0  0  0  0  0  0
  -47.9182   56.7073   57.8645 C   0  0  0  0  0  0  0  0  0  0  0  0
  -46.7198   57.6354   57.8479 C   0  0  0  0  0  0  0  0  0  0  0  0
  -45.9228   57.5785   59.1211 C   0  0  0  0  0  0  0  0  0  0  0  0
 21 22  1  0  0  0
  4  5  2  0  0  0
 25 24  1  0  0  0
 25 26  2  0  0  0
 25 27  1  0  0  0
 25 29  1  0  0  0
 22 20  1  0  0  0
  3  5  1  0  0  0
  3  2  1  0  0  0
 20 19  1  0  0  0
 24 23  1  0  0  0
 19 18  1  0  0  0
 18 17  1  0  0  0
 27 28  1  0  0  0
 17 16  1  0  0  0
 29 30  1  0  0  0
 16 15  1  0  0  0
 34 35  1  0  0  0
 34 36  1  0  0  0
 15 14  1  0  0  0
 31 32  1  0  0  0
 31 33  1  0  0  0
 14 13  1  0  0  0
 37  1  1  0  0  0
 37 39  1  0  0  0
 13 12  1  0  0  0
 38 39  2  0  0  0
 12 11  1  0  0  0
 11 10  1  0  0  0
 10  9  1  0  0  0
  9  8  1  0  0  0
  8  7  1  0  0  0
  7  6  1  0  0  0
  6  5  1  0  0  0
  2  1  1  0  0  0
  1 23  1  0  0  0
 30 32  1  0  0  0
 32 35  1  0  0  0
 39 40  1  0  0  0
 40 41  1  0  0  0
 41 42  1  0  0  0
 42 43  1  0  0  0
 43 44  1  0  0  0
 44 45  1  0  0  0
 45 46  1  0  0  0
 46 47  1  0  0  0
 47 48  2  0  0  0
 48 49  1  0  0  0
 49 50  1  0  0  0
 50 51  1  0  0  0
 51 52  1  0  0  0
 52 53  1  0  0  0
 53 54  1  0  0  0
 54 55  1  0  0  0
 55 56  1  0  0  0
M  CHG 1  26  -1
M  END
> <minimizedAffinity>
-8.76921

> <CNNscore>
0.4895496666

> <CNNaffinity>
7.4423155785

> <CNN_VS>
3.6433830261

> <CNNaffinity_variance>
1.1175177097

$$$$
