/media/chris/experiments/cd1a-new-docking/inputs/ligands/7sh4_ligand.pdb


 56 55  0  0  0  0  0  0  0  0999 V2000
  -39.9016   60.3187   63.3349 C   0  0  0  0  0  0  0  0  0  0  0  0
  -40.1260   60.2682   61.8501 C   0  0  0  0  0  0  0  0  0  0  0  0
  -38.8201   59.9764   61.3092 O   0  0  0  0  0  0  0  0  0  0  0  0
  -39.3067   60.2495   59.1441 O   0  0  0  0  0  0  0  0  0  0  0  0
  -38.7619   59.6355   60.0215 C   0  0  0  0  0  0  0  0  0  0  0  0
  -37.8345   58.4738   59.8090 C   0  0  0  0  0  0  0  0  0  0  0  0
  -37.2635   58.3845   58.4040 C   0  0  0  0  0  0  0  0  0  0  0  0
  -36.5451   57.0769   58.1452 C   0  0  0  0  0  0  0  0  0  0  0  0
  -35.0390   57.1684   58.2399 C   0  0  0  0  0  0  0  0  0  0  0  0
  -34.4177   55.9933   58.9673 C   0  0  0  0  0  0  0  0  0  0  0  0
  -34.8624   55.8824   60.4052 C   0  0  0  0  0  0  0  0  0  0  0  0
  -34.4226   57.0498   61.2487 C   0  0  0  0  0  0  0  0  0  0  0  0
  -32.9525   57.0142   61.6032 C   0  0  0  0  0  0  0  0  0  0  0  0
  -32.5417   58.1552   62.5117 C   0  0  0  0  0  0  0  0  0  0  0  0
  -31.9999   59.3645   61.7788 C   0  0  0  0  0  0  0  0  0  0  0  0
  -30.6475   59.8428   62.2950 C   0  0  0  0  0  0  0  0  0  0  0  0
  -30.0143   60.9302   61.4483 C   0  0  0  0  0  0  0  0  0  0  0  0
  -29.5355   62.1195   62.2555 C   0  0  0  0  0  0  0  0  0  0  0  0
  -30.6658   62.9580   62.8359 C   0  0  0  0  0  0  0  0  0  0  0  0
  -31.8418   63.1300   61.8911 C   0  0  0  0  0  0  0  0  0  0  0  0
  -32.9174   63.9569   64.0112 C   0  0  0  0  0  0  0  0  0  0  0  0
  -33.0894   63.7105   62.5295 C   0  0  0  0  0  0  0  0  0  0  0  0
  -38.6364   59.6071   63.7408 C   0  0  0  0  0  0  0  0  0  0  0  0
  -37.7305   60.5676   64.3283 O   0  0  0  0  0  0  0  0  0  0  0  0
  -36.4332   61.1146   63.5671 P   0  0  0  0  0  0  0  0  0  0  0  0
  -35.5687   59.9585   63.2467 O   0  0  0  0  0  0  0  0  0  0  0  0
  -36.8834   61.9952   62.4622 O   0  0  0  0  0  0  0  0  0  0  0  0
  -37.3532   61.4666   61.7985 H   0  0  0  0  0  0  0  0  0  0  0  0
  -35.6677   62.0195   64.6338 O   0  0  0  0  0  0  0  0  0  0  0  0
  -35.2396   61.4504   65.8879 C   0  0  0  0  0  0  0  0  0  0  0  0
  -33.9588   62.6979   67.4835 O   0  0  0  0  0  0  0  0  0  0  0  0
  -35.2710   62.5342   66.9376 C   0  0  0  0  0  0  0  0  0  0  0  0
  -33.6446   61.8484   67.8306 H   0  0  0  0  0  0  0  0  0  0  0  0
  -37.0599   64.1521   66.9224 O   0  0  0  0  0  0  0  0  0  0  0  0
  -35.7762   63.8483   66.3920 C   0  0  0  0  0  0  0  0  0  0  0  0
  -37.3671   64.9982   66.5611 H   0  0  0  0  0  0  0  0  0  0  0  0
  -41.0791   59.7512   63.9992 O   0  0  0  0  0  0  0  0  0  0  0  0
  -40.8068   60.9311   65.8949 O   0  0  0  0  0  0  0  0  0  0  0  0
  -41.1803   59.9402   65.3290 C   0  0  0  0  0  0  0  0  0  0  0  0
  -41.8296   58.7770   66.0126 C   0  0  0  0  0  0  0  0  0  0  0  0
  -43.2887   59.0690   66.3479 C   0  0  0  0  0  0  0  0  0  0  0  0
  -44.2333   58.9258   65.1660 C   0  0  0  0  0  0  0  0  0  0  0  0
  -45.4329   58.0288   65.4493 C   0  0  0  0  0  0  0  0  0  0  0  0
  -46.6397   58.7673   65.9978 C   0  0  0  0  0  0  0  0  0  0  0  0
  -47.5626   59.3606   64.9296 C   0  0  0  0  0  0  0  0  0  0  0  0
  -48.5244   58.3669   64.2746 C   0  0  0  0  0  0  0  0  0  0  0  0
  -49.9561   58.6654   64.6045 C   0  0  0  0  0  0  0  0  0  0  0  0
  -50.9188   58.9486   63.7487 C   0  0  0  0  0  0  0  0  0  0  0  0
  -50.7818   59.0297   62.2610 C   0  0  0  0  0  0  0  0  0  0  0  0
  -51.0284   57.6869   61.5796 C   0  0  0  0  0  0  0  0  0  0  0  0
  -50.2693   57.5168   60.2753 C   0  0  0  0  0  0  0  0  0  0  0  0
  -48.8011   57.8942   60.3705 C   0  0  0  0  0  0  0  0  0  0  0  0
  -47.8643   56.9784   59.6003 C   0  0  0  0  0  0  0  0  0  0  0  0
  -48.1981   56.8770   58.1198 C   0  0  0  0  0  0  0  0  0  0  0  0
  -47.0105   57.0770   57.1993 C   0  0  0  0  0  0  0  0  0  0  0  0
  -45.9492   57.9547   57.8016 C   0  0  0  0  0  0  0  0  0  0  0  0
 21 22  1  0  0  0
  4  5  2  0  0  0
 25 24  1  0  0  0
 25 26  2  0  0  0
 25 27  1  0  0  0
 25 29  1  0  0  0
 22 20  1  0  0  0
  3  5  1  0  0  0
  3  2  1  0  0  0
 20 19  1  0  0  0
 24 23  1  0  0  0
 19 18  1  0  0  0
 18 17  1  0  0  0
 27 28  1  0  0  0
 17 16  1  0  0  0
 29 30  1  0  0  0
 16 15  1  0  0  0
 34 35  1  0  0  0
 34 36  1  0  0  0
 15 14  1  0  0  0
 31 32  1  0  0  0
 31 33  1  0  0  0
 14 13  1  0  0  0
 37  1  1  0  0  0
 37 39  1  0  0  0
 13 12  1  0  0  0
 38 39  2  0  0  0
 12 11  1  0  0  0
 11 10  1  0  0  0
 10  9  1  0  0  0
  9  8  1  0  0  0
  8  7  1  0  0  0
  7  6  1  0  0  0
  6  5  1  0  0  0
  2  1  1  0  0  0
  1 23  1  0  0  0
 30 32  1  0  0  0
 32 35  1  0  0  0
 39 40  1  0  0  0
 40 41  1  0  0  0
 41 42  1  0  0  0
 42 43  1  0  0  0
 43 44  1  0  0  0
 44 45  1  0  0  0
 45 46  1  0  0  0
 46 47  1  0  0  0
 47 48  2  0  0  0
 48 49  1  0  0  0
 49 50  1  0  0  0
 50 51  1  0  0  0
 51 52  1  0  0  0
 52 53  1  0  0  0
 53 54  1  0  0  0
 54 55  1  0  0  0
 55 56  1  0  0  0
M  CHG 1  26  -1
M  END
> <minimizedAffinity>
-9.00901

> <CNNscore>
0.8685838580

> <CNNaffinity>
7.6300239563

> <CNN_VS>
6.6273155212

> <CNNaffinity_variance>
0.4621300101

$$$$
/media/chris/experiments/cd1a-new-docking/inputs/ligands/7sh4_ligand.pdb


 56 55  0  0  0  0  0  0  0  0999 V2000
  -38.4607   58.5134   63.5298 C   0  0  0  0  0  0  0  0  0  0  0  0
  -39.7309   58.0236   64.1657 C   0  0  0  0  0  0  0  0  0  0  0  0
  -39.7639   58.6959   65.4425 O   0  0  0  0  0  0  0  0  0  0  0  0
  -40.4698   60.7619   65.9248 O   0  0  0  0  0  0  0  0  0  0  0  0
  -40.7043   59.6259   65.6114 C   0  0  0  0  0  0  0  0  0  0  0  0
  -42.0607   59.1001   65.2389 C   0  0  0  0  0  0  0  0  0  0  0  0
  -42.8868   58.6216   66.4207 C   0  0  0  0  0  0  0  0  0  0  0  0
  -44.3656   58.9008   66.2536 C   0  0  0  0  0  0  0  0  0  0  0  0
  -44.9191   58.5176   64.8999 C   0  0  0  0  0  0  0  0  0  0  0  0
  -46.4296   58.3973   64.8889 C   0  0  0  0  0  0  0  0  0  0  0  0
  -47.1301   59.6747   65.2826 C   0  0  0  0  0  0  0  0  0  0  0  0
  -48.6303   59.5719   65.2021 C   0  0  0  0  0  0  0  0  0  0  0  0
  -49.1799   59.8757   63.8259 C   0  0  0  0  0  0  0  0  0  0  0  0
  -50.6936   59.9394   63.8011 C   0  0  0  0  0  0  0  0  0  0  0  0
  -51.3247   59.1933   62.6443 C   0  0  0  0  0  0  0  0  0  0  0  0
  -50.6143   57.8918   62.2898 C   0  0  0  0  0  0  0  0  0  0  0  0
  -51.0910   57.2626   60.9948 C   0  0  0  0  0  0  0  0  0  0  0  0
  -50.2547   57.6517   59.7929 C   0  0  0  0  0  0  0  0  0  0  0  0
  -48.9658   56.8523   59.6618 C   0  0  0  0  0  0  0  0  0  0  0  0
  -47.8166   57.6457   59.0659 C   0  0  0  0  0  0  0  0  0  0  0  0
  -48.0309   56.5216   56.8239 C   0  0  0  0  0  0  0  0  0  0  0  0
  -47.0916   56.9546   57.9266 C   0  0  0  0  0  0  0  0  0  0  0  0
  -37.3842   58.7828   64.5497 C   0  0  0  0  0  0  0  0  0  0  0  0
  -37.0673   60.1927   64.5302 O   0  0  0  0  0  0  0  0  0  0  0  0
  -35.5704   60.7436   64.3969 P   0  0  0  0  0  0  0  0  0  0  0  0
  -34.7203   59.9940   65.3466 O   0  0  0  0  0  0  0  0  0  0  0  0
  -35.2047   60.7428   62.9598 O   0  0  0  0  0  0  0  0  0  0  0  0
  -35.1599   59.8288   62.6382 H   0  0  0  0  0  0  0  0  0  0  0  0
  -35.6334   62.2601   64.8855 O   0  0  0  0  0  0  0  0  0  0  0  0
  -36.3772   62.6057   66.0718 C   0  0  0  0  0  0  0  0  0  0  0  0
  -36.2992   64.0182   68.0061 O   0  0  0  0  0  0  0  0  0  0  0  0
  -35.7125   63.7950   66.7205 C   0  0  0  0  0  0  0  0  0  0  0  0
  -37.2577   64.1308   67.9089 H   0  0  0  0  0  0  0  0  0  0  0  0
  -33.9052   62.2929   67.2642 O   0  0  0  0  0  0  0  0  0  0  0  0
  -34.2190   63.6174   66.8530 C   0  0  0  0  0  0  0  0  0  0  0  0
  -32.9431   62.1984   67.3435 H   0  0  0  0  0  0  0  0  0  0  0  0
  -38.7710   59.7097   62.7409 O   0  0  0  0  0  0  0  0  0  0  0  0
  -37.5155   60.6758   61.1439 O   0  0  0  0  0  0  0  0  0  0  0  0
  -38.2331   59.7848   61.5083 C   0  0  0  0  0  0  0  0  0  0  0  0
  -38.6215   58.6173   60.6552 C   0  0  0  0  0  0  0  0  0  0  0  0
  -37.3991   57.9428   60.0407 C   0  0  0  0  0  0  0  0  0  0  0  0
  -37.2830   58.1293   58.5369 C   0  0  0  0  0  0  0  0  0  0  0  0
  -36.7285   56.9083   57.8120 C   0  0  0  0  0  0  0  0  0  0  0  0
  -35.9176   55.9805   58.6975 C   0  0  0  0  0  0  0  0  0  0  0  0
  -34.4189   56.2913   58.7416 C   0  0  0  0  0  0  0  0  0  0  0  0
  -33.7473   56.0704   60.0987 C   0  0  0  0  0  0  0  0  0  0  0  0
  -34.5282   56.6839   61.2220 C   0  0  0  0  0  0  0  0  0  0  0  0
  -34.0447   57.4036   62.2158 C   0  0  0  0  0  0  0  0  0  0  0  0
  -32.6077   57.7611   62.4293 C   0  0  0  0  0  0  0  0  0  0  0  0
  -32.2284   59.0762   61.7547 C   0  0  0  0  0  0  0  0  0  0  0  0
  -30.8480   59.5812   62.1365 C   0  0  0  0  0  0  0  0  0  0  0  0
  -30.5347   60.9662   61.5972 C   0  0  0  0  0  0  0  0  0  0  0  0
  -30.6391   62.0807   62.6251 C   0  0  0  0  0  0  0  0  0  0  0  0
  -32.0686   62.3820   63.0486 C   0  0  0  0  0  0  0  0  0  0  0  0
  -32.2844   63.7971   63.5473 C   0  0  0  0  0  0  0  0  0  0  0  0
  -31.4034   64.1427   64.7152 C   0  0  0  0  0  0  0  0  0  0  0  0
 21 22  1  0  0  0
  4  5  2  0  0  0
 25 24  1  0  0  0
 25 26  2  0  0  0
 25 27  1  0  0  0
 25 29  1  0  0  0
 22 20  1  0  0  0
  3  5  1  0  0  0
  3  2  1  0  0  0
 20 19  1  0  0  0
 24 23  1  0  0  0
 19 18  1  0  0  0
 18 17  1  0  0  0
 27 28  1  0  0  0
 17 16  1  0  0  0
 29 30  1  0  0  0
 16 15  1  0  0  0
 34 35  1  0  0  0
 34 36  1  0  0  0
 15 14  1  0  0  0
 31 32  1  0  0  0
 31 33  1  0  0  0
 14 13  1  0  0  0
 37  1  1  0  0  0
 37 39  1  0  0  0
 13 12  1  0  0  0
 38 39  2  0  0  0
 12 11  1  0  0  0
 11 10  1  0  0  0
 10  9  1  0  0  0
  9  8  1  0  0  0
  8  7  1  0  0  0
  7  6  1  0  0  0
  6  5  1  0  0  0
  2  1  1  0  0  0
  1 23  1  0  0  0
 30 32  1  0  0  0
 32 35  1  0  0  0
 39 40  1  0  0  0
 40 41  1  0  0  0
 41 42  1  0  0  0
 42 43  1  0  0  0
 43 44  1  0  0  0
 44 45  1  0  0  0
 45 46  1  0  0  0
 46 47  1  0  0  0
 47 48  2  0  0  0
 48 49  1  0  0  0
 49 50  1  0  0  0
 50 51  1  0  0  0
 51 52  1  0  0  0
 52 53  1  0  0  0
 53 54  1  0  0  0
 54 55  1  0  0  0
 55 56  1  0  0  0
M  CHG 1  26  -1
M  END
> <minimizedAffinity>
-8.79080

> <CNNscore>
0.7217304111

> <CNNaffinity>
7.4967484474

> <CNN_VS>
5.4106311798

> <CNNaffinity_variance>
0.3907189965

$$$$
/media/chris/experiments/cd1a-new-docking/inputs/ligands/7sh4_ligand.pdb


 56 55  0  0  0  0  0  0  0  0999 V2000
  -38.5776   60.0786   65.0906 C   0  0  0  0  0  0  0  0  0  0  0  0
  -38.3375   58.5978   65.0052 C   0  0  0  0  0  0  0  0  0  0  0  0
  -37.1219   58.4849   64.2353 O   0  0  0  0  0  0  0  0  0  0  0  0
  -36.3493   59.6683   62.5028 O   0  0  0  0  0  0  0  0  0  0  0  0
  -37.1620   58.9203   62.9757 C   0  0  0  0  0  0  0  0  0  0  0  0
  -38.2701   58.2589   62.2079 C   0  0  0  0  0  0  0  0  0  0  0  0
  -39.0287   59.1951   61.2826 C   0  0  0  0  0  0  0  0  0  0  0  0
  -38.5980   59.0662   59.8366 C   0  0  0  0  0  0  0  0  0  0  0  0
  -37.5101   58.0425   59.6034 C   0  0  0  0  0  0  0  0  0  0  0  0
  -37.1459   57.8866   58.1408 C   0  0  0  0  0  0  0  0  0  0  0  0
  -36.2078   56.7331   57.8820 C   0  0  0  0  0  0  0  0  0  0  0  0
  -34.7562   57.1256   57.9636 C   0  0  0  0  0  0  0  0  0  0  0  0
  -33.9285   56.1907   58.8175 C   0  0  0  0  0  0  0  0  0  0  0  0
  -34.5826   55.8806   60.1487 C   0  0  0  0  0  0  0  0  0  0  0  0
  -34.3482   56.9325   61.2124 C   0  0  0  0  0  0  0  0  0  0  0  0
  -33.0072   56.7997   61.9253 C   0  0  0  0  0  0  0  0  0  0  0  0
  -32.5467   58.0703   62.6136 C   0  0  0  0  0  0  0  0  0  0  0  0
  -31.9194   59.0739   61.6677 C   0  0  0  0  0  0  0  0  0  0  0  0
  -31.0152   60.0833   62.3612 C   0  0  0  0  0  0  0  0  0  0  0  0
  -30.3255   61.0393   61.4043 C   0  0  0  0  0  0  0  0  0  0  0  0
  -29.9353   63.2529   62.5373 C   0  0  0  0  0  0  0  0  0  0  0  0
  -29.3120   61.9640   62.0514 C   0  0  0  0  0  0  0  0  0  0  0  0
  -37.5888   60.7610   66.0009 C   0  0  0  0  0  0  0  0  0  0  0  0
  -37.0788   61.9378   65.3349 O   0  0  0  0  0  0  0  0  0  0  0  0
  -36.0123   62.9224   66.0094 P   0  0  0  0  0  0  0  0  0  0  0  0
  -36.7514   64.0445   66.6267 O   0  0  0  0  0  0  0  0  0  0  0  0
  -35.1086   62.1109   66.8602 O   0  0  0  0  0  0  0  0  0  0  0  0
  -35.6094   61.7435   67.6051 H   0  0  0  0  0  0  0  0  0  0  0  0
  -35.1528   63.5066   64.8000 O   0  0  0  0  0  0  0  0  0  0  0  0
  -33.7539   63.1761   64.6832 C   0  0  0  0  0  0  0  0  0  0  0  0
  -34.3604   61.4124   63.1784 O   0  0  0  0  0  0  0  0  0  0  0  0
  -33.5218   62.5624   63.3243 C   0  0  0  0  0  0  0  0  0  0  0  0
  -34.1883   60.7926   63.9044 H   0  0  0  0  0  0  0  0  0  0  0  0
  -35.1282   63.4623   61.7660 O   0  0  0  0  0  0  0  0  0  0  0  0
  -33.7768   63.5391   62.2014 C   0  0  0  0  0  0  0  0  0  0  0  0
  -35.2723   64.0959   61.0458 H   0  0  0  0  0  0  0  0  0  0  0  0
  -39.9591   60.2976   65.5303 O   0  0  0  0  0  0  0  0  0  0  0  0
  -40.7948   61.2888   63.6920 O   0  0  0  0  0  0  0  0  0  0  0  0
  -40.8855   60.4730   64.5684 C   0  0  0  0  0  0  0  0  0  0  0  0
  -42.0302   59.5186   64.7120 C   0  0  0  0  0  0  0  0  0  0  0  0
  -41.9617   58.7583   66.0326 C   0  0  0  0  0  0  0  0  0  0  0  0
  -43.3141   58.5470   66.6930 C   0  0  0  0  0  0  0  0  0  0  0  0
  -44.4941   58.8170   65.7664 C   0  0  0  0  0  0  0  0  0  0  0  0
  -45.8193   58.9815   66.4870 C   0  0  0  0  0  0  0  0  0  0  0  0
  -47.0105   58.3204   65.7879 C   0  0  0  0  0  0  0  0  0  0  0  0
  -48.1338   59.2732   65.3736 C   0  0  0  0  0  0  0  0  0  0  0  0
  -49.4851   58.7611   65.7734 C   0  0  0  0  0  0  0  0  0  0  0  0
  -50.6320   59.0139   65.1735 C   0  0  0  0  0  0  0  0  0  0  0  0
  -50.8242   59.8682   63.9603 C   0  0  0  0  0  0  0  0  0  0  0  0
  -51.3926   59.0849   62.7806 C   0  0  0  0  0  0  0  0  0  0  0  0
  -50.3414   58.3264   61.9895 C   0  0  0  0  0  0  0  0  0  0  0  0
  -50.9232   57.3724   60.9606 C   0  0  0  0  0  0  0  0  0  0  0  0
  -49.9001   56.7672   60.0137 C   0  0  0  0  0  0  0  0  0  0  0  0
  -48.6293   57.5934   59.8866 C   0  0  0  0  0  0  0  0  0  0  0  0
  -47.4664   56.8529   59.2565 C   0  0  0  0  0  0  0  0  0  0  0  0
  -47.8555   55.5001   58.7293 C   0  0  0  0  0  0  0  0  0  0  0  0
 21 22  1  0  0  0
  4  5  2  0  0  0
 25 24  1  0  0  0
 25 26  2  0  0  0
 25 27  1  0  0  0
 25 29  1  0  0  0
 22 20  1  0  0  0
  3  5  1  0  0  0
  3  2  1  0  0  0
 20 19  1  0  0  0
 24 23  1  0  0  0
 19 18  1  0  0  0
 18 17  1  0  0  0
 27 28  1  0  0  0
 17 16  1  0  0  0
 29 30  1  0  0  0
 16 15  1  0  0  0
 34 35  1  0  0  0
 34 36  1  0  0  0
 15 14  1  0  0  0
 31 32  1  0  0  0
 31 33  1  0  0  0
 14 13  1  0  0  0
 37  1  1  0  0  0
 37 39  1  0  0  0
 13 12  1  0  0  0
 38 39  2  0  0  0
 12 11  1  0  0  0
 11 10  1  0  0  0
 10  9  1  0  0  0
  9  8  1  0  0  0
  8  7  1  0  0  0
  7  6  1  0  0  0
  6  5  1  0  0  0
  2  1  1  0  0  0
  1 23  1  0  0  0
 30 32  1  0  0  0
 32 35  1  0  0  0
 39 40  1  0  0  0
 40 41  1  0  0  0
 41 42  1  0  0  0
 42 43  1  0  0  0
 43 44  1  0  0  0
 44 45  1  0  0  0
 45 46  1  0  0  0
 46 47  1  0  0  0
 47 48  2  0  0  0
 48 49  1  0  0  0
 49 50  1  0  0  0
 50 51  1  0  0  0
 51 52  1  0  0  0
 52 53  1  0  0  0
 53 54  1  0  0  0
 54 55  1  0  0  0
 55 56  1  0  0  0
M  CHG 1  26  -1
M  END
> <minimizedAffinity>
-8.98384

> <CNNscore>
0.6810957193

> <CNNaffinity>
7.4212403297

> <CNN_VS>
5.0545749664

> <CNNaffinity_variance>
0.8256634474

$$$$
/media/chris/experiments/cd1a-new-docking/inputs/ligands/7sh4_ligand.pdb


 56 55  0  0  0  0  0  0  0  0999 V2000
  -38.0407   59.7478   63.2645 C   0  0  0  0  0  0  0  0  0  0  0  0
  -38.7815   59.5151   64.5509 C   0  0  0  0  0  0  0  0  0  0  0  0
  -39.6490   60.6628   64.6668 O   0  0  0  0  0  0  0  0  0  0  0  0
  -41.7633   61.0660   64.0616 O   0  0  0  0  0  0  0  0  0  0  0  0
  -40.9614   60.4283   64.6892 C   0  0  0  0  0  0  0  0  0  0  0  0
  -41.2796   59.2000   65.4923 C   0  0  0  0  0  0  0  0  0  0  0  0
  -42.7373   58.7769   65.4280 C   0  0  0  0  0  0  0  0  0  0  0  0
  -42.9653   57.3767   65.9574 C   0  0  0  0  0  0  0  0  0  0  0  0
  -44.3732   57.1206   66.4452 C   0  0  0  0  0  0  0  0  0  0  0  0
  -45.4033   57.1661   65.3348 C   0  0  0  0  0  0  0  0  0  0  0  0
  -46.5486   58.1050   65.6253 C   0  0  0  0  0  0  0  0  0  0  0  0
  -47.7540   57.8479   64.7599 C   0  0  0  0  0  0  0  0  0  0  0  0
  -48.0009   58.9341   63.7365 C   0  0  0  0  0  0  0  0  0  0  0  0
  -49.3562   59.5925   63.8971 C   0  0  0  0  0  0  0  0  0  0  0  0
  -50.2094   59.5637   62.6464 C   0  0  0  0  0  0  0  0  0  0  0  0
  -50.9986   58.2715   62.4688 C   0  0  0  0  0  0  0  0  0  0  0  0
  -50.6863   57.5305   61.1828 C   0  0  0  0  0  0  0  0  0  0  0  0
  -49.6425   58.2206   60.3287 C   0  0  0  0  0  0  0  0  0  0  0  0
  -48.5229   57.2973   59.8687 C   0  0  0  0  0  0  0  0  0  0  0  0
  -48.4823   57.0940   58.3646 C   0  0  0  0  0  0  0  0  0  0  0  0
  -46.1371   57.8920   57.9184 C   0  0  0  0  0  0  0  0  0  0  0  0
  -47.1152   56.7444   57.8080 C   0  0  0  0  0  0  0  0  0  0  0  0
  -36.6908   60.3774   63.4945 C   0  0  0  0  0  0  0  0  0  0  0  0
  -36.8822   61.7056   64.0310 O   0  0  0  0  0  0  0  0  0  0  0  0
  -35.9803   62.9546   63.5972 P   0  0  0  0  0  0  0  0  0  0  0  0
  -35.6153   62.7838   62.1744 O   0  0  0  0  0  0  0  0  0  0  0  0
  -36.6809   64.1950   64.0089 O   0  0  0  0  0  0  0  0  0  0  0  0
  -37.4975   64.2910   63.4943 H   0  0  0  0  0  0  0  0  0  0  0  0
  -34.6473   62.8343   64.4640 O   0  0  0  0  0  0  0  0  0  0  0  0
  -34.6720   62.1524   65.7346 C   0  0  0  0  0  0  0  0  0  0  0  0
  -33.5131   64.1678   66.3161 O   0  0  0  0  0  0  0  0  0  0  0  0
  -34.3961   63.1619   66.8217 C   0  0  0  0  0  0  0  0  0  0  0  0
  -32.7056   63.7493   65.9789 H   0  0  0  0  0  0  0  0  0  0  0  0
  -36.8043   63.2447   66.7129 O   0  0  0  0  0  0  0  0  0  0  0  0
  -35.6598   63.7962   67.3513 C   0  0  0  0  0  0  0  0  0  0  0  0
  -37.6047   63.6638   67.0658 H   0  0  0  0  0  0  0  0  0  0  0  0
  -38.8811   60.5724   62.3906 O   0  0  0  0  0  0  0  0  0  0  0  0
  -40.3147   60.2586   60.6858 O   0  0  0  0  0  0  0  0  0  0  0  0
  -39.2648   60.0269   61.2204 C   0  0  0  0  0  0  0  0  0  0  0  0
  -38.2199   59.1136   60.6585 C   0  0  0  0  0  0  0  0  0  0  0  0
  -37.9441   59.4169   59.1892 C   0  0  0  0  0  0  0  0  0  0  0  0
  -37.6864   58.1813   58.3426 C   0  0  0  0  0  0  0  0  0  0  0  0
  -36.2658   58.1025   57.7953 C   0  0  0  0  0  0  0  0  0  0  0  0
  -35.6065   56.7488   57.9832 C   0  0  0  0  0  0  0  0  0  0  0  0
  -34.2388   56.7967   58.6702 C   0  0  0  0  0  0  0  0  0  0  0  0
  -34.1980   56.2089   60.0824 C   0  0  0  0  0  0  0  0  0  0  0  0
  -35.3412   56.6872   60.9265 C   0  0  0  0  0  0  0  0  0  0  0  0
  -35.2640   57.1992   62.1394 C   0  0  0  0  0  0  0  0  0  0  0  0
  -34.0115   57.4122   62.9296 C   0  0  0  0  0  0  0  0  0  0  0  0
  -33.4208   58.8035   62.7206 C   0  0  0  0  0  0  0  0  0  0  0  0
  -31.9211   58.7992   62.4815 C   0  0  0  0  0  0  0  0  0  0  0  0
  -31.4473   59.9099   61.5599 C   0  0  0  0  0  0  0  0  0  0  0  0
  -31.0270   61.1840   62.2736 C   0  0  0  0  0  0  0  0  0  0  0  0
  -29.5742   61.1748   62.7241 C   0  0  0  0  0  0  0  0  0  0  0  0
  -28.7026   60.1729   61.9931 C   0  0  0  0  0  0  0  0  0  0  0  0
  -27.2379   60.3647   62.2707 C   0  0  0  0  0  0  0  0  0  0  0  0
 21 22  1  0  0  0
  4  5  2  0  0  0
 25 24  1  0  0  0
 25 26  2  0  0  0
 25 27  1  0  0  0
 25 29  1  0  0  0
 22 20  1  0  0  0
  3  5  1  0  0  0
  3  2  1  0  0  0
 20 19  1  0  0  0
 24 23  1  0  0  0
 19 18  1  0  0  0
 18 17  1  0  0  0
 27 28  1  0  0  0
 17 16  1  0  0  0
 29 30  1  0  0  0
 16 15  1  0  0  0
 34 35  1  0  0  0
 34 36  1  0  0  0
 15 14  1  0  0  0
 31 32  1  0  0  0
 31 33  1  0  0  0
 14 13  1  0  0  0
 37  1  1  0  0  0
 37 39  1  0  0  0
 13 12  1  0  0  0
 38 39  2  0  0  0
 12 11  1  0  0  0
 11 10  1  0  0  0
 10  9  1  0  0  0
  9  8  1  0  0  0
  8  7  1  0  0  0
  7  6  1  0  0  0
  6  5  1  0  0  0
  2  1  1  0  0  0
  1 23  1  0  0  0
 30 32  1  0  0  0
 32 35  1  0  0  0
 39 40  1  0  0  0
 40 41  1  0  0  0
 41 42  1  0  0  0
 42 43  1  0  0  0
 43 44  1  0  0  0
 44 45  1  0  0  0
 45 46  1  0  0  0
 46 47  1  0  0  0
 47 48  2  0  0  0
 48 49  1  0  0  0
 49 50  1  0  0  0
 50 51  1  0  0  0
 51 52  1  0  0  0
 52 53  1  0  0  0
 53 54  1  0  0  0
 54 55  1  0  0  0
 55 56  1  0  0  0
M  CHG 1  26  -1
M  END
> <minimizedAffinity>
-8.38377

> <CNNscore>
0.6458725929

> <CNNaffinity>
7.5201349258

> <CNN_VS>
4.8570489883

> <CNNaffinity_variance>
0.5718640089

$$$$
/media/chris/experiments/cd1a-new-docking/inputs/ligands/7sh4_ligand.pdb


 56 55  0  0  0  0  0  0  0  0999 V2000
  -37.6237   59.8911   63.3720 C   0  0  0  0  0  0  0  0  0  0  0  0
  -38.2136   59.6582   64.7341 C   0  0  0  0  0  0  0  0  0  0  0  0
  -39.5855   59.3004   64.4640 O   0  0  0  0  0  0  0  0  0  0  0  0
  -40.5028   60.8547   65.7837 O   0  0  0  0  0  0  0  0  0  0  0  0
  -40.5059   59.7466   65.3193 C   0  0  0  0  0  0  0  0  0  0  0  0
  -41.5969   58.7344   65.5194 C   0  0  0  0  0  0  0  0  0  0  0  0
  -42.9592   59.1830   65.0185 C   0  0  0  0  0  0  0  0  0  0  0  0
  -44.0418   59.0541   66.0693 C   0  0  0  0  0  0  0  0  0  0  0  0
  -45.4479   59.1847   65.5291 C   0  0  0  0  0  0  0  0  0  0  0  0
  -46.4999   58.6442   66.4764 C   0  0  0  0  0  0  0  0  0  0  0  0
  -47.9004   59.0778   66.1185 C   0  0  0  0  0  0  0  0  0  0  0  0
  -48.8376   57.9193   65.9013 C   0  0  0  0  0  0  0  0  0  0  0  0
  -50.2404   58.3439   65.5268 C   0  0  0  0  0  0  0  0  0  0  0  0
  -50.2845   59.1545   64.2473 C   0  0  0  0  0  0  0  0  0  0  0  0
  -50.1174   58.3307   62.9877 C   0  0  0  0  0  0  0  0  0  0  0  0
  -50.0691   59.1614   61.7103 C   0  0  0  0  0  0  0  0  0  0  0  0
  -49.6930   58.3683   60.4734 C   0  0  0  0  0  0  0  0  0  0  0  0
  -50.2698   56.9675   60.4580 C   0  0  0  0  0  0  0  0  0  0  0  0
  -49.2626   55.8973   60.0608 C   0  0  0  0  0  0  0  0  0  0  0  0
  -48.0587   56.4430   59.3138 C   0  0  0  0  0  0  0  0  0  0  0  0
  -47.6106   56.5660   56.8400 C   0  0  0  0  0  0  0  0  0  0  0  0
  -47.6886   55.6752   58.0590 C   0  0  0  0  0  0  0  0  0  0  0  0
  -37.3230   61.3475   63.1267 C   0  0  0  0  0  0  0  0  0  0  0  0
  -36.1842   61.7291   63.9305 O   0  0  0  0  0  0  0  0  0  0  0  0
  -35.4446   63.1397   63.7725 P   0  0  0  0  0  0  0  0  0  0  0  0
  -34.5803   63.0721   62.5746 O   0  0  0  0  0  0  0  0  0  0  0  0
  -36.4687   64.2092   63.8525 O   0  0  0  0  0  0  0  0  0  0  0  0
  -37.0564   64.1523   63.0830 H   0  0  0  0  0  0  0  0  0  0  0  0
  -34.5016   63.2679   65.0519 O   0  0  0  0  0  0  0  0  0  0  0  0
  -33.0687   63.3034   64.8914 C   0  0  0  0  0  0  0  0  0  0  0  0
  -31.1190   64.5796   65.4506 O   0  0  0  0  0  0  0  0  0  0  0  0
  -32.5413   64.5289   65.5966 C   0  0  0  0  0  0  0  0  0  0  0  0
  -30.7299   63.7569   65.7863 H   0  0  0  0  0  0  0  0  0  0  0  0
  -33.2192   65.7935   63.6577 O   0  0  0  0  0  0  0  0  0  0  0  0
  -33.1641   65.8029   65.0785 C   0  0  0  0  0  0  0  0  0  0  0  0
  -33.6217   66.6185   63.3443 H   0  0  0  0  0  0  0  0  0  0  0  0
  -38.5491   59.3530   62.3700 O   0  0  0  0  0  0  0  0  0  0  0  0
  -37.7858   59.9537   60.3411 O   0  0  0  0  0  0  0  0  0  0  0  0
  -38.0455   59.1017   61.1463 C   0  0  0  0  0  0  0  0  0  0  0  0
  -37.8317   57.6374   60.9181 C   0  0  0  0  0  0  0  0  0  0  0  0
  -36.5405   57.3742   60.1498 C   0  0  0  0  0  0  0  0  0  0  0  0
  -36.5723   56.1111   59.3052 C   0  0  0  0  0  0  0  0  0  0  0  0
  -35.4473   55.1340   59.6267 C   0  0  0  0  0  0  0  0  0  0  0  0
  -34.0984   55.7951   59.8410 C   0  0  0  0  0  0  0  0  0  0  0  0
  -33.6342   55.8364   61.2996 C   0  0  0  0  0  0  0  0  0  0  0  0
  -32.4857   56.8047   61.5908 C   0  0  0  0  0  0  0  0  0  0  0  0
  -32.8044   57.7348   62.7228 C   0  0  0  0  0  0  0  0  0  0  0  0
  -32.4560   59.0030   62.8217 C   0  0  0  0  0  0  0  0  0  0  0  0
  -31.6670   59.7826   61.8176 C   0  0  0  0  0  0  0  0  0  0  0  0
  -30.2354   60.0427   62.2770 C   0  0  0  0  0  0  0  0  0  0  0  0
  -29.9702   61.4892   62.6559 C   0  0  0  0  0  0  0  0  0  0  0  0
  -30.2395   62.4736   61.5308 C   0  0  0  0  0  0  0  0  0  0  0  0
  -31.0444   63.6952   61.9422 C   0  0  0  0  0  0  0  0  0  0  0  0
  -30.2233   64.9749   61.9858 C   0  0  0  0  0  0  0  0  0  0  0  0
  -30.5847   65.9828   60.9128 C   0  0  0  0  0  0  0  0  0  0  0  0
  -29.7352   67.2215   60.9687 C   0  0  0  0  0  0  0  0  0  0  0  0
 21 22  1  0  0  0
  4  5  2  0  0  0
 25 24  1  0  0  0
 25 26  2  0  0  0
 25 27  1  0  0  0
 25 29  1  0  0  0
 22 20  1  0  0  0
  3  5  1  0  0  0
  3  2  1  0  0  0
 20 19  1  0  0  0
 24 23  1  0  0  0
 19 18  1  0  0  0
 18 17  1  0  0  0
 27 28  1  0  0  0
 17 16  1  0  0  0
 29 30  1  0  0  0
 16 15  1  0  0  0
 34 35  1  0  0  0
 34 36  1  0  0  0
 15 14  1  0  0  0
 31 32  1  0  0  0
 31 33  1  0  0  0
 14 13  1  0  0  0
 37  1  1  0  0  0
 37 39  1  0  0  0
 13 12  1  0  0  0
 38 39  2  0  0  0
 12 11  1  0  0  0
 11 10  1  0  0  0
 10  9  1  0  0  0
  9  8  1  0  0  0
  8  7  1  0  0  0
  7  6  1  0  0  0
  6  5  1  0  0  0
  2  1  1  0  0  0
  1 23  1  0  0  0
 30 32  1  0  0  0
 32 35  1  0  0  0
 39 40  1  0  0  0
 40 41  1  0  0  0
 41 42  1  0  0  0
 42 43  1  0  0  0
 43 44  1  0  0  0
 44 45  1  0  0  0
 45 46  1  0  0  0
 46 47  1  0  0  0
 47 48  2  0  0  0
 48 49  1  0  0  0
 49 50  1  0  0  0
 50 51  1  0  0  0
 51 52  1  0  0  0
 52 53  1  0  0  0
 53 54  1  0  0  0
 54 55  1  0  0  0
 55 56  1  0  0  0
M  CHG 1  26  -1
M  END
> <minimizedAffinity>
-8.44586

> <CNNscore>
0.6228820086

> <CNNaffinity>
6.8647108078

> <CNN_VS>
4.2759046555

> <CNNaffinity_variance>
0.4937429428

$$$$
/media/chris/experiments/cd1a-new-docking/inputs/ligands/7sh4_ligand.pdb


 56 55  0  0  0  0  0  0  0  0999 V2000
  -37.9578   60.3948   63.5990 C   0  0  0  0  0  0  0  0  0  0  0  0
  -36.8650   59.7245   64.3826 C   0  0  0  0  0  0  0  0  0  0  0  0
  -36.7171   58.4379   63.7455 O   0  0  0  0  0  0  0  0  0  0  0  0
  -37.9232   57.1539   65.1224 O   0  0  0  0  0  0  0  0  0  0  0  0
  -37.6478   57.5212   64.0119 C   0  0  0  0  0  0  0  0  0  0  0  0
  -38.3789   57.1119   62.7658 C   0  0  0  0  0  0  0  0  0  0  0  0
  -37.5672   57.2667   61.4909 C   0  0  0  0  0  0  0  0  0  0  0  0
  -38.1498   58.2970   60.5465 C   0  0  0  0  0  0  0  0  0  0  0  0
  -37.3879   58.4491   59.2495 C   0  0  0  0  0  0  0  0  0  0  0  0
  -36.8436   57.1363   58.7238 C   0  0  0  0  0  0  0  0  0  0  0  0
  -35.5729   57.2972   57.9255 C   0  0  0  0  0  0  0  0  0  0  0  0
  -34.3998   56.5760   58.5351 C   0  0  0  0  0  0  0  0  0  0  0  0
  -34.7989   55.5516   59.5741 C   0  0  0  0  0  0  0  0  0  0  0  0
  -34.2635   55.8779   60.9535 C   0  0  0  0  0  0  0  0  0  0  0  0
  -33.4332   57.1430   61.0109 C   0  0  0  0  0  0  0  0  0  0  0  0
  -33.5794   57.9171   62.3161 C   0  0  0  0  0  0  0  0  0  0  0  0
  -32.3172   58.6376   62.7498 C   0  0  0  0  0  0  0  0  0  0  0  0
  -31.7700   59.5799   61.6972 C   0  0  0  0  0  0  0  0  0  0  0  0
  -30.6925   60.5195   62.2203 C   0  0  0  0  0  0  0  0  0  0  0  0
  -30.9305   61.9758   61.8631 C   0  0  0  0  0  0  0  0  0  0  0  0
  -29.6415   64.1363   61.7811 C   0  0  0  0  0  0  0  0  0  0  0  0
  -30.0773   62.9659   62.6332 C   0  0  0  0  0  0  0  0  0  0  0  0
  -37.4319   61.5146   62.7380 C   0  0  0  0  0  0  0  0  0  0  0  0
  -36.6361   62.3983   63.5591 O   0  0  0  0  0  0  0  0  0  0  0  0
  -35.2114   62.9630   63.0971 P   0  0  0  0  0  0  0  0  0  0  0  0
  -34.2433   61.8458   63.1304 O   0  0  0  0  0  0  0  0  0  0  0  0
  -35.3990   63.7055   61.8274 O   0  0  0  0  0  0  0  0  0  0  0  0
  -35.6573   63.0869   61.1263 H   0  0  0  0  0  0  0  0  0  0  0  0
  -34.7887   64.0127   64.2205 O   0  0  0  0  0  0  0  0  0  0  0  0
  -33.8897   63.6167   65.2764 C   0  0  0  0  0  0  0  0  0  0  0  0
  -33.8620   62.6379   67.4637 O   0  0  0  0  0  0  0  0  0  0  0  0
  -34.6760   62.8412   66.3048 C   0  0  0  0  0  0  0  0  0  0  0  0
  -33.0391   62.1932   67.2068 H   0  0  0  0  0  0  0  0  0  0  0  0
  -37.0867   62.7626   66.2817 O   0  0  0  0  0  0  0  0  0  0  0  0
  -35.9625   63.5333   66.6865 C   0  0  0  0  0  0  0  0  0  0  0  0
  -37.9022   63.2226   66.5352 H   0  0  0  0  0  0  0  0  0  0  0  0
  -38.9770   60.8685   64.5406 O   0  0  0  0  0  0  0  0  0  0  0  0
  -40.8275   60.4786   63.3225 O   0  0  0  0  0  0  0  0  0  0  0  0
  -40.2317   60.4121   64.3629 C   0  0  0  0  0  0  0  0  0  0  0  0
  -40.7862   59.7968   65.6102 C   0  0  0  0  0  0  0  0  0  0  0  0
  -41.0437   58.3041   65.4303 C   0  0  0  0  0  0  0  0  0  0  0  0
  -42.4027   57.8478   65.9348 C   0  0  0  0  0  0  0  0  0  0  0  0
  -43.3120   58.9951   66.3602 C   0  0  0  0  0  0  0  0  0  0  0  0
  -44.3819   59.3442   65.3425 C   0  0  0  0  0  0  0  0  0  0  0  0
  -45.0274   58.1363   64.6575 C   0  0  0  0  0  0  0  0  0  0  0  0
  -46.5575   58.1329   64.6487 C   0  0  0  0  0  0  0  0  0  0  0  0
  -47.1287   59.3829   65.2481 C   0  0  0  0  0  0  0  0  0  0  0  0
  -48.3406   59.5351   65.7455 C   0  0  0  0  0  0  0  0  0  0  0  0
  -49.4036   58.4847   65.8172 C   0  0  0  0  0  0  0  0  0  0  0  0
  -50.6404   58.8513   65.0023 C   0  0  0  0  0  0  0  0  0  0  0  0
  -50.5575   58.4300   63.5456 C   0  0  0  0  0  0  0  0  0  0  0  0
  -50.3537   59.5898   62.5860 C   0  0  0  0  0  0  0  0  0  0  0  0
  -49.6504   59.2192   61.2908 C   0  0  0  0  0  0  0  0  0  0  0  0
  -48.8902   57.9040   61.3692 C   0  0  0  0  0  0  0  0  0  0  0  0
  -48.8070   57.1543   60.0544 C   0  0  0  0  0  0  0  0  0  0  0  0
  -47.6964   57.6504   59.1714 C   0  0  0  0  0  0  0  0  0  0  0  0
 21 22  1  0  0  0
  4  5  2  0  0  0
 25 24  1  0  0  0
 25 26  2  0  0  0
 25 27  1  0  0  0
 25 29  1  0  0  0
 22 20  1  0  0  0
  3  5  1  0  0  0
  3  2  1  0  0  0
 20 19  1  0  0  0
 24 23  1  0  0  0
 19 18  1  0  0  0
 18 17  1  0  0  0
 27 28  1  0  0  0
 17 16  1  0  0  0
 29 30  1  0  0  0
 16 15  1  0  0  0
 34 35  1  0  0  0
 34 36  1  0  0  0
 15 14  1  0  0  0
 31 32  1  0  0  0
 31 33  1  0  0  0
 14 13  1  0  0  0
 37  1  1  0  0  0
 37 39  1  0  0  0
 13 12  1  0  0  0
 38 39  2  0  0  0
 12 11  1  0  0  0
 11 10  1  0  0  0
 10  9  1  0  0  0
  9  8  1  0  0  0
  8  7  1  0  0  0
  7  6  1  0  0  0
  6  5  1  0  0  0
  2  1  1  0  0  0
  1 23  1  0  0  0
 30 32  1  0  0  0
 32 35  1  0  0  0
 39 40  1  0  0  0
 40 41  1  0  0  0
 41 42  1  0  0  0
 42 43  1  0  0  0
 43 44  1  0  0  0
 44 45  1  0  0  0
 45 46  1  0  0  0
 46 47  1  0  0  0
 47 48  2  0  0  0
 48 49  1  0  0  0
 49 50  1  0  0  0
 50 51  1  0  0  0
 51 52  1  0  0  0
 52 53  1  0  0  0
 53 54  1  0  0  0
 54 55  1  0  0  0
 55 56  1  0  0  0
M  CHG 1  26  -1
M  END
> <minimizedAffinity>
-8.59640

> <CNNscore>
0.5489327908

> <CNNaffinity>
7.3994092941

> <CNN_VS>
4.0617785454

> <CNNaffinity_variance>
0.7189190388

$$$$
/media/chris/experiments/cd1a-new-docking/inputs/ligands/7sh4_ligand.pdb


 56 55  0  0  0  0  0  0  0  0999 V2000
  -38.2081   58.3426   63.4059 C   0  0  0  0  0  0  0  0  0  0  0  0
  -39.1841   58.0108   64.4991 C   0  0  0  0  0  0  0  0  0  0  0  0
  -40.2297   58.9934   64.3439 O   0  0  0  0  0  0  0  0  0  0  0  0
  -40.6102   60.5053   65.9466 O   0  0  0  0  0  0  0  0  0  0  0  0
  -40.8204   59.4282   65.4574 C   0  0  0  0  0  0  0  0  0  0  0  0
  -41.8596   58.4554   65.9357 C   0  0  0  0  0  0  0  0  0  0  0  0
  -43.2088   59.0862   66.2356 C   0  0  0  0  0  0  0  0  0  0  0  0
  -44.1880   58.9486   65.0888 C   0  0  0  0  0  0  0  0  0  0  0  0
  -45.6116   59.3146   65.4428 C   0  0  0  0  0  0  0  0  0  0  0  0
  -46.6115   58.2400   65.0666 C   0  0  0  0  0  0  0  0  0  0  0  0
  -47.9820   58.7878   64.7519 C   0  0  0  0  0  0  0  0  0  0  0  0
  -49.0904   58.0231   65.4260 C   0  0  0  0  0  0  0  0  0  0  0  0
  -50.4400   58.6968   65.3124 C   0  0  0  0  0  0  0  0  0  0  0  0
  -50.4631   59.7874   64.2607 C   0  0  0  0  0  0  0  0  0  0  0  0
  -51.4322   59.5312   63.1257 C   0  0  0  0  0  0  0  0  0  0  0  0
  -51.2087   58.2021   62.4131 C   0  0  0  0  0  0  0  0  0  0  0  0
  -50.1399   58.2515   61.3381 C   0  0  0  0  0  0  0  0  0  0  0  0
  -50.4664   57.4045   60.1252 C   0  0  0  0  0  0  0  0  0  0  0  0
  -49.3508   57.3654   59.0901 C   0  0  0  0  0  0  0  0  0  0  0  0
  -48.3904   56.2042   59.2753 C   0  0  0  0  0  0  0  0  0  0  0  0
  -46.6754   57.6842   58.1779 C   0  0  0  0  0  0  0  0  0  0  0  0
  -47.1452   56.2662   58.4111 C   0  0  0  0  0  0  0  0  0  0  0  0
  -38.5852   57.6995   62.0960 C   0  0  0  0  0  0  0  0  0  0  0  0
  -39.1065   58.7166   61.2115 O   0  0  0  0  0  0  0  0  0  0  0  0
  -38.2454   59.3585   60.0248 P   0  0  0  0  0  0  0  0  0  0  0  0
  -39.1333   59.5282   58.8546 O   0  0  0  0  0  0  0  0  0  0  0  0
  -37.5363   60.5461   60.5593 O   0  0  0  0  0  0  0  0  0  0  0  0
  -38.1827   61.2308   60.7921 H   0  0  0  0  0  0  0  0  0  0  0  0
  -37.1506   58.2596   59.6552 O   0  0  0  0  0  0  0  0  0  0  0  0
  -36.8707   57.9563   58.2733 C   0  0  0  0  0  0  0  0  0  0  0  0
  -34.9505   56.6321   57.7233 O   0  0  0  0  0  0  0  0  0  0  0  0
  -36.2980   56.5621   58.1989 C   0  0  0  0  0  0  0  0  0  0  0  0
  -34.9326   57.0912   56.8690 H   0  0  0  0  0  0  0  0  0  0  0  0
  -35.8230   54.5322   59.4122 O   0  0  0  0  0  0  0  0  0  0  0  0
  -36.3447   55.8497   59.5293 C   0  0  0  0  0  0  0  0  0  0  0  0
  -35.8612   54.0914   60.2754 H   0  0  0  0  0  0  0  0  0  0  0  0
  -36.8692   57.9356   63.8435 O   0  0  0  0  0  0  0  0  0  0  0  0
  -35.6397   59.1279   62.3850 O   0  0  0  0  0  0  0  0  0  0  0  0
  -35.8446   58.7409   63.5031 C   0  0  0  0  0  0  0  0  0  0  0  0
  -35.0044   59.1096   64.6863 C   0  0  0  0  0  0  0  0  0  0  0  0
  -34.9745   60.6194   64.9019 C   0  0  0  0  0  0  0  0  0  0  0  0
  -36.3511   61.2525   65.0200 C   0  0  0  0  0  0  0  0  0  0  0  0
  -36.6535   62.2642   63.9206 C   0  0  0  0  0  0  0  0  0  0  0  0
  -36.1720   63.6703   64.2266 C   0  0  0  0  0  0  0  0  0  0  0  0
  -36.0500   63.9907   65.7190 C   0  0  0  0  0  0  0  0  0  0  0  0
  -34.6795   64.5044   66.1653 C   0  0  0  0  0  0  0  0  0  0  0  0
  -34.0051   65.3142   65.0988 C   0  0  0  0  0  0  0  0  0  0  0  0
  -32.7421   65.2318   64.7281 C   0  0  0  0  0  0  0  0  0  0  0  0
  -31.7136   64.3061   65.2972 C   0  0  0  0  0  0  0  0  0  0  0  0
  -31.2667   63.2456   64.2953 C   0  0  0  0  0  0  0  0  0  0  0  0
  -32.3603   62.8175   63.3324 C   0  0  0  0  0  0  0  0  0  0  0  0
  -31.8421   62.0783   62.1107 C   0  0  0  0  0  0  0  0  0  0  0  0
  -30.5601   61.2965   62.3447 C   0  0  0  0  0  0  0  0  0  0  0  0
  -30.7330   59.7923   62.1996 C   0  0  0  0  0  0  0  0  0  0  0  0
  -32.1766   59.3371   62.1175 C   0  0  0  0  0  0  0  0  0  0  0  0
  -32.3176   57.8411   62.1542 C   0  0  0  0  0  0  0  0  0  0  0  0
 21 22  1  0  0  0
  4  5  2  0  0  0
 25 24  1  0  0  0
 25 26  2  0  0  0
 25 27  1  0  0  0
 25 29  1  0  0  0
 22 20  1  0  0  0
  3  5  1  0  0  0
  3  2  1  0  0  0
 20 19  1  0  0  0
 24 23  1  0  0  0
 19 18  1  0  0  0
 18 17  1  0  0  0
 27 28  1  0  0  0
 17 16  1  0  0  0
 29 30  1  0  0  0
 16 15  1  0  0  0
 34 35  1  0  0  0
 34 36  1  0  0  0
 15 14  1  0  0  0
 31 32  1  0  0  0
 31 33  1  0  0  0
 14 13  1  0  0  0
 37  1  1  0  0  0
 37 39  1  0  0  0
 13 12  1  0  0  0
 38 39  2  0  0  0
 12 11  1  0  0  0
 11 10  1  0  0  0
 10  9  1  0  0  0
  9  8  1  0  0  0
  8  7  1  0  0  0
  7  6  1  0  0  0
  6  5  1  0  0  0
  2  1  1  0  0  0
  1 23  1  0  0  0
 30 32  1  0  0  0
 32 35  1  0  0  0
 39 40  1  0  0  0
 40 41  1  0  0  0
 41 42  1  0  0  0
 42 43  1  0  0  0
 43 44  1  0  0  0
 44 45  1  0  0  0
 45 46  1  0  0  0
 46 47  1  0  0  0
 47 48  2  0  0  0
 48 49  1  0  0  0
 49 50  1  0  0  0
 50 51  1  0  0  0
 51 52  1  0  0  0
 52 53  1  0  0  0
 53 54  1  0  0  0
 54 55  1  0  0  0
 55 56  1  0  0  0
M  CHG 1  26  -1
M  END
> <minimizedAffinity>
-8.53663

> <CNNscore>
0.5261399746

> <CNNaffinity>
7.2199006081

> <CNN_VS>
3.7986783981

> <CNNaffinity_variance>
0.5378421545

$$$$
/media/chris/experiments/cd1a-new-docking/inputs/ligands/7sh4_ligand.pdb


 56 55  0  0  0  0  0  0  0  0999 V2000
  -39.5170   59.9508   63.7879 C   0  0  0  0  0  0  0  0  0  0  0  0
  -39.3639   58.6798   63.0012 C   0  0  0  0  0  0  0  0  0  0  0  0
  -38.2771   58.9596   62.0937 O   0  0  0  0  0  0  0  0  0  0  0  0
  -36.6508   57.5490   62.6974 O   0  0  0  0  0  0  0  0  0  0  0  0
  -37.4095   57.9727   61.8676 C   0  0  0  0  0  0  0  0  0  0  0  0
  -37.5963   57.3893   60.4967 C   0  0  0  0  0  0  0  0  0  0  0  0
  -37.4147   58.3887   59.3669 C   0  0  0  0  0  0  0  0  0  0  0  0
  -37.1578   57.7233   58.0312 C   0  0  0  0  0  0  0  0  0  0  0  0
  -36.1816   56.5703   58.0914 C   0  0  0  0  0  0  0  0  0  0  0  0
  -34.7384   57.0063   57.9391 C   0  0  0  0  0  0  0  0  0  0  0  0
  -33.7609   56.0657   58.6003 C   0  0  0  0  0  0  0  0  0  0  0  0
  -33.9253   56.0021   60.0959 C   0  0  0  0  0  0  0  0  0  0  0  0
  -33.8094   57.3512   60.7704 C   0  0  0  0  0  0  0  0  0  0  0  0
  -33.0647   57.2845   62.0884 C   0  0  0  0  0  0  0  0  0  0  0  0
  -32.6532   58.6355   62.6348 C   0  0  0  0  0  0  0  0  0  0  0  0
  -31.6641   59.3833   61.7479 C   0  0  0  0  0  0  0  0  0  0  0  0
  -30.9570   60.5302   62.4443 C   0  0  0  0  0  0  0  0  0  0  0  0
  -30.0806   61.3484   61.5181 C   0  0  0  0  0  0  0  0  0  0  0  0
  -30.1299   62.8445   61.7950 C   0  0  0  0  0  0  0  0  0  0  0  0
  -30.9114   63.2056   63.0456 C   0  0  0  0  0  0  0  0  0  0  0  0
  -33.1653   63.5468   61.9783 C   0  0  0  0  0  0  0  0  0  0  0  0
  -32.0679   64.1604   62.8179 C   0  0  0  0  0  0  0  0  0  0  0  0
  -38.5286   60.0369   64.9225 C   0  0  0  0  0  0  0  0  0  0  0  0
  -37.7353   61.2336   64.7585 O   0  0  0  0  0  0  0  0  0  0  0  0
  -36.2935   61.2300   64.0635 P   0  0  0  0  0  0  0  0  0  0  0  0
  -35.5263   60.0884   64.6062 O   0  0  0  0  0  0  0  0  0  0  0  0
  -36.4881   61.3244   62.5965 O   0  0  0  0  0  0  0  0  0  0  0  0
  -36.9181   60.5166   62.2748 H   0  0  0  0  0  0  0  0  0  0  0  0
  -35.5862   62.5734   64.5511 O   0  0  0  0  0  0  0  0  0  0  0  0
  -36.3009   63.5002   65.3938 C   0  0  0  0  0  0  0  0  0  0  0  0
  -36.0575   63.7309   67.7666 O   0  0  0  0  0  0  0  0  0  0  0  0
  -35.3869   63.9234   66.5176 C   0  0  0  0  0  0  0  0  0  0  0  0
  -36.8964   64.2179   67.7617 H   0  0  0  0  0  0  0  0  0  0  0  0
  -34.2627   61.8347   66.9550 O   0  0  0  0  0  0  0  0  0  0  0  0
  -34.0776   63.1716   66.5078 C   0  0  0  0  0  0  0  0  0  0  0  0
  -33.4121   61.3686   66.9416 H   0  0  0  0  0  0  0  0  0  0  0  0
  -40.9003   60.0331   64.2672 O   0  0  0  0  0  0  0  0  0  0  0  0
  -40.8112   61.1446   66.2208 O   0  0  0  0  0  0  0  0  0  0  0  0
  -41.0796   60.1547   65.5966 C   0  0  0  0  0  0  0  0  0  0  0  0
  -41.6696   58.9169   66.1981 C   0  0  0  0  0  0  0  0  0  0  0  0
  -42.8106   59.2493   67.1543 C   0  0  0  0  0  0  0  0  0  0  0  0
  -44.1506   58.6625   66.7426 C   0  0  0  0  0  0  0  0  0  0  0  0
  -44.5565   59.0114   65.3152 C   0  0  0  0  0  0  0  0  0  0  0  0
  -46.0412   59.2726   65.1423 C   0  0  0  0  0  0  0  0  0  0  0  0
  -46.8589   59.1775   66.4335 C   0  0  0  0  0  0  0  0  0  0  0  0
  -48.3559   59.4540   66.2786 C   0  0  0  0  0  0  0  0  0  0  0  0
  -49.1032   58.2540   65.7791 C   0  0  0  0  0  0  0  0  0  0  0  0
  -50.2140   58.2581   65.0680 C   0  0  0  0  0  0  0  0  0  0  0  0
  -50.9629   59.4686   64.6076 C   0  0  0  0  0  0  0  0  0  0  0  0
  -51.0178   59.5757   63.0864 C   0  0  0  0  0  0  0  0  0  0  0  0
  -49.7033   59.2401   62.4040 C   0  0  0  0  0  0  0  0  0  0  0  0
  -49.8703   58.6649   61.0081 C   0  0  0  0  0  0  0  0  0  0  0  0
  -49.8473   57.1466   60.9458 C   0  0  0  0  0  0  0  0  0  0  0  0
  -48.8829   56.5976   59.9055 C   0  0  0  0  0  0  0  0  0  0  0  0
  -48.1931   57.6611   59.0743 C   0  0  0  0  0  0  0  0  0  0  0  0
  -46.7564   57.3297   58.7822 C   0  0  0  0  0  0  0  0  0  0  0  0
 21 22  1  0  0  0
  4  5  2  0  0  0
 25 24  1  0  0  0
 25 26  2  0  0  0
 25 27  1  0  0  0
 25 29  1  0  0  0
 22 20  1  0  0  0
  3  5  1  0  0  0
  3  2  1  0  0  0
 20 19  1  0  0  0
 24 23  1  0  0  0
 19 18  1  0  0  0
 18 17  1  0  0  0
 27 28  1  0  0  0
 17 16  1  0  0  0
 29 30  1  0  0  0
 16 15  1  0  0  0
 34 35  1  0  0  0
 34 36  1  0  0  0
 15 14  1  0  0  0
 31 32  1  0  0  0
 31 33  1  0  0  0
 14 13  1  0  0  0
 37  1  1  0  0  0
 37 39  1  0  0  0
 13 12  1  0  0  0
 38 39  2  0  0  0
 12 11  1  0  0  0
 11 10  1  0  0  0
 10  9  1  0  0  0
  9  8  1  0  0  0
  8  7  1  0  0  0
  7  6  1  0  0  0
  6  5  1  0  0  0
  2  1  1  0  0  0
  1 23  1  0  0  0
 30 32  1  0  0  0
 32 35  1  0  0  0
 39 40  1  0  0  0
 40 41  1  0  0  0
 41 42  1  0  0  0
 42 43  1  0  0  0
 43 44  1  0  0  0
 44 45  1  0  0  0
 45 46  1  0  0  0
 46 47  1  0  0  0
 47 48  2  0  0  0
 48 49  1  0  0  0
 49 50  1  0  0  0
 50 51  1  0  0  0
 51 52  1  0  0  0
 52 53  1  0  0  0
 53 54  1  0  0  0
 54 55  1  0  0  0
 55 56  1  0  0  0
M  CHG 1  26  -1
M  END
> <minimizedAffinity>
-8.66415

> <CNNscore>
0.5070210695

> <CNNaffinity>
7.0776185989

> <CNN_VS>
3.5885016918

> <CNNaffinity_variance>
0.6287741661

$$$$
/media/chris/experiments/cd1a-new-docking/inputs/ligands/7sh4_ligand.pdb


 56 55  0  0  0  0  0  0  0  0999 V2000
  -33.1529   64.6163   65.0252 C   0  0  0  0  0  0  0  0  0  0  0  0
  -34.3963   64.7001   65.8647 C   0  0  0  0  0  0  0  0  0  0  0  0
  -34.5465   63.3682   66.4002 O   0  0  0  0  0  0  0  0  0  0  0  0
  -36.7528   63.5052   66.7358 O   0  0  0  0  0  0  0  0  0  0  0  0
  -35.7812   62.8662   66.4334 C   0  0  0  0  0  0  0  0  0  0  0  0
  -35.8061   61.4526   65.9274 C   0  0  0  0  0  0  0  0  0  0  0  0
  -36.9978   61.1315   65.0414 C   0  0  0  0  0  0  0  0  0  0  0  0
  -38.0408   60.2886   65.7446 C   0  0  0  0  0  0  0  0  0  0  0  0
  -39.3314   60.1296   64.9732 C   0  0  0  0  0  0  0  0  0  0  0  0
  -40.0615   58.8420   65.2973 C   0  0  0  0  0  0  0  0  0  0  0  0
  -41.4047   59.0682   65.9471 C   0  0  0  0  0  0  0  0  0  0  0  0
  -42.3362   57.8946   65.7964 C   0  0  0  0  0  0  0  0  0  0  0  0
  -43.7307   58.1643   66.3170 C   0  0  0  0  0  0  0  0  0  0  0  0
  -44.7792   57.2870   65.6636 C   0  0  0  0  0  0  0  0  0  0  0  0
  -45.8171   58.0517   64.8692 C   0  0  0  0  0  0  0  0  0  0  0  0
  -46.3011   59.3253   65.5533 C   0  0  0  0  0  0  0  0  0  0  0  0
  -47.6548   59.1885   66.2235 C   0  0  0  0  0  0  0  0  0  0  0  0
  -48.4565   58.0038   65.7245 C   0  0  0  0  0  0  0  0  0  0  0  0
  -49.8205   58.3825   65.1643 C   0  0  0  0  0  0  0  0  0  0  0  0
  -49.7563   59.4204   64.0581 C   0  0  0  0  0  0  0  0  0  0  0  0
  -51.1109   58.2783   62.2703 C   0  0  0  0  0  0  0  0  0  0  0  0
  -50.9878   59.4836   63.1746 C   0  0  0  0  0  0  0  0  0  0  0  0
  -32.2075   65.7580   65.2982 C   0  0  0  0  0  0  0  0  0  0  0  0
  -32.9414   67.0001   65.2132 O   0  0  0  0  0  0  0  0  0  0  0  0
  -32.5802   68.1507   64.1608 P   0  0  0  0  0  0  0  0  0  0  0  0
  -31.5440   67.6256   63.2458 O   0  0  0  0  0  0  0  0  0  0  0  0
  -33.8466   68.6627   63.5840 O   0  0  0  0  0  0  0  0  0  0  0  0
  -34.2648   67.9667   63.0533 H   0  0  0  0  0  0  0  0  0  0  0  0
  -31.9261   69.3217   65.0232 O   0  0  0  0  0  0  0  0  0  0  0  0
  -32.0995   70.6962   64.6224 C   0  0  0  0  0  0  0  0  0  0  0  0
  -30.8359   72.3650   65.7890 O   0  0  0  0  0  0  0  0  0  0  0  0
  -30.7680   71.3969   64.7378 C   0  0  0  0  0  0  0  0  0  0  0  0
  -31.5685   72.9773   65.6180 H   0  0  0  0  0  0  0  0  0  0  0  0
  -29.3048   69.7237   63.8010 O   0  0  0  0  0  0  0  0  0  0  0  0
  -29.6318   70.4346   64.9881 C   0  0  0  0  0  0  0  0  0  0  0  0
  -28.5742   69.1118   63.9815 H   0  0  0  0  0  0  0  0  0  0  0  0
  -33.5507   64.5679   63.6148 O   0  0  0  0  0  0  0  0  0  0  0  0
  -33.9072   62.4649   62.9005 O   0  0  0  0  0  0  0  0  0  0  0  0
  -33.2288   63.4552   62.9274 C   0  0  0  0  0  0  0  0  0  0  0  0
  -31.9359   63.6077   62.1879 C   0  0  0  0  0  0  0  0  0  0  0  0
  -30.9429   62.5135   62.5669 C   0  0  0  0  0  0  0  0  0  0  0  0
  -30.6790   61.5094   61.4570 C   0  0  0  0  0  0  0  0  0  0  0  0
  -30.6857   60.0605   61.9311 C   0  0  0  0  0  0  0  0  0  0  0  0
  -32.0459   59.5674   62.3885 C   0  0  0  0  0  0  0  0  0  0  0  0
  -32.2840   58.0695   62.1776 C   0  0  0  0  0  0  0  0  0  0  0  0
  -33.2802   57.7176   61.0707 C   0  0  0  0  0  0  0  0  0  0  0  0
  -33.6972   56.2784   61.1228 C   0  0  0  0  0  0  0  0  0  0  0  0
  -34.4292   55.6380   60.2319 C   0  0  0  0  0  0  0  0  0  0  0  0
  -34.9976   56.2179   58.9753 C   0  0  0  0  0  0  0  0  0  0  0  0
  -36.4758   56.5705   59.1134 C   0  0  0  0  0  0  0  0  0  0  0  0
  -37.0370   56.3118   60.5007 C   0  0  0  0  0  0  0  0  0  0  0  0
  -37.9637   57.4080   60.9978 C   0  0  0  0  0  0  0  0  0  0  0  0
  -37.8772   57.6764   62.4911 C   0  0  0  0  0  0  0  0  0  0  0  0
  -36.5137   58.1815   62.9378 C   0  0  0  0  0  0  0  0  0  0  0  0
  -35.9067   57.4004   64.0863 C   0  0  0  0  0  0  0  0  0  0  0  0
  -34.7068   58.0815   64.6827 C   0  0  0  0  0  0  0  0  0  0  0  0
 21 22  1  0  0  0
  4  5  2  0  0  0
 25 24  1  0  0  0
 25 26  2  0  0  0
 25 27  1  0  0  0
 25 29  1  0  0  0
 22 20  1  0  0  0
  3  5  1  0  0  0
  3  2  1  0  0  0
 20 19  1  0  0  0
 24 23  1  0  0  0
 19 18  1  0  0  0
 18 17  1  0  0  0
 27 28  1  0  0  0
 17 16  1  0  0  0
 29 30  1  0  0  0
 16 15  1  0  0  0
 34 35  1  0  0  0
 34 36  1  0  0  0
 15 14  1  0  0  0
 31 32  1  0  0  0
 31 33  1  0  0  0
 14 13  1  0  0  0
 37  1  1  0  0  0
 37 39  1  0  0  0
 13 12  1  0  0  0
 38 39  2  0  0  0
 12 11  1  0  0  0
 11 10  1  0  0  0
 10  9  1  0  0  0
  9  8  1  0  0  0
  8  7  1  0  0  0
  7  6  1  0  0  0
  6  5  1  0  0  0
  2  1  1  0  0  0
  1 23  1  0  0  0
 30 32  1  0  0  0
 32 35  1  0  0  0
 39 40  1  0  0  0
 40 41  1  0  0  0
 41 42  1  0  0  0
 42 43  1  0  0  0
 43 44  1  0  0  0
 44 45  1  0  0  0
 45 46  1  0  0  0
 46 47  1  0  0  0
 47 48  2  0  0  0
 48 49  1  0  0  0
 49 50  1  0  0  0
 50 51  1  0  0  0
 51 52  1  0  0  0
 52 53  1  0  0  0
 53 54  1  0  0  0
 54 55  1  0  0  0
 55 56  1  0  0  0
M  CHG 1  26  -1
M  END
> <minimizedAffinity>
-7.78889

> <CNNscore>
0.4427802265

> <CNNaffinity>
6.9768157005

> <CNN_VS>
3.0891959667

> <CNNaffinity_variance>
0.5763470531

$$$$
