/media/chris/experiments/cd1a-new-docking/inputs/ligands/4x6c_ligand.pdb
 OpenBabel07012320263D

 88 87  0  0  1  0  0  0  0  0999 V2000
  -40.9970   59.2949   73.1720 N   0  0  0  0  0  4  0  0  0  0  0  0
  -42.3321   63.8404   66.8439 C   0  0  1  0  0  0  0  0  0  0  0  0
  -42.8145   65.0965   66.3669 O   0  0  0  0  0  0  0  0  0  0  0  0
  -40.7775   62.1436   68.8598 P   0  0  2  0  0  0  0  0  0  0  0  0
  -42.8449   63.6365   68.2489 C   0  0  0  0  0  0  0  0  0  0  0  0
  -42.3463   62.3763   68.7410 O   0  0  0  0  0  0  0  0  0  0  0  0
  -41.0336   60.5510   70.9298 C   0  0  0  0  0  0  0  0  0  0  0  0
  -40.4443   60.9917   67.9975 O   0  5  0  0  0  0  0  0  0  0  0  0
  -40.5317   60.4834   72.3542 C   0  0  0  0  0  0  0  0  0  0  0  0
  -40.4481   61.7451   70.3597 O   0  0  0  0  0  0  0  0  0  0  0  0
  -42.4883   59.2589   73.2702 C   0  0  0  0  0  0  0  0  0  0  0  0
  -40.1316   63.4456   68.6022 O   0  0  0  0  0  0  0  0  0  0  0  0
  -40.4294   59.3844   74.5523 C   0  0  0  0  0  0  0  0  0  0  0  0
  -42.2078   61.5072   66.4029 O   0  0  0  0  0  0  0  0  0  0  0  0
  -40.5292   58.0283   72.5268 C   0  0  0  0  0  0  0  0  0  0  0  0
  -40.0293   61.9106   66.6489 O   0  0  0  0  0  0  0  0  0  0  0  0
  -42.7041   62.7523   65.8631 C   0  0  0  0  0  0  0  0  0  0  0  0
  -40.9154   61.2318   66.2282 C   0  0  0  0  0  0  0  0  0  0  0  0
  -40.7200   59.9800   65.4370 C   0  0  0  0  0  0  0  0  0  0  0  0
  -42.0280   59.3300   65.0270 C   0  0  0  0  0  0  0  0  0  0  0  0
  -42.8960   58.9560   66.2090 C   0  0  0  0  0  0  0  0  0  0  0  0
  -42.2531   57.9915   67.1776 C   0  0  0  0  0  0  0  0  0  0  0  0
  -43.1355   57.6153   68.3405 C   0  0  0  0  0  0  0  0  0  0  0  0
  -42.4571   56.6674   69.2927 C   0  0  0  0  0  0  0  0  0  0  0  0
  -42.0133   55.3641   68.6971 C   0  0  0  0  0  0  0  0  0  0  0  0
  -41.3719   54.4674   69.6695 C   0  0  0  0  0  0  0  0  0  0  0  0
  -40.0958   54.3862   69.9756 C   0  0  0  0  0  0  0  0  0  0  0  0
  -38.9736   55.1945   69.4356 C   0  0  0  0  0  0  0  0  0  0  0  0
  -37.8149   55.4200   70.3853 C   0  0  0  0  0  0  0  0  0  0  0  0
  -36.7227   56.2590   69.7809 C   0  0  0  0  0  0  0  0  0  0  0  0
  -37.1476   57.6462   69.3722 C   0  0  0  0  0  0  0  0  0  0  0  0
  -37.6532   58.4668   70.5382 C   0  0  0  0  0  0  0  0  0  0  0  0
  -36.6510   58.6925   71.6356 C   0  0  0  0  0  0  0  0  0  0  0  0
  -35.4474   59.4180   71.1836 C   0  0  0  0  0  0  0  0  0  0  0  0
  -35.7363   60.7515   70.6597 C   0  0  0  0  0  0  0  0  0  0  0  0
  -41.2642   63.8117   66.9044 H   0  0  0  0  0  0  0  0  0  0  0  0
  -43.7835   65.0773   66.3283 H   0  0  0  0  0  0  0  0  0  0  0  0
  -43.9148   63.6240   68.2441 H   0  0  0  0  0  0  0  0  0  0  0  0
  -42.5110   64.4337   68.8797 H   0  0  0  0  0  0  0  0  0  0  0  0
  -42.1015   60.6161   70.9140 H   0  0  0  0  0  0  0  0  0  0  0  0
  -40.7620   59.6770   70.3755 H   0  0  0  0  0  0  0  0  0  0  0  0
  -39.4625   60.4595   72.3228 H   0  0  0  0  0  0  0  0  0  0  0  0
  -40.9390   61.3440   72.8425 H   0  0  0  0  0  0  0  0  0  0  0  0
  -42.8373   60.1597   73.7304 H   0  0  0  0  0  0  0  0  0  0  0  0
  -42.7867   58.4180   73.8608 H   0  0  0  0  0  0  0  0  0  0  0  0
  -42.9084   59.1733   72.2899 H   0  0  0  0  0  0  0  0  0  0  0  0
  -40.3127   63.7216   67.6901 H   0  0  0  0  0  0  0  0  0  0  0  0
  -40.7620   60.2892   75.0167 H   0  0  0  0  0  0  0  0  0  0  0  0
  -39.3607   59.3827   74.4992 H   0  0  0  0  0  0  0  0  0  0  0  0
  -40.7592   58.5455   75.1287 H   0  0  0  0  0  0  0  0  0  0  0  0
  -40.9337   57.9610   71.5385 H   0  0  0  0  0  0  0  0  0  0  0  0
  -40.8589   57.1906   73.1050 H   0  0  0  0  0  0  0  0  0  0  0  0
  -39.4604   58.0278   72.4755 H   0  0  0  0  0  0  0  0  0  0  0  0
  -42.2537   62.9456   64.9120 H   0  0  0  0  0  0  0  0  0  0  0  0
  -43.7641   62.7115   65.7229 H   0  0  0  0  0  0  0  0  0  0  0  0
  -40.1644   59.2843   66.0305 H   0  0  0  0  0  0  0  0  0  0  0  0
  -40.1985   60.2448   64.5410 H   0  0  0  0  0  0  0  0  0  0  0  0
  -41.8086   58.4429   64.4703 H   0  0  0  0  0  0  0  0  0  0  0  0
  -42.5713   60.0428   64.4426 H   0  0  0  0  0  0  0  0  0  0  0  0
  -43.7930   58.5073   65.8363 H   0  0  0  0  0  0  0  0  0  0  0  0
  -43.0753   59.8597   66.7531 H   0  0  0  0  0  0  0  0  0  0  0  0
  -41.3629   58.4436   67.5625 H   0  0  0  0  0  0  0  0  0  0  0  0
  -42.0545   57.0914   66.6342 H   0  0  0  0  0  0  0  0  0  0  0  0
  -44.0208   57.1478   67.9628 H   0  0  0  0  0  0  0  0  0  0  0  0
  -43.3642   58.5109   68.8794 H   0  0  0  0  0  0  0  0  0  0  0  0
  -43.1410   56.4515   70.0867 H   0  0  0  0  0  0  0  0  0  0  0  0
  -41.5652   57.1625   69.6157 H   0  0  0  0  0  0  0  0  0  0  0  0
  -41.3149   55.5697   67.9130 H   0  0  0  0  0  0  0  0  0  0  0  0
  -42.8894   54.8661   68.3375 H   0  0  0  0  0  0  0  0  0  0  0  0
  -42.0003   53.8225   70.1737 H   0  0  0  0  0  0  0  0  0  0  0  0
  -39.8432   53.6731   70.6775 H   0  0  0  0  0  0  0  0  0  0  0  0
  -39.3616   56.1517   69.1562 H   0  0  0  0  0  0  0  0  0  0  0  0
  -38.5760   54.6336   68.6157 H   0  0  0  0  0  0  0  0  0  0  0  0
  -37.4054   54.4696   70.6572 H   0  0  0  0  0  0  0  0  0  0  0  0
  -38.1929   55.9467   71.2365 H   0  0  0  0  0  0  0  0  0  0  0  0
  -36.3558   55.7533   68.9122 H   0  0  0  0  0  0  0  0  0  0  0  0
  -35.9800   56.3820   70.5412 H   0  0  0  0  0  0  0  0  0  0  0  0
  -37.9290   57.5652   68.6457 H   0  0  0  0  0  0  0  0  0  0  0  0
  -36.2885   58.1442   68.9737 H   0  0  0  0  0  0  0  0  0  0  0  0
  -38.4979   57.9619   70.9583 H   0  0  0  0  0  0  0  0  0  0  0  0
  -37.8898   59.4332   70.1446 H   0  0  0  0  0  0  0  0  0  0  0  0
  -36.3496   57.7413   72.0220 H   0  0  0  0  0  0  0  0  0  0  0  0
  -37.1255   59.2968   72.3803 H   0  0  0  0  0  0  0  0  0  0  0  0
  -34.9758   58.8454   70.4124 H   0  0  0  0  0  0  0  0  0  0  0  0
  -34.8152   59.5442   72.0376 H   0  0  0  0  0  0  0  0  0  0  0  0
  -36.3691   60.6679   69.8009 H   0  0  0  0  0  0  0  0  0  0  0  0
  -34.8212   61.2320   70.3830 H   0  0  0  0  0  0  0  0  0  0  0  0
  -36.2302   61.3308   71.4116 H   0  0  0  0  0  0  0  0  0  0  0  0
  1  9  1  0  0  0  0
  1 11  1  0  0  0  0
  1 13  1  0  0  0  0
  1 15  1  0  0  0  0
  2  3  1  0  0  0  0
  2  5  1  0  0  0  0
  2 17  1  0  0  0  0
  2 36  1  1  0  0  0
  3 37  1  0  0  0  0
  4  6  1  0  0  0  0
  4  8  2  6  0  0  0
  4 10  1  0  0  0  0
  4 12  1  0  0  0  0
  5  6  1  0  0  0  0
  5 38  1  0  0  0  0
  5 39  1  0  0  0  0
  7  9  1  0  0  0  0
  7 10  1  0  0  0  0
  7 40  1  0  0  0  0
  7 41  1  0  0  0  0
  9 42  1  0  0  0  0
  9 43  1  0  0  0  0
 11 44  1  0  0  0  0
 11 45  1  0  0  0  0
 11 46  1  0  0  0  0
 12 47  1  0  0  0  0
 13 48  1  0  0  0  0
 13 49  1  0  0  0  0
 13 50  1  0  0  0  0
 14 17  1  0  0  0  0
 14 18  1  0  0  0  0
 15 51  1  0  0  0  0
 15 52  1  0  0  0  0
 15 53  1  0  0  0  0
 16 18  2  0  0  0  0
 17 54  1  0  0  0  0
 17 55  1  0  0  0  0
 18 19  1  0  0  0  0
 19 20  1  0  0  0  0
 19 56  1  0  0  0  0
 19 57  1  0  0  0  0
 20 21  1  0  0  0  0
 20 58  1  0  0  0  0
 20 59  1  0  0  0  0
 21 22  1  0  0  0  0
 21 60  1  0  0  0  0
 21 61  1  0  0  0  0
 22 23  1  0  0  0  0
 22 62  1  0  0  0  0
 22 63  1  0  0  0  0
 23 24  1  0  0  0  0
 23 64  1  0  0  0  0
 23 65  1  0  0  0  0
 24 25  1  0  0  0  0
 24 66  1  0  0  0  0
 24 67  1  0  0  0  0
 25 26  1  0  0  0  0
 25 68  1  0  0  0  0
 25 69  1  0  0  0  0
 26 27  2  0  0  0  0
 26 70  1  0  0  0  0
 27 28  1  0  0  0  0
 27 71  1  0  0  0  0
 28 29  1  0  0  0  0
 28 72  1  0  0  0  0
 28 73  1  0  0  0  0
 29 30  1  0  0  0  0
 29 74  1  0  0  0  0
 29 75  1  0  0  0  0
 30 31  1  0  0  0  0
 30 76  1  0  0  0  0
 30 77  1  0  0  0  0
 31 32  1  0  0  0  0
 31 78  1  0  0  0  0
 31 79  1  0  0  0  0
 32 33  1  0  0  0  0
 32 80  1  0  0  0  0
 32 81  1  0  0  0  0
 33 34  1  0  0  0  0
 33 82  1  0  0  0  0
 33 83  1  0  0  0  0
 34 35  1  0  0  0  0
 34 84  1  0  0  0  0
 34 85  1  0  0  0  0
 35 86  1  0  0  0  0
 35 87  1  0  0  0  0
 35 88  1  0  0  0  0
M  CHG  1   8  -1
M  END
$$$$
/media/chris/experiments/cd1a-new-docking/inputs/ligands/4x6c_ligand.pdb
 OpenBabel07012320263D

 88 87  0  0  1  0  0  0  0  0999 V2000
  -43.3644   64.0381   64.7391 N   0  0  0  0  0  4  0  0  0  0  0  0
  -40.0648   63.3731   68.1986 C   0  0  1  0  0  0  0  0  0  0  0  0
  -40.8922   63.1044   69.3306 O   0  0  0  0  0  0  0  0  0  0  0  0
  -41.0094   66.2376   67.7774 P   0  0  2  0  0  0  0  0  0  0  0  0
  -39.1631   64.5362   68.5339 C   0  0  0  0  0  0  0  0  0  0  0  0
  -39.9851   65.6760   68.8566 O   0  0  0  0  0  0  0  0  0  0  0  0
  -41.4081   65.6227   65.2576 C   0  0  0  0  0  0  0  0  0  0  0  0
  -42.2905   65.5340   67.9894 O   0  5  0  0  0  0  0  0  0  0  0  0
  -42.2938   64.4857   65.7143 C   0  0  0  0  0  0  0  0  0  0  0  0
  -40.4708   65.8524   66.3357 O   0  0  0  0  0  0  0  0  0  0  0  0
  -42.7601   63.5516   63.4612 C   0  0  0  0  0  0  0  0  0  0  0  0
  -40.9720   67.7098   67.8783 O   0  0  0  0  0  0  0  0  0  0  0  0
  -44.2724   65.1854   64.4318 C   0  0  0  0  0  0  0  0  0  0  0  0
  -40.3652   61.1401   67.4389 O   0  0  0  0  0  0  0  0  0  0  0  0
  -44.1614   62.9261   65.3453 C   0  0  0  0  0  0  0  0  0  0  0  0
  -41.4971   62.1961   65.8348 O   0  0  0  0  0  0  0  0  0  0  0  0
  -39.3494   62.1074   67.7856 C   0  0  0  0  0  0  0  0  0  0  0  0
  -40.9154   61.2318   66.2282 C   0  0  0  0  0  0  0  0  0  0  0  0
  -40.7200   59.9800   65.4370 C   0  0  0  0  0  0  0  0  0  0  0  0
  -42.0280   59.3300   65.0270 C   0  0  0  0  0  0  0  0  0  0  0  0
  -42.8960   58.9560   66.2090 C   0  0  0  0  0  0  0  0  0  0  0  0
  -42.2531   57.9915   67.1776 C   0  0  0  0  0  0  0  0  0  0  0  0
  -40.9882   58.5136   67.8098 C   0  0  0  0  0  0  0  0  0  0  0  0
  -41.2206   59.7695   68.6062 C   0  0  0  0  0  0  0  0  0  0  0  0
  -40.0010   60.3572   69.2522 C   0  0  0  0  0  0  0  0  0  0  0  0
  -39.3383   59.4392   70.1898 C   0  0  0  0  0  0  0  0  0  0  0  0
  -38.2648   59.6605   70.9159 C   0  0  0  0  0  0  0  0  0  0  0  0
  -37.4556   60.9029   70.9951 C   0  0  0  0  0  0  0  0  0  0  0  0
  -38.1932   62.1327   71.4836 C   0  0  0  0  0  0  0  0  0  0  0  0
  -38.7403   61.9680   72.8749 C   0  0  0  0  0  0  0  0  0  0  0  0
  -39.4977   63.1612   73.3988 C   0  0  0  0  0  0  0  0  0  0  0  0
  -40.7069   63.4989   72.5547 C   0  0  0  0  0  0  0  0  0  0  0  0
  -41.7408   62.4113   72.4656 C   0  0  0  0  0  0  0  0  0  0  0  0
  -42.8953   62.7744   71.6202 C   0  0  0  0  0  0  0  0  0  0  0  0
  -43.6042   63.9646   72.0864 C   0  0  0  0  0  0  0  0  0  0  0  0
  -40.6327   63.6679   67.3410 H   0  0  0  0  0  0  0  0  0  0  0  0
  -40.3374   62.8418   70.0816 H   0  0  0  0  0  0  0  0  0  0  0  0
  -38.5425   64.7656   67.6929 H   0  0  0  0  0  0  0  0  0  0  0  0
  -38.5391   64.2874   69.3668 H   0  0  0  0  0  0  0  0  0  0  0  0
  -41.9925   66.5011   65.0789 H   0  0  0  0  0  0  0  0  0  0  0  0
  -40.9052   65.3862   64.3433 H   0  0  0  0  0  0  0  0  0  0  0  0
  -41.6653   63.6440   65.9182 H   0  0  0  0  0  0  0  0  0  0  0  0
  -42.8212   64.8585   66.5674 H   0  0  0  0  0  0  0  0  0  0  0  0
  -42.1865   64.3376   63.0160 H   0  0  0  0  0  0  0  0  0  0  0  0
  -43.5379   63.2534   62.7896 H   0  0  0  0  0  0  0  0  0  0  0  0
  -42.1234   62.7158   63.6632 H   0  0  0  0  0  0  0  0  0  0  0  0
  -41.2960   67.9825   68.7510 H   0  0  0  0  0  0  0  0  0  0  0  0
  -43.7056   65.9826   63.9981 H   0  0  0  0  0  0  0  0  0  0  0  0
  -44.7343   65.5264   65.3347 H   0  0  0  0  0  0  0  0  0  0  0  0
  -45.0271   64.8684   63.7428 H   0  0  0  0  0  0  0  0  0  0  0  0
  -43.5145   62.1030   65.5665 H   0  0  0  0  0  0  0  0  0  0  0  0
  -44.9163   62.6110   64.6555 H   0  0  0  0  0  0  0  0  0  0  0  0
  -44.6235   63.2691   66.2474 H   0  0  0  0  0  0  0  0  0  0  0  0
  -38.7545   61.7407   68.5959 H   0  0  0  0  0  0  0  0  0  0  0  0
  -38.6985   62.2906   66.9563 H   0  0  0  0  0  0  0  0  0  0  0  0
  -40.1644   59.2843   66.0305 H   0  0  0  0  0  0  0  0  0  0  0  0
  -40.1985   60.2448   64.5410 H   0  0  0  0  0  0  0  0  0  0  0  0
  -41.8086   58.4429   64.4703 H   0  0  0  0  0  0  0  0  0  0  0  0
  -42.5713   60.0428   64.4426 H   0  0  0  0  0  0  0  0  0  0  0  0
  -43.7930   58.5073   65.8363 H   0  0  0  0  0  0  0  0  0  0  0  0
  -43.0753   59.8597   66.7531 H   0  0  0  0  0  0  0  0  0  0  0  0
  -42.0192   57.0902   66.6505 H   0  0  0  0  0  0  0  0  0  0  0  0
  -42.9543   57.8333   67.9702 H   0  0  0  0  0  0  0  0  0  0  0  0
  -40.2789   58.7234   67.0366 H   0  0  0  0  0  0  0  0  0  0  0  0
  -40.6258   57.7638   68.4816 H   0  0  0  0  0  0  0  0  0  0  0  0
  -41.9270   59.5449   69.3779 H   0  0  0  0  0  0  0  0  0  0  0  0
  -41.5656   60.5021   67.9069 H   0  0  0  0  0  0  0  0  0  0  0  0
  -40.2911   61.2374   69.7870 H   0  0  0  0  0  0  0  0  0  0  0  0
  -39.3014   60.5713   68.4714 H   0  0  0  0  0  0  0  0  0  0  0  0
  -39.7685   58.5065   70.2904 H   0  0  0  0  0  0  0  0  0  0  0  0
  -37.9454   58.8742   71.5029 H   0  0  0  0  0  0  0  0  0  0  0  0
  -37.0774   61.1126   70.0164 H   0  0  0  0  0  0  0  0  0  0  0  0
  -36.6931   60.7105   71.7207 H   0  0  0  0  0  0  0  0  0  0  0  0
  -39.0066   62.3311   70.8174 H   0  0  0  0  0  0  0  0  0  0  0  0
  -37.4930   62.9415   71.5057 H   0  0  0  0  0  0  0  0  0  0  0  0
  -37.9201   61.7776   73.5352 H   0  0  0  0  0  0  0  0  0  0  0  0
  -39.4410   61.1606   72.8306 H   0  0  0  0  0  0  0  0  0  0  0  0
  -38.8411   64.0059   73.4104 H   0  0  0  0  0  0  0  0  0  0  0  0
  -39.8457   62.9184   74.3811 H   0  0  0  0  0  0  0  0  0  0  0  0
  -40.3693   63.7185   71.5634 H   0  0  0  0  0  0  0  0  0  0  0  0
  -41.1845   64.3283   73.0332 H   0  0  0  0  0  0  0  0  0  0  0  0
  -42.0956   62.1977   73.4522 H   0  0  0  0  0  0  0  0  0  0  0  0
  -41.2711   61.5622   72.0147 H   0  0  0  0  0  0  0  0  0  0  0  0
  -43.5808   61.9530   71.6113 H   0  0  0  0  0  0  0  0  0  0  0  0
  -42.5155   62.9948   70.6445 H   0  0  0  0  0  0  0  0  0  0  0  0
  -44.0007   63.7837   73.0636 H   0  0  0  0  0  0  0  0  0  0  0  0
  -44.4045   64.1897   71.4128 H   0  0  0  0  0  0  0  0  0  0  0  0
  -42.9263   64.7916   72.1240 H   0  0  0  0  0  0  0  0  0  0  0  0
  1  9  1  0  0  0  0
  1 11  1  0  0  0  0
  1 13  1  0  0  0  0
  1 15  1  0  0  0  0
  2  3  1  0  0  0  0
  2  5  1  0  0  0  0
  2 17  1  0  0  0  0
  2 36  1  6  0  0  0
  3 37  1  0  0  0  0
  4  6  1  0  0  0  0
  4  8  2  1  0  0  0
  4 10  1  0  0  0  0
  4 12  1  0  0  0  0
  5  6  1  0  0  0  0
  5 38  1  0  0  0  0
  5 39  1  0  0  0  0
  7  9  1  0  0  0  0
  7 10  1  0  0  0  0
  7 40  1  0  0  0  0
  7 41  1  0  0  0  0
  9 42  1  0  0  0  0
  9 43  1  0  0  0  0
 11 44  1  0  0  0  0
 11 45  1  0  0  0  0
 11 46  1  0  0  0  0
 12 47  1  0  0  0  0
 13 48  1  0  0  0  0
 13 49  1  0  0  0  0
 13 50  1  0  0  0  0
 14 17  1  0  0  0  0
 14 18  1  0  0  0  0
 15 51  1  0  0  0  0
 15 52  1  0  0  0  0
 15 53  1  0  0  0  0
 16 18  2  0  0  0  0
 17 54  1  0  0  0  0
 17 55  1  0  0  0  0
 18 19  1  0  0  0  0
 19 20  1  0  0  0  0
 19 56  1  0  0  0  0
 19 57  1  0  0  0  0
 20 21  1  0  0  0  0
 20 58  1  0  0  0  0
 20 59  1  0  0  0  0
 21 22  1  0  0  0  0
 21 60  1  0  0  0  0
 21 61  1  0  0  0  0
 22 23  1  0  0  0  0
 22 62  1  0  0  0  0
 22 63  1  0  0  0  0
 23 24  1  0  0  0  0
 23 64  1  0  0  0  0
 23 65  1  0  0  0  0
 24 25  1  0  0  0  0
 24 66  1  0  0  0  0
 24 67  1  0  0  0  0
 25 26  1  0  0  0  0
 25 68  1  0  0  0  0
 25 69  1  0  0  0  0
 26 27  2  0  0  0  0
 26 70  1  0  0  0  0
 27 28  1  0  0  0  0
 27 71  1  0  0  0  0
 28 29  1  0  0  0  0
 28 72  1  0  0  0  0
 28 73  1  0  0  0  0
 29 30  1  0  0  0  0
 29 74  1  0  0  0  0
 29 75  1  0  0  0  0
 30 31  1  0  0  0  0
 30 76  1  0  0  0  0
 30 77  1  0  0  0  0
 31 32  1  0  0  0  0
 31 78  1  0  0  0  0
 31 79  1  0  0  0  0
 32 33  1  0  0  0  0
 32 80  1  0  0  0  0
 32 81  1  0  0  0  0
 33 34  1  0  0  0  0
 33 82  1  0  0  0  0
 33 83  1  0  0  0  0
 34 35  1  0  0  0  0
 34 84  1  0  0  0  0
 34 85  1  0  0  0  0
 35 86  1  0  0  0  0
 35 87  1  0  0  0  0
 35 88  1  0  0  0  0
M  CHG  1   8  -1
M  END
$$$$
/media/chris/experiments/cd1a-new-docking/inputs/ligands/4x6c_ligand.pdb
 OpenBabel07012320263D

 88 87  0  0  1  0  0  0  0  0999 V2000
  -43.2597   63.2785   65.3701 N   0  0  0  0  0  4  0  0  0  0  0  0
  -38.5413   58.6255   68.7551 C   0  0  1  0  0  0  0  0  0  0  0  0
  -37.7471   58.9302   67.6086 O   0  0  0  0  0  0  0  0  0  0  0  0
  -39.9067   62.2601   69.1752 P   0  0  2  0  0  0  0  0  0  0  0  0
  -38.7986   59.9072   69.5098 C   0  0  0  0  0  0  0  0  0  0  0  0
  -39.5132   60.8132   68.6452 O   0  0  0  0  0  0  0  0  0  0  0  0
  -41.4322   62.7288   67.0920 C   0  0  0  0  0  0  0  0  0  0  0  0
  -40.0935   62.1500   70.6361 O   0  5  0  0  0  0  0  0  0  0  0  0
  -42.8596   63.1502   66.8265 C   0  0  0  0  0  0  0  0  0  0  0  0
  -41.3001   62.6614   68.5313 O   0  0  0  0  0  0  0  0  0  0  0  0
  -42.4073   64.2829   64.6635 C   0  0  0  0  0  0  0  0  0  0  0  0
  -38.8961   63.1979   68.6479 O   0  0  0  0  0  0  0  0  0  0  0  0
  -44.6868   63.7153   65.2801 C   0  0  0  0  0  0  0  0  0  0  0  0
  -40.4958   58.7329   67.4051 O   0  0  0  0  0  0  0  0  0  0  0  0
  -43.1044   61.9551   64.6890 C   0  0  0  0  0  0  0  0  0  0  0  0
  -38.7625   58.7468   66.0033 O   0  0  0  0  0  0  0  0  0  0  0  0
  -39.7816   57.8768   68.3244 C   0  0  0  0  0  0  0  0  0  0  0  0
  -39.8694   59.0915   66.2844 C   0  0  0  0  0  0  0  0  0  0  0  0
  -40.7200   59.9800   65.4370 C   0  0  0  0  0  0  0  0  0  0  0  0
  -42.0280   59.3300   65.0270 C   0  0  0  0  0  0  0  0  0  0  0  0
  -42.8960   58.9560   66.2090 C   0  0  0  0  0  0  0  0  0  0  0  0
  -43.3110   60.1221   67.0749 C   0  0  0  0  0  0  0  0  0  0  0  0
  -44.1610   59.7323   68.2572 C   0  0  0  0  0  0  0  0  0  0  0  0
  -44.5694   60.9198   69.0870 C   0  0  0  0  0  0  0  0  0  0  0  0
  -45.4051   60.6061   70.2926 C   0  0  0  0  0  0  0  0  0  0  0  0
  -45.7917   61.7989   71.0600 C   0  0  0  0  0  0  0  0  0  0  0  0
  -46.8799   61.9832   71.7744 C   0  0  0  0  0  0  0  0  0  0  0  0
  -47.9907   61.0268   72.0106 C   0  0  0  0  0  0  0  0  0  0  0  0
  -49.1290   61.0883   71.0127 C   0  0  0  0  0  0  0  0  0  0  0  0
  -48.6864   60.7888   69.6068 C   0  0  0  0  0  0  0  0  0  0  0  0
  -48.0917   59.4175   69.4128 C   0  0  0  0  0  0  0  0  0  0  0  0
  -49.0652   58.3088   69.7469 C   0  0  0  0  0  0  0  0  0  0  0  0
  -48.5194   56.9172   69.5872 C   0  0  0  0  0  0  0  0  0  0  0  0
  -48.0630   56.6257   68.2140 C   0  0  0  0  0  0  0  0  0  0  0  0
  -49.1176   56.7605   67.2111 C   0  0  0  0  0  0  0  0  0  0  0  0
  -38.0387   57.9698   69.4350 H   0  0  0  0  0  0  0  0  0  0  0  0
  -38.2404   59.5249   67.0223 H   0  0  0  0  0  0  0  0  0  0  0  0
  -37.8679   60.3465   69.8024 H   0  0  0  0  0  0  0  0  0  0  0  0
  -39.3771   59.7056   70.3870 H   0  0  0  0  0  0  0  0  0  0  0  0
  -40.7505   63.4484   66.6888 H   0  0  0  0  0  0  0  0  0  0  0  0
  -41.2079   61.7889   66.6323 H   0  0  0  0  0  0  0  0  0  0  0  0
  -43.5035   62.4254   67.2793 H   0  0  0  0  0  0  0  0  0  0  0  0
  -42.9483   64.1349   67.2357 H   0  0  0  0  0  0  0  0  0  0  0  0
  -42.5086   65.2353   65.1404 H   0  0  0  0  0  0  0  0  0  0  0  0
  -42.7189   64.3601   63.6428 H   0  0  0  0  0  0  0  0  0  0  0  0
  -41.3841   63.9720   64.7014 H   0  0  0  0  0  0  0  0  0  0  0  0
  -38.0277   62.9814   69.0221 H   0  0  0  0  0  0  0  0  0  0  0  0
  -44.8015   64.6615   65.7662 H   0  0  0  0  0  0  0  0  0  0  0  0
  -45.3124   62.9906   65.7579 H   0  0  0  0  0  0  0  0  0  0  0  0
  -44.9677   63.8063   64.2516 H   0  0  0  0  0  0  0  0  0  0  0  0
  -42.0839   61.6394   64.7516 H   0  0  0  0  0  0  0  0  0  0  0  0
  -43.3867   62.0477   63.6611 H   0  0  0  0  0  0  0  0  0  0  0  0
  -43.7314   61.2320   65.1674 H   0  0  0  0  0  0  0  0  0  0  0  0
  -40.3936   57.6600   69.1750 H   0  0  0  0  0  0  0  0  0  0  0  0
  -39.5242   56.9483   67.8591 H   0  0  0  0  0  0  0  0  0  0  0  0
  -40.1733   60.2341   64.5530 H   0  0  0  0  0  0  0  0  0  0  0  0
  -40.9602   60.8449   66.0193 H   0  0  0  0  0  0  0  0  0  0  0  0
  -41.8086   58.4429   64.4703 H   0  0  0  0  0  0  0  0  0  0  0  0
  -42.5713   60.0428   64.4426 H   0  0  0  0  0  0  0  0  0  0  0  0
  -42.3518   58.2646   66.8179 H   0  0  0  0  0  0  0  0  0  0  0  0
  -43.7960   58.5403   65.8064 H   0  0  0  0  0  0  0  0  0  0  0  0
  -43.8675   60.8086   66.4716 H   0  0  0  0  0  0  0  0  0  0  0  0
  -42.4135   60.5536   67.4661 H   0  0  0  0  0  0  0  0  0  0  0  0
  -43.6038   59.0579   68.8734 H   0  0  0  0  0  0  0  0  0  0  0  0
  -45.0523   59.2748   67.8815 H   0  0  0  0  0  0  0  0  0  0  0  0
  -45.1291   61.5829   68.4610 H   0  0  0  0  0  0  0  0  0  0  0  0
  -43.6612   61.3446   69.4605 H   0  0  0  0  0  0  0  0  0  0  0  0
  -44.8459   59.9568   70.9334 H   0  0  0  0  0  0  0  0  0  0  0  0
  -46.3070   60.1493   69.9423 H   0  0  0  0  0  0  0  0  0  0  0  0
  -45.1275   62.5883   71.0349 H   0  0  0  0  0  0  0  0  0  0  0  0
  -46.9736   62.9062   72.2266 H   0  0  0  0  0  0  0  0  0  0  0  0
  -48.3935   61.2230   72.9823 H   0  0  0  0  0  0  0  0  0  0  0  0
  -47.5640   60.0508   71.9090 H   0  0  0  0  0  0  0  0  0  0  0  0
  -49.5519   62.0710   71.0362 H   0  0  0  0  0  0  0  0  0  0  0  0
  -49.8438   60.3427   71.2919 H   0  0  0  0  0  0  0  0  0  0  0  0
  -47.9507   61.5138   69.3274 H   0  0  0  0  0  0  0  0  0  0  0  0
  -49.5659   60.8258   68.9986 H   0  0  0  0  0  0  0  0  0  0  0  0
  -47.2343   59.3230   70.0459 H   0  0  0  0  0  0  0  0  0  0  0  0
  -47.8317   59.3201   68.3794 H   0  0  0  0  0  0  0  0  0  0  0  0
  -49.9152   58.4081   69.1045 H   0  0  0  0  0  0  0  0  0  0  0  0
  -49.3027   58.4206   70.7842 H   0  0  0  0  0  0  0  0  0  0  0  0
  -49.2878   56.2188   69.8457 H   0  0  0  0  0  0  0  0  0  0  0  0
  -47.6679   56.8339   70.2298 H   0  0  0  0  0  0  0  0  0  0  0  0
  -47.6937   55.6219   68.1852 H   0  0  0  0  0  0  0  0  0  0  0  0
  -47.3054   57.3422   67.9741 H   0  0  0  0  0  0  0  0  0  0  0  0
  -49.8976   56.0575   67.4171 H   0  0  0  0  0  0  0  0  0  0  0  0
  -48.7124   56.5690   66.2395 H   0  0  0  0  0  0  0  0  0  0  0  0
  -49.5149   57.7534   67.2425 H   0  0  0  0  0  0  0  0  0  0  0  0
  1  9  1  0  0  0  0
  1 11  1  0  0  0  0
  1 13  1  0  0  0  0
  1 15  1  0  0  0  0
  2  3  1  0  0  0  0
  2  5  1  0  0  0  0
  2 17  1  0  0  0  0
  2 36  1  1  0  0  0
  3 37  1  0  0  0  0
  4  6  1  0  0  0  0
  4  8  2  1  0  0  0
  4 10  1  0  0  0  0
  4 12  1  0  0  0  0
  5  6  1  0  0  0  0
  5 38  1  0  0  0  0
  5 39  1  0  0  0  0
  7  9  1  0  0  0  0
  7 10  1  0  0  0  0
  7 40  1  0  0  0  0
  7 41  1  0  0  0  0
  9 42  1  0  0  0  0
  9 43  1  0  0  0  0
 11 44  1  0  0  0  0
 11 45  1  0  0  0  0
 11 46  1  0  0  0  0
 12 47  1  0  0  0  0
 13 48  1  0  0  0  0
 13 49  1  0  0  0  0
 13 50  1  0  0  0  0
 14 17  1  0  0  0  0
 14 18  1  0  0  0  0
 15 51  1  0  0  0  0
 15 52  1  0  0  0  0
 15 53  1  0  0  0  0
 16 18  2  0  0  0  0
 17 54  1  0  0  0  0
 17 55  1  0  0  0  0
 18 19  1  0  0  0  0
 19 20  1  0  0  0  0
 19 56  1  0  0  0  0
 19 57  1  0  0  0  0
 20 21  1  0  0  0  0
 20 58  1  0  0  0  0
 20 59  1  0  0  0  0
 21 22  1  0  0  0  0
 21 60  1  0  0  0  0
 21 61  1  0  0  0  0
 22 23  1  0  0  0  0
 22 62  1  0  0  0  0
 22 63  1  0  0  0  0
 23 24  1  0  0  0  0
 23 64  1  0  0  0  0
 23 65  1  0  0  0  0
 24 25  1  0  0  0  0
 24 66  1  0  0  0  0
 24 67  1  0  0  0  0
 25 26  1  0  0  0  0
 25 68  1  0  0  0  0
 25 69  1  0  0  0  0
 26 27  2  0  0  0  0
 26 70  1  0  0  0  0
 27 28  1  0  0  0  0
 27 71  1  0  0  0  0
 28 29  1  0  0  0  0
 28 72  1  0  0  0  0
 28 73  1  0  0  0  0
 29 30  1  0  0  0  0
 29 74  1  0  0  0  0
 29 75  1  0  0  0  0
 30 31  1  0  0  0  0
 30 76  1  0  0  0  0
 30 77  1  0  0  0  0
 31 32  1  0  0  0  0
 31 78  1  0  0  0  0
 31 79  1  0  0  0  0
 32 33  1  0  0  0  0
 32 80  1  0  0  0  0
 32 81  1  0  0  0  0
 33 34  1  0  0  0  0
 33 82  1  0  0  0  0
 33 83  1  0  0  0  0
 34 35  1  0  0  0  0
 34 84  1  0  0  0  0
 34 85  1  0  0  0  0
 35 86  1  0  0  0  0
 35 87  1  0  0  0  0
 35 88  1  0  0  0  0
M  CHG  1   8  -1
M  END
$$$$
/media/chris/experiments/cd1a-new-docking/inputs/ligands/4x6c_ligand.pdb
 OpenBabel07012320263D

 88 87  0  0  1  0  0  0  0  0999 V2000
  -41.2911   61.6163   61.6514 N   0  0  0  0  0  4  0  0  0  0  0  0
  -37.8481   57.0993   66.4590 C   0  0  1  0  0  0  0  0  0  0  0  0
  -39.1946   56.7218   66.7462 O   0  0  0  0  0  0  0  0  0  0  0  0
  -38.4188   57.4222   62.6092 P   0  0  2  0  0  0  0  0  0  0  0  0
  -37.5672   56.7925   65.0080 C   0  0  0  0  0  0  0  0  0  0  0  0
  -38.4757   57.5597   64.1926 O   0  0  0  0  0  0  0  0  0  0  0  0
  -40.0422   59.4549   62.2642 C   0  0  0  0  0  0  0  0  0  0  0  0
  -37.0237   57.0935   62.2531 O   0  5  0  0  0  0  0  0  0  0  0  0
  -40.0501   60.7592   61.4996 C   0  0  0  0  0  0  0  0  0  0  0  0
  -38.7669   58.8348   61.9765 O   0  0  0  0  0  0  0  0  0  0  0  0
  -42.5125   60.8807   61.2020 C   0  0  0  0  0  0  0  0  0  0  0  0
  -39.4981   56.4926   62.2218 O   0  0  0  0  0  0  0  0  0  0  0  0
  -41.1480   62.8543   60.8253 C   0  0  0  0  0  0  0  0  0  0  0  0
  -38.5713   59.3368   66.1067 O   0  0  0  0  0  0  0  0  0  0  0  0
  -41.4640   61.9984   63.0879 C   0  0  0  0  0  0  0  0  0  0  0  0
  -40.2919   58.2579   67.0258 O   0  0  0  0  0  0  0  0  0  0  0  0
  -37.6317   58.5399   66.8617 C   0  0  0  0  0  0  0  0  0  0  0  0
  -39.8694   59.0915   66.2844 C   0  0  0  0  0  0  0  0  0  0  0  0
  -40.7200   59.9800   65.4370 C   0  0  0  0  0  0  0  0  0  0  0  0
  -42.0280   59.3300   65.0270 C   0  0  0  0  0  0  0  0  0  0  0  0
  -42.8960   58.9560   66.2090 C   0  0  0  0  0  0  0  0  0  0  0  0
  -43.3110   60.1221   67.0749 C   0  0  0  0  0  0  0  0  0  0  0  0
  -44.1610   59.7323   68.2572 C   0  0  0  0  0  0  0  0  0  0  0  0
  -44.5694   60.9198   69.0870 C   0  0  0  0  0  0  0  0  0  0  0  0
  -45.4051   60.6061   70.2926 C   0  0  0  0  0  0  0  0  0  0  0  0
  -45.7917   61.7989   71.0600 C   0  0  0  0  0  0  0  0  0  0  0  0
  -47.0044   62.2331   71.3234 C   0  0  0  0  0  0  0  0  0  0  0  0
  -48.2992   61.6196   70.9338 C   0  0  0  0  0  0  0  0  0  0  0  0
  -48.8661   62.0787   69.6059 C   0  0  0  0  0  0  0  0  0  0  0  0
  -47.9569   61.7708   68.4481 C   0  0  0  0  0  0  0  0  0  0  0  0
  -47.6691   60.3051   68.2461 C   0  0  0  0  0  0  0  0  0  0  0  0
  -48.9195   59.4997   67.9694 C   0  0  0  0  0  0  0  0  0  0  0  0
  -48.6937   58.0261   67.7760 C   0  0  0  0  0  0  0  0  0  0  0  0
  -47.7841   57.7195   66.6544 C   0  0  0  0  0  0  0  0  0  0  0  0
  -46.4466   58.2849   66.8208 C   0  0  0  0  0  0  0  0  0  0  0  0
  -37.1382   56.5379   67.0298 H   0  0  0  0  0  0  0  0  0  0  0  0
  -39.8014   57.2543   66.2083 H   0  0  0  0  0  0  0  0  0  0  0  0
  -37.7127   55.7483   64.8254 H   0  0  0  0  0  0  0  0  0  0  0  0
  -36.5560   57.0480   64.7690 H   0  0  0  0  0  0  0  0  0  0  0  0
  -40.8439   58.8266   61.9367 H   0  0  0  0  0  0  0  0  0  0  0  0
  -40.1739   59.6140   63.3141 H   0  0  0  0  0  0  0  0  0  0  0  0
  -39.2121   61.3365   61.8303 H   0  0  0  0  0  0  0  0  0  0  0  0
  -40.0159   60.4853   60.4659 H   0  0  0  0  0  0  0  0  0  0  0  0
  -42.4027   60.6009   60.1750 H   0  0  0  0  0  0  0  0  0  0  0  0
  -43.3693   61.5125   61.3098 H   0  0  0  0  0  0  0  0  0  0  0  0
  -42.6397   60.0022   61.7993 H   0  0  0  0  0  0  0  0  0  0  0  0
  -39.3176   55.6148   62.5930 H   0  0  0  0  0  0  0  0  0  0  0  0
  -41.0242   62.5847   59.7972 H   0  0  0  0  0  0  0  0  0  0  0  0
  -40.2925   63.4061   61.1549 H   0  0  0  0  0  0  0  0  0  0  0  0
  -42.0249   63.4580   60.9326 H   0  0  0  0  0  0  0  0  0  0  0  0
  -41.5667   61.1145   63.6821 H   0  0  0  0  0  0  0  0  0  0  0  0
  -42.3406   62.6028   63.1932 H   0  0  0  0  0  0  0  0  0  0  0  0
  -40.6082   62.5509   63.4154 H   0  0  0  0  0  0  0  0  0  0  0  0
  -36.6300   58.8386   66.6332 H   0  0  0  0  0  0  0  0  0  0  0  0
  -37.7815   58.6684   67.9134 H   0  0  0  0  0  0  0  0  0  0  0  0
  -40.1733   60.2341   64.5530 H   0  0  0  0  0  0  0  0  0  0  0  0
  -40.9602   60.8449   66.0193 H   0  0  0  0  0  0  0  0  0  0  0  0
  -41.8086   58.4429   64.4703 H   0  0  0  0  0  0  0  0  0  0  0  0
  -42.5713   60.0428   64.4426 H   0  0  0  0  0  0  0  0  0  0  0  0
  -42.3518   58.2646   66.8179 H   0  0  0  0  0  0  0  0  0  0  0  0
  -43.7960   58.5403   65.8064 H   0  0  0  0  0  0  0  0  0  0  0  0
  -43.8675   60.8086   66.4716 H   0  0  0  0  0  0  0  0  0  0  0  0
  -42.4135   60.5536   67.4661 H   0  0  0  0  0  0  0  0  0  0  0  0
  -43.6038   59.0579   68.8734 H   0  0  0  0  0  0  0  0  0  0  0  0
  -45.0523   59.2748   67.8815 H   0  0  0  0  0  0  0  0  0  0  0  0
  -45.1291   61.5829   68.4610 H   0  0  0  0  0  0  0  0  0  0  0  0
  -43.6612   61.3446   69.4605 H   0  0  0  0  0  0  0  0  0  0  0  0
  -44.8459   59.9568   70.9334 H   0  0  0  0  0  0  0  0  0  0  0  0
  -46.3070   60.1493   69.9423 H   0  0  0  0  0  0  0  0  0  0  0  0
  -45.0161   62.3648   71.4385 H   0  0  0  0  0  0  0  0  0  0  0  0
  -47.0637   63.1078   71.8679 H   0  0  0  0  0  0  0  0  0  0  0  0
  -49.0151   61.8498   71.6950 H   0  0  0  0  0  0  0  0  0  0  0  0
  -48.1066   60.5728   70.8244 H   0  0  0  0  0  0  0  0  0  0  0  0
  -49.0210   63.1366   69.6474 H   0  0  0  0  0  0  0  0  0  0  0  0
  -49.7826   61.5500   69.4462 H   0  0  0  0  0  0  0  0  0  0  0  0
  -47.0267   62.2737   68.6118 H   0  0  0  0  0  0  0  0  0  0  0  0
  -48.4657   62.1032   67.5674 H   0  0  0  0  0  0  0  0  0  0  0  0
  -47.2034   59.9223   69.1301 H   0  0  0  0  0  0  0  0  0  0  0  0
  -47.0300   60.2149   67.3927 H   0  0  0  0  0  0  0  0  0  0  0  0
  -49.3736   59.8857   67.0808 H   0  0  0  0  0  0  0  0  0  0  0  0
  -49.5372   59.5970   68.8377 H   0  0  0  0  0  0  0  0  0  0  0  0
  -49.6376   57.5595   67.5856 H   0  0  0  0  0  0  0  0  0  0  0  0
  -48.2346   57.6549   68.6683 H   0  0  0  0  0  0  0  0  0  0  0  0
  -48.2095   58.1137   65.7552 H   0  0  0  0  0  0  0  0  0  0  0  0
  -47.6751   56.6557   66.6177 H   0  0  0  0  0  0  0  0  0  0  0  0
  -46.5132   59.3521   66.8622 H   0  0  0  0  0  0  0  0  0  0  0  0
  -45.8324   57.9977   65.9931 H   0  0  0  0  0  0  0  0  0  0  0  0
  -46.0152   57.9190   67.7291 H   0  0  0  0  0  0  0  0  0  0  0  0
  1  9  1  0  0  0  0
  1 11  1  0  0  0  0
  1 13  1  0  0  0  0
  1 15  1  0  0  0  0
  2  3  1  0  0  0  0
  2  5  1  0  0  0  0
  2 17  1  0  0  0  0
  2 36  1  1  0  0  0
  3 37  1  0  0  0  0
  4  6  1  0  0  0  0
  4  8  2  6  0  0  0
  4 10  1  0  0  0  0
  4 12  1  0  0  0  0
  5  6  1  0  0  0  0
  5 38  1  0  0  0  0
  5 39  1  0  0  0  0
  7  9  1  0  0  0  0
  7 10  1  0  0  0  0
  7 40  1  0  0  0  0
  7 41  1  0  0  0  0
  9 42  1  0  0  0  0
  9 43  1  0  0  0  0
 11 44  1  0  0  0  0
 11 45  1  0  0  0  0
 11 46  1  0  0  0  0
 12 47  1  0  0  0  0
 13 48  1  0  0  0  0
 13 49  1  0  0  0  0
 13 50  1  0  0  0  0
 14 17  1  0  0  0  0
 14 18  1  0  0  0  0
 15 51  1  0  0  0  0
 15 52  1  0  0  0  0
 15 53  1  0  0  0  0
 16 18  2  0  0  0  0
 17 54  1  0  0  0  0
 17 55  1  0  0  0  0
 18 19  1  0  0  0  0
 19 20  1  0  0  0  0
 19 56  1  0  0  0  0
 19 57  1  0  0  0  0
 20 21  1  0  0  0  0
 20 58  1  0  0  0  0
 20 59  1  0  0  0  0
 21 22  1  0  0  0  0
 21 60  1  0  0  0  0
 21 61  1  0  0  0  0
 22 23  1  0  0  0  0
 22 62  1  0  0  0  0
 22 63  1  0  0  0  0
 23 24  1  0  0  0  0
 23 64  1  0  0  0  0
 23 65  1  0  0  0  0
 24 25  1  0  0  0  0
 24 66  1  0  0  0  0
 24 67  1  0  0  0  0
 25 26  1  0  0  0  0
 25 68  1  0  0  0  0
 25 69  1  0  0  0  0
 26 27  2  0  0  0  0
 26 70  1  0  0  0  0
 27 28  1  0  0  0  0
 27 71  1  0  0  0  0
 28 29  1  0  0  0  0
 28 72  1  0  0  0  0
 28 73  1  0  0  0  0
 29 30  1  0  0  0  0
 29 74  1  0  0  0  0
 29 75  1  0  0  0  0
 30 31  1  0  0  0  0
 30 76  1  0  0  0  0
 30 77  1  0  0  0  0
 31 32  1  0  0  0  0
 31 78  1  0  0  0  0
 31 79  1  0  0  0  0
 32 33  1  0  0  0  0
 32 80  1  0  0  0  0
 32 81  1  0  0  0  0
 33 34  1  0  0  0  0
 33 82  1  0  0  0  0
 33 83  1  0  0  0  0
 34 35  1  0  0  0  0
 34 84  1  0  0  0  0
 34 85  1  0  0  0  0
 35 86  1  0  0  0  0
 35 87  1  0  0  0  0
 35 88  1  0  0  0  0
M  CHG  1   8  -1
M  END
$$$$
/media/chris/experiments/cd1a-new-docking/inputs/ligands/4x6c_ligand.pdb
 OpenBabel07012320263D

 88 87  0  0  1  0  0  0  0  0999 V2000
  -43.2455   60.7982   71.0788 N   0  0  0  0  0  4  0  0  0  0  0  0
  -39.9670   63.7423   67.6386 C   0  0  1  0  0  0  0  0  0  0  0  0
  -41.2383   63.8551   66.9989 O   0  0  0  0  0  0  0  0  0  0  0  0
  -41.2965   64.7653   71.1652 P   0  0  2  0  0  0  0  0  0  0  0  0
  -40.1945   63.5517   69.1186 C   0  0  0  0  0  0  0  0  0  0  0  0
  -40.9275   64.6874   69.6202 O   0  0  0  0  0  0  0  0  0  0  0  0
  -41.3723   62.2854   72.0201 C   0  0  0  0  0  0  0  0  0  0  0  0
  -40.0239   64.7651   71.9147 O   0  5  0  0  0  0  0  0  0  0  0  0
  -42.4189   61.2249   72.2757 C   0  0  0  0  0  0  0  0  0  0  0  0
  -42.0934   63.4489   71.5511 O   0  0  0  0  0  0  0  0  0  0  0  0
  -42.3809   60.2196   70.0053 C   0  0  0  0  0  0  0  0  0  0  0  0
  -42.2258   65.9009   71.3260 O   0  0  0  0  0  0  0  0  0  0  0  0
  -43.9692   61.9825   70.5229 C   0  0  0  0  0  0  0  0  0  0  0  0
  -39.9198   61.4286   67.0924 O   0  0  0  0  0  0  0  0  0  0  0  0
  -44.2415   59.7640   71.5005 C   0  0  0  0  0  0  0  0  0  0  0  0
  -41.8482   61.9662   66.1119 O   0  0  0  0  0  0  0  0  0  0  0  0
  -39.1613   62.6524   66.9697 C   0  0  0  0  0  0  0  0  0  0  0  0
  -40.9154   61.2318   66.2282 C   0  0  0  0  0  0  0  0  0  0  0  0
  -40.7200   59.9800   65.4370 C   0  0  0  0  0  0  0  0  0  0  0  0
  -42.0280   59.3300   65.0270 C   0  0  0  0  0  0  0  0  0  0  0  0
  -42.8960   58.9560   66.2090 C   0  0  0  0  0  0  0  0  0  0  0  0
  -44.2012   58.2902   65.8416 C   0  0  0  0  0  0  0  0  0  0  0  0
  -45.0623   57.9388   67.0279 C   0  0  0  0  0  0  0  0  0  0  0  0
  -44.3705   57.0027   67.9821 C   0  0  0  0  0  0  0  0  0  0  0  0
  -43.9464   55.6870   67.3997 C   0  0  0  0  0  0  0  0  0  0  0  0
  -45.0645   54.9035   66.8545 C   0  0  0  0  0  0  0  0  0  0  0  0
  -45.4655   53.7053   67.2180 C   0  0  0  0  0  0  0  0  0  0  0  0
  -44.9079   52.8411   68.2888 C   0  0  0  0  0  0  0  0  0  0  0  0
  -45.8998   51.9168   68.9650 C   0  0  0  0  0  0  0  0  0  0  0  0
  -47.0350   52.6584   69.6158 C   0  0  0  0  0  0  0  0  0  0  0  0
  -47.8732   53.4811   68.6711 C   0  0  0  0  0  0  0  0  0  0  0  0
  -48.5345   52.6425   67.5996 C   0  0  0  0  0  0  0  0  0  0  0  0
  -49.3710   53.4144   66.6177 C   0  0  0  0  0  0  0  0  0  0  0  0
  -48.5992   54.4188   65.8596 C   0  0  0  0  0  0  0  0  0  0  0  0
  -49.4117   55.1830   64.9151 C   0  0  0  0  0  0  0  0  0  0  0  0
  -39.3796   64.6305   67.5347 H   0  0  0  0  0  0  0  0  0  0  0  0
  -41.7347   63.0303   67.1182 H   0  0  0  0  0  0  0  0  0  0  0  0
  -39.2530   63.4792   69.6218 H   0  0  0  0  0  0  0  0  0  0  0  0
  -40.7491   62.6530   69.2910 H   0  0  0  0  0  0  0  0  0  0  0  0
  -40.6788   61.9525   71.2763 H   0  0  0  0  0  0  0  0  0  0  0  0
  -40.8085   62.5021   72.9033 H   0  0  0  0  0  0  0  0  0  0  0  0
  -41.9192   60.3573   72.6532 H   0  0  0  0  0  0  0  0  0  0  0  0
  -43.1128   61.6664   72.9601 H   0  0  0  0  0  0  0  0  0  0  0  0
  -41.6629   60.9492   69.6937 H   0  0  0  0  0  0  0  0  0  0  0  0
  -42.9887   59.9382   69.1708 H   0  0  0  0  0  0  0  0  0  0  0  0
  -41.8723   59.3573   70.3829 H   0  0  0  0  0  0  0  0  0  0  0  0
  -41.7703   66.7263   71.0976 H   0  0  0  0  0  0  0  0  0  0  0  0
  -43.2598   62.7242   70.2204 H   0  0  0  0  0  0  0  0  0  0  0  0
  -44.6141   62.3907   71.2729 H   0  0  0  0  0  0  0  0  0  0  0  0
  -44.5516   61.6802   69.6778 H   0  0  0  0  0  0  0  0  0  0  0  0
  -43.7269   58.9147   71.8989 H   0  0  0  0  0  0  0  0  0  0  0  0
  -44.8237   59.4637   70.6544 H   0  0  0  0  0  0  0  0  0  0  0  0
  -44.8862   60.1742   72.2495 H   0  0  0  0  0  0  0  0  0  0  0  0
  -38.2131   62.5469   67.4542 H   0  0  0  0  0  0  0  0  0  0  0  0
  -38.9811   62.8878   65.9416 H   0  0  0  0  0  0  0  0  0  0  0  0
  -40.1644   59.2843   66.0305 H   0  0  0  0  0  0  0  0  0  0  0  0
  -40.1985   60.2448   64.5410 H   0  0  0  0  0  0  0  0  0  0  0  0
  -41.8086   58.4429   64.4703 H   0  0  0  0  0  0  0  0  0  0  0  0
  -42.5713   60.0428   64.4426 H   0  0  0  0  0  0  0  0  0  0  0  0
  -43.1183   59.8483   66.7560 H   0  0  0  0  0  0  0  0  0  0  0  0
  -42.3406   58.2423   66.7808 H   0  0  0  0  0  0  0  0  0  0  0  0
  -43.9814   57.3901   65.3063 H   0  0  0  0  0  0  0  0  0  0  0  0
  -44.7539   58.9929   65.2537 H   0  0  0  0  0  0  0  0  0  0  0  0
  -45.9577   57.4707   66.6758 H   0  0  0  0  0  0  0  0  0  0  0  0
  -45.2749   58.8446   67.5562 H   0  0  0  0  0  0  0  0  0  0  0  0
  -45.0397   56.8042   68.7931 H   0  0  0  0  0  0  0  0  0  0  0  0
  -43.4695   57.4976   68.2790 H   0  0  0  0  0  0  0  0  0  0  0  0
  -43.4725   55.1127   68.1681 H   0  0  0  0  0  0  0  0  0  0  0  0
  -43.2834   55.8997   66.5872 H   0  0  0  0  0  0  0  0  0  0  0  0
  -45.6003   55.3486   66.0930 H   0  0  0  0  0  0  0  0  0  0  0  0
  -46.2661   53.3179   66.6947 H   0  0  0  0  0  0  0  0  0  0  0  0
  -44.4857   53.4768   69.0388 H   0  0  0  0  0  0  0  0  0  0  0  0
  -44.1933   52.2047   67.8099 H   0  0  0  0  0  0  0  0  0  0  0  0
  -45.3855   51.3524   69.7145 H   0  0  0  0  0  0  0  0  0  0  0  0
  -46.3181   51.2843   68.2101 H   0  0  0  0  0  0  0  0  0  0  0  0
  -46.6245   53.3144   70.3547 H   0  0  0  0  0  0  0  0  0  0  0  0
  -47.6851   51.9150   70.0276 H   0  0  0  0  0  0  0  0  0  0  0  0
  -47.2448   54.2071   68.1990 H   0  0  0  0  0  0  0  0  0  0  0  0
  -48.6486   53.9440   69.2451 H   0  0  0  0  0  0  0  0  0  0  0  0
  -49.1651   51.9248   68.0814 H   0  0  0  0  0  0  0  0  0  0  0  0
  -47.7418   52.1985   67.0345 H   0  0  0  0  0  0  0  0  0  0  0  0
  -50.1484   53.9170   67.1543 H   0  0  0  0  0  0  0  0  0  0  0  0
  -49.7602   52.7121   65.9103 H   0  0  0  0  0  0  0  0  0  0  0  0
  -47.8296   53.9140   65.3139 H   0  0  0  0  0  0  0  0  0  0  0  0
  -48.2021   55.1139   66.5695 H   0  0  0  0  0  0  0  0  0  0  0  0
  -49.8285   54.5205   64.1856 H   0  0  0  0  0  0  0  0  0  0  0  0
  -48.7996   55.9121   64.4265 H   0  0  0  0  0  0  0  0  0  0  0  0
  -50.2019   55.6761   65.4419 H   0  0  0  0  0  0  0  0  0  0  0  0
  1  9  1  0  0  0  0
  1 11  1  0  0  0  0
  1 13  1  0  0  0  0
  1 15  1  0  0  0  0
  2  3  1  0  0  0  0
  2  5  1  0  0  0  0
  2 17  1  0  0  0  0
  2 36  1  6  0  0  0
  3 37  1  0  0  0  0
  4  6  1  0  0  0  0
  4  8  2  1  0  0  0
  4 10  1  0  0  0  0
  4 12  1  0  0  0  0
  5  6  1  0  0  0  0
  5 38  1  0  0  0  0
  5 39  1  0  0  0  0
  7  9  1  0  0  0  0
  7 10  1  0  0  0  0
  7 40  1  0  0  0  0
  7 41  1  0  0  0  0
  9 42  1  0  0  0  0
  9 43  1  0  0  0  0
 11 44  1  0  0  0  0
 11 45  1  0  0  0  0
 11 46  1  0  0  0  0
 12 47  1  0  0  0  0
 13 48  1  0  0  0  0
 13 49  1  0  0  0  0
 13 50  1  0  0  0  0
 14 17  1  0  0  0  0
 14 18  1  0  0  0  0
 15 51  1  0  0  0  0
 15 52  1  0  0  0  0
 15 53  1  0  0  0  0
 16 18  2  0  0  0  0
 17 54  1  0  0  0  0
 17 55  1  0  0  0  0
 18 19  1  0  0  0  0
 19 20  1  0  0  0  0
 19 56  1  0  0  0  0
 19 57  1  0  0  0  0
 20 21  1  0  0  0  0
 20 58  1  0  0  0  0
 20 59  1  0  0  0  0
 21 22  1  0  0  0  0
 21 60  1  0  0  0  0
 21 61  1  0  0  0  0
 22 23  1  0  0  0  0
 22 62  1  0  0  0  0
 22 63  1  0  0  0  0
 23 24  1  0  0  0  0
 23 64  1  0  0  0  0
 23 65  1  0  0  0  0
 24 25  1  0  0  0  0
 24 66  1  0  0  0  0
 24 67  1  0  0  0  0
 25 26  1  0  0  0  0
 25 68  1  0  0  0  0
 25 69  1  0  0  0  0
 26 27  2  0  0  0  0
 26 70  1  0  0  0  0
 27 28  1  0  0  0  0
 27 71  1  0  0  0  0
 28 29  1  0  0  0  0
 28 72  1  0  0  0  0
 28 73  1  0  0  0  0
 29 30  1  0  0  0  0
 29 74  1  0  0  0  0
 29 75  1  0  0  0  0
 30 31  1  0  0  0  0
 30 76  1  0  0  0  0
 30 77  1  0  0  0  0
 31 32  1  0  0  0  0
 31 78  1  0  0  0  0
 31 79  1  0  0  0  0
 32 33  1  0  0  0  0
 32 80  1  0  0  0  0
 32 81  1  0  0  0  0
 33 34  1  0  0  0  0
 33 82  1  0  0  0  0
 33 83  1  0  0  0  0
 34 35  1  0  0  0  0
 34 84  1  0  0  0  0
 34 85  1  0  0  0  0
 35 86  1  0  0  0  0
 35 87  1  0  0  0  0
 35 88  1  0  0  0  0
M  CHG  1   8  -1
M  END
$$$$
/media/chris/experiments/cd1a-new-docking/inputs/ligands/4x6c_ligand.pdb
 OpenBabel07012320263D

 88 87  0  0  1  0  0  0  0  0999 V2000
  -41.4099   59.9557   73.2592 N   0  0  0  0  0  4  0  0  0  0  0  0
  -40.6580   62.5330   69.3435 C   0  0  1  0  0  0  0  0  0  0  0  0
  -40.3998   61.4219   70.2019 O   0  0  0  0  0  0  0  0  0  0  0  0
  -38.4060   62.6082   71.3925 P   0  0  2  0  0  0  0  0  0  0  0  0
  -40.3522   63.8015   70.1025 C   0  0  0  0  0  0  0  0  0  0  0  0
  -38.9607   63.7865   70.4796 O   0  0  0  0  0  0  0  0  0  0  0  0
  -39.3598   61.4767   73.5596 C   0  0  0  0  0  0  0  0  0  0  0  0
  -37.9420   61.5394   70.4850 O   0  5  0  0  0  0  0  0  0  0  0  0
  -40.7029   61.0165   74.0793 C   0  0  0  0  0  0  0  0  0  0  0  0
  -39.6123   62.0352   72.2489 O   0  0  0  0  0  0  0  0  0  0  0  0
  -41.6613   60.4312   71.8644 C   0  0  0  0  0  0  0  0  0  0  0  0
  -37.4487   63.2147   72.3383 O   0  0  0  0  0  0  0  0  0  0  0  0
  -42.7221   59.6243   73.8947 C   0  0  0  0  0  0  0  0  0  0  0  0
  -40.3652   61.1401   67.4389 O   0  0  0  0  0  0  0  0  0  0  0  0
  -40.5647   58.7222   73.1993 C   0  0  0  0  0  0  0  0  0  0  0  0
  -41.4971   62.1961   65.8348 O   0  0  0  0  0  0  0  0  0  0  0  0
  -39.8927   62.3604   68.0517 C   0  0  0  0  0  0  0  0  0  0  0  0
  -40.9154   61.2318   66.2282 C   0  0  0  0  0  0  0  0  0  0  0  0
  -40.7200   59.9800   65.4370 C   0  0  0  0  0  0  0  0  0  0  0  0
  -42.0280   59.3300   65.0270 C   0  0  0  0  0  0  0  0  0  0  0  0
  -42.8960   58.9560   66.2090 C   0  0  0  0  0  0  0  0  0  0  0  0
  -44.2012   58.2902   65.8416 C   0  0  0  0  0  0  0  0  0  0  0  0
  -44.0348   56.9933   65.0915 C   0  0  0  0  0  0  0  0  0  0  0  0
  -45.3544   56.3674   64.7274 C   0  0  0  0  0  0  0  0  0  0  0  0
  -46.2363   57.1945   63.8396 C   0  0  0  0  0  0  0  0  0  0  0  0
  -47.5188   56.5478   63.5264 C   0  0  0  0  0  0  0  0  0  0  0  0
  -48.2446   56.6761   62.4376 C   0  0  0  0  0  0  0  0  0  0  0  0
  -47.9470   57.4897   61.2318 C   0  0  0  0  0  0  0  0  0  0  0  0
  -48.9641   58.5624   60.9003 C   0  0  0  0  0  0  0  0  0  0  0  0
  -48.6099   59.3360   59.6601 C   0  0  0  0  0  0  0  0  0  0  0  0
  -47.2818   60.0462   59.7190 C   0  0  0  0  0  0  0  0  0  0  0  0
  -46.1219   59.0951   59.9154 C   0  0  0  0  0  0  0  0  0  0  0  0
  -45.9496   58.0730   58.8266 C   0  0  0  0  0  0  0  0  0  0  0  0
  -45.6995   58.6722   57.5009 C   0  0  0  0  0  0  0  0  0  0  0  0
  -44.4840   59.4823   57.4502 C   0  0  0  0  0  0  0  0  0  0  0  0
  -41.6867   62.5934   69.0553 H   0  0  0  0  0  0  0  0  0  0  0  0
  -39.4589   61.4066   70.4369 H   0  0  0  0  0  0  0  0  0  0  0  0
  -40.9631   63.8533   70.9794 H   0  0  0  0  0  0  0  0  0  0  0  0
  -40.5558   64.6537   69.4882 H   0  0  0  0  0  0  0  0  0  0  0  0
  -38.6850   60.6495   73.4881 H   0  0  0  0  0  0  0  0  0  0  0  0
  -38.9108   62.1953   74.2131 H   0  0  0  0  0  0  0  0  0  0  0  0
  -40.5549   60.6236   75.0634 H   0  0  0  0  0  0  0  0  0  0  0  0
  -41.3359   61.8782   74.0396 H   0  0  0  0  0  0  0  0  0  0  0  0
  -42.2654   61.3140   71.8920 H   0  0  0  0  0  0  0  0  0  0  0  0
  -42.1701   59.6679   71.3136 H   0  0  0  0  0  0  0  0  0  0  0  0
  -40.7284   60.6522   71.3894 H   0  0  0  0  0  0  0  0  0  0  0  0
  -36.6946   63.5771   71.8474 H   0  0  0  0  0  0  0  0  0  0  0  0
  -43.3292   60.5043   73.9392 H   0  0  0  0  0  0  0  0  0  0  0  0
  -42.5556   59.2554   74.8853 H   0  0  0  0  0  0  0  0  0  0  0  0
  -43.2205   58.8760   73.3146 H   0  0  0  0  0  0  0  0  0  0  0  0
  -39.6246   58.9558   72.7449 H   0  0  0  0  0  0  0  0  0  0  0  0
  -41.0650   57.9748   72.6198 H   0  0  0  0  0  0  0  0  0  0  0  0
  -40.4001   58.3541   74.1904 H   0  0  0  0  0  0  0  0  0  0  0  0
  -38.8442   62.2882   68.2528 H   0  0  0  0  0  0  0  0  0  0  0  0
  -40.0463   63.1972   67.4028 H   0  0  0  0  0  0  0  0  0  0  0  0
  -40.1644   59.2843   66.0305 H   0  0  0  0  0  0  0  0  0  0  0  0
  -40.1985   60.2448   64.5410 H   0  0  0  0  0  0  0  0  0  0  0  0
  -41.8086   58.4429   64.4703 H   0  0  0  0  0  0  0  0  0  0  0  0
  -42.5713   60.0428   64.4426 H   0  0  0  0  0  0  0  0  0  0  0  0
  -43.1183   59.8483   66.7560 H   0  0  0  0  0  0  0  0  0  0  0  0
  -42.3406   58.2423   66.7808 H   0  0  0  0  0  0  0  0  0  0  0  0
  -44.7626   58.9643   65.2288 H   0  0  0  0  0  0  0  0  0  0  0  0
  -44.7001   58.0569   66.7589 H   0  0  0  0  0  0  0  0  0  0  0  0
  -43.4877   56.3089   65.7056 H   0  0  0  0  0  0  0  0  0  0  0  0
  -43.5133   57.2072   64.1820 H   0  0  0  0  0  0  0  0  0  0  0  0
  -45.8884   56.1724   65.6339 H   0  0  0  0  0  0  0  0  0  0  0  0
  -45.1181   55.4858   64.1690 H   0  0  0  0  0  0  0  0  0  0  0  0
  -45.7168   57.3799   62.9228 H   0  0  0  0  0  0  0  0  0  0  0  0
  -46.4585   58.0982   64.3678 H   0  0  0  0  0  0  0  0  0  0  0  0
  -47.8956   55.9155   64.2497 H   0  0  0  0  0  0  0  0  0  0  0  0
  -49.1299   56.1462   62.4188 H   0  0  0  0  0  0  0  0  0  0  0  0
  -47.8827   56.8265   60.3945 H   0  0  0  0  0  0  0  0  0  0  0  0
  -47.0344   58.0063   61.4445 H   0  0  0  0  0  0  0  0  0  0  0  0
  -49.0234   59.2437   61.7233 H   0  0  0  0  0  0  0  0  0  0  0  0
  -49.8999   58.0756   60.7209 H   0  0  0  0  0  0  0  0  0  0  0  0
  -49.3725   60.0682   59.4947 H   0  0  0  0  0  0  0  0  0  0  0  0
  -48.5352   58.6201   58.8683 H   0  0  0  0  0  0  0  0  0  0  0  0
  -47.2992   60.7385   60.5346 H   0  0  0  0  0  0  0  0  0  0  0  0
  -47.1383   60.5434   58.7824 H   0  0  0  0  0  0  0  0  0  0  0  0
  -46.2711   58.5752   60.8386 H   0  0  0  0  0  0  0  0  0  0  0  0
  -45.2365   59.6958   59.9057 H   0  0  0  0  0  0  0  0  0  0  0  0
  -46.8401   57.4825   58.7704 H   0  0  0  0  0  0  0  0  0  0  0  0
  -45.0919   57.4839   59.0762 H   0  0  0  0  0  0  0  0  0  0  0  0
  -46.5325   59.2941   57.2472 H   0  0  0  0  0  0  0  0  0  0  0  0
  -45.5711   57.8662   56.8089 H   0  0  0  0  0  0  0  0  0  0  0  0
  -44.5734   60.3026   58.1315 H   0  0  0  0  0  0  0  0  0  0  0  0
  -44.3461   59.8567   56.4574 H   0  0  0  0  0  0  0  0  0  0  0  0
  -43.6428   58.8808   57.7247 H   0  0  0  0  0  0  0  0  0  0  0  0
  1  9  1  0  0  0  0
  1 11  1  0  0  0  0
  1 13  1  0  0  0  0
  1 15  1  0  0  0  0
  2  3  1  0  0  0  0
  2  5  1  0  0  0  0
  2 17  1  0  0  0  0
  2 36  1  6  0  0  0
  3 37  1  0  0  0  0
  4  6  1  0  0  0  0
  4  8  2  6  0  0  0
  4 10  1  0  0  0  0
  4 12  1  0  0  0  0
  5  6  1  0  0  0  0
  5 38  1  0  0  0  0
  5 39  1  0  0  0  0
  7  9  1  0  0  0  0
  7 10  1  0  0  0  0
  7 40  1  0  0  0  0
  7 41  1  0  0  0  0
  9 42  1  0  0  0  0
  9 43  1  0  0  0  0
 11 44  1  0  0  0  0
 11 45  1  0  0  0  0
 11 46  1  0  0  0  0
 12 47  1  0  0  0  0
 13 48  1  0  0  0  0
 13 49  1  0  0  0  0
 13 50  1  0  0  0  0
 14 17  1  0  0  0  0
 14 18  1  0  0  0  0
 15 51  1  0  0  0  0
 15 52  1  0  0  0  0
 15 53  1  0  0  0  0
 16 18  2  0  0  0  0
 17 54  1  0  0  0  0
 17 55  1  0  0  0  0
 18 19  1  0  0  0  0
 19 20  1  0  0  0  0
 19 56  1  0  0  0  0
 19 57  1  0  0  0  0
 20 21  1  0  0  0  0
 20 58  1  0  0  0  0
 20 59  1  0  0  0  0
 21 22  1  0  0  0  0
 21 60  1  0  0  0  0
 21 61  1  0  0  0  0
 22 23  1  0  0  0  0
 22 62  1  0  0  0  0
 22 63  1  0  0  0  0
 23 24  1  0  0  0  0
 23 64  1  0  0  0  0
 23 65  1  0  0  0  0
 24 25  1  0  0  0  0
 24 66  1  0  0  0  0
 24 67  1  0  0  0  0
 25 26  1  0  0  0  0
 25 68  1  0  0  0  0
 25 69  1  0  0  0  0
 26 27  2  0  0  0  0
 26 70  1  0  0  0  0
 27 28  1  0  0  0  0
 27 71  1  0  0  0  0
 28 29  1  0  0  0  0
 28 72  1  0  0  0  0
 28 73  1  0  0  0  0
 29 30  1  0  0  0  0
 29 74  1  0  0  0  0
 29 75  1  0  0  0  0
 30 31  1  0  0  0  0
 30 76  1  0  0  0  0
 30 77  1  0  0  0  0
 31 32  1  0  0  0  0
 31 78  1  0  0  0  0
 31 79  1  0  0  0  0
 32 33  1  0  0  0  0
 32 80  1  0  0  0  0
 32 81  1  0  0  0  0
 33 34  1  0  0  0  0
 33 82  1  0  0  0  0
 33 83  1  0  0  0  0
 34 35  1  0  0  0  0
 34 84  1  0  0  0  0
 34 85  1  0  0  0  0
 35 86  1  0  0  0  0
 35 87  1  0  0  0  0
 35 88  1  0  0  0  0
M  CHG  1   8  -1
M  END
$$$$
/media/chris/experiments/cd1a-new-docking/inputs/ligands/4x6c_ligand.pdb
 OpenBabel07012320263D

 88 87  0  0  1  0  0  0  0  0999 V2000
  -36.7536   50.8693   65.6239 N   0  0  0  0  0  4  0  0  0  0  0  0
  -36.6839   58.0497   66.7661 C   0  0  1  0  0  0  0  0  0  0  0  0
  -35.7895   57.7501   67.8377 O   0  0  0  0  0  0  0  0  0  0  0  0
  -36.5558   54.4593   65.2351 P   0  0  2  0  0  0  0  0  0  0  0  0
  -37.2832   56.7559   66.2708 C   0  0  0  0  0  0  0  0  0  0  0  0
  -36.2146   55.8950   65.8281 O   0  0  0  0  0  0  0  0  0  0  0  0
  -35.4943   52.7194   66.8881 C   0  0  0  0  0  0  0  0  0  0  0  0
  -37.8009   54.0063   65.8874 O   0  5  0  0  0  0  0  0  0  0  0  0
  -36.7394   51.8713   66.7612 C   0  0  0  0  0  0  0  0  0  0  0  0
  -35.3935   53.4627   65.6508 O   0  0  0  0  0  0  0  0  0  0  0  0
  -35.6403   49.8812   65.7622 C   0  0  0  0  0  0  0  0  0  0  0  0
  -36.5184   54.5843   63.7647 O   0  0  0  0  0  0  0  0  0  0  0  0
  -36.5958   51.5877   64.3223 C   0  0  0  0  0  0  0  0  0  0  0  0
  -38.5713   59.3368   66.1067 O   0  0  0  0  0  0  0  0  0  0  0  0
  -38.0539   50.1285   65.6247 C   0  0  0  0  0  0  0  0  0  0  0  0
  -40.2919   58.2579   67.0258 O   0  0  0  0  0  0  0  0  0  0  0  0
  -37.6858   59.0860   67.2206 C   0  0  0  0  0  0  0  0  0  0  0  0
  -39.8694   59.0915   66.2844 C   0  0  0  0  0  0  0  0  0  0  0  0
  -40.7200   59.9800   65.4370 C   0  0  0  0  0  0  0  0  0  0  0  0
  -42.0280   59.3300   65.0270 C   0  0  0  0  0  0  0  0  0  0  0  0
  -42.8960   58.9560   66.2090 C   0  0  0  0  0  0  0  0  0  0  0  0
  -44.2012   58.2902   65.8416 C   0  0  0  0  0  0  0  0  0  0  0  0
  -45.0623   57.9388   67.0279 C   0  0  0  0  0  0  0  0  0  0  0  0
  -46.3454   57.2626   66.6256 C   0  0  0  0  0  0  0  0  0  0  0  0
  -46.1864   55.9650   65.8901 C   0  0  0  0  0  0  0  0  0  0  0  0
  -45.4822   54.9361   66.6690 C   0  0  0  0  0  0  0  0  0  0  0  0
  -44.3584   54.3229   66.3695 C   0  0  0  0  0  0  0  0  0  0  0  0
  -43.4962   54.5262   65.1779 C   0  0  0  0  0  0  0  0  0  0  0  0
  -42.0767   54.9697   65.4668 C   0  0  0  0  0  0  0  0  0  0  0  0
  -41.3150   53.9752   66.2991 C   0  0  0  0  0  0  0  0  0  0  0  0
  -41.1616   52.6141   65.6700 C   0  0  0  0  0  0  0  0  0  0  0  0
  -40.4041   51.6472   66.5530 C   0  0  0  0  0  0  0  0  0  0  0  0
  -39.0104   52.0789   66.9151 C   0  0  0  0  0  0  0  0  0  0  0  0
  -38.9716   53.3510   67.6630 C   0  0  0  0  0  0  0  0  0  0  0  0
  -39.6900   53.2986   68.9347 C   0  0  0  0  0  0  0  0  0  0  0  0
  -36.1827   58.4907   65.9298 H   0  0  0  0  0  0  0  0  0  0  0  0
  -36.2851   57.3537   68.5712 H   0  0  0  0  0  0  0  0  0  0  0  0
  -37.9474   56.9547   65.4558 H   0  0  0  0  0  0  0  0  0  0  0  0
  -37.8327   56.2823   67.0574 H   0  0  0  0  0  0  0  0  0  0  0  0
  -34.6330   52.0986   67.0207 H   0  0  0  0  0  0  0  0  0  0  0  0
  -35.5475   53.3713   67.7350 H   0  0  0  0  0  0  0  0  0  0  0  0
  -36.8596   51.3289   67.6757 H   0  0  0  0  0  0  0  0  0  0  0  0
  -37.5326   52.5572   66.5485 H   0  0  0  0  0  0  0  0  0  0  0  0
  -34.7032   50.3976   65.7632 H   0  0  0  0  0  0  0  0  0  0  0  0
  -35.6686   49.1949   64.9418 H   0  0  0  0  0  0  0  0  0  0  0  0
  -35.7524   49.3438   66.6807 H   0  0  0  0  0  0  0  0  0  0  0  0
  -37.2187   55.1891   63.4737 H   0  0  0  0  0  0  0  0  0  0  0  0
  -35.6669   52.1187   64.3183 H   0  0  0  0  0  0  0  0  0  0  0  0
  -37.4025   52.2794   64.1966 H   0  0  0  0  0  0  0  0  0  0  0  0
  -36.6052   50.8793   63.5205 H   0  0  0  0  0  0  0  0  0  0  0  0
  -38.1701   49.6130   66.5551 H   0  0  0  0  0  0  0  0  0  0  0  0
  -38.0619   49.4213   64.8217 H   0  0  0  0  0  0  0  0  0  0  0  0
  -38.8592   50.8214   65.4978 H   0  0  0  0  0  0  0  0  0  0  0  0
  -37.1810   59.9876   67.4987 H   0  0  0  0  0  0  0  0  0  0  0  0
  -38.2331   58.7393   68.0722 H   0  0  0  0  0  0  0  0  0  0  0  0
  -40.1733   60.2341   64.5530 H   0  0  0  0  0  0  0  0  0  0  0  0
  -40.9602   60.8449   66.0193 H   0  0  0  0  0  0  0  0  0  0  0  0
  -41.8086   58.4429   64.4703 H   0  0  0  0  0  0  0  0  0  0  0  0
  -42.5713   60.0428   64.4426 H   0  0  0  0  0  0  0  0  0  0  0  0
  -43.1183   59.8483   66.7560 H   0  0  0  0  0  0  0  0  0  0  0  0
  -42.3406   58.2423   66.7808 H   0  0  0  0  0  0  0  0  0  0  0  0
  -43.9814   57.3901   65.3063 H   0  0  0  0  0  0  0  0  0  0  0  0
  -44.7539   58.9929   65.2537 H   0  0  0  0  0  0  0  0  0  0  0  0
  -45.2991   58.8372   67.5587 H   0  0  0  0  0  0  0  0  0  0  0  0
  -44.5114   57.2554   67.6397 H   0  0  0  0  0  0  0  0  0  0  0  0
  -46.8891   57.9348   65.9952 H   0  0  0  0  0  0  0  0  0  0  0  0
  -46.8512   57.0241   67.5379 H   0  0  0  0  0  0  0  0  0  0  0  0
  -45.6333   56.1490   64.9928 H   0  0  0  0  0  0  0  0  0  0  0  0
  -47.1692   55.5925   65.6896 H   0  0  0  0  0  0  0  0  0  0  0  0
  -45.9242   54.6614   67.5602 H   0  0  0  0  0  0  0  0  0  0  0  0
  -44.0359   53.6131   67.0457 H   0  0  0  0  0  0  0  0  0  0  0  0
  -43.9554   55.2712   64.5623 H   0  0  0  0  0  0  0  0  0  0  0  0
  -43.4144   53.5682   64.7082 H   0  0  0  0  0  0  0  0  0  0  0  0
  -42.1095   55.9014   65.9919 H   0  0  0  0  0  0  0  0  0  0  0  0
  -41.5699   55.0611   64.5289 H   0  0  0  0  0  0  0  0  0  0  0  0
  -41.8292   53.8561   67.2299 H   0  0  0  0  0  0  0  0  0  0  0  0
  -40.3266   54.3693   66.4118 H   0  0  0  0  0  0  0  0  0  0  0  0
  -40.6324   52.7212   64.7462 H   0  0  0  0  0  0  0  0  0  0  0  0
  -42.1426   52.2145   65.5187 H   0  0  0  0  0  0  0  0  0  0  0  0
  -40.3391   50.7101   66.0406 H   0  0  0  0  0  0  0  0  0  0  0  0
  -40.9488   51.5906   67.4722 H   0  0  0  0  0  0  0  0  0  0  0  0
  -38.4459   52.1969   66.0138 H   0  0  0  0  0  0  0  0  0  0  0  0
  -38.5986   51.3234   67.5512 H   0  0  0  0  0  0  0  0  0  0  0  0
  -39.4113   54.1148   67.0562 H   0  0  0  0  0  0  0  0  0  0  0  0
  -37.9454   53.5542   67.8879 H   0  0  0  0  0  0  0  0  0  0  0  0
  -40.7247   53.0966   68.7518 H   0  0  0  0  0  0  0  0  0  0  0  0
  -39.5936   54.2381   69.4378 H   0  0  0  0  0  0  0  0  0  0  0  0
  -39.2777   52.5229   69.5456 H   0  0  0  0  0  0  0  0  0  0  0  0
  1  9  1  0  0  0  0
  1 11  1  0  0  0  0
  1 13  1  0  0  0  0
  1 15  1  0  0  0  0
  2  3  1  0  0  0  0
  2  5  1  0  0  0  0
  2 17  1  0  0  0  0
  2 36  1  6  0  0  0
  3 37  1  0  0  0  0
  4  6  1  0  0  0  0
  4  8  2  1  0  0  0
  4 10  1  0  0  0  0
  4 12  1  0  0  0  0
  5  6  1  0  0  0  0
  5 38  1  0  0  0  0
  5 39  1  0  0  0  0
  7  9  1  0  0  0  0
  7 10  1  0  0  0  0
  7 40  1  0  0  0  0
  7 41  1  0  0  0  0
  9 42  1  0  0  0  0
  9 43  1  0  0  0  0
 11 44  1  0  0  0  0
 11 45  1  0  0  0  0
 11 46  1  0  0  0  0
 12 47  1  0  0  0  0
 13 48  1  0  0  0  0
 13 49  1  0  0  0  0
 13 50  1  0  0  0  0
 14 17  1  0  0  0  0
 14 18  1  0  0  0  0
 15 51  1  0  0  0  0
 15 52  1  0  0  0  0
 15 53  1  0  0  0  0
 16 18  2  0  0  0  0
 17 54  1  0  0  0  0
 17 55  1  0  0  0  0
 18 19  1  0  0  0  0
 19 20  1  0  0  0  0
 19 56  1  0  0  0  0
 19 57  1  0  0  0  0
 20 21  1  0  0  0  0
 20 58  1  0  0  0  0
 20 59  1  0  0  0  0
 21 22  1  0  0  0  0
 21 60  1  0  0  0  0
 21 61  1  0  0  0  0
 22 23  1  0  0  0  0
 22 62  1  0  0  0  0
 22 63  1  0  0  0  0
 23 24  1  0  0  0  0
 23 64  1  0  0  0  0
 23 65  1  0  0  0  0
 24 25  1  0  0  0  0
 24 66  1  0  0  0  0
 24 67  1  0  0  0  0
 25 26  1  0  0  0  0
 25 68  1  0  0  0  0
 25 69  1  0  0  0  0
 26 27  2  0  0  0  0
 26 70  1  0  0  0  0
 27 28  1  0  0  0  0
 27 71  1  0  0  0  0
 28 29  1  0  0  0  0
 28 72  1  0  0  0  0
 28 73  1  0  0  0  0
 29 30  1  0  0  0  0
 29 74  1  0  0  0  0
 29 75  1  0  0  0  0
 30 31  1  0  0  0  0
 30 76  1  0  0  0  0
 30 77  1  0  0  0  0
 31 32  1  0  0  0  0
 31 78  1  0  0  0  0
 31 79  1  0  0  0  0
 32 33  1  0  0  0  0
 32 80  1  0  0  0  0
 32 81  1  0  0  0  0
 33 34  1  0  0  0  0
 33 82  1  0  0  0  0
 33 83  1  0  0  0  0
 34 35  1  0  0  0  0
 34 84  1  0  0  0  0
 34 85  1  0  0  0  0
 35 86  1  0  0  0  0
 35 87  1  0  0  0  0
 35 88  1  0  0  0  0
M  CHG  1   8  -1
M  END
$$$$
/media/chris/experiments/cd1a-new-docking/inputs/ligands/4x6c_ligand.pdb
 OpenBabel07012320263D

 88 87  0  0  1  0  0  0  0  0999 V2000
  -38.4651   57.2567   71.1202 N   0  0  0  0  0  4  0  0  0  0  0  0
  -42.3304   63.6022   67.4813 C   0  0  1  0  0  0  0  0  0  0  0  0
  -43.5674   63.0172   67.8884 O   0  0  0  0  0  0  0  0  0  0  0  0
  -40.1091   60.9269   69.2590 P   0  0  2  0  0  0  0  0  0  0  0  0
  -41.2499   63.1365   68.4269 C   0  0  0  0  0  0  0  0  0  0  0  0
  -41.1611   61.6994   68.3502 O   0  0  0  0  0  0  0  0  0  0  0  0
  -38.6181   58.7772   69.0534 C   0  0  0  0  0  0  0  0  0  0  0  0
  -38.9695   61.8412   69.4745 O   0  5  0  0  0  0  0  0  0  0  0  0
  -39.2887   58.2200   70.2885 C   0  0  0  0  0  0  0  0  0  0  0  0
  -39.5826   59.6695   68.4474 O   0  0  0  0  0  0  0  0  0  0  0  0
  -38.0534   56.0659   70.3157 C   0  0  0  0  0  0  0  0  0  0  0  0
  -40.8500   60.4129   70.4277 O   0  0  0  0  0  0  0  0  0  0  0  0
  -39.2722   56.7883   72.2883 C   0  0  0  0  0  0  0  0  0  0  0  0
  -42.0474   61.8525   65.8962 O   0  0  0  0  0  0  0  0  0  0  0  0
  -37.2341   57.9483   71.6159 C   0  0  0  0  0  0  0  0  0  0  0  0
  -40.1534   61.6365   67.0519 O   0  0  0  0  0  0  0  0  0  0  0  0
  -42.0818   63.2915   66.0232 C   0  0  0  0  0  0  0  0  0  0  0  0
  -40.9154   61.2318   66.2282 C   0  0  0  0  0  0  0  0  0  0  0  0
  -40.7200   59.9800   65.4370 C   0  0  0  0  0  0  0  0  0  0  0  0
  -42.0280   59.3300   65.0270 C   0  0  0  0  0  0  0  0  0  0  0  0
  -42.8960   58.9560   66.2090 C   0  0  0  0  0  0  0  0  0  0  0  0
  -44.2012   58.2902   65.8416 C   0  0  0  0  0  0  0  0  0  0  0  0
  -45.0623   57.9388   67.0279 C   0  0  0  0  0  0  0  0  0  0  0  0
  -45.4546   59.1497   67.8311 C   0  0  0  0  0  0  0  0  0  0  0  0
  -46.2524   60.1824   67.0913 C   0  0  0  0  0  0  0  0  0  0  0  0
  -45.5559   60.7251   65.9160 C   0  0  0  0  0  0  0  0  0  0  0  0
  -45.5936   60.2835   64.6782 C   0  0  0  0  0  0  0  0  0  0  0  0
  -46.3671   59.1357   64.1409 C   0  0  0  0  0  0  0  0  0  0  0  0
  -47.8720   59.2383   64.2832 C   0  0  0  0  0  0  0  0  0  0  0  0
  -48.5911   58.0367   63.7344 C   0  0  0  0  0  0  0  0  0  0  0  0
  -48.3433   57.7684   62.2721 C   0  0  0  0  0  0  0  0  0  0  0  0
  -46.8846   57.5076   61.9676 C   0  0  0  0  0  0  0  0  0  0  0  0
  -46.2941   56.3169   62.6699 C   0  0  0  0  0  0  0  0  0  0  0  0
  -46.9635   55.0473   62.3247 C   0  0  0  0  0  0  0  0  0  0  0  0
  -46.8875   54.7193   60.9024 C   0  0  0  0  0  0  0  0  0  0  0  0
  -42.3464   64.6703   67.5426 H   0  0  0  0  0  0  0  0  0  0  0  0
  -43.5075   62.0517   67.8169 H   0  0  0  0  0  0  0  0  0  0  0  0
  -41.4943   63.4300   69.4264 H   0  0  0  0  0  0  0  0  0  0  0  0
  -40.3126   63.5760   68.1566 H   0  0  0  0  0  0  0  0  0  0  0  0
  -38.3664   57.9867   68.3777 H   0  0  0  0  0  0  0  0  0  0  0  0
  -37.7092   59.2871   69.2959 H   0  0  0  0  0  0  0  0  0  0  0  0
  -39.5569   59.0450   70.9147 H   0  0  0  0  0  0  0  0  0  0  0  0
  -40.1205   57.6501   69.9303 H   0  0  0  0  0  0  0  0  0  0  0  0
  -38.9248   55.5610   69.9543 H   0  0  0  0  0  0  0  0  0  0  0  0
  -37.4843   55.3999   70.9301 H   0  0  0  0  0  0  0  0  0  0  0  0
  -37.4564   56.3845   69.4869 H   0  0  0  0  0  0  0  0  0  0  0  0
  -41.1879   61.1576   70.9494 H   0  0  0  0  0  0  0  0  0  0  0  0
  -40.1534   56.2932   71.9374 H   0  0  0  0  0  0  0  0  0  0  0  0
  -39.5506   57.6285   72.8895 H   0  0  0  0  0  0  0  0  0  0  0  0
  -38.6901   56.1079   72.8741 H   0  0  0  0  0  0  0  0  0  0  0  0
  -36.6540   58.2850   70.7822 H   0  0  0  0  0  0  0  0  0  0  0  0
  -36.6538   57.2669   72.2022 H   0  0  0  0  0  0  0  0  0  0  0  0
  -37.5143   58.7875   72.2176 H   0  0  0  0  0  0  0  0  0  0  0  0
  -41.1472   63.7099   65.7127 H   0  0  0  0  0  0  0  0  0  0  0  0
  -42.8504   63.7102   65.4077 H   0  0  0  0  0  0  0  0  0  0  0  0
  -40.1644   59.2843   66.0305 H   0  0  0  0  0  0  0  0  0  0  0  0
  -40.1985   60.2448   64.5410 H   0  0  0  0  0  0  0  0  0  0  0  0
  -41.8086   58.4429   64.4703 H   0  0  0  0  0  0  0  0  0  0  0  0
  -42.5713   60.0428   64.4426 H   0  0  0  0  0  0  0  0  0  0  0  0
  -43.1183   59.8483   66.7560 H   0  0  0  0  0  0  0  0  0  0  0  0
  -42.3406   58.2423   66.7808 H   0  0  0  0  0  0  0  0  0  0  0  0
  -43.9814   57.3901   65.3063 H   0  0  0  0  0  0  0  0  0  0  0  0
  -44.7539   58.9929   65.2537 H   0  0  0  0  0  0  0  0  0  0  0  0
  -44.5188   57.2683   67.6603 H   0  0  0  0  0  0  0  0  0  0  0  0
  -45.9594   57.4883   66.6576 H   0  0  0  0  0  0  0  0  0  0  0  0
  -44.5587   59.6157   68.1846 H   0  0  0  0  0  0  0  0  0  0  0  0
  -46.0905   58.7909   68.6133 H   0  0  0  0  0  0  0  0  0  0  0  0
  -46.4673   60.9889   67.7608 H   0  0  0  0  0  0  0  0  0  0  0  0
  -47.1413   59.7025   66.7386 H   0  0  0  0  0  0  0  0  0  0  0  0
  -44.9648   61.5544   66.0830 H   0  0  0  0  0  0  0  0  0  0  0  0
  -45.0144   60.7978   63.9963 H   0  0  0  0  0  0  0  0  0  0  0  0
  -46.0470   58.2533   64.6545 H   0  0  0  0  0  0  0  0  0  0  0  0
  -46.1726   59.1176   63.0889 H   0  0  0  0  0  0  0  0  0  0  0  0
  -48.2070   60.1075   63.7568 H   0  0  0  0  0  0  0  0  0  0  0  0
  -48.0940   59.2980   65.3282 H   0  0  0  0  0  0  0  0  0  0  0  0
  -49.6417   58.1850   63.8728 H   0  0  0  0  0  0  0  0  0  0  0  0
  -48.2122   57.1888   64.2658 H   0  0  0  0  0  0  0  0  0  0  0  0
  -48.6643   58.6193   61.7083 H   0  0  0  0  0  0  0  0  0  0  0  0
  -48.8921   56.8892   62.0063 H   0  0  0  0  0  0  0  0  0  0  0  0
  -46.3253   58.3736   62.2544 H   0  0  0  0  0  0  0  0  0  0  0  0
  -46.8300   57.2956   60.9203 H   0  0  0  0  0  0  0  0  0  0  0  0
  -46.3772   56.4690   63.7258 H   0  0  0  0  0  0  0  0  0  0  0  0
  -45.2748   56.2349   62.3547 H   0  0  0  0  0  0  0  0  0  0  0  0
  -47.9945   55.1213   62.6011 H   0  0  0  0  0  0  0  0  0  0  0  0
  -46.4574   54.2685   62.8560 H   0  0  0  0  0  0  0  0  0  0  0  0
  -47.3846   55.4777   60.3345 H   0  0  0  0  0  0  0  0  0  0  0  0
  -47.3606   53.7755   60.7283 H   0  0  0  0  0  0  0  0  0  0  0  0
  -45.8616   54.6645   60.6034 H   0  0  0  0  0  0  0  0  0  0  0  0
  1  9  1  0  0  0  0
  1 11  1  0  0  0  0
  1 13  1  0  0  0  0
  1 15  1  0  0  0  0
  2  3  1  0  0  0  0
  2  5  1  0  0  0  0
  2 17  1  0  0  0  0
  2 36  1  1  0  0  0
  3 37  1  0  0  0  0
  4  6  1  0  0  0  0
  4  8  2  1  0  0  0
  4 10  1  0  0  0  0
  4 12  1  0  0  0  0
  5  6  1  0  0  0  0
  5 38  1  0  0  0  0
  5 39  1  0  0  0  0
  7  9  1  0  0  0  0
  7 10  1  0  0  0  0
  7 40  1  0  0  0  0
  7 41  1  0  0  0  0
  9 42  1  0  0  0  0
  9 43  1  0  0  0  0
 11 44  1  0  0  0  0
 11 45  1  0  0  0  0
 11 46  1  0  0  0  0
 12 47  1  0  0  0  0
 13 48  1  0  0  0  0
 13 49  1  0  0  0  0
 13 50  1  0  0  0  0
 14 17  1  0  0  0  0
 14 18  1  0  0  0  0
 15 51  1  0  0  0  0
 15 52  1  0  0  0  0
 15 53  1  0  0  0  0
 16 18  2  0  0  0  0
 17 54  1  0  0  0  0
 17 55  1  0  0  0  0
 18 19  1  0  0  0  0
 19 20  1  0  0  0  0
 19 56  1  0  0  0  0
 19 57  1  0  0  0  0
 20 21  1  0  0  0  0
 20 58  1  0  0  0  0
 20 59  1  0  0  0  0
 21 22  1  0  0  0  0
 21 60  1  0  0  0  0
 21 61  1  0  0  0  0
 22 23  1  0  0  0  0
 22 62  1  0  0  0  0
 22 63  1  0  0  0  0
 23 24  1  0  0  0  0
 23 64  1  0  0  0  0
 23 65  1  0  0  0  0
 24 25  1  0  0  0  0
 24 66  1  0  0  0  0
 24 67  1  0  0  0  0
 25 26  1  0  0  0  0
 25 68  1  0  0  0  0
 25 69  1  0  0  0  0
 26 27  2  0  0  0  0
 26 70  1  0  0  0  0
 27 28  1  0  0  0  0
 27 71  1  0  0  0  0
 28 29  1  0  0  0  0
 28 72  1  0  0  0  0
 28 73  1  0  0  0  0
 29 30  1  0  0  0  0
 29 74  1  0  0  0  0
 29 75  1  0  0  0  0
 30 31  1  0  0  0  0
 30 76  1  0  0  0  0
 30 77  1  0  0  0  0
 31 32  1  0  0  0  0
 31 78  1  0  0  0  0
 31 79  1  0  0  0  0
 32 33  1  0  0  0  0
 32 80  1  0  0  0  0
 32 81  1  0  0  0  0
 33 34  1  0  0  0  0
 33 82  1  0  0  0  0
 33 83  1  0  0  0  0
 34 35  1  0  0  0  0
 34 84  1  0  0  0  0
 34 85  1  0  0  0  0
 35 86  1  0  0  0  0
 35 87  1  0  0  0  0
 35 88  1  0  0  0  0
M  CHG  1   8  -1
M  END
$$$$
/media/chris/experiments/cd1a-new-docking/inputs/ligands/4x6c_ligand.pdb
 OpenBabel07012320263D

 88 87  0  0  1  0  0  0  0  0999 V2000
  -37.0417   63.5478   63.5462 N   0  0  0  0  0  4  0  0  0  0  0  0
  -41.4868   64.1512   66.8127 C   0  0  1  0  0  0  0  0  0  0  0  0
  -42.2319   65.0935   67.5841 O   0  0  0  0  0  0  0  0  0  0  0  0
  -38.2933   62.0147   67.5110 P   0  0  2  0  0  0  0  0  0  0  0  0
  -40.3336   63.6558   67.6512 C   0  0  0  0  0  0  0  0  0  0  0  0
  -39.5686   62.7161   66.8699 O   0  0  0  0  0  0  0  0  0  0  0  0
  -37.6942   61.5324   65.0020 C   0  0  0  0  0  0  0  0  0  0  0  0
  -37.3566   63.0892   67.8972 O   0  5  0  0  0  0  0  0  0  0  0  0
  -37.0507   62.8977   64.9155 C   0  0  0  0  0  0  0  0  0  0  0  0
  -37.5957   61.1352   66.3899 O   0  0  0  0  0  0  0  0  0  0  0  0
  -38.4326   63.7569   63.0397 C   0  0  0  0  0  0  0  0  0  0  0  0
  -38.7907   61.0875   68.5464 O   0  0  0  0  0  0  0  0  0  0  0  0
  -36.3087   62.6718   62.5814 C   0  0  0  0  0  0  0  0  0  0  0  0
  -41.6074   62.1433   65.5447 O   0  0  0  0  0  0  0  0  0  0  0  0
  -36.3567   64.8758   63.6262 C   0  0  0  0  0  0  0  0  0  0  0  0
  -40.5002   61.4048   67.3330 O   0  0  0  0  0  0  0  0  0  0  0  0
  -42.4146   63.0735   66.3005 C   0  0  0  0  0  0  0  0  0  0  0  0
  -40.9154   61.2318   66.2282 C   0  0  0  0  0  0  0  0  0  0  0  0
  -40.7200   59.9800   65.4370 C   0  0  0  0  0  0  0  0  0  0  0  0
  -42.0280   59.3300   65.0270 C   0  0  0  0  0  0  0  0  0  0  0  0
  -42.8960   58.9560   66.2090 C   0  0  0  0  0  0  0  0  0  0  0  0
  -44.2012   58.2902   65.8416 C   0  0  0  0  0  0  0  0  0  0  0  0
  -45.0623   57.9388   67.0279 C   0  0  0  0  0  0  0  0  0  0  0  0
  -45.4546   59.1497   67.8311 C   0  0  0  0  0  0  0  0  0  0  0  0
  -46.2524   60.1824   67.0913 C   0  0  0  0  0  0  0  0  0  0  0  0
  -47.5346   59.6741   66.5827 C   0  0  0  0  0  0  0  0  0  0  0  0
  -48.6545   60.3392   66.4035 C   0  0  0  0  0  0  0  0  0  0  0  0
  -48.9094   61.7815   66.6467 C   0  0  0  0  0  0  0  0  0  0  0  0
  -49.9918   62.0916   67.6604 C   0  0  0  0  0  0  0  0  0  0  0  0
  -49.6831   61.5434   69.0265 C   0  0  0  0  0  0  0  0  0  0  0  0
  -48.4205   62.0810   69.6500 C   0  0  0  0  0  0  0  0  0  0  0  0
  -48.1466   61.4865   71.0139 C   0  0  0  0  0  0  0  0  0  0  0  0
  -46.9066   61.9998   71.6911 C   0  0  0  0  0  0  0  0  0  0  0  0
  -45.6760   61.7568   70.9127 C   0  0  0  0  0  0  0  0  0  0  0  0
  -44.4658   62.2397   71.5748 C   0  0  0  0  0  0  0  0  0  0  0  0
  -41.0571   64.5919   65.9374 H   0  0  0  0  0  0  0  0  0  0  0  0
  -42.6017   64.6520   68.3646 H   0  0  0  0  0  0  0  0  0  0  0  0
  -40.7077   63.1739   68.5302 H   0  0  0  0  0  0  0  0  0  0  0  0
  -39.7145   64.4778   67.9442 H   0  0  0  0  0  0  0  0  0  0  0  0
  -37.1748   60.8358   64.3777 H   0  0  0  0  0  0  0  0  0  0  0  0
  -38.7115   61.5558   64.6712 H   0  0  0  0  0  0  0  0  0  0  0  0
  -37.5757   63.5490   65.5826 H   0  0  0  0  0  0  0  0  0  0  0  0
  -36.0218   62.7458   65.1671 H   0  0  0  0  0  0  0  0  0  0  0  0
  -38.9350   62.8143   62.9773 H   0  0  0  0  0  0  0  0  0  0  0  0
  -38.3951   64.2060   62.0692 H   0  0  0  0  0  0  0  0  0  0  0  0
  -38.9633   64.4002   63.7101 H   0  0  0  0  0  0  0  0  0  0  0  0
  -39.2252   61.5928   69.2512 H   0  0  0  0  0  0  0  0  0  0  0  0
  -36.7959   61.7211   62.5217 H   0  0  0  0  0  0  0  0  0  0  0  0
  -35.3017   62.5362   62.9169 H   0  0  0  0  0  0  0  0  0  0  0  0
  -36.3038   63.1314   61.6151 H   0  0  0  0  0  0  0  0  0  0  0  0
  -36.8789   65.5055   64.3160 H   0  0  0  0  0  0  0  0  0  0  0  0
  -36.3518   65.3335   62.6590 H   0  0  0  0  0  0  0  0  0  0  0  0
  -35.3498   64.7382   63.9608 H   0  0  0  0  0  0  0  0  0  0  0  0
  -43.1653   63.5039   65.6711 H   0  0  0  0  0  0  0  0  0  0  0  0
  -42.9084   62.5790   67.1107 H   0  0  0  0  0  0  0  0  0  0  0  0
  -40.1644   59.2843   66.0305 H   0  0  0  0  0  0  0  0  0  0  0  0
  -40.1985   60.2448   64.5410 H   0  0  0  0  0  0  0  0  0  0  0  0
  -41.8086   58.4429   64.4703 H   0  0  0  0  0  0  0  0  0  0  0  0
  -42.5713   60.0428   64.4426 H   0  0  0  0  0  0  0  0  0  0  0  0
  -43.1183   59.8483   66.7560 H   0  0  0  0  0  0  0  0  0  0  0  0
  -42.3406   58.2423   66.7808 H   0  0  0  0  0  0  0  0  0  0  0  0
  -43.9814   57.3901   65.3063 H   0  0  0  0  0  0  0  0  0  0  0  0
  -44.7539   58.9929   65.2537 H   0  0  0  0  0  0  0  0  0  0  0  0
  -44.5188   57.2683   67.6603 H   0  0  0  0  0  0  0  0  0  0  0  0
  -45.9594   57.4883   66.6576 H   0  0  0  0  0  0  0  0  0  0  0  0
  -44.5587   59.6157   68.1846 H   0  0  0  0  0  0  0  0  0  0  0  0
  -46.0905   58.7909   68.6133 H   0  0  0  0  0  0  0  0  0  0  0  0
  -45.6721   60.5297   66.2622 H   0  0  0  0  0  0  0  0  0  0  0  0
  -46.4756   60.9662   67.7847 H   0  0  0  0  0  0  0  0  0  0  0  0
  -47.5586   58.6723   66.3359 H   0  0  0  0  0  0  0  0  0  0  0  0
  -49.4547   59.7914   66.0504 H   0  0  0  0  0  0  0  0  0  0  0  0
  -49.1919   62.2276   65.7161 H   0  0  0  0  0  0  0  0  0  0  0  0
  -48.0024   62.1746   67.0564 H   0  0  0  0  0  0  0  0  0  0  0  0
  -50.9118   61.6643   67.3201 H   0  0  0  0  0  0  0  0  0  0  0  0
  -50.0575   63.1561   67.7470 H   0  0  0  0  0  0  0  0  0  0  0  0
  -49.5886   60.4806   68.9456 H   0  0  0  0  0  0  0  0  0  0  0  0
  -50.4877   61.8471   69.6630 H   0  0  0  0  0  0  0  0  0  0  0  0
  -48.5132   63.1422   69.7511 H   0  0  0  0  0  0  0  0  0  0  0  0
  -47.6047   61.8152   69.0108 H   0  0  0  0  0  0  0  0  0  0  0  0
  -48.0492   60.4269   70.9010 H   0  0  0  0  0  0  0  0  0  0  0  0
  -48.9686   61.7726   71.6363 H   0  0  0  0  0  0  0  0  0  0  0  0
  -46.8108   61.5134   72.6393 H   0  0  0  0  0  0  0  0  0  0  0  0
  -47.0149   63.0595   71.7921 H   0  0  0  0  0  0  0  0  0  0  0  0
  -45.7677   62.2534   69.9694 H   0  0  0  0  0  0  0  0  0  0  0  0
  -45.5752   60.6972   70.8037 H   0  0  0  0  0  0  0  0  0  0  0  0
  -44.5282   63.3002   71.7027 H   0  0  0  0  0  0  0  0  0  0  0  0
  -43.6122   62.0023   70.9749 H   0  0  0  0  0  0  0  0  0  0  0  0
  -44.3711   61.7700   72.5315 H   0  0  0  0  0  0  0  0  0  0  0  0
  1  9  1  0  0  0  0
  1 11  1  0  0  0  0
  1 13  1  0  0  0  0
  1 15  1  0  0  0  0
  2  3  1  0  0  0  0
  2  5  1  0  0  0  0
  2 17  1  0  0  0  0
  2 36  1  6  0  0  0
  3 37  1  0  0  0  0
  4  6  1  0  0  0  0
  4  8  2  1  0  0  0
  4 10  1  0  0  0  0
  4 12  1  0  0  0  0
  5  6  1  0  0  0  0
  5 38  1  0  0  0  0
  5 39  1  0  0  0  0
  7  9  1  0  0  0  0
  7 10  1  0  0  0  0
  7 40  1  0  0  0  0
  7 41  1  0  0  0  0
  9 42  1  0  0  0  0
  9 43  1  0  0  0  0
 11 44  1  0  0  0  0
 11 45  1  0  0  0  0
 11 46  1  0  0  0  0
 12 47  1  0  0  0  0
 13 48  1  0  0  0  0
 13 49  1  0  0  0  0
 13 50  1  0  0  0  0
 14 17  1  0  0  0  0
 14 18  1  0  0  0  0
 15 51  1  0  0  0  0
 15 52  1  0  0  0  0
 15 53  1  0  0  0  0
 16 18  2  0  0  0  0
 17 54  1  0  0  0  0
 17 55  1  0  0  0  0
 18 19  1  0  0  0  0
 19 20  1  0  0  0  0
 19 56  1  0  0  0  0
 19 57  1  0  0  0  0
 20 21  1  0  0  0  0
 20 58  1  0  0  0  0
 20 59  1  0  0  0  0
 21 22  1  0  0  0  0
 21 60  1  0  0  0  0
 21 61  1  0  0  0  0
 22 23  1  0  0  0  0
 22 62  1  0  0  0  0
 22 63  1  0  0  0  0
 23 24  1  0  0  0  0
 23 64  1  0  0  0  0
 23 65  1  0  0  0  0
 24 25  1  0  0  0  0
 24 66  1  0  0  0  0
 24 67  1  0  0  0  0
 25 26  1  0  0  0  0
 25 68  1  0  0  0  0
 25 69  1  0  0  0  0
 26 27  2  0  0  0  0
 26 70  1  0  0  0  0
 27 28  1  0  0  0  0
 27 71  1  0  0  0  0
 28 29  1  0  0  0  0
 28 72  1  0  0  0  0
 28 73  1  0  0  0  0
 29 30  1  0  0  0  0
 29 74  1  0  0  0  0
 29 75  1  0  0  0  0
 30 31  1  0  0  0  0
 30 76  1  0  0  0  0
 30 77  1  0  0  0  0
 31 32  1  0  0  0  0
 31 78  1  0  0  0  0
 31 79  1  0  0  0  0
 32 33  1  0  0  0  0
 32 80  1  0  0  0  0
 32 81  1  0  0  0  0
 33 34  1  0  0  0  0
 33 82  1  0  0  0  0
 33 83  1  0  0  0  0
 34 35  1  0  0  0  0
 34 84  1  0  0  0  0
 34 85  1  0  0  0  0
 35 86  1  0  0  0  0
 35 87  1  0  0  0  0
 35 88  1  0  0  0  0
M  CHG  1   8  -1
M  END
$$$$
/media/chris/experiments/cd1a-new-docking/inputs/ligands/4x6c_ligand.pdb
 OpenBabel07012320263D

 88 87  0  0  1  0  0  0  0  0999 V2000
  -36.8871   60.6814   62.7148 N   0  0  0  0  0  4  0  0  0  0  0  0
  -41.4868   64.1512   66.8127 C   0  0  1  0  0  0  0  0  0  0  0  0
  -42.2319   65.0935   67.5841 O   0  0  0  0  0  0  0  0  0  0  0  0
  -38.2933   62.0147   67.5110 P   0  0  2  0  0  0  0  0  0  0  0  0
  -40.3336   63.6558   67.6512 C   0  0  0  0  0  0  0  0  0  0  0  0
  -39.5686   62.7161   66.8699 O   0  0  0  0  0  0  0  0  0  0  0  0
  -37.6942   61.5324   65.0020 C   0  0  0  0  0  0  0  0  0  0  0  0
  -37.3566   63.0892   67.8972 O   0  5  0  0  0  0  0  0  0  0  0  0
  -36.9448   60.4806   64.2162 C   0  0  0  0  0  0  0  0  0  0  0  0
  -37.5957   61.1352   66.3899 O   0  0  0  0  0  0  0  0  0  0  0  0
  -36.2035   61.9650   62.3686 C   0  0  0  0  0  0  0  0  0  0  0  0
  -38.7907   61.0875   68.5464 O   0  0  0  0  0  0  0  0  0  0  0  0
  -38.2755   60.7150   62.1610 C   0  0  0  0  0  0  0  0  0  0  0  0
  -41.6074   62.1433   65.5447 O   0  0  0  0  0  0  0  0  0  0  0  0
  -36.1320   59.5524   62.0867 C   0  0  0  0  0  0  0  0  0  0  0  0
  -40.5002   61.4048   67.3330 O   0  0  0  0  0  0  0  0  0  0  0  0
  -42.4146   63.0735   66.3005 C   0  0  0  0  0  0  0  0  0  0  0  0
  -40.9154   61.2318   66.2282 C   0  0  0  0  0  0  0  0  0  0  0  0
  -40.7200   59.9800   65.4370 C   0  0  0  0  0  0  0  0  0  0  0  0
  -42.0280   59.3300   65.0270 C   0  0  0  0  0  0  0  0  0  0  0  0
  -42.8960   58.9560   66.2090 C   0  0  0  0  0  0  0  0  0  0  0  0
  -44.2012   58.2902   65.8416 C   0  0  0  0  0  0  0  0  0  0  0  0
  -45.0623   57.9388   67.0279 C   0  0  0  0  0  0  0  0  0  0  0  0
  -44.3705   57.0027   67.9821 C   0  0  0  0  0  0  0  0  0  0  0  0
  -43.1025   57.5245   68.5905 C   0  0  0  0  0  0  0  0  0  0  0  0
  -43.2966   58.7466   69.3840 C   0  0  0  0  0  0  0  0  0  0  0  0
  -43.0427   58.9306   70.6609 C   0  0  0  0  0  0  0  0  0  0  0  0
  -42.4727   57.9593   71.6283 C   0  0  0  0  0  0  0  0  0  0  0  0
  -43.3505   57.6314   72.8188 C   0  0  0  0  0  0  0  0  0  0  0  0
  -44.6642   57.0168   72.4206 C   0  0  0  0  0  0  0  0  0  0  0  0
  -44.5484   55.7146   71.6704 C   0  0  0  0  0  0  0  0  0  0  0  0
  -43.8567   54.6381   72.4774 C   0  0  0  0  0  0  0  0  0  0  0  0
  -43.6984   53.3205   71.7712 C   0  0  0  0  0  0  0  0  0  0  0  0
  -44.9840   52.7239   71.3585 C   0  0  0  0  0  0  0  0  0  0  0  0
  -44.8360   51.4347   70.6860 C   0  0  0  0  0  0  0  0  0  0  0  0
  -41.0571   64.5919   65.9374 H   0  0  0  0  0  0  0  0  0  0  0  0
  -42.6017   64.6520   68.3646 H   0  0  0  0  0  0  0  0  0  0  0  0
  -40.7077   63.1739   68.5302 H   0  0  0  0  0  0  0  0  0  0  0  0
  -39.7145   64.4778   67.9442 H   0  0  0  0  0  0  0  0  0  0  0  0
  -38.7191   61.5657   64.6962 H   0  0  0  0  0  0  0  0  0  0  0  0
  -37.2849   62.5081   64.8425 H   0  0  0  0  0  0  0  0  0  0  0  0
  -35.9392   60.4553   64.5810 H   0  0  0  0  0  0  0  0  0  0  0  0
  -37.4895   59.5714   64.3628 H   0  0  0  0  0  0  0  0  0  0  0  0
  -36.7334   62.7821   62.8118 H   0  0  0  0  0  0  0  0  0  0  0  0
  -36.1874   62.0850   61.3055 H   0  0  0  0  0  0  0  0  0  0  0  0
  -35.2004   61.9465   62.7407 H   0  0  0  0  0  0  0  0  0  0  0  0
  -39.2252   61.5928   69.2512 H   0  0  0  0  0  0  0  0  0  0  0  0
  -38.8184   61.5214   62.6081 H   0  0  0  0  0  0  0  0  0  0  0  0
  -38.7682   59.7901   62.3771 H   0  0  0  0  0  0  0  0  0  0  0  0
  -38.2334   60.8576   61.1014 H   0  0  0  0  0  0  0  0  0  0  0  0
  -35.1376   59.5254   62.4809 H   0  0  0  0  0  0  0  0  0  0  0  0
  -36.0919   59.6960   61.0271 H   0  0  0  0  0  0  0  0  0  0  0  0
  -36.6266   58.6285   62.3029 H   0  0  0  0  0  0  0  0  0  0  0  0
  -43.1653   63.5039   65.6711 H   0  0  0  0  0  0  0  0  0  0  0  0
  -42.9084   62.5790   67.1107 H   0  0  0  0  0  0  0  0  0  0  0  0
  -40.1644   59.2843   66.0305 H   0  0  0  0  0  0  0  0  0  0  0  0
  -40.1985   60.2448   64.5410 H   0  0  0  0  0  0  0  0  0  0  0  0
  -41.8086   58.4429   64.4703 H   0  0  0  0  0  0  0  0  0  0  0  0
  -42.5713   60.0428   64.4426 H   0  0  0  0  0  0  0  0  0  0  0  0
  -43.1183   59.8483   66.7560 H   0  0  0  0  0  0  0  0  0  0  0  0
  -42.3406   58.2423   66.7808 H   0  0  0  0  0  0  0  0  0  0  0  0
  -43.9814   57.3901   65.3063 H   0  0  0  0  0  0  0  0  0  0  0  0
  -44.7539   58.9929   65.2537 H   0  0  0  0  0  0  0  0  0  0  0  0
  -45.9577   57.4707   66.6758 H   0  0  0  0  0  0  0  0  0  0  0  0
  -45.2749   58.8446   67.5562 H   0  0  0  0  0  0  0  0  0  0  0  0
  -44.1362   56.1039   67.4510 H   0  0  0  0  0  0  0  0  0  0  0  0
  -45.0496   56.8570   68.7961 H   0  0  0  0  0  0  0  0  0  0  0  0
  -42.4108   57.7378   67.8025 H   0  0  0  0  0  0  0  0  0  0  0  0
  -42.7370   56.7702   69.2555 H   0  0  0  0  0  0  0  0  0  0  0  0
  -43.6792   59.5598   68.8767 H   0  0  0  0  0  0  0  0  0  0  0  0
  -43.2673   59.8651   71.0369 H   0  0  0  0  0  0  0  0  0  0  0  0
  -41.5535   58.3633   71.9981 H   0  0  0  0  0  0  0  0  0  0  0  0
  -42.3554   57.0426   71.0890 H   0  0  0  0  0  0  0  0  0  0  0  0
  -43.5449   58.5340   73.3594 H   0  0  0  0  0  0  0  0  0  0  0  0
  -42.8277   56.9155   73.4179 H   0  0  0  0  0  0  0  0  0  0  0  0
  -45.1838   57.7150   71.7981 H   0  0  0  0  0  0  0  0  0  0  0  0
  -45.1831   56.7967   73.3301 H   0  0  0  0  0  0  0  0  0  0  0  0
  -43.9889   55.8840   70.7742 H   0  0  0  0  0  0  0  0  0  0  0  0
  -45.5401   55.3737   71.4579 H   0  0  0  0  0  0  0  0  0  0  0  0
  -44.4270   54.4718   73.3673 H   0  0  0  0  0  0  0  0  0  0  0  0
  -42.8669   54.9964   72.6692 H   0  0  0  0  0  0  0  0  0  0  0  0
  -43.2031   52.6387   72.4306 H   0  0  0  0  0  0  0  0  0  0  0  0
  -43.1321   53.5024   70.8818 H   0  0  0  0  0  0  0  0  0  0  0  0
  -45.4731   53.4011   70.6899 H   0  0  0  0  0  0  0  0  0  0  0  0
  -45.5530   52.5526   72.2484 H   0  0  0  0  0  0  0  0  0  0  0  0
  -44.2700   51.5641   69.7872 H   0  0  0  0  0  0  0  0  0  0  0  0
  -45.8030   51.0448   70.4455 H   0  0  0  0  0  0  0  0  0  0  0  0
  -44.3267   50.7513   71.3329 H   0  0  0  0  0  0  0  0  0  0  0  0
  1  9  1  0  0  0  0
  1 11  1  0  0  0  0
  1 13  1  0  0  0  0
  1 15  1  0  0  0  0
  2  3  1  0  0  0  0
  2  5  1  0  0  0  0
  2 17  1  0  0  0  0
  2 36  1  6  0  0  0
  3 37  1  0  0  0  0
  4  6  1  0  0  0  0
  4  8  2  1  0  0  0
  4 10  1  0  0  0  0
  4 12  1  0  0  0  0
  5  6  1  0  0  0  0
  5 38  1  0  0  0  0
  5 39  1  0  0  0  0
  7  9  1  0  0  0  0
  7 10  1  0  0  0  0
  7 40  1  0  0  0  0
  7 41  1  0  0  0  0
  9 42  1  0  0  0  0
  9 43  1  0  0  0  0
 11 44  1  0  0  0  0
 11 45  1  0  0  0  0
 11 46  1  0  0  0  0
 12 47  1  0  0  0  0
 13 48  1  0  0  0  0
 13 49  1  0  0  0  0
 13 50  1  0  0  0  0
 14 17  1  0  0  0  0
 14 18  1  0  0  0  0
 15 51  1  0  0  0  0
 15 52  1  0  0  0  0
 15 53  1  0  0  0  0
 16 18  2  0  0  0  0
 17 54  1  0  0  0  0
 17 55  1  0  0  0  0
 18 19  1  0  0  0  0
 19 20  1  0  0  0  0
 19 56  1  0  0  0  0
 19 57  1  0  0  0  0
 20 21  1  0  0  0  0
 20 58  1  0  0  0  0
 20 59  1  0  0  0  0
 21 22  1  0  0  0  0
 21 60  1  0  0  0  0
 21 61  1  0  0  0  0
 22 23  1  0  0  0  0
 22 62  1  0  0  0  0
 22 63  1  0  0  0  0
 23 24  1  0  0  0  0
 23 64  1  0  0  0  0
 23 65  1  0  0  0  0
 24 25  1  0  0  0  0
 24 66  1  0  0  0  0
 24 67  1  0  0  0  0
 25 26  1  0  0  0  0
 25 68  1  0  0  0  0
 25 69  1  0  0  0  0
 26 27  2  0  0  0  0
 26 70  1  0  0  0  0
 27 28  1  0  0  0  0
 27 71  1  0  0  0  0
 28 29  1  0  0  0  0
 28 72  1  0  0  0  0
 28 73  1  0  0  0  0
 29 30  1  0  0  0  0
 29 74  1  0  0  0  0
 29 75  1  0  0  0  0
 30 31  1  0  0  0  0
 30 76  1  0  0  0  0
 30 77  1  0  0  0  0
 31 32  1  0  0  0  0
 31 78  1  0  0  0  0
 31 79  1  0  0  0  0
 32 33  1  0  0  0  0
 32 80  1  0  0  0  0
 32 81  1  0  0  0  0
 33 34  1  0  0  0  0
 33 82  1  0  0  0  0
 33 83  1  0  0  0  0
 34 35  1  0  0  0  0
 34 84  1  0  0  0  0
 34 85  1  0  0  0  0
 35 86  1  0  0  0  0
 35 87  1  0  0  0  0
 35 88  1  0  0  0  0
M  CHG  1   8  -1
M  END
$$$$
/media/chris/experiments/cd1a-new-docking/inputs/ligands/4x6c_ligand.pdb
 OpenBabel07012320263D

 88 87  0  0  1  0  0  0  0  0999 V2000
  -46.6402   58.9595   71.3702 N   0  0  0  0  0  4  0  0  0  0  0  0
  -40.6663   57.8912   68.7210 C   0  0  1  0  0  0  0  0  0  0  0  0
  -40.5195   56.9907   69.8190 O   0  0  0  0  0  0  0  0  0  0  0  0
  -43.0837   56.6374   70.1151 P   0  0  2  0  0  0  0  0  0  0  0  0
  -41.9449   58.6702   68.9123 C   0  0  0  0  0  0  0  0  0  0  0  0
  -43.0449   57.7399   68.9695 O   0  0  0  0  0  0  0  0  0  0  0  0
  -44.5341   57.6531   72.0520 C   0  0  0  0  0  0  0  0  0  0  0  0
  -44.3052   55.8350   69.9025 O   0  5  0  0  0  0  0  0  0  0  0  0
  -45.2321   58.5164   71.0258 C   0  0  0  0  0  0  0  0  0  0  0  0
  -43.2204   57.3786   71.5112 O   0  0  0  0  0  0  0  0  0  0  0  0
  -46.6569   59.7778   72.6212 C   0  0  0  0  0  0  0  0  0  0  0  0
  -41.7700   55.9643   70.1052 O   0  0  0  0  0  0  0  0  0  0  0  0
  -47.5069   57.7583   71.5734 C   0  0  0  0  0  0  0  0  0  0  0  0
  -39.6287   59.6329   67.4785 O   0  0  0  0  0  0  0  0  0  0  0  0
  -47.1940   59.7845   70.2513 C   0  0  0  0  0  0  0  0  0  0  0  0
  -39.4477   58.0302   65.9397 O   0  0  0  0  0  0  0  0  0  0  0  0
  -39.4180   58.7331   68.5893 C   0  0  0  0  0  0  0  0  0  0  0  0
  -39.8694   59.0915   66.2844 C   0  0  0  0  0  0  0  0  0  0  0  0
  -40.7200   59.9800   65.4370 C   0  0  0  0  0  0  0  0  0  0  0  0
  -42.0280   59.3300   65.0270 C   0  0  0  0  0  0  0  0  0  0  0  0
  -42.8960   58.9560   66.2090 C   0  0  0  0  0  0  0  0  0  0  0  0
  -43.3110   60.1221   67.0749 C   0  0  0  0  0  0  0  0  0  0  0  0
  -44.1216   61.1643   66.3475 C   0  0  0  0  0  0  0  0  0  0  0  0
  -44.5026   62.3181   67.2358 C   0  0  0  0  0  0  0  0  0  0  0  0
  -45.3262   63.3886   66.5831 C   0  0  0  0  0  0  0  0  0  0  0  0
  -46.6169   62.9023   66.0746 C   0  0  0  0  0  0  0  0  0  0  0  0
  -47.8226   63.2994   66.4169 C   0  0  0  0  0  0  0  0  0  0  0  0
  -48.1940   64.3581   67.3894 C   0  0  0  0  0  0  0  0  0  0  0  0
  -49.0008   65.5096   66.8249 C   0  0  0  0  0  0  0  0  0  0  0  0
  -48.2850   66.2330   65.7175 C   0  0  0  0  0  0  0  0  0  0  0  0
  -46.9565   66.8275   66.1096 C   0  0  0  0  0  0  0  0  0  0  0  0
  -47.0776   67.8297   67.2363 C   0  0  0  0  0  0  0  0  0  0  0  0
  -45.7835   68.4679   67.6580 C   0  0  0  0  0  0  0  0  0  0  0  0
  -45.9429   69.4261   68.7696 C   0  0  0  0  0  0  0  0  0  0  0  0
  -46.8514   70.5283   68.4598 C   0  0  0  0  0  0  0  0  0  0  0  0
  -40.7606   57.3798   67.7859 H   0  0  0  0  0  0  0  0  0  0  0  0
  -40.4377   57.4961   70.6429 H   0  0  0  0  0  0  0  0  0  0  0  0
  -42.0837   59.3428   68.0917 H   0  0  0  0  0  0  0  0  0  0  0  0
  -41.8966   59.2361   69.8191 H   0  0  0  0  0  0  0  0  0  0  0  0
  -45.0737   56.7410   72.2001 H   0  0  0  0  0  0  0  0  0  0  0  0
  -44.4739   58.1424   73.0016 H   0  0  0  0  0  0  0  0  0  0  0  0
  -44.6394   59.3955   70.8813 H   0  0  0  0  0  0  0  0  0  0  0  0
  -45.3300   57.9030   70.1545 H   0  0  0  0  0  0  0  0  0  0  0  0
  -46.2630   59.1996   73.4309 H   0  0  0  0  0  0  0  0  0  0  0  0
  -47.6625   60.0664   72.8452 H   0  0  0  0  0  0  0  0  0  0  0  0
  -46.0570   60.6529   72.4830 H   0  0  0  0  0  0  0  0  0  0  0  0
  -41.6517   55.4987   69.2625 H   0  0  0  0  0  0  0  0  0  0  0  0
  -47.1137   57.1659   72.3731 H   0  0  0  0  0  0  0  0  0  0  0  0
  -47.5270   57.1770   70.6754 H   0  0  0  0  0  0  0  0  0  0  0  0
  -48.5003   58.0724   71.8173 H   0  0  0  0  0  0  0  0  0  0  0  0
  -46.5759   60.6453   70.1031 H   0  0  0  0  0  0  0  0  0  0  0  0
  -48.1876   60.0968   70.4963 H   0  0  0  0  0  0  0  0  0  0  0  0
  -47.2143   59.2014   69.3544 H   0  0  0  0  0  0  0  0  0  0  0  0
  -38.5712   58.1072   68.3993 H   0  0  0  0  0  0  0  0  0  0  0  0
  -39.2288   59.2779   69.4906 H   0  0  0  0  0  0  0  0  0  0  0  0
  -40.1733   60.2341   64.5530 H   0  0  0  0  0  0  0  0  0  0  0  0
  -40.9602   60.8449   66.0193 H   0  0  0  0  0  0  0  0  0  0  0  0
  -41.8086   58.4429   64.4703 H   0  0  0  0  0  0  0  0  0  0  0  0
  -42.5713   60.0428   64.4426 H   0  0  0  0  0  0  0  0  0  0  0  0
  -42.3518   58.2646   66.8179 H   0  0  0  0  0  0  0  0  0  0  0  0
  -43.7960   58.5403   65.8064 H   0  0  0  0  0  0  0  0  0  0  0  0
  -42.4276   60.5889   67.4576 H   0  0  0  0  0  0  0  0  0  0  0  0
  -43.9352   59.7276   67.8492 H   0  0  0  0  0  0  0  0  0  0  0  0
  -45.0148   60.7072   65.9759 H   0  0  0  0  0  0  0  0  0  0  0  0
  -43.5184   61.5502   65.5524 H   0  0  0  0  0  0  0  0  0  0  0  0
  -43.6015   62.7687   67.5962 H   0  0  0  0  0  0  0  0  0  0  0  0
  -45.1161   61.9047   68.0088 H   0  0  0  0  0  0  0  0  0  0  0  0
  -44.7693   63.7932   65.7639 H   0  0  0  0  0  0  0  0  0  0  0  0
  -45.5377   64.1247   67.3304 H   0  0  0  0  0  0  0  0  0  0  0  0
  -46.5710   62.1578   65.3614 H   0  0  0  0  0  0  0  0  0  0  0  0
  -48.6073   62.8159   65.9526 H   0  0  0  0  0  0  0  0  0  0  0  0
  -47.2913   64.7588   67.8009 H   0  0  0  0  0  0  0  0  0  0  0  0
  -48.8250   63.8843   68.1121 H   0  0  0  0  0  0  0  0  0  0  0  0
  -49.2028   66.2045   67.6131 H   0  0  0  0  0  0  0  0  0  0  0  0
  -49.9015   65.1024   66.4152 H   0  0  0  0  0  0  0  0  0  0  0  0
  -48.9166   67.0256   65.3744 H   0  0  0  0  0  0  0  0  0  0  0  0
  -48.0787   65.5028   64.9632 H   0  0  0  0  0  0  0  0  0  0  0  0
  -46.5361   67.3191   65.2572 H   0  0  0  0  0  0  0  0  0  0  0  0
  -46.3324   66.0286   66.4520 H   0  0  0  0  0  0  0  0  0  0  0  0
  -47.4924   67.3272   68.0849 H   0  0  0  0  0  0  0  0  0  0  0  0
  -47.6964   68.6213   66.8683 H   0  0  0  0  0  0  0  0  0  0  0  0
  -45.3707   68.9868   66.8183 H   0  0  0  0  0  0  0  0  0  0  0  0
  -45.1404   67.6852   68.0026 H   0  0  0  0  0  0  0  0  0  0  0  0
  -44.9825   69.8343   69.0059 H   0  0  0  0  0  0  0  0  0  0  0  0
  -46.3671   68.8885   69.5918 H   0  0  0  0  0  0  0  0  0  0  0  0
  -46.4606   71.0926   67.6389 H   0  0  0  0  0  0  0  0  0  0  0  0
  -46.9468   71.1632   69.3158 H   0  0  0  0  0  0  0  0  0  0  0  0
  -47.8118   70.1360   68.1978 H   0  0  0  0  0  0  0  0  0  0  0  0
  1  9  1  0  0  0  0
  1 11  1  0  0  0  0
  1 13  1  0  0  0  0
  1 15  1  0  0  0  0
  2  3  1  0  0  0  0
  2  5  1  0  0  0  0
  2 17  1  0  0  0  0
  2 36  1  6  0  0  0
  3 37  1  0  0  0  0
  4  6  1  0  0  0  0
  4  8  2  6  0  0  0
  4 10  1  0  0  0  0
  4 12  1  0  0  0  0
  5  6  1  0  0  0  0
  5 38  1  0  0  0  0
  5 39  1  0  0  0  0
  7  9  1  0  0  0  0
  7 10  1  0  0  0  0
  7 40  1  0  0  0  0
  7 41  1  0  0  0  0
  9 42  1  0  0  0  0
  9 43  1  0  0  0  0
 11 44  1  0  0  0  0
 11 45  1  0  0  0  0
 11 46  1  0  0  0  0
 12 47  1  0  0  0  0
 13 48  1  0  0  0  0
 13 49  1  0  0  0  0
 13 50  1  0  0  0  0
 14 17  1  0  0  0  0
 14 18  1  0  0  0  0
 15 51  1  0  0  0  0
 15 52  1  0  0  0  0
 15 53  1  0  0  0  0
 16 18  2  0  0  0  0
 17 54  1  0  0  0  0
 17 55  1  0  0  0  0
 18 19  1  0  0  0  0
 19 20  1  0  0  0  0
 19 56  1  0  0  0  0
 19 57  1  0  0  0  0
 20 21  1  0  0  0  0
 20 58  1  0  0  0  0
 20 59  1  0  0  0  0
 21 22  1  0  0  0  0
 21 60  1  0  0  0  0
 21 61  1  0  0  0  0
 22 23  1  0  0  0  0
 22 62  1  0  0  0  0
 22 63  1  0  0  0  0
 23 24  1  0  0  0  0
 23 64  1  0  0  0  0
 23 65  1  0  0  0  0
 24 25  1  0  0  0  0
 24 66  1  0  0  0  0
 24 67  1  0  0  0  0
 25 26  1  0  0  0  0
 25 68  1  0  0  0  0
 25 69  1  0  0  0  0
 26 27  2  0  0  0  0
 26 70  1  0  0  0  0
 27 28  1  0  0  0  0
 27 71  1  0  0  0  0
 28 29  1  0  0  0  0
 28 72  1  0  0  0  0
 28 73  1  0  0  0  0
 29 30  1  0  0  0  0
 29 74  1  0  0  0  0
 29 75  1  0  0  0  0
 30 31  1  0  0  0  0
 30 76  1  0  0  0  0
 30 77  1  0  0  0  0
 31 32  1  0  0  0  0
 31 78  1  0  0  0  0
 31 79  1  0  0  0  0
 32 33  1  0  0  0  0
 32 80  1  0  0  0  0
 32 81  1  0  0  0  0
 33 34  1  0  0  0  0
 33 82  1  0  0  0  0
 33 83  1  0  0  0  0
 34 35  1  0  0  0  0
 34 84  1  0  0  0  0
 34 85  1  0  0  0  0
 35 86  1  0  0  0  0
 35 87  1  0  0  0  0
 35 88  1  0  0  0  0
M  CHG  1   8  -1
M  END
$$$$
/media/chris/experiments/cd1a-new-docking/inputs/ligands/4x6c_ligand.pdb
 OpenBabel07012320263D

 88 87  0  0  1  0  0  0  0  0999 V2000
  -36.7536   50.8693   65.6239 N   0  0  0  0  0  4  0  0  0  0  0  0
  -36.6839   58.0497   66.7661 C   0  0  1  0  0  0  0  0  0  0  0  0
  -35.7895   57.7501   67.8377 O   0  0  0  0  0  0  0  0  0  0  0  0
  -36.5558   54.4593   65.2351 P   0  0  2  0  0  0  0  0  0  0  0  0
  -37.2832   56.7559   66.2708 C   0  0  0  0  0  0  0  0  0  0  0  0
  -36.2146   55.8950   65.8281 O   0  0  0  0  0  0  0  0  0  0  0  0
  -35.4943   52.7194   66.8881 C   0  0  0  0  0  0  0  0  0  0  0  0
  -37.8009   54.0063   65.8874 O   0  5  0  0  0  0  0  0  0  0  0  0
  -36.7394   51.8713   66.7612 C   0  0  0  0  0  0  0  0  0  0  0  0
  -35.3935   53.4627   65.6508 O   0  0  0  0  0  0  0  0  0  0  0  0
  -35.6403   49.8812   65.7622 C   0  0  0  0  0  0  0  0  0  0  0  0
  -36.5184   54.5843   63.7647 O   0  0  0  0  0  0  0  0  0  0  0  0
  -36.5958   51.5877   64.3223 C   0  0  0  0  0  0  0  0  0  0  0  0
  -38.5713   59.3368   66.1067 O   0  0  0  0  0  0  0  0  0  0  0  0
  -38.0539   50.1285   65.6247 C   0  0  0  0  0  0  0  0  0  0  0  0
  -40.2919   58.2579   67.0258 O   0  0  0  0  0  0  0  0  0  0  0  0
  -37.6858   59.0860   67.2206 C   0  0  0  0  0  0  0  0  0  0  0  0
  -39.8694   59.0915   66.2844 C   0  0  0  0  0  0  0  0  0  0  0  0
  -40.7200   59.9800   65.4370 C   0  0  0  0  0  0  0  0  0  0  0  0
  -42.0280   59.3300   65.0270 C   0  0  0  0  0  0  0  0  0  0  0  0
  -42.8960   58.9560   66.2090 C   0  0  0  0  0  0  0  0  0  0  0  0
  -44.2012   58.2902   65.8416 C   0  0  0  0  0  0  0  0  0  0  0  0
  -45.0623   57.9388   67.0279 C   0  0  0  0  0  0  0  0  0  0  0  0
  -46.3454   57.2626   66.6256 C   0  0  0  0  0  0  0  0  0  0  0  0
  -47.2342   58.0573   65.7153 C   0  0  0  0  0  0  0  0  0  0  0  0
  -46.6024   58.3930   64.4311 C   0  0  0  0  0  0  0  0  0  0  0  0
  -46.3685   59.5869   63.9325 C   0  0  0  0  0  0  0  0  0  0  0  0
  -46.6608   60.9067   64.5464 C   0  0  0  0  0  0  0  0  0  0  0  0
  -45.4598   61.8020   64.7731 C   0  0  0  0  0  0  0  0  0  0  0  0
  -44.7432   62.1475   63.4967 C   0  0  0  0  0  0  0  0  0  0  0  0
  -43.5299   63.0241   63.6734 C   0  0  0  0  0  0  0  0  0  0  0  0
  -42.8559   63.3561   62.3603 C   0  0  0  0  0  0  0  0  0  0  0  0
  -42.3780   62.1666   61.5752 C   0  0  0  0  0  0  0  0  0  0  0  0
  -43.4670   61.2453   61.1949 C   0  0  0  0  0  0  0  0  0  0  0  0
  -44.4848   61.8673   60.3504 C   0  0  0  0  0  0  0  0  0  0  0  0
  -36.1827   58.4907   65.9298 H   0  0  0  0  0  0  0  0  0  0  0  0
  -36.2851   57.3537   68.5712 H   0  0  0  0  0  0  0  0  0  0  0  0
  -37.9474   56.9547   65.4558 H   0  0  0  0  0  0  0  0  0  0  0  0
  -37.8327   56.2823   67.0574 H   0  0  0  0  0  0  0  0  0  0  0  0
  -34.6330   52.0986   67.0207 H   0  0  0  0  0  0  0  0  0  0  0  0
  -35.5475   53.3713   67.7350 H   0  0  0  0  0  0  0  0  0  0  0  0
  -36.8596   51.3289   67.6757 H   0  0  0  0  0  0  0  0  0  0  0  0
  -37.5326   52.5572   66.5485 H   0  0  0  0  0  0  0  0  0  0  0  0
  -34.7032   50.3976   65.7632 H   0  0  0  0  0  0  0  0  0  0  0  0
  -35.6686   49.1949   64.9418 H   0  0  0  0  0  0  0  0  0  0  0  0
  -35.7524   49.3438   66.6807 H   0  0  0  0  0  0  0  0  0  0  0  0
  -37.2187   55.1891   63.4737 H   0  0  0  0  0  0  0  0  0  0  0  0
  -35.6669   52.1187   64.3183 H   0  0  0  0  0  0  0  0  0  0  0  0
  -37.4025   52.2794   64.1966 H   0  0  0  0  0  0  0  0  0  0  0  0
  -36.6052   50.8793   63.5205 H   0  0  0  0  0  0  0  0  0  0  0  0
  -38.1701   49.6130   66.5551 H   0  0  0  0  0  0  0  0  0  0  0  0
  -38.0619   49.4213   64.8217 H   0  0  0  0  0  0  0  0  0  0  0  0
  -38.8592   50.8214   65.4978 H   0  0  0  0  0  0  0  0  0  0  0  0
  -37.1810   59.9876   67.4987 H   0  0  0  0  0  0  0  0  0  0  0  0
  -38.2331   58.7393   68.0722 H   0  0  0  0  0  0  0  0  0  0  0  0
  -40.1733   60.2341   64.5530 H   0  0  0  0  0  0  0  0  0  0  0  0
  -40.9602   60.8449   66.0193 H   0  0  0  0  0  0  0  0  0  0  0  0
  -41.8086   58.4429   64.4703 H   0  0  0  0  0  0  0  0  0  0  0  0
  -42.5713   60.0428   64.4426 H   0  0  0  0  0  0  0  0  0  0  0  0
  -43.1183   59.8483   66.7560 H   0  0  0  0  0  0  0  0  0  0  0  0
  -42.3406   58.2423   66.7808 H   0  0  0  0  0  0  0  0  0  0  0  0
  -43.9814   57.3901   65.3063 H   0  0  0  0  0  0  0  0  0  0  0  0
  -44.7539   58.9929   65.2537 H   0  0  0  0  0  0  0  0  0  0  0  0
  -45.2991   58.8372   67.5587 H   0  0  0  0  0  0  0  0  0  0  0  0
  -44.5114   57.2554   67.6397 H   0  0  0  0  0  0  0  0  0  0  0  0
  -46.8964   57.0438   67.5164 H   0  0  0  0  0  0  0  0  0  0  0  0
  -46.0590   56.3928   66.0721 H   0  0  0  0  0  0  0  0  0  0  0  0
  -47.5005   58.9676   66.2107 H   0  0  0  0  0  0  0  0  0  0  0  0
  -48.0885   57.4506   65.4985 H   0  0  0  0  0  0  0  0  0  0  0  0
  -46.3061   57.5935   63.8496 H   0  0  0  0  0  0  0  0  0  0  0  0
  -45.9275   59.6093   62.9997 H   0  0  0  0  0  0  0  0  0  0  0  0
  -47.1261   60.7334   65.4943 H   0  0  0  0  0  0  0  0  0  0  0  0
  -47.2844   61.4238   63.8474 H   0  0  0  0  0  0  0  0  0  0  0  0
  -44.7758   61.2987   65.4240 H   0  0  0  0  0  0  0  0  0  0  0  0
  -45.8148   62.7160   65.2016 H   0  0  0  0  0  0  0  0  0  0  0  0
  -45.4317   62.6567   62.8551 H   0  0  0  0  0  0  0  0  0  0  0  0
  -44.3915   61.2234   63.0877 H   0  0  0  0  0  0  0  0  0  0  0  0
  -42.8276   62.5151   64.3000 H   0  0  0  0  0  0  0  0  0  0  0  0
  -43.8557   63.9440   64.1122 H   0  0  0  0  0  0  0  0  0  0  0  0
  -42.0106   63.9782   62.5686 H   0  0  0  0  0  0  0  0  0  0  0  0
  -43.5969   63.8363   61.7559 H   0  0  0  0  0  0  0  0  0  0  0  0
  -41.6697   61.6287   62.1701 H   0  0  0  0  0  0  0  0  0  0  0  0
  -41.9438   62.5366   60.6700 H   0  0  0  0  0  0  0  0  0  0  0  0
  -43.9378   60.8897   62.0876 H   0  0  0  0  0  0  0  0  0  0  0  0
  -43.0264   60.4527   60.6269 H   0  0  0  0  0  0  0  0  0  0  0  0
  -44.9508   62.6686   60.8850 H   0  0  0  0  0  0  0  0  0  0  0  0
  -45.2224   61.1388   60.0855 H   0  0  0  0  0  0  0  0  0  0  0  0
  -44.0265   62.2500   59.4625 H   0  0  0  0  0  0  0  0  0  0  0  0
  1  9  1  0  0  0  0
  1 11  1  0  0  0  0
  1 13  1  0  0  0  0
  1 15  1  0  0  0  0
  2  3  1  0  0  0  0
  2  5  1  0  0  0  0
  2 17  1  0  0  0  0
  2 36  1  6  0  0  0
  3 37  1  0  0  0  0
  4  6  1  0  0  0  0
  4  8  2  1  0  0  0
  4 10  1  0  0  0  0
  4 12  1  0  0  0  0
  5  6  1  0  0  0  0
  5 38  1  0  0  0  0
  5 39  1  0  0  0  0
  7  9  1  0  0  0  0
  7 10  1  0  0  0  0
  7 40  1  0  0  0  0
  7 41  1  0  0  0  0
  9 42  1  0  0  0  0
  9 43  1  0  0  0  0
 11 44  1  0  0  0  0
 11 45  1  0  0  0  0
 11 46  1  0  0  0  0
 12 47  1  0  0  0  0
 13 48  1  0  0  0  0
 13 49  1  0  0  0  0
 13 50  1  0  0  0  0
 14 17  1  0  0  0  0
 14 18  1  0  0  0  0
 15 51  1  0  0  0  0
 15 52  1  0  0  0  0
 15 53  1  0  0  0  0
 16 18  2  0  0  0  0
 17 54  1  0  0  0  0
 17 55  1  0  0  0  0
 18 19  1  0  0  0  0
 19 20  1  0  0  0  0
 19 56  1  0  0  0  0
 19 57  1  0  0  0  0
 20 21  1  0  0  0  0
 20 58  1  0  0  0  0
 20 59  1  0  0  0  0
 21 22  1  0  0  0  0
 21 60  1  0  0  0  0
 21 61  1  0  0  0  0
 22 23  1  0  0  0  0
 22 62  1  0  0  0  0
 22 63  1  0  0  0  0
 23 24  1  0  0  0  0
 23 64  1  0  0  0  0
 23 65  1  0  0  0  0
 24 25  1  0  0  0  0
 24 66  1  0  0  0  0
 24 67  1  0  0  0  0
 25 26  1  0  0  0  0
 25 68  1  0  0  0  0
 25 69  1  0  0  0  0
 26 27  2  0  0  0  0
 26 70  1  0  0  0  0
 27 28  1  0  0  0  0
 27 71  1  0  0  0  0
 28 29  1  0  0  0  0
 28 72  1  0  0  0  0
 28 73  1  0  0  0  0
 29 30  1  0  0  0  0
 29 74  1  0  0  0  0
 29 75  1  0  0  0  0
 30 31  1  0  0  0  0
 30 76  1  0  0  0  0
 30 77  1  0  0  0  0
 31 32  1  0  0  0  0
 31 78  1  0  0  0  0
 31 79  1  0  0  0  0
 32 33  1  0  0  0  0
 32 80  1  0  0  0  0
 32 81  1  0  0  0  0
 33 34  1  0  0  0  0
 33 82  1  0  0  0  0
 33 83  1  0  0  0  0
 34 35  1  0  0  0  0
 34 84  1  0  0  0  0
 34 85  1  0  0  0  0
 35 86  1  0  0  0  0
 35 87  1  0  0  0  0
 35 88  1  0  0  0  0
M  CHG  1   8  -1
M  END
$$$$
/media/chris/experiments/cd1a-new-docking/inputs/ligands/4x6c_ligand.pdb
 OpenBabel07012320263D

 88 87  0  0  1  0  0  0  0  0999 V2000
  -42.1627   64.1637   70.3371 N   0  0  0  0  0  4  0  0  0  0  0  0
  -40.5864   64.1180   67.0958 C   0  0  1  0  0  0  0  0  0  0  0  0
  -40.5096   64.7900   65.8386 O   0  0  0  0  0  0  0  0  0  0  0  0
  -44.4085   64.7664   67.5673 P   0  0  2  0  0  0  0  0  0  0  0  0
  -42.0205   63.7094   67.3300 C   0  0  0  0  0  0  0  0  0  0  0  0
  -42.8418   64.8944   67.3253 O   0  0  0  0  0  0  0  0  0  0  0  0
  -44.6942   63.8581   70.0126 C   0  0  0  0  0  0  0  0  0  0  0  0
  -45.0530   65.8657   66.8208 O   0  5  0  0  0  0  0  0  0  0  0  0
  -43.3086   63.2591   69.9292 C   0  0  0  0  0  0  0  0  0  0  0  0
  -44.6910   64.9908   69.1122 O   0  0  0  0  0  0  0  0  0  0  0  0
  -42.2982   64.5962   71.7617 C   0  0  0  0  0  0  0  0  0  0  0  0
  -44.7767   63.3716   67.2543 O   0  0  0  0  0  0  0  0  0  0  0  0
  -42.1516   65.3799   69.4676 C   0  0  0  0  0  0  0  0  0  0  0  0
  -39.9204   62.0973   66.0341 O   0  0  0  0  0  0  0  0  0  0  0  0
  -40.8665   63.4325   70.1802 C   0  0  0  0  0  0  0  0  0  0  0  0
  -41.8412   61.4362   66.9521 O   0  0  0  0  0  0  0  0  0  0  0  0
  -39.5859   62.9854   67.1238 C   0  0  0  0  0  0  0  0  0  0  0  0
  -40.9154   61.2318   66.2282 C   0  0  0  0  0  0  0  0  0  0  0  0
  -40.7200   59.9800   65.4370 C   0  0  0  0  0  0  0  0  0  0  0  0
  -42.0280   59.3300   65.0270 C   0  0  0  0  0  0  0  0  0  0  0  0
  -42.8960   58.9560   66.2090 C   0  0  0  0  0  0  0  0  0  0  0  0
  -44.2012   58.2902   65.8416 C   0  0  0  0  0  0  0  0  0  0  0  0
  -44.0348   56.9933   65.0915 C   0  0  0  0  0  0  0  0  0  0  0  0
  -43.2816   55.9620   65.8880 C   0  0  0  0  0  0  0  0  0  0  0  0
  -43.9193   55.5574   67.1841 C   0  0  0  0  0  0  0  0  0  0  0  0
  -45.2519   54.9598   67.0163 C   0  0  0  0  0  0  0  0  0  0  0  0
  -45.5541   53.6911   66.8495 C   0  0  0  0  0  0  0  0  0  0  0  0
  -44.6303   52.5295   66.8097 C   0  0  0  0  0  0  0  0  0  0  0  0
  -44.3579   51.8657   68.1440 C   0  0  0  0  0  0  0  0  0  0  0  0
  -43.4028   50.7091   68.0336 C   0  0  0  0  0  0  0  0  0  0  0  0
  -43.1134   50.0052   69.3347 C   0  0  0  0  0  0  0  0  0  0  0  0
  -44.3548   49.4117   69.9634 C   0  0  0  0  0  0  0  0  0  0  0  0
  -44.1278   48.7107   71.2737 C   0  0  0  0  0  0  0  0  0  0  0  0
  -45.3600   48.1321   71.8448 C   0  0  0  0  0  0  0  0  0  0  0  0
  -45.9817   47.1271   70.9848 C   0  0  0  0  0  0  0  0  0  0  0  0
  -40.3154   64.7531   67.9132 H   0  0  0  0  0  0  0  0  0  0  0  0
  -40.7627   64.1787   65.1293 H   0  0  0  0  0  0  0  0  0  0  0  0
  -42.1050   63.2158   68.2756 H   0  0  0  0  0  0  0  0  0  0  0  0
  -42.3405   63.0392   66.5599 H   0  0  0  0  0  0  0  0  0  0  0  0
  -44.9019   64.1779   71.0124 H   0  0  0  0  0  0  0  0  0  0  0  0
  -45.4469   63.1460   69.7458 H   0  0  0  0  0  0  0  0  0  0  0  0
  -43.2865   62.3979   70.5639 H   0  0  0  0  0  0  0  0  0  0  0  0
  -43.1505   63.0464   68.8925 H   0  0  0  0  0  0  0  0  0  0  0  0
  -43.2220   65.1211   71.8887 H   0  0  0  0  0  0  0  0  0  0  0  0
  -41.4835   65.2409   72.0177 H   0  0  0  0  0  0  0  0  0  0  0  0
  -42.2862   63.7362   72.3982 H   0  0  0  0  0  0  0  0  0  0  0  0
  -44.6163   63.1981   66.3136 H   0  0  0  0  0  0  0  0  0  0  0  0
  -43.0773   65.9052   69.5773 H   0  0  0  0  0  0  0  0  0  0  0  0
  -42.0268   65.0869   68.4461 H   0  0  0  0  0  0  0  0  0  0  0  0
  -41.3429   66.0179   69.7570 H   0  0  0  0  0  0  0  0  0  0  0  0
  -40.8710   62.5613   70.8013 H   0  0  0  0  0  0  0  0  0  0  0  0
  -40.0589   64.0723   70.4690 H   0  0  0  0  0  0  0  0  0  0  0  0
  -40.7428   63.1412   69.1580 H   0  0  0  0  0  0  0  0  0  0  0  0
  -39.6485   62.4631   68.0556 H   0  0  0  0  0  0  0  0  0  0  0  0
  -38.5875   63.3560   67.0209 H   0  0  0  0  0  0  0  0  0  0  0  0
  -40.1644   59.2843   66.0305 H   0  0  0  0  0  0  0  0  0  0  0  0
  -40.1985   60.2448   64.5410 H   0  0  0  0  0  0  0  0  0  0  0  0
  -41.8086   58.4429   64.4703 H   0  0  0  0  0  0  0  0  0  0  0  0
  -42.5713   60.0428   64.4426 H   0  0  0  0  0  0  0  0  0  0  0  0
  -43.1183   59.8483   66.7560 H   0  0  0  0  0  0  0  0  0  0  0  0
  -42.3406   58.2423   66.7808 H   0  0  0  0  0  0  0  0  0  0  0  0
  -44.7626   58.9643   65.2288 H   0  0  0  0  0  0  0  0  0  0  0  0
  -44.7001   58.0569   66.7589 H   0  0  0  0  0  0  0  0  0  0  0  0
  -43.4990   57.1866   64.1857 H   0  0  0  0  0  0  0  0  0  0  0  0
  -45.0114   56.6033   64.8938 H   0  0  0  0  0  0  0  0  0  0  0  0
  -42.3118   56.3577   66.1068 H   0  0  0  0  0  0  0  0  0  0  0  0
  -43.2599   55.0802   65.2824 H   0  0  0  0  0  0  0  0  0  0  0  0
  -44.0122   56.4258   67.8023 H   0  0  0  0  0  0  0  0  0  0  0  0
  -43.2917   54.8121   67.6263 H   0  0  0  0  0  0  0  0  0  0  0  0
  -46.0478   55.6166   67.0314 H   0  0  0  0  0  0  0  0  0  0  0  0
  -46.5566   53.4764   66.7316 H   0  0  0  0  0  0  0  0  0  0  0  0
  -43.6955   52.8654   66.4119 H   0  0  0  0  0  0  0  0  0  0  0  0
  -45.1150   51.7897   66.2076 H   0  0  0  0  0  0  0  0  0  0  0  0
  -45.2837   51.5079   68.5436 H   0  0  0  0  0  0  0  0  0  0  0  0
  -43.9072   52.5967   68.7823 H   0  0  0  0  0  0  0  0  0  0  0  0
  -42.4779   51.0768   67.6407 H   0  0  0  0  0  0  0  0  0  0  0  0
  -43.8731   49.9882   67.3980 H   0  0  0  0  0  0  0  0  0  0  0  0
  -42.6865   50.7095   70.0178 H   0  0  0  0  0  0  0  0  0  0  0  0
  -42.4398   49.2007   69.1252 H   0  0  0  0  0  0  0  0  0  0  0  0
  -44.7699   48.7047   69.2759 H   0  0  0  0  0  0  0  0  0  0  0  0
  -45.0076   50.2334   70.1721 H   0  0  0  0  0  0  0  0  0  0  0  0
  -43.7279   49.4160   71.9720 H   0  0  0  0  0  0  0  0  0  0  0  0
  -43.4526   47.9015   71.0887 H   0  0  0  0  0  0  0  0  0  0  0  0
  -46.0630   48.9226   72.0056 H   0  0  0  0  0  0  0  0  0  0  0  0
  -45.0864   47.6427   72.7561 H   0  0  0  0  0  0  0  0  0  0  0  0
  -46.2708   47.5792   70.0591 H   0  0  0  0  0  0  0  0  0  0  0  0
  -46.8464   46.7268   71.4716 H   0  0  0  0  0  0  0  0  0  0  0  0
  -45.2831   46.3394   70.7942 H   0  0  0  0  0  0  0  0  0  0  0  0
  1  9  1  0  0  0  0
  1 11  1  0  0  0  0
  1 13  1  0  0  0  0
  1 15  1  0  0  0  0
  2  3  1  0  0  0  0
  2  5  1  0  0  0  0
  2 17  1  0  0  0  0
  2 36  1  1  0  0  0
  3 37  1  0  0  0  0
  4  6  1  0  0  0  0
  4  8  2  6  0  0  0
  4 10  1  0  0  0  0
  4 12  1  0  0  0  0
  5  6  1  0  0  0  0
  5 38  1  0  0  0  0
  5 39  1  0  0  0  0
  7  9  1  0  0  0  0
  7 10  1  0  0  0  0
  7 40  1  0  0  0  0
  7 41  1  0  0  0  0
  9 42  1  0  0  0  0
  9 43  1  0  0  0  0
 11 44  1  0  0  0  0
 11 45  1  0  0  0  0
 11 46  1  0  0  0  0
 12 47  1  0  0  0  0
 13 48  1  0  0  0  0
 13 49  1  0  0  0  0
 13 50  1  0  0  0  0
 14 17  1  0  0  0  0
 14 18  1  0  0  0  0
 15 51  1  0  0  0  0
 15 52  1  0  0  0  0
 15 53  1  0  0  0  0
 16 18  2  0  0  0  0
 17 54  1  0  0  0  0
 17 55  1  0  0  0  0
 18 19  1  0  0  0  0
 19 20  1  0  0  0  0
 19 56  1  0  0  0  0
 19 57  1  0  0  0  0
 20 21  1  0  0  0  0
 20 58  1  0  0  0  0
 20 59  1  0  0  0  0
 21 22  1  0  0  0  0
 21 60  1  0  0  0  0
 21 61  1  0  0  0  0
 22 23  1  0  0  0  0
 22 62  1  0  0  0  0
 22 63  1  0  0  0  0
 23 24  1  0  0  0  0
 23 64  1  0  0  0  0
 23 65  1  0  0  0  0
 24 25  1  0  0  0  0
 24 66  1  0  0  0  0
 24 67  1  0  0  0  0
 25 26  1  0  0  0  0
 25 68  1  0  0  0  0
 25 69  1  0  0  0  0
 26 27  2  0  0  0  0
 26 70  1  0  0  0  0
 27 28  1  0  0  0  0
 27 71  1  0  0  0  0
 28 29  1  0  0  0  0
 28 72  1  0  0  0  0
 28 73  1  0  0  0  0
 29 30  1  0  0  0  0
 29 74  1  0  0  0  0
 29 75  1  0  0  0  0
 30 31  1  0  0  0  0
 30 76  1  0  0  0  0
 30 77  1  0  0  0  0
 31 32  1  0  0  0  0
 31 78  1  0  0  0  0
 31 79  1  0  0  0  0
 32 33  1  0  0  0  0
 32 80  1  0  0  0  0
 32 81  1  0  0  0  0
 33 34  1  0  0  0  0
 33 82  1  0  0  0  0
 33 83  1  0  0  0  0
 34 35  1  0  0  0  0
 34 84  1  0  0  0  0
 34 85  1  0  0  0  0
 35 86  1  0  0  0  0
 35 87  1  0  0  0  0
 35 88  1  0  0  0  0
M  CHG  1   8  -1
M  END
$$$$
/media/chris/experiments/cd1a-new-docking/inputs/ligands/4x6c_ligand.pdb
 OpenBabel07012320263D

 88 87  0  0  1  0  0  0  0  0999 V2000
  -43.8693   64.0349   58.0799 N   0  0  0  0  0  4  0  0  0  0  0  0
  -41.6328   59.6343   62.1613 C   0  0  1  0  0  0  0  0  0  0  0  0
  -42.8591   59.9657   62.8129 O   0  0  0  0  0  0  0  0  0  0  0  0
  -41.9926   61.3917   59.6831 P   0  0  2  0  0  0  0  0  0  0  0  0
  -41.9569   59.0279   60.8176 C   0  0  0  0  0  0  0  0  0  0  0  0
  -42.6792   60.0015   60.0370 O   0  0  0  0  0  0  0  0  0  0  0  0
  -42.4262   63.9269   60.2042 C   0  0  0  0  0  0  0  0  0  0  0  0
  -40.6452   61.3754   60.2876 O   0  5  0  0  0  0  0  0  0  0  0  0
  -42.5043   64.1969   58.7187 C   0  0  0  0  0  0  0  0  0  0  0  0
  -42.8281   62.5477   60.3779 O   0  0  0  0  0  0  0  0  0  0  0  0
  -44.8621   64.9754   58.6838 C   0  0  0  0  0  0  0  0  0  0  0  0
  -42.1244   61.5744   58.2242 O   0  0  0  0  0  0  0  0  0  0  0  0
  -44.3533   62.6348   58.2821 C   0  0  0  0  0  0  0  0  0  0  0  0
  -40.4864   61.2455   63.4818 O   0  0  0  0  0  0  0  0  0  0  0  0
  -43.7732   64.3173   56.6134 C   0  0  0  0  0  0  0  0  0  0  0  0
  -38.7779   59.9349   64.0588 O   0  0  0  0  0  0  0  0  0  0  0  0
  -40.7414   60.8540   62.1144 C   0  0  0  0  0  0  0  0  0  0  0  0
  -39.8706   60.3644   64.2700 C   0  0  0  0  0  0  0  0  0  0  0  0
  -40.7200   59.9800   65.4370 C   0  0  0  0  0  0  0  0  0  0  0  0
  -42.0280   59.3300   65.0270 C   0  0  0  0  0  0  0  0  0  0  0  0
  -42.8960   58.9560   66.2090 C   0  0  0  0  0  0  0  0  0  0  0  0
  -44.2012   58.2902   65.8416 C   0  0  0  0  0  0  0  0  0  0  0  0
  -45.0623   57.9388   67.0279 C   0  0  0  0  0  0  0  0  0  0  0  0
  -45.4546   59.1497   67.8311 C   0  0  0  0  0  0  0  0  0  0  0  0
  -46.3003   58.8748   69.0392 C   0  0  0  0  0  0  0  0  0  0  0  0
  -46.6704   60.0893   69.7802 C   0  0  0  0  0  0  0  0  0  0  0  0
  -46.0217   60.6620   70.7700 C   0  0  0  0  0  0  0  0  0  0  0  0
  -44.7351   60.2443   71.3820 C   0  0  0  0  0  0  0  0  0  0  0  0
  -44.4447   58.7579   71.3417 C   0  0  0  0  0  0  0  0  0  0  0  0
  -43.1360   58.4035   71.9926 C   0  0  0  0  0  0  0  0  0  0  0  0
  -41.9285   59.0653   71.3797 C   0  0  0  0  0  0  0  0  0  0  0  0
  -41.7584   58.7239   69.9157 C   0  0  0  0  0  0  0  0  0  0  0  0
  -40.5586   59.3443   69.2559 C   0  0  0  0  0  0  0  0  0  0  0  0
  -40.5647   60.8196   69.3073 C   0  0  0  0  0  0  0  0  0  0  0  0
  -41.7316   61.4178   68.6618 C   0  0  0  0  0  0  0  0  0  0  0  0
  -41.0733   58.8974   62.6988 H   0  0  0  0  0  0  0  0  0  0  0  0
  -43.3312   60.6345   62.2926 H   0  0  0  0  0  0  0  0  0  0  0  0
  -42.5599   58.1543   60.9521 H   0  0  0  0  0  0  0  0  0  0  0  0
  -41.0545   58.7512   60.3136 H   0  0  0  0  0  0  0  0  0  0  0  0
  -43.0886   64.5774   60.7361 H   0  0  0  0  0  0  0  0  0  0  0  0
  -41.4409   64.0999   60.5839 H   0  0  0  0  0  0  0  0  0  0  0  0
  -42.1836   65.2041   58.5527 H   0  0  0  0  0  0  0  0  0  0  0  0
  -41.8837   63.4557   58.2600 H   0  0  0  0  0  0  0  0  0  0  0  0
  -44.9412   64.7847   59.7337 H   0  0  0  0  0  0  0  0  0  0  0  0
  -45.8166   64.8313   58.2222 H   0  0  0  0  0  0  0  0  0  0  0  0
  -44.5390   65.9835   58.5278 H   0  0  0  0  0  0  0  0  0  0  0  0
  -41.6239   60.8819   57.7652 H   0  0  0  0  0  0  0  0  0  0  0  0
  -44.4232   62.4295   59.3299 H   0  0  0  0  0  0  0  0  0  0  0  0
  -43.6658   61.9510   57.8297 H   0  0  0  0  0  0  0  0  0  0  0  0
  -45.3172   62.5221   57.8315 H   0  0  0  0  0  0  0  0  0  0  0  0
  -43.4270   65.3188   56.4650 H   0  0  0  0  0  0  0  0  0  0  0  0
  -44.7376   64.2030   56.1643 H   0  0  0  0  0  0  0  0  0  0  0  0
  -43.0863   63.6319   56.1625 H   0  0  0  0  0  0  0  0  0  0  0  0
  -41.2322   61.6475   61.5907 H   0  0  0  0  0  0  0  0  0  0  0  0
  -39.8268   60.6383   61.6027 H   0  0  0  0  0  0  0  0  0  0  0  0
  -40.9394   60.8604   66.0042 H   0  0  0  0  0  0  0  0  0  0  0  0
  -40.1713   59.2627   66.0109 H   0  0  0  0  0  0  0  0  0  0  0  0
  -41.8086   58.4429   64.4703 H   0  0  0  0  0  0  0  0  0  0  0  0
  -42.5713   60.0428   64.4426 H   0  0  0  0  0  0  0  0  0  0  0  0
  -43.1183   59.8483   66.7560 H   0  0  0  0  0  0  0  0  0  0  0  0
  -42.3406   58.2423   66.7808 H   0  0  0  0  0  0  0  0  0  0  0  0
  -43.9814   57.3901   65.3063 H   0  0  0  0  0  0  0  0  0  0  0  0
  -44.7539   58.9929   65.2537 H   0  0  0  0  0  0  0  0  0  0  0  0
  -44.5188   57.2683   67.6603 H   0  0  0  0  0  0  0  0  0  0  0  0
  -45.9594   57.4883   66.6576 H   0  0  0  0  0  0  0  0  0  0  0  0
  -46.0008   59.8088   67.1891 H   0  0  0  0  0  0  0  0  0  0  0  0
  -44.5411   59.5673   68.1999 H   0  0  0  0  0  0  0  0  0  0  0  0
  -45.7546   58.2298   69.6958 H   0  0  0  0  0  0  0  0  0  0  0  0
  -47.2081   58.4256   68.6943 H   0  0  0  0  0  0  0  0  0  0  0  0
  -47.5470   60.5486   69.4875 H   0  0  0  0  0  0  0  0  0  0  0  0
  -46.4608   61.5056   71.1708 H   0  0  0  0  0  0  0  0  0  0  0  0
  -44.7430   60.5509   72.4071 H   0  0  0  0  0  0  0  0  0  0  0  0
  -43.9681   60.7090   70.7982 H   0  0  0  0  0  0  0  0  0  0  0  0
  -44.4150   58.4427   70.3197 H   0  0  0  0  0  0  0  0  0  0  0  0
  -45.2209   58.2625   71.8867 H   0  0  0  0  0  0  0  0  0  0  0  0
  -43.0059   57.3436   71.9241 H   0  0  0  0  0  0  0  0  0  0  0  0
  -43.1947   58.7559   73.0012 H   0  0  0  0  0  0  0  0  0  0  0  0
  -41.0560   58.7451   71.9099 H   0  0  0  0  0  0  0  0  0  0  0  0
  -42.0676   60.1238   71.4516 H   0  0  0  0  0  0  0  0  0  0  0  0
  -42.6323   59.0538   69.3939 H   0  0  0  0  0  0  0  0  0  0  0  0
  -41.6119   57.6650   69.8698 H   0  0  0  0  0  0  0  0  0  0  0  0
  -40.5390   59.0398   68.2304 H   0  0  0  0  0  0  0  0  0  0  0  0
  -39.6938   59.0110   69.7907 H   0  0  0  0  0  0  0  0  0  0  0  0
  -39.6842   61.1797   68.8175 H   0  0  0  0  0  0  0  0  0  0  0  0
  -40.5964   61.0997   70.3396 H   0  0  0  0  0  0  0  0  0  0  0  0
  -41.7361   61.1598   67.6234 H   0  0  0  0  0  0  0  0  0  0  0  0
  -41.6896   62.4820   68.7647 H   0  0  0  0  0  0  0  0  0  0  0  0
  -42.6232   61.0496   69.1247 H   0  0  0  0  0  0  0  0  0  0  0  0
  1  9  1  0  0  0  0
  1 11  1  0  0  0  0
  1 13  1  0  0  0  0
  1 15  1  0  0  0  0
  2  3  1  0  0  0  0
  2  5  1  0  0  0  0
  2 17  1  0  0  0  0
  2 36  1  1  0  0  0
  3 37  1  0  0  0  0
  4  6  1  0  0  0  0
  4  8  2  1  0  0  0
  4 10  1  0  0  0  0
  4 12  1  0  0  0  0
  5  6  1  0  0  0  0
  5 38  1  0  0  0  0
  5 39  1  0  0  0  0
  7  9  1  0  0  0  0
  7 10  1  0  0  0  0
  7 40  1  0  0  0  0
  7 41  1  0  0  0  0
  9 42  1  0  0  0  0
  9 43  1  0  0  0  0
 11 44  1  0  0  0  0
 11 45  1  0  0  0  0
 11 46  1  0  0  0  0
 12 47  1  0  0  0  0
 13 48  1  0  0  0  0
 13 49  1  0  0  0  0
 13 50  1  0  0  0  0
 14 17  1  0  0  0  0
 14 18  1  0  0  0  0
 15 51  1  0  0  0  0
 15 52  1  0  0  0  0
 15 53  1  0  0  0  0
 16 18  2  0  0  0  0
 17 54  1  0  0  0  0
 17 55  1  0  0  0  0
 18 19  1  0  0  0  0
 19 20  1  0  0  0  0
 19 56  1  0  0  0  0
 19 57  1  0  0  0  0
 20 21  1  0  0  0  0
 20 58  1  0  0  0  0
 20 59  1  0  0  0  0
 21 22  1  0  0  0  0
 21 60  1  0  0  0  0
 21 61  1  0  0  0  0
 22 23  1  0  0  0  0
 22 62  1  0  0  0  0
 22 63  1  0  0  0  0
 23 24  1  0  0  0  0
 23 64  1  0  0  0  0
 23 65  1  0  0  0  0
 24 25  1  0  0  0  0
 24 66  1  0  0  0  0
 24 67  1  0  0  0  0
 25 26  1  0  0  0  0
 25 68  1  0  0  0  0
 25 69  1  0  0  0  0
 26 27  2  0  0  0  0
 26 70  1  0  0  0  0
 27 28  1  0  0  0  0
 27 71  1  0  0  0  0
 28 29  1  0  0  0  0
 28 72  1  0  0  0  0
 28 73  1  0  0  0  0
 29 30  1  0  0  0  0
 29 74  1  0  0  0  0
 29 75  1  0  0  0  0
 30 31  1  0  0  0  0
 30 76  1  0  0  0  0
 30 77  1  0  0  0  0
 31 32  1  0  0  0  0
 31 78  1  0  0  0  0
 31 79  1  0  0  0  0
 32 33  1  0  0  0  0
 32 80  1  0  0  0  0
 32 81  1  0  0  0  0
 33 34  1  0  0  0  0
 33 82  1  0  0  0  0
 33 83  1  0  0  0  0
 34 35  1  0  0  0  0
 34 84  1  0  0  0  0
 34 85  1  0  0  0  0
 35 86  1  0  0  0  0
 35 87  1  0  0  0  0
 35 88  1  0  0  0  0
M  CHG  1   8  -1
M  END
$$$$
/media/chris/experiments/cd1a-new-docking/inputs/ligands/4x6c_ligand.pdb
 OpenBabel07012320263D

 88 87  0  0  1  0  0  0  0  0999 V2000
  -35.8836   60.6161   70.8529 N   0  0  0  0  0  4  0  0  0  0  0  0
  -42.3304   63.6022   67.4813 C   0  0  1  0  0  0  0  0  0  0  0  0
  -43.5674   63.0172   67.8884 O   0  0  0  0  0  0  0  0  0  0  0  0
  -38.6755   63.4098   68.8436 P   0  0  2  0  0  0  0  0  0  0  0  0
  -41.2499   63.1365   68.4269 C   0  0  0  0  0  0  0  0  0  0  0  0
  -40.0015   63.7383   68.0293 O   0  0  0  0  0  0  0  0  0  0  0  0
  -36.6970   61.6949   68.6663 C   0  0  0  0  0  0  0  0  0  0  0  0
  -37.8074   64.6014   68.7562 O   0  5  0  0  0  0  0  0  0  0  0  0
  -37.0333   61.1960   70.0533 C   0  0  0  0  0  0  0  0  0  0  0  0
  -37.9342   62.2086   68.1192 O   0  0  0  0  0  0  0  0  0  0  0  0
  -34.8112   61.6344   71.0713 C   0  0  0  0  0  0  0  0  0  0  0  0
  -39.0988   62.9240   70.1717 O   0  0  0  0  0  0  0  0  0  0  0  0
  -35.2970   59.4551   70.1157 C   0  0  0  0  0  0  0  0  0  0  0  0
  -42.0474   61.8525   65.8962 O   0  0  0  0  0  0  0  0  0  0  0  0
  -36.3829   60.1535   72.1856 C   0  0  0  0  0  0  0  0  0  0  0  0
  -40.1534   61.6365   67.0519 O   0  0  0  0  0  0  0  0  0  0  0  0
  -42.0818   63.2915   66.0232 C   0  0  0  0  0  0  0  0  0  0  0  0
  -40.9154   61.2318   66.2282 C   0  0  0  0  0  0  0  0  0  0  0  0
  -40.7200   59.9800   65.4370 C   0  0  0  0  0  0  0  0  0  0  0  0
  -42.0280   59.3300   65.0270 C   0  0  0  0  0  0  0  0  0  0  0  0
  -42.8960   58.9560   66.2090 C   0  0  0  0  0  0  0  0  0  0  0  0
  -43.3110   60.1221   67.0749 C   0  0  0  0  0  0  0  0  0  0  0  0
  -44.1610   59.7323   68.2572 C   0  0  0  0  0  0  0  0  0  0  0  0
  -43.4497   58.7882   69.1890 C   0  0  0  0  0  0  0  0  0  0  0  0
  -42.1877   59.3181   69.8028 C   0  0  0  0  0  0  0  0  0  0  0  0
  -41.5222   58.3541   70.6911 C   0  0  0  0  0  0  0  0  0  0  0  0
  -40.7861   58.6056   71.7510 C   0  0  0  0  0  0  0  0  0  0  0  0
  -40.4540   59.9275   72.3399 C   0  0  0  0  0  0  0  0  0  0  0  0
  -40.9057   60.1371   73.7708 C   0  0  0  0  0  0  0  0  0  0  0  0
  -40.5525   61.5007   74.2980 C   0  0  0  0  0  0  0  0  0  0  0  0
  -39.0785   61.8156   74.2919 C   0  0  0  0  0  0  0  0  0  0  0  0
  -38.2719   60.8397   75.1200 C   0  0  0  0  0  0  0  0  0  0  0  0
  -38.6590   60.7690   76.5708 C   0  0  0  0  0  0  0  0  0  0  0  0
  -38.5312   62.0626   77.2704 C   0  0  0  0  0  0  0  0  0  0  0  0
  -38.8909   61.9951   78.6854 C   0  0  0  0  0  0  0  0  0  0  0  0
  -42.3464   64.6703   67.5426 H   0  0  0  0  0  0  0  0  0  0  0  0
  -43.5075   62.0517   67.8169 H   0  0  0  0  0  0  0  0  0  0  0  0
  -41.1667   62.0706   68.3827 H   0  0  0  0  0  0  0  0  0  0  0  0
  -41.4918   63.4234   69.4289 H   0  0  0  0  0  0  0  0  0  0  0  0
  -36.3273   60.8931   68.0618 H   0  0  0  0  0  0  0  0  0  0  0  0
  -35.9367   62.4473   68.6929 H   0  0  0  0  0  0  0  0  0  0  0  0
  -37.4344   62.0186   70.6077 H   0  0  0  0  0  0  0  0  0  0  0  0
  -37.7182   60.3868   69.9083 H   0  0  0  0  0  0  0  0  0  0  0  0
  -34.4443   61.9745   70.1255 H   0  0  0  0  0  0  0  0  0  0  0  0
  -34.0098   61.1948   71.6275 H   0  0  0  0  0  0  0  0  0  0  0  0
  -35.2118   62.4629   71.6173 H   0  0  0  0  0  0  0  0  0  0  0  0
  -39.5577   63.6355   70.6451 H   0  0  0  0  0  0  0  0  0  0  0  0
  -34.9389   59.7824   69.1620 H   0  0  0  0  0  0  0  0  0  0  0  0
  -36.0472   58.7050   69.9767 H   0  0  0  0  0  0  0  0  0  0  0  0
  -34.4851   59.0472   70.6808 H   0  0  0  0  0  0  0  0  0  0  0  0
  -36.8035   60.9821   72.7161 H   0  0  0  0  0  0  0  0  0  0  0  0
  -35.5700   59.7450   72.7489 H   0  0  0  0  0  0  0  0  0  0  0  0
  -37.1322   59.4027   72.0448 H   0  0  0  0  0  0  0  0  0  0  0  0
  -41.1472   63.7099   65.7127 H   0  0  0  0  0  0  0  0  0  0  0  0
  -42.8504   63.7102   65.4077 H   0  0  0  0  0  0  0  0  0  0  0  0
  -40.1644   59.2843   66.0305 H   0  0  0  0  0  0  0  0  0  0  0  0
  -40.1985   60.2448   64.5410 H   0  0  0  0  0  0  0  0  0  0  0  0
  -41.8086   58.4429   64.4703 H   0  0  0  0  0  0  0  0  0  0  0  0
  -42.5713   60.0428   64.4426 H   0  0  0  0  0  0  0  0  0  0  0  0
  -42.3518   58.2646   66.8179 H   0  0  0  0  0  0  0  0  0  0  0  0
  -43.7960   58.5403   65.8064 H   0  0  0  0  0  0  0  0  0  0  0  0
  -43.8675   60.8086   66.4716 H   0  0  0  0  0  0  0  0  0  0  0  0
  -42.4135   60.5536   67.4661 H   0  0  0  0  0  0  0  0  0  0  0  0
  -45.0502   59.2568   67.8993 H   0  0  0  0  0  0  0  0  0  0  0  0
  -44.3860   60.6234   68.8051 H   0  0  0  0  0  0  0  0  0  0  0  0
  -43.2032   57.9044   68.6385 H   0  0  0  0  0  0  0  0  0  0  0  0
  -44.1226   58.6146   70.0027 H   0  0  0  0  0  0  0  0  0  0  0  0
  -42.4276   60.1929   70.3703 H   0  0  0  0  0  0  0  0  0  0  0  0
  -41.5108   59.5295   69.0015 H   0  0  0  0  0  0  0  0  0  0  0  0
  -41.6483   57.3578   70.4535 H   0  0  0  0  0  0  0  0  0  0  0  0
  -40.3905   57.7832   72.2328 H   0  0  0  0  0  0  0  0  0  0  0  0
  -40.9128   60.6820   71.7357 H   0  0  0  0  0  0  0  0  0  0  0  0
  -39.3855   59.9801   72.3590 H   0  0  0  0  0  0  0  0  0  0  0  0
  -40.4379   59.3996   74.3888 H   0  0  0  0  0  0  0  0  0  0  0  0
  -41.9721   60.0503   73.7887 H   0  0  0  0  0  0  0  0  0  0  0  0
  -40.9039   61.5696   75.3063 H   0  0  0  0  0  0  0  0  0  0  0  0
  -41.0155   62.2078   73.6418 H   0  0  0  0  0  0  0  0  0  0  0  0
  -38.9366   62.7996   74.6873 H   0  0  0  0  0  0  0  0  0  0  0  0
  -38.7358   61.7434   73.2809 H   0  0  0  0  0  0  0  0  0  0  0  0
  -37.2429   61.1277   75.0642 H   0  0  0  0  0  0  0  0  0  0  0  0
  -38.4632   59.8696   74.7109 H   0  0  0  0  0  0  0  0  0  0  0  0
  -38.0270   60.0555   77.0571 H   0  0  0  0  0  0  0  0  0  0  0  0
  -39.6901   60.4860   76.6114 H   0  0  0  0  0  0  0  0  0  0  0  0
  -39.1724   62.7724   76.7909 H   0  0  0  0  0  0  0  0  0  0  0  0
  -37.5015   62.3490   77.2194 H   0  0  0  0  0  0  0  0  0  0  0  0
  -39.9180   61.7104   78.7791 H   0  0  0  0  0  0  0  0  0  0  0  0
  -38.7439   62.9539   79.1369 H   0  0  0  0  0  0  0  0  0  0  0  0
  -38.2740   61.2714   79.1761 H   0  0  0  0  0  0  0  0  0  0  0  0
  1  9  1  0  0  0  0
  1 11  1  0  0  0  0
  1 13  1  0  0  0  0
  1 15  1  0  0  0  0
  2  3  1  0  0  0  0
  2  5  1  0  0  0  0
  2 17  1  0  0  0  0
  2 36  1  1  0  0  0
  3 37  1  0  0  0  0
  4  6  1  0  0  0  0
  4  8  2  1  0  0  0
  4 10  1  0  0  0  0
  4 12  1  0  0  0  0
  5  6  1  0  0  0  0
  5 38  1  0  0  0  0
  5 39  1  0  0  0  0
  7  9  1  0  0  0  0
  7 10  1  0  0  0  0
  7 40  1  0  0  0  0
  7 41  1  0  0  0  0
  9 42  1  0  0  0  0
  9 43  1  0  0  0  0
 11 44  1  0  0  0  0
 11 45  1  0  0  0  0
 11 46  1  0  0  0  0
 12 47  1  0  0  0  0
 13 48  1  0  0  0  0
 13 49  1  0  0  0  0
 13 50  1  0  0  0  0
 14 17  1  0  0  0  0
 14 18  1  0  0  0  0
 15 51  1  0  0  0  0
 15 52  1  0  0  0  0
 15 53  1  0  0  0  0
 16 18  2  0  0  0  0
 17 54  1  0  0  0  0
 17 55  1  0  0  0  0
 18 19  1  0  0  0  0
 19 20  1  0  0  0  0
 19 56  1  0  0  0  0
 19 57  1  0  0  0  0
 20 21  1  0  0  0  0
 20 58  1  0  0  0  0
 20 59  1  0  0  0  0
 21 22  1  0  0  0  0
 21 60  1  0  0  0  0
 21 61  1  0  0  0  0
 22 23  1  0  0  0  0
 22 62  1  0  0  0  0
 22 63  1  0  0  0  0
 23 24  1  0  0  0  0
 23 64  1  0  0  0  0
 23 65  1  0  0  0  0
 24 25  1  0  0  0  0
 24 66  1  0  0  0  0
 24 67  1  0  0  0  0
 25 26  1  0  0  0  0
 25 68  1  0  0  0  0
 25 69  1  0  0  0  0
 26 27  2  0  0  0  0
 26 70  1  0  0  0  0
 27 28  1  0  0  0  0
 27 71  1  0  0  0  0
 28 29  1  0  0  0  0
 28 72  1  0  0  0  0
 28 73  1  0  0  0  0
 29 30  1  0  0  0  0
 29 74  1  0  0  0  0
 29 75  1  0  0  0  0
 30 31  1  0  0  0  0
 30 76  1  0  0  0  0
 30 77  1  0  0  0  0
 31 32  1  0  0  0  0
 31 78  1  0  0  0  0
 31 79  1  0  0  0  0
 32 33  1  0  0  0  0
 32 80  1  0  0  0  0
 32 81  1  0  0  0  0
 33 34  1  0  0  0  0
 33 82  1  0  0  0  0
 33 83  1  0  0  0  0
 34 35  1  0  0  0  0
 34 84  1  0  0  0  0
 34 85  1  0  0  0  0
 35 86  1  0  0  0  0
 35 87  1  0  0  0  0
 35 88  1  0  0  0  0
M  CHG  1   8  -1
M  END
$$$$
/media/chris/experiments/cd1a-new-docking/inputs/ligands/4x6c_ligand.pdb
 OpenBabel07012320263D

 88 87  0  0  1  0  0  0  0  0999 V2000
  -41.3969   63.6199   69.2053 N   0  0  0  0  0  4  0  0  0  0  0  0
  -37.2027   57.9501   67.1659 C   0  0  1  0  0  0  0  0  0  0  0  0
  -35.9741   57.3234   66.7970 O   0  0  0  0  0  0  0  0  0  0  0  0
  -38.5549   59.4927   70.4890 P   0  0  2  0  0  0  0  0  0  0  0  0
  -37.1186   58.3420   68.6211 C   0  0  0  0  0  0  0  0  0  0  0  0
  -38.3639   58.9605   69.0025 O   0  0  0  0  0  0  0  0  0  0  0  0
  -40.1481   61.4361   69.7331 C   0  0  0  0  0  0  0  0  0  0  0  0
  -39.6998   58.7605   71.0671 O   0  5  0  0  0  0  0  0  0  0  0  0
  -40.1987   62.9432   69.8411 C   0  0  0  0  0  0  0  0  0  0  0  0
  -38.9405   61.0300   70.4190 O   0  0  0  0  0  0  0  0  0  0  0  0
  -42.6728   63.1567   69.8318 C   0  0  0  0  0  0  0  0  0  0  0  0
  -37.2369   59.4029   71.1478 O   0  0  0  0  0  0  0  0  0  0  0  0
  -41.4369   63.2981   67.7458 C   0  0  0  0  0  0  0  0  0  0  0  0
  -38.7345   59.6918   66.6427 O   0  0  0  0  0  0  0  0  0  0  0  0
  -41.2876   65.1019   69.3815 C   0  0  0  0  0  0  0  0  0  0  0  0
  -40.1597   57.9783   66.5999 O   0  0  0  0  0  0  0  0  0  0  0  0
  -37.4946   59.0865   66.2132 C   0  0  0  0  0  0  0  0  0  0  0  0
  -39.8694   59.0915   66.2844 C   0  0  0  0  0  0  0  0  0  0  0  0
  -40.7200   59.9800   65.4370 C   0  0  0  0  0  0  0  0  0  0  0  0
  -42.0280   59.3300   65.0270 C   0  0  0  0  0  0  0  0  0  0  0  0
  -42.8960   58.9560   66.2090 C   0  0  0  0  0  0  0  0  0  0  0  0
  -44.2012   58.2902   65.8416 C   0  0  0  0  0  0  0  0  0  0  0  0
  -45.0623   57.9388   67.0279 C   0  0  0  0  0  0  0  0  0  0  0  0
  -46.3454   57.2626   66.6256 C   0  0  0  0  0  0  0  0  0  0  0  0
  -47.2342   58.0573   65.7153 C   0  0  0  0  0  0  0  0  0  0  0  0
  -48.4809   57.3616   65.3648 C   0  0  0  0  0  0  0  0  0  0  0  0
  -48.7016   56.5623   64.3445 C   0  0  0  0  0  0  0  0  0  0  0  0
  -47.7431   56.1362   63.2936 C   0  0  0  0  0  0  0  0  0  0  0  0
  -47.9852   54.7601   62.7079 C   0  0  0  0  0  0  0  0  0  0  0  0
  -47.9358   53.6706   63.7436 C   0  0  0  0  0  0  0  0  0  0  0  0
  -46.6282   53.5668   64.4861 C   0  0  0  0  0  0  0  0  0  0  0  0
  -46.6241   52.4467   65.5029 C   0  0  0  0  0  0  0  0  0  0  0  0
  -45.3486   52.3070   66.2862 C   0  0  0  0  0  0  0  0  0  0  0  0
  -45.0175   53.5086   67.0772 C   0  0  0  0  0  0  0  0  0  0  0  0
  -46.0334   53.8462   68.0723 C   0  0  0  0  0  0  0  0  0  0  0  0
  -38.0387   57.2880   67.0787 H   0  0  0  0  0  0  0  0  0  0  0  0
  -35.2465   57.9579   66.8910 H   0  0  0  0  0  0  0  0  0  0  0  0
  -36.3143   59.0334   68.7625 H   0  0  0  0  0  0  0  0  0  0  0  0
  -36.9404   57.4760   69.2237 H   0  0  0  0  0  0  0  0  0  0  0  0
  -40.1113   61.1375   68.7063 H   0  0  0  0  0  0  0  0  0  0  0  0
  -41.0161   60.9818   70.1634 H   0  0  0  0  0  0  0  0  0  0  0  0
  -40.1945   63.1963   70.8808 H   0  0  0  0  0  0  0  0  0  0  0  0
  -39.3479   63.2979   69.2979 H   0  0  0  0  0  0  0  0  0  0  0  0
  -42.7643   62.0973   69.7132 H   0  0  0  0  0  0  0  0  0  0  0  0
  -43.4999   63.6416   69.3567 H   0  0  0  0  0  0  0  0  0  0  0  0
  -42.6673   63.3999   70.8738 H   0  0  0  0  0  0  0  0  0  0  0  0
  -36.9682   58.4728   71.2080 H   0  0  0  0  0  0  0  0  0  0  0  0
  -41.5151   62.2388   67.6161 H   0  0  0  0  0  0  0  0  0  0  0  0
  -40.5409   63.6495   67.2784 H   0  0  0  0  0  0  0  0  0  0  0  0
  -42.2835   63.7756   67.2984 H   0  0  0  0  0  0  0  0  0  0  0  0
  -41.2587   65.3358   70.4252 H   0  0  0  0  0  0  0  0  0  0  0  0
  -42.1343   65.5778   68.9326 H   0  0  0  0  0  0  0  0  0  0  0  0
  -40.3917   65.4517   68.9126 H   0  0  0  0  0  0  0  0  0  0  0  0
  -37.5946   58.7129   65.2156 H   0  0  0  0  0  0  0  0  0  0  0  0
  -36.6992   59.8022   66.2183 H   0  0  0  0  0  0  0  0  0  0  0  0
  -40.1733   60.2341   64.5530 H   0  0  0  0  0  0  0  0  0  0  0  0
  -40.9602   60.8449   66.0193 H   0  0  0  0  0  0  0  0  0  0  0  0
  -41.8086   58.4429   64.4703 H   0  0  0  0  0  0  0  0  0  0  0  0
  -42.5713   60.0428   64.4426 H   0  0  0  0  0  0  0  0  0  0  0  0
  -43.1183   59.8483   66.7560 H   0  0  0  0  0  0  0  0  0  0  0  0
  -42.3406   58.2423   66.7808 H   0  0  0  0  0  0  0  0  0  0  0  0
  -43.9814   57.3901   65.3063 H   0  0  0  0  0  0  0  0  0  0  0  0
  -44.7539   58.9929   65.2537 H   0  0  0  0  0  0  0  0  0  0  0  0
  -45.2991   58.8372   67.5587 H   0  0  0  0  0  0  0  0  0  0  0  0
  -44.5114   57.2554   67.6397 H   0  0  0  0  0  0  0  0  0  0  0  0
  -46.8964   57.0438   67.5164 H   0  0  0  0  0  0  0  0  0  0  0  0
  -46.0590   56.3928   66.0721 H   0  0  0  0  0  0  0  0  0  0  0  0
  -46.6970   58.2660   64.8138 H   0  0  0  0  0  0  0  0  0  0  0  0
  -47.5065   58.9498   66.2390 H   0  0  0  0  0  0  0  0  0  0  0  0
  -49.2809   57.5200   65.9971 H   0  0  0  0  0  0  0  0  0  0  0  0
  -49.6586   56.1846   64.2642 H   0  0  0  0  0  0  0  0  0  0  0  0
  -46.7617   56.1450   63.7197 H   0  0  0  0  0  0  0  0  0  0  0  0
  -47.8690   56.8255   62.4850 H   0  0  0  0  0  0  0  0  0  0  0  0
  -47.2349   54.5654   61.9704 H   0  0  0  0  0  0  0  0  0  0  0  0
  -48.9675   54.7580   62.2838 H   0  0  0  0  0  0  0  0  0  0  0  0
  -48.1160   52.7366   63.2537 H   0  0  0  0  0  0  0  0  0  0  0  0
  -48.6795   53.9134   64.4735 H   0  0  0  0  0  0  0  0  0  0  0  0
  -46.4481   54.4913   64.9939 H   0  0  0  0  0  0  0  0  0  0  0  0
  -45.8636   53.3556   63.7681 H   0  0  0  0  0  0  0  0  0  0  0  0
  -46.7983   51.5269   64.9847 H   0  0  0  0  0  0  0  0  0  0  0  0
  -47.3880   52.6839   66.2136 H   0  0  0  0  0  0  0  0  0  0  0  0
  -44.5480   52.1192   65.6016 H   0  0  0  0  0  0  0  0  0  0  0  0
  -45.4855   51.5002   66.9756 H   0  0  0  0  0  0  0  0  0  0  0  0
  -44.9101   54.3364   66.4078 H   0  0  0  0  0  0  0  0  0  0  0  0
  -44.1128   53.2979   67.6082 H   0  0  0  0  0  0  0  0  0  0  0  0
  -46.9574   54.0645   67.5789 H   0  0  0  0  0  0  0  0  0  0  0  0
  -45.7158   54.7025   68.6298 H   0  0  0  0  0  0  0  0  0  0  0  0
  -46.1707   53.0188   68.7368 H   0  0  0  0  0  0  0  0  0  0  0  0
  1  9  1  0  0  0  0
  1 11  1  0  0  0  0
  1 13  1  0  0  0  0
  1 15  1  0  0  0  0
  2  3  1  0  0  0  0
  2  5  1  0  0  0  0
  2 17  1  0  0  0  0
  2 36  1  6  0  0  0
  3 37  1  0  0  0  0
  4  6  1  0  0  0  0
  4  8  2  1  0  0  0
  4 10  1  0  0  0  0
  4 12  1  0  0  0  0
  5  6  1  0  0  0  0
  5 38  1  0  0  0  0
  5 39  1  0  0  0  0
  7  9  1  0  0  0  0
  7 10  1  0  0  0  0
  7 40  1  0  0  0  0
  7 41  1  0  0  0  0
  9 42  1  0  0  0  0
  9 43  1  0  0  0  0
 11 44  1  0  0  0  0
 11 45  1  0  0  0  0
 11 46  1  0  0  0  0
 12 47  1  0  0  0  0
 13 48  1  0  0  0  0
 13 49  1  0  0  0  0
 13 50  1  0  0  0  0
 14 17  1  0  0  0  0
 14 18  1  0  0  0  0
 15 51  1  0  0  0  0
 15 52  1  0  0  0  0
 15 53  1  0  0  0  0
 16 18  2  0  0  0  0
 17 54  1  0  0  0  0
 17 55  1  0  0  0  0
 18 19  1  0  0  0  0
 19 20  1  0  0  0  0
 19 56  1  0  0  0  0
 19 57  1  0  0  0  0
 20 21  1  0  0  0  0
 20 58  1  0  0  0  0
 20 59  1  0  0  0  0
 21 22  1  0  0  0  0
 21 60  1  0  0  0  0
 21 61  1  0  0  0  0
 22 23  1  0  0  0  0
 22 62  1  0  0  0  0
 22 63  1  0  0  0  0
 23 24  1  0  0  0  0
 23 64  1  0  0  0  0
 23 65  1  0  0  0  0
 24 25  1  0  0  0  0
 24 66  1  0  0  0  0
 24 67  1  0  0  0  0
 25 26  1  0  0  0  0
 25 68  1  0  0  0  0
 25 69  1  0  0  0  0
 26 27  2  0  0  0  0
 26 70  1  0  0  0  0
 27 28  1  0  0  0  0
 27 71  1  0  0  0  0
 28 29  1  0  0  0  0
 28 72  1  0  0  0  0
 28 73  1  0  0  0  0
 29 30  1  0  0  0  0
 29 74  1  0  0  0  0
 29 75  1  0  0  0  0
 30 31  1  0  0  0  0
 30 76  1  0  0  0  0
 30 77  1  0  0  0  0
 31 32  1  0  0  0  0
 31 78  1  0  0  0  0
 31 79  1  0  0  0  0
 32 33  1  0  0  0  0
 32 80  1  0  0  0  0
 32 81  1  0  0  0  0
 33 34  1  0  0  0  0
 33 82  1  0  0  0  0
 33 83  1  0  0  0  0
 34 35  1  0  0  0  0
 34 84  1  0  0  0  0
 34 85  1  0  0  0  0
 35 86  1  0  0  0  0
 35 87  1  0  0  0  0
 35 88  1  0  0  0  0
M  CHG  1   8  -1
M  END
$$$$
/media/chris/experiments/cd1a-new-docking/inputs/ligands/4x6c_ligand.pdb
 OpenBabel07012320263D

 88 87  0  0  1  0  0  0  0  0999 V2000
  -38.8849   62.1795   68.2114 N   0  0  0  0  0  4  0  0  0  0  0  0
  -37.5690   62.1759   63.4873 C   0  0  1  0  0  0  0  0  0  0  0  0
  -38.8681   62.7013   63.2144 O   0  0  0  0  0  0  0  0  0  0  0  0
  -34.9366   62.8111   66.3012 P   0  0  2  0  0  0  0  0  0  0  0  0
  -37.0476   62.8263   64.7457 C   0  0  0  0  0  0  0  0  0  0  0  0
  -35.7285   62.3107   65.0159 O   0  0  0  0  0  0  0  0  0  0  0  0
  -36.3261   61.9972   68.3733 C   0  0  0  0  0  0  0  0  0  0  0  0
  -33.4981   62.7583   65.9711 O   0  5  0  0  0  0  0  0  0  0  0  0
  -37.5623   61.9621   67.5036 C   0  0  0  0  0  0  0  0  0  0  0  0
  -35.2074   61.7849   67.4805 O   0  0  0  0  0  0  0  0  0  0  0  0
  -38.9293   63.5204   68.8707 C   0  0  0  0  0  0  0  0  0  0  0  0
  -35.5367   64.1001   66.6980 O   0  0  0  0  0  0  0  0  0  0  0  0
  -39.0720   61.1268   69.2565 C   0  0  0  0  0  0  0  0  0  0  0  0
  -38.5722   60.3099   64.5669 O   0  0  0  0  0  0  0  0  0  0  0  0
  -40.0034   62.0961   67.2206 C   0  0  0  0  0  0  0  0  0  0  0  0
  -40.2945   60.6885   63.2031 O   0  0  0  0  0  0  0  0  0  0  0  0
  -37.6341   60.6664   63.5272 C   0  0  0  0  0  0  0  0  0  0  0  0
  -39.8706   60.3644   64.2700 C   0  0  0  0  0  0  0  0  0  0  0  0
  -40.7200   59.9800   65.4370 C   0  0  0  0  0  0  0  0  0  0  0  0
  -42.0280   59.3300   65.0270 C   0  0  0  0  0  0  0  0  0  0  0  0
  -42.8960   58.9560   66.2090 C   0  0  0  0  0  0  0  0  0  0  0  0
  -44.2012   58.2902   65.8416 C   0  0  0  0  0  0  0  0  0  0  0  0
  -45.0623   57.9388   67.0279 C   0  0  0  0  0  0  0  0  0  0  0  0
  -45.4546   59.1497   67.8311 C   0  0  0  0  0  0  0  0  0  0  0  0
  -46.2524   60.1824   67.0913 C   0  0  0  0  0  0  0  0  0  0  0  0
  -45.5559   60.7251   65.9160 C   0  0  0  0  0  0  0  0  0  0  0  0
  -45.5936   60.2835   64.6782 C   0  0  0  0  0  0  0  0  0  0  0  0
  -46.3671   59.1357   64.1409 C   0  0  0  0  0  0  0  0  0  0  0  0
  -46.1883   58.8629   62.6614 C   0  0  0  0  0  0  0  0  0  0  0  0
  -44.7648   58.5419   62.2974 C   0  0  0  0  0  0  0  0  0  0  0  0
  -44.2024   57.3185   62.9747 C   0  0  0  0  0  0  0  0  0  0  0  0
  -44.9719   56.0608   62.6360 C   0  0  0  0  0  0  0  0  0  0  0  0
  -44.9898   55.7030   61.1761 C   0  0  0  0  0  0  0  0  0  0  0  0
  -43.6440   55.4587   60.6208 C   0  0  0  0  0  0  0  0  0  0  0  0
  -42.9408   54.3535   61.2689 C   0  0  0  0  0  0  0  0  0  0  0  0
  -36.8666   62.4069   62.7139 H   0  0  0  0  0  0  0  0  0  0  0  0
  -39.4697   62.4687   63.9389 H   0  0  0  0  0  0  0  0  0  0  0  0
  -37.6979   62.6002   65.5647 H   0  0  0  0  0  0  0  0  0  0  0  0
  -37.0067   63.8880   64.6191 H   0  0  0  0  0  0  0  0  0  0  0  0
  -36.3669   61.2221   69.1097 H   0  0  0  0  0  0  0  0  0  0  0  0
  -36.2403   62.9264   68.8968 H   0  0  0  0  0  0  0  0  0  0  0  0
  -37.4604   62.7251   66.7604 H   0  0  0  0  0  0  0  0  0  0  0  0
  -37.6078   60.9678   67.1107 H   0  0  0  0  0  0  0  0  0  0  0  0
  -38.1341   63.5943   69.5828 H   0  0  0  0  0  0  0  0  0  0  0  0
  -39.8678   63.6413   69.3704 H   0  0  0  0  0  0  0  0  0  0  0  0
  -38.8180   64.2855   68.1310 H   0  0  0  0  0  0  0  0  0  0  0  0
  -35.3897   64.7545   65.9972 H   0  0  0  0  0  0  0  0  0  0  0  0
  -38.2738   61.1836   69.9668 H   0  0  0  0  0  0  0  0  0  0  0  0
  -39.0705   60.1616   68.7947 H   0  0  0  0  0  0  0  0  0  0  0  0
  -40.0055   61.2819   69.7558 H   0  0  0  0  0  0  0  0  0  0  0  0
  -39.8726   62.8483   66.4710 H   0  0  0  0  0  0  0  0  0  0  0  0
  -40.9361   62.2503   67.7218 H   0  0  0  0  0  0  0  0  0  0  0  0
  -40.0011   61.1300   66.7607 H   0  0  0  0  0  0  0  0  0  0  0  0
  -36.6684   60.2630   63.7498 H   0  0  0  0  0  0  0  0  0  0  0  0
  -37.9450   60.2731   62.5819 H   0  0  0  0  0  0  0  0  0  0  0  0
  -40.9394   60.8604   66.0042 H   0  0  0  0  0  0  0  0  0  0  0  0
  -40.1713   59.2627   66.0109 H   0  0  0  0  0  0  0  0  0  0  0  0
  -41.8086   58.4429   64.4703 H   0  0  0  0  0  0  0  0  0  0  0  0
  -42.5713   60.0428   64.4426 H   0  0  0  0  0  0  0  0  0  0  0  0
  -43.1183   59.8483   66.7560 H   0  0  0  0  0  0  0  0  0  0  0  0
  -42.3406   58.2423   66.7808 H   0  0  0  0  0  0  0  0  0  0  0  0
  -43.9814   57.3901   65.3063 H   0  0  0  0  0  0  0  0  0  0  0  0
  -44.7539   58.9929   65.2537 H   0  0  0  0  0  0  0  0  0  0  0  0
  -44.5188   57.2683   67.6603 H   0  0  0  0  0  0  0  0  0  0  0  0
  -45.9594   57.4883   66.6576 H   0  0  0  0  0  0  0  0  0  0  0  0
  -44.5587   59.6157   68.1846 H   0  0  0  0  0  0  0  0  0  0  0  0
  -46.0905   58.7909   68.6133 H   0  0  0  0  0  0  0  0  0  0  0  0
  -46.4673   60.9889   67.7608 H   0  0  0  0  0  0  0  0  0  0  0  0
  -47.1413   59.7025   66.7386 H   0  0  0  0  0  0  0  0  0  0  0  0
  -44.9648   61.5544   66.0830 H   0  0  0  0  0  0  0  0  0  0  0  0
  -45.0144   60.7978   63.9963 H   0  0  0  0  0  0  0  0  0  0  0  0
  -47.4051   59.3263   64.3177 H   0  0  0  0  0  0  0  0  0  0  0  0
  -45.9951   58.2690   64.6460 H   0  0  0  0  0  0  0  0  0  0  0  0
  -46.4942   59.7300   62.1141 H   0  0  0  0  0  0  0  0  0  0  0  0
  -46.7846   58.0090   62.4162 H   0  0  0  0  0  0  0  0  0  0  0  0
  -44.1554   59.3802   62.5638 H   0  0  0  0  0  0  0  0  0  0  0  0
  -44.7604   58.3353   61.2475 H   0  0  0  0  0  0  0  0  0  0  0  0
  -44.2369   57.4667   64.0338 H   0  0  0  0  0  0  0  0  0  0  0  0
  -43.1989   57.1880   62.6270 H   0  0  0  0  0  0  0  0  0  0  0  0
  -45.9836   56.1934   62.9581 H   0  0  0  0  0  0  0  0  0  0  0  0
  -44.4700   55.2585   63.1353 H   0  0  0  0  0  0  0  0  0  0  0  0
  -45.4403   56.5081   60.6341 H   0  0  0  0  0  0  0  0  0  0  0  0
  -45.5441   54.7930   61.0784 H   0  0  0  0  0  0  0  0  0  0  0  0
  -43.0612   56.3481   60.7401 H   0  0  0  0  0  0  0  0  0  0  0  0
  -43.7702   55.1930   59.5920 H   0  0  0  0  0  0  0  0  0  0  0  0
  -42.7947   54.5817   62.3040 H   0  0  0  0  0  0  0  0  0  0  0  0
  -41.9908   54.2100   60.7978 H   0  0  0  0  0  0  0  0  0  0  0  0
  -43.5220   53.4595   61.1793 H   0  0  0  0  0  0  0  0  0  0  0  0
  1  9  1  0  0  0  0
  1 11  1  0  0  0  0
  1 13  1  0  0  0  0
  1 15  1  0  0  0  0
  2  3  1  0  0  0  0
  2  5  1  0  0  0  0
  2 17  1  0  0  0  0
  2 36  1  6  0  0  0
  3 37  1  0  0  0  0
  4  6  1  0  0  0  0
  4  8  2  6  0  0  0
  4 10  1  0  0  0  0
  4 12  1  0  0  0  0
  5  6  1  0  0  0  0
  5 38  1  0  0  0  0
  5 39  1  0  0  0  0
  7  9  1  0  0  0  0
  7 10  1  0  0  0  0
  7 40  1  0  0  0  0
  7 41  1  0  0  0  0
  9 42  1  0  0  0  0
  9 43  1  0  0  0  0
 11 44  1  0  0  0  0
 11 45  1  0  0  0  0
 11 46  1  0  0  0  0
 12 47  1  0  0  0  0
 13 48  1  0  0  0  0
 13 49  1  0  0  0  0
 13 50  1  0  0  0  0
 14 17  1  0  0  0  0
 14 18  1  0  0  0  0
 15 51  1  0  0  0  0
 15 52  1  0  0  0  0
 15 53  1  0  0  0  0
 16 18  2  0  0  0  0
 17 54  1  0  0  0  0
 17 55  1  0  0  0  0
 18 19  1  0  0  0  0
 19 20  1  0  0  0  0
 19 56  1  0  0  0  0
 19 57  1  0  0  0  0
 20 21  1  0  0  0  0
 20 58  1  0  0  0  0
 20 59  1  0  0  0  0
 21 22  1  0  0  0  0
 21 60  1  0  0  0  0
 21 61  1  0  0  0  0
 22 23  1  0  0  0  0
 22 62  1  0  0  0  0
 22 63  1  0  0  0  0
 23 24  1  0  0  0  0
 23 64  1  0  0  0  0
 23 65  1  0  0  0  0
 24 25  1  0  0  0  0
 24 66  1  0  0  0  0
 24 67  1  0  0  0  0
 25 26  1  0  0  0  0
 25 68  1  0  0  0  0
 25 69  1  0  0  0  0
 26 27  2  0  0  0  0
 26 70  1  0  0  0  0
 27 28  1  0  0  0  0
 27 71  1  0  0  0  0
 28 29  1  0  0  0  0
 28 72  1  0  0  0  0
 28 73  1  0  0  0  0
 29 30  1  0  0  0  0
 29 74  1  0  0  0  0
 29 75  1  0  0  0  0
 30 31  1  0  0  0  0
 30 76  1  0  0  0  0
 30 77  1  0  0  0  0
 31 32  1  0  0  0  0
 31 78  1  0  0  0  0
 31 79  1  0  0  0  0
 32 33  1  0  0  0  0
 32 80  1  0  0  0  0
 32 81  1  0  0  0  0
 33 34  1  0  0  0  0
 33 82  1  0  0  0  0
 33 83  1  0  0  0  0
 34 35  1  0  0  0  0
 34 84  1  0  0  0  0
 34 85  1  0  0  0  0
 35 86  1  0  0  0  0
 35 87  1  0  0  0  0
 35 88  1  0  0  0  0
M  CHG  1   8  -1
M  END
$$$$
/media/chris/experiments/cd1a-new-docking/inputs/ligands/4x6c_ligand.pdb
 OpenBabel07012320263D

 88 87  0  0  1  0  0  0  0  0999 V2000
  -43.3824   62.8924   62.9630 N   0  0  0  0  0  4  0  0  0  0  0  0
  -40.2815   63.9089   67.5020 C   0  0  1  0  0  0  0  0  0  0  0  0
  -39.5156   64.5417   66.4768 O   0  0  0  0  0  0  0  0  0  0  0  0
  -43.6509   65.5852   66.4589 P   0  0  2  0  0  0  0  0  0  0  0  0
  -41.7315   63.9110   67.0825 C   0  0  0  0  0  0  0  0  0  0  0  0
  -42.1516   65.2769   66.8907 O   0  0  0  0  0  0  0  0  0  0  0  0
  -44.5032   63.4401   65.2104 C   0  0  0  0  0  0  0  0  0  0  0  0
  -44.5257   65.0579   67.5255 O   0  5  0  0  0  0  0  0  0  0  0  0
  -44.6553   62.9665   63.7827 C   0  0  0  0  0  0  0  0  0  0  0  0
  -43.9590   64.7783   65.1281 O   0  0  0  0  0  0  0  0  0  0  0  0
  -42.7203   64.2297   62.8734 C   0  0  0  0  0  0  0  0  0  0  0  0
  -43.7121   67.0212   66.1226 O   0  0  0  0  0  0  0  0  0  0  0  0
  -43.7046   62.4252   61.5798 C   0  0  0  0  0  0  0  0  0  0  0  0
  -39.7518   61.7899   66.5621 O   0  0  0  0  0  0  0  0  0  0  0  0
  -42.4310   61.9291   63.6005 C   0  0  0  0  0  0  0  0  0  0  0  0
  -41.9781   61.6793   66.5336 O   0  0  0  0  0  0  0  0  0  0  0  0
  -39.7021   62.5438   67.7939 C   0  0  0  0  0  0  0  0  0  0  0  0
  -40.9154   61.2318   66.2282 C   0  0  0  0  0  0  0  0  0  0  0  0
  -40.7200   59.9800   65.4370 C   0  0  0  0  0  0  0  0  0  0  0  0
  -42.0280   59.3300   65.0270 C   0  0  0  0  0  0  0  0  0  0  0  0
  -42.8960   58.9560   66.2090 C   0  0  0  0  0  0  0  0  0  0  0  0
  -44.2012   58.2902   65.8416 C   0  0  0  0  0  0  0  0  0  0  0  0
  -45.0623   57.9388   67.0279 C   0  0  0  0  0  0  0  0  0  0  0  0
  -46.3454   57.2626   66.6256 C   0  0  0  0  0  0  0  0  0  0  0  0
  -47.2342   58.0573   65.7153 C   0  0  0  0  0  0  0  0  0  0  0  0
  -47.6553   59.3436   66.2891 C   0  0  0  0  0  0  0  0  0  0  0  0
  -48.8788   59.7584   66.5333 C   0  0  0  0  0  0  0  0  0  0  0  0
  -50.1522   59.0270   66.3145 C   0  0  0  0  0  0  0  0  0  0  0  0
  -51.2758   59.3712   67.2708 C   0  0  0  0  0  0  0  0  0  0  0  0
  -50.9178   59.1067   68.7075 C   0  0  0  0  0  0  0  0  0  0  0  0
  -49.7376   59.8936   69.2172 C   0  0  0  0  0  0  0  0  0  0  0  0
  -49.9634   61.3881   69.1528 C   0  0  0  0  0  0  0  0  0  0  0  0
  -48.8104   62.2241   69.6340 C   0  0  0  0  0  0  0  0  0  0  0  0
  -47.5752   62.0156   68.8530 C   0  0  0  0  0  0  0  0  0  0  0  0
  -46.4469   62.8143   69.3275 C   0  0  0  0  0  0  0  0  0  0  0  0
  -40.2343   64.4389   68.4303 H   0  0  0  0  0  0  0  0  0  0  0  0
  -39.5871   64.0289   65.6566 H   0  0  0  0  0  0  0  0  0  0  0  0
  -42.3280   63.4537   67.8440 H   0  0  0  0  0  0  0  0  0  0  0  0
  -41.8501   63.3604   66.1727 H   0  0  0  0  0  0  0  0  0  0  0  0
  -43.8350   62.7988   65.7461 H   0  0  0  0  0  0  0  0  0  0  0  0
  -45.4383   63.4274   65.7303 H   0  0  0  0  0  0  0  0  0  0  0  0
  -45.0850   61.9869   63.8077 H   0  0  0  0  0  0  0  0  0  0  0  0
  -45.2641   63.7024   63.3002 H   0  0  0  0  0  0  0  0  0  0  0  0
  -43.3900   64.9295   62.4189 H   0  0  0  0  0  0  0  0  0  0  0  0
  -41.8327   64.1493   62.2814 H   0  0  0  0  0  0  0  0  0  0  0  0
  -42.4643   64.5675   63.8559 H   0  0  0  0  0  0  0  0  0  0  0  0
  -43.5279   67.5473   66.9164 H   0  0  0  0  0  0  0  0  0  0  0  0
  -44.3849   63.1119   61.1209 H   0  0  0  0  0  0  0  0  0  0  0  0
  -44.1542   61.4553   61.6266 H   0  0  0  0  0  0  0  0  0  0  0  0
  -42.8055   62.3740   61.0021 H   0  0  0  0  0  0  0  0  0  0  0  0
  -42.1981   62.2604   64.5909 H   0  0  0  0  0  0  0  0  0  0  0  0
  -41.5330   61.8784   63.0210 H   0  0  0  0  0  0  0  0  0  0  0  0
  -42.8817   60.9597   63.6455 H   0  0  0  0  0  0  0  0  0  0  0  0
  -40.2807   62.0530   68.5484 H   0  0  0  0  0  0  0  0  0  0  0  0
  -38.6967   62.6247   68.1510 H   0  0  0  0  0  0  0  0  0  0  0  0
  -40.1644   59.2843   66.0305 H   0  0  0  0  0  0  0  0  0  0  0  0
  -40.1985   60.2448   64.5410 H   0  0  0  0  0  0  0  0  0  0  0  0
  -41.8086   58.4429   64.4703 H   0  0  0  0  0  0  0  0  0  0  0  0
  -42.5713   60.0428   64.4426 H   0  0  0  0  0  0  0  0  0  0  0  0
  -43.1183   59.8483   66.7560 H   0  0  0  0  0  0  0  0  0  0  0  0
  -42.3406   58.2423   66.7808 H   0  0  0  0  0  0  0  0  0  0  0  0
  -43.9814   57.3901   65.3063 H   0  0  0  0  0  0  0  0  0  0  0  0
  -44.7539   58.9929   65.2537 H   0  0  0  0  0  0  0  0  0  0  0  0
  -45.2991   58.8372   67.5587 H   0  0  0  0  0  0  0  0  0  0  0  0
  -44.5114   57.2554   67.6397 H   0  0  0  0  0  0  0  0  0  0  0  0
  -46.8964   57.0438   67.5164 H   0  0  0  0  0  0  0  0  0  0  0  0
  -46.0590   56.3928   66.0721 H   0  0  0  0  0  0  0  0  0  0  0  0
  -48.1084   57.4777   65.5036 H   0  0  0  0  0  0  0  0  0  0  0  0
  -46.6699   58.2743   64.8325 H   0  0  0  0  0  0  0  0  0  0  0  0
  -46.8977   60.0018   66.5296 H   0  0  0  0  0  0  0  0  0  0  0  0
  -48.9646   60.7092   66.9253 H   0  0  0  0  0  0  0  0  0  0  0  0
  -49.9508   57.9802   66.4059 H   0  0  0  0  0  0  0  0  0  0  0  0
  -50.4943   59.3178   65.3432 H   0  0  0  0  0  0  0  0  0  0  0  0
  -52.1328   58.7826   67.0178 H   0  0  0  0  0  0  0  0  0  0  0  0
  -51.4721   60.4186   67.1746 H   0  0  0  0  0  0  0  0  0  0  0  0
  -50.6931   58.0655   68.8088 H   0  0  0  0  0  0  0  0  0  0  0  0
  -51.7607   59.4140   69.2906 H   0  0  0  0  0  0  0  0  0  0  0  0
  -48.8813   59.6505   68.6234 H   0  0  0  0  0  0  0  0  0  0  0  0
  -49.5926   59.6316   70.2445 H   0  0  0  0  0  0  0  0  0  0  0  0
  -50.8169   61.6214   69.7545 H   0  0  0  0  0  0  0  0  0  0  0  0
  -50.0960   61.6271   68.1183 H   0  0  0  0  0  0  0  0  0  0  0  0
  -48.6129   61.9752   70.6557 H   0  0  0  0  0  0  0  0  0  0  0  0
  -49.0910   63.2501   69.5173 H   0  0  0  0  0  0  0  0  0  0  0  0
  -47.7704   62.2761   67.8337 H   0  0  0  0  0  0  0  0  0  0  0  0
  -47.3022   60.9868   68.9622 H   0  0  0  0  0  0  0  0  0  0  0  0
  -46.6817   63.8540   69.2342 H   0  0  0  0  0  0  0  0  0  0  0  0
  -45.5800   62.5905   68.7416 H   0  0  0  0  0  0  0  0  0  0  0  0
  -46.2530   62.5831   70.3541 H   0  0  0  0  0  0  0  0  0  0  0  0
  1  9  1  0  0  0  0
  1 11  1  0  0  0  0
  1 13  1  0  0  0  0
  1 15  1  0  0  0  0
  2  3  1  0  0  0  0
  2  5  1  0  0  0  0
  2 17  1  0  0  0  0
  2 36  1  1  0  0  0
  3 37  1  0  0  0  0
  4  6  1  0  0  0  0
  4  8  2  1  0  0  0
  4 10  1  0  0  0  0
  4 12  1  0  0  0  0
  5  6  1  0  0  0  0
  5 38  1  0  0  0  0
  5 39  1  0  0  0  0
  7  9  1  0  0  0  0
  7 10  1  0  0  0  0
  7 40  1  0  0  0  0
  7 41  1  0  0  0  0
  9 42  1  0  0  0  0
  9 43  1  0  0  0  0
 11 44  1  0  0  0  0
 11 45  1  0  0  0  0
 11 46  1  0  0  0  0
 12 47  1  0  0  0  0
 13 48  1  0  0  0  0
 13 49  1  0  0  0  0
 13 50  1  0  0  0  0
 14 17  1  0  0  0  0
 14 18  1  0  0  0  0
 15 51  1  0  0  0  0
 15 52  1  0  0  0  0
 15 53  1  0  0  0  0
 16 18  2  0  0  0  0
 17 54  1  0  0  0  0
 17 55  1  0  0  0  0
 18 19  1  0  0  0  0
 19 20  1  0  0  0  0
 19 56  1  0  0  0  0
 19 57  1  0  0  0  0
 20 21  1  0  0  0  0
 20 58  1  0  0  0  0
 20 59  1  0  0  0  0
 21 22  1  0  0  0  0
 21 60  1  0  0  0  0
 21 61  1  0  0  0  0
 22 23  1  0  0  0  0
 22 62  1  0  0  0  0
 22 63  1  0  0  0  0
 23 24  1  0  0  0  0
 23 64  1  0  0  0  0
 23 65  1  0  0  0  0
 24 25  1  0  0  0  0
 24 66  1  0  0  0  0
 24 67  1  0  0  0  0
 25 26  1  0  0  0  0
 25 68  1  0  0  0  0
 25 69  1  0  0  0  0
 26 27  2  0  0  0  0
 26 70  1  0  0  0  0
 27 28  1  0  0  0  0
 27 71  1  0  0  0  0
 28 29  1  0  0  0  0
 28 72  1  0  0  0  0
 28 73  1  0  0  0  0
 29 30  1  0  0  0  0
 29 74  1  0  0  0  0
 29 75  1  0  0  0  0
 30 31  1  0  0  0  0
 30 76  1  0  0  0  0
 30 77  1  0  0  0  0
 31 32  1  0  0  0  0
 31 78  1  0  0  0  0
 31 79  1  0  0  0  0
 32 33  1  0  0  0  0
 32 80  1  0  0  0  0
 32 81  1  0  0  0  0
 33 34  1  0  0  0  0
 33 82  1  0  0  0  0
 33 83  1  0  0  0  0
 34 35  1  0  0  0  0
 34 84  1  0  0  0  0
 34 85  1  0  0  0  0
 35 86  1  0  0  0  0
 35 87  1  0  0  0  0
 35 88  1  0  0  0  0
M  CHG  1   8  -1
M  END
$$$$
/media/chris/experiments/cd1a-new-docking/inputs/ligands/4x6c_ligand.pdb
 OpenBabel07012320263D

 88 87  0  0  1  0  0  0  0  0999 V2000
  -39.2559   55.1975   76.1782 N   0  0  0  0  0  4  0  0  0  0  0  0
  -39.9580   59.3072   69.3071 C   0  0  1  0  0  0  0  0  0  0  0  0
  -41.0863   58.6497   68.7303 O   0  0  0  0  0  0  0  0  0  0  0  0
  -39.2714   56.5115   71.9461 P   0  0  2  0  0  0  0  0  0  0  0  0
  -39.7559   58.7688   70.7028 C   0  0  0  0  0  0  0  0  0  0  0  0
  -39.5058   57.3515   70.6161 O   0  0  0  0  0  0  0  0  0  0  0  0
  -39.9658   56.9514   74.4383 C   0  0  0  0  0  0  0  0  0  0  0  0
  -40.3271   55.4800   71.9983 O   0  5  0  0  0  0  0  0  0  0  0  0
  -38.9530   55.9195   74.8802 C   0  0  0  0  0  0  0  0  0  0  0  0
  -39.4711   57.4811   73.1859 O   0  0  0  0  0  0  0  0  0  0  0  0
  -39.3704   56.1600   77.3163 C   0  0  0  0  0  0  0  0  0  0  0  0
  -37.8559   56.0927   71.9432 O   0  0  0  0  0  0  0  0  0  0  0  0
  -38.1575   54.2292   76.4800 C   0  0  0  0  0  0  0  0  0  0  0  0
  -39.1202   59.7925   67.1354 O   0  0  0  0  0  0  0  0  0  0  0  0
  -40.5481   54.4539   76.0485 C   0  0  0  0  0  0  0  0  0  0  0  0
  -39.8518   57.9010   66.2098 O   0  0  0  0  0  0  0  0  0  0  0  0
  -38.7669   59.1642   68.3878 C   0  0  0  0  0  0  0  0  0  0  0  0
  -39.8694   59.0915   66.2844 C   0  0  0  0  0  0  0  0  0  0  0  0
  -40.7200   59.9800   65.4370 C   0  0  0  0  0  0  0  0  0  0  0  0
  -42.0280   59.3300   65.0270 C   0  0  0  0  0  0  0  0  0  0  0  0
  -42.8960   58.9560   66.2090 C   0  0  0  0  0  0  0  0  0  0  0  0
  -43.3110   60.1221   67.0749 C   0  0  0  0  0  0  0  0  0  0  0  0
  -44.1610   59.7323   68.2572 C   0  0  0  0  0  0  0  0  0  0  0  0
  -43.4497   58.7882   69.1890 C   0  0  0  0  0  0  0  0  0  0  0  0
  -44.2418   58.3428   70.3826 C   0  0  0  0  0  0  0  0  0  0  0  0
  -45.4716   57.6193   70.0289 C   0  0  0  0  0  0  0  0  0  0  0  0
  -45.6267   56.3255   69.8536 C   0  0  0  0  0  0  0  0  0  0  0  0
  -44.6056   55.2563   69.9893 C   0  0  0  0  0  0  0  0  0  0  0  0
  -44.3463   54.4384   68.7406 C   0  0  0  0  0  0  0  0  0  0  0  0
  -45.5785   53.7373   68.2386 C   0  0  0  0  0  0  0  0  0  0  0  0
  -46.7130   54.6537   67.8575 C   0  0  0  0  0  0  0  0  0  0  0  0
  -46.3409   55.6079   66.7441 C   0  0  0  0  0  0  0  0  0  0  0  0
  -47.4309   56.5583   66.3338 C   0  0  0  0  0  0  0  0  0  0  0  0
  -47.8737   57.4431   67.4294 C   0  0  0  0  0  0  0  0  0  0  0  0
  -46.8088   58.2971   67.9517 C   0  0  0  0  0  0  0  0  0  0  0  0
  -40.1101   60.3614   69.4086 H   0  0  0  0  0  0  0  0  0  0  0  0
  -40.9045   57.6996   68.6575 H   0  0  0  0  0  0  0  0  0  0  0  0
  -40.6342   58.9450   71.2880 H   0  0  0  0  0  0  0  0  0  0  0  0
  -38.9263   59.2592   71.1677 H   0  0  0  0  0  0  0  0  0  0  0  0
  -40.0450   57.7310   75.1668 H   0  0  0  0  0  0  0  0  0  0  0  0
  -40.9399   56.5232   74.3264 H   0  0  0  0  0  0  0  0  0  0  0  0
  -38.8782   55.1836   74.1071 H   0  0  0  0  0  0  0  0  0  0  0  0
  -38.0493   56.4637   75.0594 H   0  0  0  0  0  0  0  0  0  0  0  0
  -38.4522   56.6995   77.4209 H   0  0  0  0  0  0  0  0  0  0  0  0
  -39.5730   55.6225   78.2190 H   0  0  0  0  0  0  0  0  0  0  0  0
  -40.1677   56.8470   77.1236 H   0  0  0  0  0  0  0  0  0  0  0  0
  -37.6968   55.4962   71.1950 H   0  0  0  0  0  0  0  0  0  0  0  0
  -37.2318   54.7576   76.5734 H   0  0  0  0  0  0  0  0  0  0  0  0
  -38.0825   53.5160   75.6858 H   0  0  0  0  0  0  0  0  0  0  0  0
  -38.3721   53.7208   77.3967 H   0  0  0  0  0  0  0  0  0  0  0  0
  -41.3366   55.1441   75.8324 H   0  0  0  0  0  0  0  0  0  0  0  0
  -40.7605   53.9454   76.9656 H   0  0  0  0  0  0  0  0  0  0  0  0
  -40.4710   53.7406   75.2547 H   0  0  0  0  0  0  0  0  0  0  0  0
  -38.5470   58.1290   68.2300 H   0  0  0  0  0  0  0  0  0  0  0  0
  -37.8994   59.6236   68.8134 H   0  0  0  0  0  0  0  0  0  0  0  0
  -40.1733   60.2341   64.5530 H   0  0  0  0  0  0  0  0  0  0  0  0
  -40.9602   60.8449   66.0193 H   0  0  0  0  0  0  0  0  0  0  0  0
  -41.8086   58.4429   64.4703 H   0  0  0  0  0  0  0  0  0  0  0  0
  -42.5713   60.0428   64.4426 H   0  0  0  0  0  0  0  0  0  0  0  0
  -42.3518   58.2646   66.8179 H   0  0  0  0  0  0  0  0  0  0  0  0
  -43.7960   58.5403   65.8064 H   0  0  0  0  0  0  0  0  0  0  0  0
  -43.8675   60.8086   66.4716 H   0  0  0  0  0  0  0  0  0  0  0  0
  -42.4135   60.5536   67.4661 H   0  0  0  0  0  0  0  0  0  0  0  0
  -45.0502   59.2568   67.8993 H   0  0  0  0  0  0  0  0  0  0  0  0
  -44.3860   60.6234   68.8051 H   0  0  0  0  0  0  0  0  0  0  0  0
  -42.5662   59.2771   69.5430 H   0  0  0  0  0  0  0  0  0  0  0  0
  -43.2534   57.9041   68.6192 H   0  0  0  0  0  0  0  0  0  0  0  0
  -44.5089   59.2070   70.9543 H   0  0  0  0  0  0  0  0  0  0  0  0
  -43.6252   57.6666   70.9370 H   0  0  0  0  0  0  0  0  0  0  0  0
  -46.3169   58.1978   69.9028 H   0  0  0  0  0  0  0  0  0  0  0  0
  -46.5747   56.0150   69.5891 H   0  0  0  0  0  0  0  0  0  0  0  0
  -44.9289   54.5878   70.7597 H   0  0  0  0  0  0  0  0  0  0  0  0
  -43.6852   55.7558   70.2092 H   0  0  0  0  0  0  0  0  0  0  0  0
  -43.6006   53.7036   68.9616 H   0  0  0  0  0  0  0  0  0  0  0  0
  -44.0236   55.1123   67.9746 H   0  0  0  0  0  0  0  0  0  0  0  0
  -45.9252   53.0801   69.0086 H   0  0  0  0  0  0  0  0  0  0  0  0
  -45.2914   53.2239   67.3448 H   0  0  0  0  0  0  0  0  0  0  0  0
  -46.9964   55.2241   68.7173 H   0  0  0  0  0  0  0  0  0  0  0  0
  -47.5184   54.0435   67.5058 H   0  0  0  0  0  0  0  0  0  0  0  0
  -46.0657   55.0283   65.8878 H   0  0  0  0  0  0  0  0  0  0  0  0
  -45.5424   56.2121   67.1212 H   0  0  0  0  0  0  0  0  0  0  0  0
  -48.2710   55.9874   65.9971 H   0  0  0  0  0  0  0  0  0  0  0  0
  -47.0340   57.1831   65.5611 H   0  0  0  0  0  0  0  0  0  0  0  0
  -48.2434   56.8349   68.2283 H   0  0  0  0  0  0  0  0  0  0  0  0
  -48.6283   58.0878   67.0295 H   0  0  0  0  0  0  0  0  0  0  0  0
  -46.0315   57.6872   68.3624 H   0  0  0  0  0  0  0  0  0  0  0  0
  -47.2043   58.9332   68.7159 H   0  0  0  0  0  0  0  0  0  0  0  0
  -46.4111   58.8963   67.1594 H   0  0  0  0  0  0  0  0  0  0  0  0
  1  9  1  0  0  0  0
  1 11  1  0  0  0  0
  1 13  1  0  0  0  0
  1 15  1  0  0  0  0
  2  3  1  0  0  0  0
  2  5  1  0  0  0  0
  2 17  1  0  0  0  0
  2 36  1  1  0  0  0
  3 37  1  0  0  0  0
  4  6  1  0  0  0  0
  4  8  2  1  0  0  0
  4 10  1  0  0  0  0
  4 12  1  0  0  0  0
  5  6  1  0  0  0  0
  5 38  1  0  0  0  0
  5 39  1  0  0  0  0
  7  9  1  0  0  0  0
  7 10  1  0  0  0  0
  7 40  1  0  0  0  0
  7 41  1  0  0  0  0
  9 42  1  0  0  0  0
  9 43  1  0  0  0  0
 11 44  1  0  0  0  0
 11 45  1  0  0  0  0
 11 46  1  0  0  0  0
 12 47  1  0  0  0  0
 13 48  1  0  0  0  0
 13 49  1  0  0  0  0
 13 50  1  0  0  0  0
 14 17  1  0  0  0  0
 14 18  1  0  0  0  0
 15 51  1  0  0  0  0
 15 52  1  0  0  0  0
 15 53  1  0  0  0  0
 16 18  2  0  0  0  0
 17 54  1  0  0  0  0
 17 55  1  0  0  0  0
 18 19  1  0  0  0  0
 19 20  1  0  0  0  0
 19 56  1  0  0  0  0
 19 57  1  0  0  0  0
 20 21  1  0  0  0  0
 20 58  1  0  0  0  0
 20 59  1  0  0  0  0
 21 22  1  0  0  0  0
 21 60  1  0  0  0  0
 21 61  1  0  0  0  0
 22 23  1  0  0  0  0
 22 62  1  0  0  0  0
 22 63  1  0  0  0  0
 23 24  1  0  0  0  0
 23 64  1  0  0  0  0
 23 65  1  0  0  0  0
 24 25  1  0  0  0  0
 24 66  1  0  0  0  0
 24 67  1  0  0  0  0
 25 26  1  0  0  0  0
 25 68  1  0  0  0  0
 25 69  1  0  0  0  0
 26 27  2  0  0  0  0
 26 70  1  0  0  0  0
 27 28  1  0  0  0  0
 27 71  1  0  0  0  0
 28 29  1  0  0  0  0
 28 72  1  0  0  0  0
 28 73  1  0  0  0  0
 29 30  1  0  0  0  0
 29 74  1  0  0  0  0
 29 75  1  0  0  0  0
 30 31  1  0  0  0  0
 30 76  1  0  0  0  0
 30 77  1  0  0  0  0
 31 32  1  0  0  0  0
 31 78  1  0  0  0  0
 31 79  1  0  0  0  0
 32 33  1  0  0  0  0
 32 80  1  0  0  0  0
 32 81  1  0  0  0  0
 33 34  1  0  0  0  0
 33 82  1  0  0  0  0
 33 83  1  0  0  0  0
 34 35  1  0  0  0  0
 34 84  1  0  0  0  0
 34 85  1  0  0  0  0
 35 86  1  0  0  0  0
 35 87  1  0  0  0  0
 35 88  1  0  0  0  0
M  CHG  1   8  -1
M  END
$$$$
/media/chris/experiments/cd1a-new-docking/inputs/ligands/4x6c_ligand.pdb
 OpenBabel07012320263D

 88 87  0  0  1  0  0  0  0  0999 V2000
  -35.8127   63.8378   64.1497 N   0  0  0  0  0  4  0  0  0  0  0  0
  -42.2953   63.3133   67.9470 C   0  0  1  0  0  0  0  0  0  0  0  0
  -43.0463   62.4947   68.8437 O   0  0  0  0  0  0  0  0  0  0  0  0
  -38.5051   64.2008   67.6340 P   0  0  2  0  0  0  0  0  0  0  0  0
  -40.8417   63.2495   68.3489 C   0  0  0  0  0  0  0  0  0  0  0  0
  -40.0815   64.0882   67.4560 O   0  0  0  0  0  0  0  0  0  0  0  0
  -38.1041   64.5575   65.0653 C   0  0  0  0  0  0  0  0  0  0  0  0
  -38.1992   65.6223   67.8931 O   0  5  0  0  0  0  0  0  0  0  0  0
  -37.3150   63.8981   63.9571 C   0  0  0  0  0  0  0  0  0  0  0  0
  -37.8213   63.7941   66.2615 O   0  0  0  0  0  0  0  0  0  0  0  0
  -35.2325   65.2079   64.2945 C   0  0  0  0  0  0  0  0  0  0  0  0
  -38.1143   63.1872   68.6335 O   0  0  0  0  0  0  0  0  0  0  0  0
  -35.1830   63.1749   62.9668 C   0  0  0  0  0  0  0  0  0  0  0  0
  -42.2078   61.5072   66.4029 O   0  0  0  0  0  0  0  0  0  0  0  0
  -35.4965   63.0514   65.3830 C   0  0  0  0  0  0  0  0  0  0  0  0
  -40.0293   61.9106   66.6489 O   0  0  0  0  0  0  0  0  0  0  0  0
  -42.5840   62.8972   66.5230 C   0  0  0  0  0  0  0  0  0  0  0  0
  -40.9154   61.2318   66.2282 C   0  0  0  0  0  0  0  0  0  0  0  0
  -40.7200   59.9800   65.4370 C   0  0  0  0  0  0  0  0  0  0  0  0
  -42.0280   59.3300   65.0270 C   0  0  0  0  0  0  0  0  0  0  0  0
  -42.8960   58.9560   66.2090 C   0  0  0  0  0  0  0  0  0  0  0  0
  -44.2012   58.2902   65.8416 C   0  0  0  0  0  0  0  0  0  0  0  0
  -45.0623   57.9388   67.0279 C   0  0  0  0  0  0  0  0  0  0  0  0
  -46.3454   57.2626   66.6256 C   0  0  0  0  0  0  0  0  0  0  0  0
  -47.2342   58.0573   65.7153 C   0  0  0  0  0  0  0  0  0  0  0  0
  -46.6024   58.3930   64.4311 C   0  0  0  0  0  0  0  0  0  0  0  0
  -46.3685   59.5869   63.9325 C   0  0  0  0  0  0  0  0  0  0  0  0
  -46.6608   60.9067   64.5464 C   0  0  0  0  0  0  0  0  0  0  0  0
  -45.7173   62.0286   64.1635 C   0  0  0  0  0  0  0  0  0  0  0  0
  -46.0607   63.3309   64.8330 C   0  0  0  0  0  0  0  0  0  0  0  0
  -47.4437   63.8484   64.5311 C   0  0  0  0  0  0  0  0  0  0  0  0
  -47.7331   65.1671   65.2138 C   0  0  0  0  0  0  0  0  0  0  0  0
  -46.8199   66.2958   64.8241 C   0  0  0  0  0  0  0  0  0  0  0  0
  -47.1253   67.5590   65.5242 C   0  0  0  0  0  0  0  0  0  0  0  0
  -46.2503   68.6636   65.1364 C   0  0  0  0  0  0  0  0  0  0  0  0
  -42.5795   64.3433   68.0024 H   0  0  0  0  0  0  0  0  0  0  0  0
  -42.7563   61.5729   68.7599 H   0  0  0  0  0  0  0  0  0  0  0  0
  -40.4926   62.2403   68.2807 H   0  0  0  0  0  0  0  0  0  0  0  0
  -40.7255   63.5884   69.3572 H   0  0  0  0  0  0  0  0  0  0  0  0
  -39.1507   64.5294   64.8446 H   0  0  0  0  0  0  0  0  0  0  0  0
  -37.8333   65.5860   65.1823 H   0  0  0  0  0  0  0  0  0  0  0  0
  -37.6716   62.8944   63.8551 H   0  0  0  0  0  0  0  0  0  0  0  0
  -37.4686   64.5101   63.0929 H   0  0  0  0  0  0  0  0  0  0  0  0
  -35.4511   65.7823   63.4186 H   0  0  0  0  0  0  0  0  0  0  0  0
  -34.1721   65.1350   64.4176 H   0  0  0  0  0  0  0  0  0  0  0  0
  -35.6589   65.6872   65.1509 H   0  0  0  0  0  0  0  0  0  0  0  0
  -38.5163   63.4049   69.4890 H   0  0  0  0  0  0  0  0  0  0  0  0
  -35.4071   63.7347   62.0829 H   0  0  0  0  0  0  0  0  0  0  0  0
  -35.5686   62.1817   62.8673 H   0  0  0  0  0  0  0  0  0  0  0  0
  -34.1225   63.1337   63.1036 H   0  0  0  0  0  0  0  0  0  0  0  0
  -35.9458   63.5232   66.2318 H   0  0  0  0  0  0  0  0  0  0  0  0
  -34.4358   63.0103   65.5176 H   0  0  0  0  0  0  0  0  0  0  0  0
  -35.8819   62.0584   65.2813 H   0  0  0  0  0  0  0  0  0  0  0  0
  -42.0112   63.4927   65.8431 H   0  0  0  0  0  0  0  0  0  0  0  0
  -43.6190   63.0337   66.2883 H   0  0  0  0  0  0  0  0  0  0  0  0
  -40.1644   59.2843   66.0305 H   0  0  0  0  0  0  0  0  0  0  0  0
  -40.1985   60.2448   64.5410 H   0  0  0  0  0  0  0  0  0  0  0  0
  -41.8086   58.4429   64.4703 H   0  0  0  0  0  0  0  0  0  0  0  0
  -42.5713   60.0428   64.4426 H   0  0  0  0  0  0  0  0  0  0  0  0
  -43.1183   59.8483   66.7560 H   0  0  0  0  0  0  0  0  0  0  0  0
  -42.3406   58.2423   66.7808 H   0  0  0  0  0  0  0  0  0  0  0  0
  -43.9814   57.3901   65.3063 H   0  0  0  0  0  0  0  0  0  0  0  0
  -44.7539   58.9929   65.2537 H   0  0  0  0  0  0  0  0  0  0  0  0
  -45.2991   58.8372   67.5587 H   0  0  0  0  0  0  0  0  0  0  0  0
  -44.5114   57.2554   67.6397 H   0  0  0  0  0  0  0  0  0  0  0  0
  -46.8964   57.0438   67.5164 H   0  0  0  0  0  0  0  0  0  0  0  0
  -46.0590   56.3928   66.0721 H   0  0  0  0  0  0  0  0  0  0  0  0
  -47.5005   58.9676   66.2107 H   0  0  0  0  0  0  0  0  0  0  0  0
  -48.0885   57.4506   65.4985 H   0  0  0  0  0  0  0  0  0  0  0  0
  -46.3061   57.5935   63.8496 H   0  0  0  0  0  0  0  0  0  0  0  0
  -45.9275   59.6093   62.9997 H   0  0  0  0  0  0  0  0  0  0  0  0
  -46.6214   60.7915   65.6095 H   0  0  0  0  0  0  0  0  0  0  0  0
  -47.6235   61.1946   64.1786 H   0  0  0  0  0  0  0  0  0  0  0  0
  -45.7623   62.1666   63.1034 H   0  0  0  0  0  0  0  0  0  0  0  0
  -44.7359   61.7490   64.4853 H   0  0  0  0  0  0  0  0  0  0  0  0
  -45.3524   64.0666   64.5139 H   0  0  0  0  0  0  0  0  0  0  0  0
  -46.0301   63.1465   65.8866 H   0  0  0  0  0  0  0  0  0  0  0  0
  -48.1600   63.1262   64.8631 H   0  0  0  0  0  0  0  0  0  0  0  0
  -47.5062   64.0095   63.4752 H   0  0  0  0  0  0  0  0  0  0  0  0
  -47.6477   65.0202   66.2702 H   0  0  0  0  0  0  0  0  0  0  0  0
  -48.7158   65.4558   64.9041 H   0  0  0  0  0  0  0  0  0  0  0  0
  -46.9122   66.4599   63.7708 H   0  0  0  0  0  0  0  0  0  0  0  0
  -45.8263   66.0110   65.1008 H   0  0  0  0  0  0  0  0  0  0  0  0
  -47.0211   67.3972   66.5768 H   0  0  0  0  0  0  0  0  0  0  0  0
  -48.1229   67.8365   65.2546 H   0  0  0  0  0  0  0  0  0  0  0  0
  -45.2390   68.4237   65.3906 H   0  0  0  0  0  0  0  0  0  0  0  0
  -46.5468   69.5521   65.6536 H   0  0  0  0  0  0  0  0  0  0  0  0
  -46.3244   68.8237   64.0810 H   0  0  0  0  0  0  0  0  0  0  0  0
  1  9  1  0  0  0  0
  1 11  1  0  0  0  0
  1 13  1  0  0  0  0
  1 15  1  0  0  0  0
  2  3  1  0  0  0  0
  2  5  1  0  0  0  0
  2 17  1  0  0  0  0
  2 36  1  1  0  0  0
  3 37  1  0  0  0  0
  4  6  1  0  0  0  0
  4  8  2  1  0  0  0
  4 10  1  0  0  0  0
  4 12  1  0  0  0  0
  5  6  1  0  0  0  0
  5 38  1  0  0  0  0
  5 39  1  0  0  0  0
  7  9  1  0  0  0  0
  7 10  1  0  0  0  0
  7 40  1  0  0  0  0
  7 41  1  0  0  0  0
  9 42  1  0  0  0  0
  9 43  1  0  0  0  0
 11 44  1  0  0  0  0
 11 45  1  0  0  0  0
 11 46  1  0  0  0  0
 12 47  1  0  0  0  0
 13 48  1  0  0  0  0
 13 49  1  0  0  0  0
 13 50  1  0  0  0  0
 14 17  1  0  0  0  0
 14 18  1  0  0  0  0
 15 51  1  0  0  0  0
 15 52  1  0  0  0  0
 15 53  1  0  0  0  0
 16 18  2  0  0  0  0
 17 54  1  0  0  0  0
 17 55  1  0  0  0  0
 18 19  1  0  0  0  0
 19 20  1  0  0  0  0
 19 56  1  0  0  0  0
 19 57  1  0  0  0  0
 20 21  1  0  0  0  0
 20 58  1  0  0  0  0
 20 59  1  0  0  0  0
 21 22  1  0  0  0  0
 21 60  1  0  0  0  0
 21 61  1  0  0  0  0
 22 23  1  0  0  0  0
 22 62  1  0  0  0  0
 22 63  1  0  0  0  0
 23 24  1  0  0  0  0
 23 64  1  0  0  0  0
 23 65  1  0  0  0  0
 24 25  1  0  0  0  0
 24 66  1  0  0  0  0
 24 67  1  0  0  0  0
 25 26  1  0  0  0  0
 25 68  1  0  0  0  0
 25 69  1  0  0  0  0
 26 27  2  0  0  0  0
 26 70  1  0  0  0  0
 27 28  1  0  0  0  0
 27 71  1  0  0  0  0
 28 29  1  0  0  0  0
 28 72  1  0  0  0  0
 28 73  1  0  0  0  0
 29 30  1  0  0  0  0
 29 74  1  0  0  0  0
 29 75  1  0  0  0  0
 30 31  1  0  0  0  0
 30 76  1  0  0  0  0
 30 77  1  0  0  0  0
 31 32  1  0  0  0  0
 31 78  1  0  0  0  0
 31 79  1  0  0  0  0
 32 33  1  0  0  0  0
 32 80  1  0  0  0  0
 32 81  1  0  0  0  0
 33 34  1  0  0  0  0
 33 82  1  0  0  0  0
 33 83  1  0  0  0  0
 34 35  1  0  0  0  0
 34 84  1  0  0  0  0
 34 85  1  0  0  0  0
 35 86  1  0  0  0  0
 35 87  1  0  0  0  0
 35 88  1  0  0  0  0
M  CHG  1   8  -1
M  END
$$$$
/media/chris/experiments/cd1a-new-docking/inputs/ligands/4x6c_ligand.pdb
 OpenBabel07012320263D

 88 87  0  0  1  0  0  0  0  0999 V2000
  -42.0154   66.5752   60.7895 N   0  0  0  0  0  4  0  0  0  0  0  0
  -39.1157   61.0372   61.4119 C   0  0  1  0  0  0  0  0  0  0  0  0
  -38.2696   60.7782   60.2916 O   0  0  0  0  0  0  0  0  0  0  0  0
  -42.3204   63.2083   61.9295 P   0  0  2  0  0  0  0  0  0  0  0  0
  -40.2133   61.9755   60.9722 C   0  0  0  0  0  0  0  0  0  0  0  0
  -41.0609   62.2532   62.1050 O   0  0  0  0  0  0  0  0  0  0  0  0
  -43.1069   65.5292   62.8683 C   0  0  0  0  0  0  0  0  0  0  0  0
  -42.3444   63.6378   60.5167 O   0  5  0  0  0  0  0  0  0  0  0  0
  -43.2610   66.0108   61.4436 C   0  0  0  0  0  0  0  0  0  0  0  0
  -42.0955   64.4951   62.8298 O   0  0  0  0  0  0  0  0  0  0  0  0
  -41.4889   67.7470   61.5541 C   0  0  0  0  0  0  0  0  0  0  0  0
  -43.4839   62.4871   62.4819 O   0  0  0  0  0  0  0  0  0  0  0  0
  -42.3379   67.0183   59.3985 C   0  0  0  0  0  0  0  0  0  0  0  0
  -40.4522   60.0498   63.1127 O   0  0  0  0  0  0  0  0  0  0  0  0
  -40.9544   65.5211   60.7386 C   0  0  0  0  0  0  0  0  0  0  0  0
  -38.7996   60.8828   64.3553 O   0  0  0  0  0  0  0  0  0  0  0  0
  -39.5906   59.7276   61.9983 C   0  0  0  0  0  0  0  0  0  0  0  0
  -39.8706   60.3644   64.2700 C   0  0  0  0  0  0  0  0  0  0  0  0
  -40.7200   59.9800   65.4370 C   0  0  0  0  0  0  0  0  0  0  0  0
  -42.0280   59.3300   65.0270 C   0  0  0  0  0  0  0  0  0  0  0  0
  -42.8960   58.9560   66.2090 C   0  0  0  0  0  0  0  0  0  0  0  0
  -44.2012   58.2902   65.8416 C   0  0  0  0  0  0  0  0  0  0  0  0
  -45.0885   59.1315   64.9600 C   0  0  0  0  0  0  0  0  0  0  0  0
  -46.3858   58.4442   64.6284 C   0  0  0  0  0  0  0  0  0  0  0  0
  -47.2530   58.1036   65.8040 C   0  0  0  0  0  0  0  0  0  0  0  0
  -48.4995   57.4198   65.4301 C   0  0  0  0  0  0  0  0  0  0  0  0
  -49.6638   57.9597   65.1443 C   0  0  0  0  0  0  0  0  0  0  0  0
  -50.0168   59.4012   65.1027 C   0  0  0  0  0  0  0  0  0  0  0  0
  -49.2291   60.2939   66.0397 C   0  0  0  0  0  0  0  0  0  0  0  0
  -49.6486   61.7359   65.9585 C   0  0  0  0  0  0  0  0  0  0  0  0
  -49.5024   62.3581   64.5934 C   0  0  0  0  0  0  0  0  0  0  0  0
  -49.9209   63.8117   64.5689 C   0  0  0  0  0  0  0  0  0  0  0  0
  -49.1309   64.7136   65.4757 C   0  0  0  0  0  0  0  0  0  0  0  0
  -47.6918   64.7507   65.1489 C   0  0  0  0  0  0  0  0  0  0  0  0
  -47.4156   65.2405   63.7998 C   0  0  0  0  0  0  0  0  0  0  0  0
  -38.5971   61.5301   62.2075 H   0  0  0  0  0  0  0  0  0  0  0  0
  -38.7797   60.3322   59.5975 H   0  0  0  0  0  0  0  0  0  0  0  0
  -40.7888   61.5182   60.1946 H   0  0  0  0  0  0  0  0  0  0  0  0
  -39.7900   62.8851   60.6001 H   0  0  0  0  0  0  0  0  0  0  0  0
  -44.0324   65.1314   63.2289 H   0  0  0  0  0  0  0  0  0  0  0  0
  -42.8285   66.3269   63.5249 H   0  0  0  0  0  0  0  0  0  0  0  0
  -43.5931   65.1826   60.8531 H   0  0  0  0  0  0  0  0  0  0  0  0
  -43.9539   66.8248   61.4899 H   0  0  0  0  0  0  0  0  0  0  0  0
  -42.2381   68.5096   61.5986 H   0  0  0  0  0  0  0  0  0  0  0  0
  -40.6183   68.1304   61.0643 H   0  0  0  0  0  0  0  0  0  0  0  0
  -41.2335   67.4396   62.5467 H   0  0  0  0  0  0  0  0  0  0  0  0
  -43.6515   61.6910   61.9538 H   0  0  0  0  0  0  0  0  0  0  0  0
  -43.0965   67.7723   59.4312 H   0  0  0  0  0  0  0  0  0  0  0  0
  -42.6899   66.1826   58.8305 H   0  0  0  0  0  0  0  0  0  0  0  0
  -41.4582   67.4172   58.9382 H   0  0  0  0  0  0  0  0  0  0  0  0
  -40.7211   65.2016   61.7327 H   0  0  0  0  0  0  0  0  0  0  0  0
  -40.0759   65.9213   60.2771 H   0  0  0  0  0  0  0  0  0  0  0  0
  -41.3077   64.6867   60.1694 H   0  0  0  0  0  0  0  0  0  0  0  0
  -38.7543   59.1515   62.3353 H   0  0  0  0  0  0  0  0  0  0  0  0
  -40.1146   59.1497   61.2659 H   0  0  0  0  0  0  0  0  0  0  0  0
  -40.9394   60.8604   66.0042 H   0  0  0  0  0  0  0  0  0  0  0  0
  -40.1713   59.2627   66.0109 H   0  0  0  0  0  0  0  0  0  0  0  0
  -41.8086   58.4429   64.4703 H   0  0  0  0  0  0  0  0  0  0  0  0
  -42.5713   60.0428   64.4426 H   0  0  0  0  0  0  0  0  0  0  0  0
  -43.1183   59.8483   66.7560 H   0  0  0  0  0  0  0  0  0  0  0  0
  -42.3406   58.2423   66.7808 H   0  0  0  0  0  0  0  0  0  0  0  0
  -44.7331   58.0706   66.7436 H   0  0  0  0  0  0  0  0  0  0  0  0
  -43.9552   57.4099   65.2853 H   0  0  0  0  0  0  0  0  0  0  0  0
  -44.5681   59.3412   64.0489 H   0  0  0  0  0  0  0  0  0  0  0  0
  -45.3221   60.0289   65.4938 H   0  0  0  0  0  0  0  0  0  0  0  0
  -46.1554   57.5348   64.1138 H   0  0  0  0  0  0  0  0  0  0  0  0
  -46.9465   59.1408   64.0408 H   0  0  0  0  0  0  0  0  0  0  0  0
  -47.5032   59.0097   66.3150 H   0  0  0  0  0  0  0  0  0  0  0  0
  -46.6968   57.4311   66.4231 H   0  0  0  0  0  0  0  0  0  0  0  0
  -48.4553   56.3896   65.3866 H   0  0  0  0  0  0  0  0  0  0  0  0
  -50.4259   57.3005   64.9216 H   0  0  0  0  0  0  0  0  0  0  0  0
  -51.0530   59.4940   65.3526 H   0  0  0  0  0  0  0  0  0  0  0  0
  -49.7798   59.7328   64.1133 H   0  0  0  0  0  0  0  0  0  0  0  0
  -48.1917   60.2246   65.7869 H   0  0  0  0  0  0  0  0  0  0  0  0
  -49.4167   59.9589   67.0385 H   0  0  0  0  0  0  0  0  0  0  0  0
  -49.0504   62.2964   66.6461 H   0  0  0  0  0  0  0  0  0  0  0  0
  -50.6926   61.7607   66.1918 H   0  0  0  0  0  0  0  0  0  0  0  0
  -50.1116   61.8143   63.9019 H   0  0  0  0  0  0  0  0  0  0  0  0
  -48.4672   62.3143   64.3264 H   0  0  0  0  0  0  0  0  0  0  0  0
  -50.9493   63.8663   64.8595 H   0  0  0  0  0  0  0  0  0  0  0  0
  -49.7432   64.1581   63.5722 H   0  0  0  0  0  0  0  0  0  0  0  0
  -49.2424   64.3666   66.4817 H   0  0  0  0  0  0  0  0  0  0  0  0
  -49.5117   65.7054   65.3481 H   0  0  0  0  0  0  0  0  0  0  0  0
  -47.2983   63.7596   65.2372 H   0  0  0  0  0  0  0  0  0  0  0  0
  -47.2300   65.4316   65.8330 H   0  0  0  0  0  0  0  0  0  0  0  0
  -47.8630   64.5836   63.0833 H   0  0  0  0  0  0  0  0  0  0  0  0
  -46.3579   65.2733   63.6419 H   0  0  0  0  0  0  0  0  0  0  0  0
  -47.8239   66.2230   63.6865 H   0  0  0  0  0  0  0  0  0  0  0  0
  1  9  1  0  0  0  0
  1 11  1  0  0  0  0
  1 13  1  0  0  0  0
  1 15  1  0  0  0  0
  2  3  1  0  0  0  0
  2  5  1  0  0  0  0
  2 17  1  0  0  0  0
  2 36  1  1  0  0  0
  3 37  1  0  0  0  0
  4  6  1  0  0  0  0
  4  8  2  6  0  0  0
  4 10  1  0  0  0  0
  4 12  1  0  0  0  0
  5  6  1  0  0  0  0
  5 38  1  0  0  0  0
  5 39  1  0  0  0  0
  7  9  1  0  0  0  0
  7 10  1  0  0  0  0
  7 40  1  0  0  0  0
  7 41  1  0  0  0  0
  9 42  1  0  0  0  0
  9 43  1  0  0  0  0
 11 44  1  0  0  0  0
 11 45  1  0  0  0  0
 11 46  1  0  0  0  0
 12 47  1  0  0  0  0
 13 48  1  0  0  0  0
 13 49  1  0  0  0  0
 13 50  1  0  0  0  0
 14 17  1  0  0  0  0
 14 18  1  0  0  0  0
 15 51  1  0  0  0  0
 15 52  1  0  0  0  0
 15 53  1  0  0  0  0
 16 18  2  0  0  0  0
 17 54  1  0  0  0  0
 17 55  1  0  0  0  0
 18 19  1  0  0  0  0
 19 20  1  0  0  0  0
 19 56  1  0  0  0  0
 19 57  1  0  0  0  0
 20 21  1  0  0  0  0
 20 58  1  0  0  0  0
 20 59  1  0  0  0  0
 21 22  1  0  0  0  0
 21 60  1  0  0  0  0
 21 61  1  0  0  0  0
 22 23  1  0  0  0  0
 22 62  1  0  0  0  0
 22 63  1  0  0  0  0
 23 24  1  0  0  0  0
 23 64  1  0  0  0  0
 23 65  1  0  0  0  0
 24 25  1  0  0  0  0
 24 66  1  0  0  0  0
 24 67  1  0  0  0  0
 25 26  1  0  0  0  0
 25 68  1  0  0  0  0
 25 69  1  0  0  0  0
 26 27  2  0  0  0  0
 26 70  1  0  0  0  0
 27 28  1  0  0  0  0
 27 71  1  0  0  0  0
 28 29  1  0  0  0  0
 28 72  1  0  0  0  0
 28 73  1  0  0  0  0
 29 30  1  0  0  0  0
 29 74  1  0  0  0  0
 29 75  1  0  0  0  0
 30 31  1  0  0  0  0
 30 76  1  0  0  0  0
 30 77  1  0  0  0  0
 31 32  1  0  0  0  0
 31 78  1  0  0  0  0
 31 79  1  0  0  0  0
 32 33  1  0  0  0  0
 32 80  1  0  0  0  0
 32 81  1  0  0  0  0
 33 34  1  0  0  0  0
 33 82  1  0  0  0  0
 33 83  1  0  0  0  0
 34 35  1  0  0  0  0
 34 84  1  0  0  0  0
 34 85  1  0  0  0  0
 35 86  1  0  0  0  0
 35 87  1  0  0  0  0
 35 88  1  0  0  0  0
M  CHG  1   8  -1
M  END
$$$$
/media/chris/experiments/cd1a-new-docking/inputs/ligands/4x6c_ligand.pdb
 OpenBabel07012320263D

 88 87  0  0  1  0  0  0  0  0999 V2000
  -41.9002   51.5072   62.8102 N   0  0  0  0  0  4  0  0  0  0  0  0
  -38.5182   56.5608   67.2647 C   0  0  1  0  0  0  0  0  0  0  0  0
  -38.9658   57.4418   68.2950 O   0  0  0  0  0  0  0  0  0  0  0  0
  -42.0456   55.0206   66.6040 P   0  0  2  0  0  0  0  0  0  0  0  0
  -39.5118   55.4313   67.1397 C   0  0  0  0  0  0  0  0  0  0  0  0
  -40.7951   55.9860   66.7870 O   0  0  0  0  0  0  0  0  0  0  0  0
  -41.9582   53.0719   64.8486 C   0  0  0  0  0  0  0  0  0  0  0  0
  -41.8332   53.8632   67.4964 O   0  5  0  0  0  0  0  0  0  0  0  0
  -41.9699   52.9241   63.3441 C   0  0  0  0  0  0  0  0  0  0  0  0
  -42.0489   54.4925   65.1080 O   0  0  0  0  0  0  0  0  0  0  0  0
  -43.0682   50.6981   63.2747 C   0  0  0  0  0  0  0  0  0  0  0  0
  -43.2546   55.8498   66.7767 O   0  0  0  0  0  0  0  0  0  0  0  0
  -40.6445   50.8529   63.2905 C   0  0  0  0  0  0  0  0  0  0  0  0
  -39.5367   57.9710   65.6436 O   0  0  0  0  0  0  0  0  0  0  0  0
  -41.9016   51.5346   61.3140 C   0  0  0  0  0  0  0  0  0  0  0  0
  -39.5314   59.3433   67.4004 O   0  0  0  0  0  0  0  0  0  0  0  0
  -38.2816   57.3477   65.9962 C   0  0  0  0  0  0  0  0  0  0  0  0
  -39.8694   59.0915   66.2844 C   0  0  0  0  0  0  0  0  0  0  0  0
  -40.7200   59.9800   65.4370 C   0  0  0  0  0  0  0  0  0  0  0  0
  -42.0280   59.3300   65.0270 C   0  0  0  0  0  0  0  0  0  0  0  0
  -42.8960   58.9560   66.2090 C   0  0  0  0  0  0  0  0  0  0  0  0
  -43.3110   60.1221   67.0749 C   0  0  0  0  0  0  0  0  0  0  0  0
  -44.1610   59.7323   68.2572 C   0  0  0  0  0  0  0  0  0  0  0  0
  -45.4346   59.0435   67.8464 C   0  0  0  0  0  0  0  0  0  0  0  0
  -45.2577   57.7641   67.0836 C   0  0  0  0  0  0  0  0  0  0  0  0
  -46.5291   57.1389   66.6913 C   0  0  0  0  0  0  0  0  0  0  0  0
  -46.9572   56.8694   65.4777 C   0  0  0  0  0  0  0  0  0  0  0  0
  -46.2587   57.1055   64.1890 C   0  0  0  0  0  0  0  0  0  0  0  0
  -44.9384   56.3821   64.0196 C   0  0  0  0  0  0  0  0  0  0  0  0
  -45.0826   54.8864   64.0842 C   0  0  0  0  0  0  0  0  0  0  0  0
  -45.6637   54.3651   65.3736 C   0  0  0  0  0  0  0  0  0  0  0  0
  -45.7720   52.8563   65.3947 C   0  0  0  0  0  0  0  0  0  0  0  0
  -46.6246   52.2673   64.3057 C   0  0  0  0  0  0  0  0  0  0  0  0
  -48.0187   52.7522   64.3322 C   0  0  0  0  0  0  0  0  0  0  0  0
  -48.8556   52.1697   63.2851 C   0  0  0  0  0  0  0  0  0  0  0  0
  -37.5757   56.1103   67.4963 H   0  0  0  0  0  0  0  0  0  0  0  0
  -39.8203   57.8258   68.0434 H   0  0  0  0  0  0  0  0  0  0  0  0
  -39.5872   54.9124   68.0725 H   0  0  0  0  0  0  0  0  0  0  0  0
  -39.1908   54.7431   66.3859 H   0  0  0  0  0  0  0  0  0  0  0  0
  -41.0505   52.6766   65.2544 H   0  0  0  0  0  0  0  0  0  0  0  0
  -42.7664   52.5372   65.3023 H   0  0  0  0  0  0  0  0  0  0  0  0
  -42.8736   53.3662   62.9797 H   0  0  0  0  0  0  0  0  0  0  0  0
  -41.0762   53.4032   63.0024 H   0  0  0  0  0  0  0  0  0  0  0  0
  -43.0798   50.6698   64.3443 H   0  0  0  0  0  0  0  0  0  0  0  0
  -42.9868   49.7020   62.8925 H   0  0  0  0  0  0  0  0  0  0  0  0
  -43.9742   51.1433   62.9198 H   0  0  0  0  0  0  0  0  0  0  0  0
  -43.2856   56.1911   67.6842 H   0  0  0  0  0  0  0  0  0  0  0  0
  -40.6402   50.8316   64.3603 H   0  0  0  0  0  0  0  0  0  0  0  0
  -39.7979   51.4063   62.9413 H   0  0  0  0  0  0  0  0  0  0  0  0
  -40.5969   49.8526   62.9136 H   0  0  0  0  0  0  0  0  0  0  0  0
  -42.7992   52.0023   60.9667 H   0  0  0  0  0  0  0  0  0  0  0  0
  -41.8529   50.5337   60.9389 H   0  0  0  0  0  0  0  0  0  0  0  0
  -41.0539   52.0873   60.9665 H   0  0  0  0  0  0  0  0  0  0  0  0
  -37.9636   56.6931   65.2118 H   0  0  0  0  0  0  0  0  0  0  0  0
  -37.5181   58.0833   66.1407 H   0  0  0  0  0  0  0  0  0  0  0  0
  -40.1733   60.2341   64.5530 H   0  0  0  0  0  0  0  0  0  0  0  0
  -40.9602   60.8449   66.0193 H   0  0  0  0  0  0  0  0  0  0  0  0
  -41.8086   58.4429   64.4703 H   0  0  0  0  0  0  0  0  0  0  0  0
  -42.5713   60.0428   64.4426 H   0  0  0  0  0  0  0  0  0  0  0  0
  -42.3518   58.2646   66.8179 H   0  0  0  0  0  0  0  0  0  0  0  0
  -43.7960   58.5403   65.8064 H   0  0  0  0  0  0  0  0  0  0  0  0
  -43.8675   60.8086   66.4716 H   0  0  0  0  0  0  0  0  0  0  0  0
  -42.4135   60.5536   67.4661 H   0  0  0  0  0  0  0  0  0  0  0  0
  -44.4100   60.6155   68.8074 H   0  0  0  0  0  0  0  0  0  0  0  0
  -43.5962   59.0456   68.8526 H   0  0  0  0  0  0  0  0  0  0  0  0
  -45.9920   59.7195   67.2322 H   0  0  0  0  0  0  0  0  0  0  0  0
  -45.9324   58.7780   68.7556 H   0  0  0  0  0  0  0  0  0  0  0  0
  -44.7159   57.0752   67.6974 H   0  0  0  0  0  0  0  0  0  0  0  0
  -44.7315   58.0029   66.1830 H   0  0  0  0  0  0  0  0  0  0  0  0
  -47.1632   56.8797   67.4631 H   0  0  0  0  0  0  0  0  0  0  0  0
  -47.8939   56.4411   65.4130 H   0  0  0  0  0  0  0  0  0  0  0  0
  -46.0725   58.1557   64.1028 H   0  0  0  0  0  0  0  0  0  0  0  0
  -46.9052   56.7178   63.4296 H   0  0  0  0  0  0  0  0  0  0  0  0
  -44.2741   56.6957   64.7976 H   0  0  0  0  0  0  0  0  0  0  0  0
  -44.5575   56.6281   63.0504 H   0  0  0  0  0  0  0  0  0  0  0  0
  -44.1132   54.4522   63.9559 H   0  0  0  0  0  0  0  0  0  0  0  0
  -45.7708   54.6153   63.3110 H   0  0  0  0  0  0  0  0  0  0  0  0
  -46.6413   54.7808   65.5017 H   0  0  0  0  0  0  0  0  0  0  0  0
  -45.0053   54.6540   66.1660 H   0  0  0  0  0  0  0  0  0  0  0  0
  -46.1887   52.5662   66.3366 H   0  0  0  0  0  0  0  0  0  0  0  0
  -44.7822   52.4823   65.2360 H   0  0  0  0  0  0  0  0  0  0  0  0
  -46.6325   51.2032   64.4179 H   0  0  0  0  0  0  0  0  0  0  0  0
  -46.2005   52.5697   63.3711 H   0  0  0  0  0  0  0  0  0  0  0  0
  -48.0106   53.8149   64.2080 H   0  0  0  0  0  0  0  0  0  0  0  0
  -48.4377   52.4581   65.2718 H   0  0  0  0  0  0  0  0  0  0  0  0
  -48.4678   52.4420   62.3258 H   0  0  0  0  0  0  0  0  0  0  0  0
  -49.8560   52.5367   63.3827 H   0  0  0  0  0  0  0  0  0  0  0  0
  -48.8558   51.1039   63.3803 H   0  0  0  0  0  0  0  0  0  0  0  0
  1  9  1  0  0  0  0
  1 11  1  0  0  0  0
  1 13  1  0  0  0  0
  1 15  1  0  0  0  0
  2  3  1  0  0  0  0
  2  5  1  0  0  0  0
  2 17  1  0  0  0  0
  2 36  1  1  0  0  0
  3 37  1  0  0  0  0
  4  6  1  0  0  0  0
  4  8  2  1  0  0  0
  4 10  1  0  0  0  0
  4 12  1  0  0  0  0
  5  6  1  0  0  0  0
  5 38  1  0  0  0  0
  5 39  1  0  0  0  0
  7  9  1  0  0  0  0
  7 10  1  0  0  0  0
  7 40  1  0  0  0  0
  7 41  1  0  0  0  0
  9 42  1  0  0  0  0
  9 43  1  0  0  0  0
 11 44  1  0  0  0  0
 11 45  1  0  0  0  0
 11 46  1  0  0  0  0
 12 47  1  0  0  0  0
 13 48  1  0  0  0  0
 13 49  1  0  0  0  0
 13 50  1  0  0  0  0
 14 17  1  0  0  0  0
 14 18  1  0  0  0  0
 15 51  1  0  0  0  0
 15 52  1  0  0  0  0
 15 53  1  0  0  0  0
 16 18  2  0  0  0  0
 17 54  1  0  0  0  0
 17 55  1  0  0  0  0
 18 19  1  0  0  0  0
 19 20  1  0  0  0  0
 19 56  1  0  0  0  0
 19 57  1  0  0  0  0
 20 21  1  0  0  0  0
 20 58  1  0  0  0  0
 20 59  1  0  0  0  0
 21 22  1  0  0  0  0
 21 60  1  0  0  0  0
 21 61  1  0  0  0  0
 22 23  1  0  0  0  0
 22 62  1  0  0  0  0
 22 63  1  0  0  0  0
 23 24  1  0  0  0  0
 23 64  1  0  0  0  0
 23 65  1  0  0  0  0
 24 25  1  0  0  0  0
 24 66  1  0  0  0  0
 24 67  1  0  0  0  0
 25 26  1  0  0  0  0
 25 68  1  0  0  0  0
 25 69  1  0  0  0  0
 26 27  2  0  0  0  0
 26 70  1  0  0  0  0
 27 28  1  0  0  0  0
 27 71  1  0  0  0  0
 28 29  1  0  0  0  0
 28 72  1  0  0  0  0
 28 73  1  0  0  0  0
 29 30  1  0  0  0  0
 29 74  1  0  0  0  0
 29 75  1  0  0  0  0
 30 31  1  0  0  0  0
 30 76  1  0  0  0  0
 30 77  1  0  0  0  0
 31 32  1  0  0  0  0
 31 78  1  0  0  0  0
 31 79  1  0  0  0  0
 32 33  1  0  0  0  0
 32 80  1  0  0  0  0
 32 81  1  0  0  0  0
 33 34  1  0  0  0  0
 33 82  1  0  0  0  0
 33 83  1  0  0  0  0
 34 35  1  0  0  0  0
 34 84  1  0  0  0  0
 34 85  1  0  0  0  0
 35 86  1  0  0  0  0
 35 87  1  0  0  0  0
 35 88  1  0  0  0  0
M  CHG  1   8  -1
M  END
$$$$
/media/chris/experiments/cd1a-new-docking/inputs/ligands/4x6c_ligand.pdb
 OpenBabel07012320263D

 88 87  0  0  1  0  0  0  0  0999 V2000
  -38.2195   59.0547   59.2310 N   0  0  0  0  0  4  0  0  0  0  0  0
  -39.0893   62.2070   61.9928 C   0  0  1  0  0  0  0  0  0  0  0  0
  -39.0134   60.8166   61.6780 O   0  0  0  0  0  0  0  0  0  0  0  0
  -38.3235   63.3970   58.3529 P   0  0  2  0  0  0  0  0  0  0  0  0
  -39.3680   62.9685   60.7197 C   0  0  0  0  0  0  0  0  0  0  0  0
  -38.3014   62.7066   59.7855 O   0  0  0  0  0  0  0  0  0  0  0  0
  -37.9027   60.9449   57.5182 C   0  0  0  0  0  0  0  0  0  0  0  0
  -39.5424   64.2286   58.2920 O   0  5  0  0  0  0  0  0  0  0  0  0
  -38.6315   60.4275   58.7375 C   0  0  0  0  0  0  0  0  0  0  0  0
  -38.4514   62.2579   57.2561 O   0  0  0  0  0  0  0  0  0  0  0  0
  -38.4223   58.0183   58.1729 C   0  0  0  0  0  0  0  0  0  0  0  0
  -37.0063   64.0365   58.1663 O   0  0  0  0  0  0  0  0  0  0  0  0
  -39.0401   58.6854   60.4250 C   0  0  0  0  0  0  0  0  0  0  0  0
  -39.6306   61.6754   64.2463 O   0  0  0  0  0  0  0  0  0  0  0  0
  -36.7726   59.0725   59.6125 C   0  0  0  0  0  0  0  0  0  0  0  0
  -39.4598   59.5996   63.4520 O   0  0  0  0  0  0  0  0  0  0  0  0
  -40.0975   62.4190   63.0987 C   0  0  0  0  0  0  0  0  0  0  0  0
  -39.8706   60.3644   64.2700 C   0  0  0  0  0  0  0  0  0  0  0  0
  -40.7200   59.9800   65.4370 C   0  0  0  0  0  0  0  0  0  0  0  0
  -42.0280   59.3300   65.0270 C   0  0  0  0  0  0  0  0  0  0  0  0
  -42.8960   58.9560   66.2090 C   0  0  0  0  0  0  0  0  0  0  0  0
  -42.2531   57.9915   67.1776 C   0  0  0  0  0  0  0  0  0  0  0  0
  -40.9882   58.5136   67.8098 C   0  0  0  0  0  0  0  0  0  0  0  0
  -40.3667   57.5208   68.7550 C   0  0  0  0  0  0  0  0  0  0  0  0
  -39.1108   57.9787   69.4356 C   0  0  0  0  0  0  0  0  0  0  0  0
  -38.0329   58.3250   68.4980 C   0  0  0  0  0  0  0  0  0  0  0  0
  -36.8186   58.7427   68.7803 C   0  0  0  0  0  0  0  0  0  0  0  0
  -36.2125   58.9515   70.1195 C   0  0  0  0  0  0  0  0  0  0  0  0
  -35.7479   60.3633   70.4132 C   0  0  0  0  0  0  0  0  0  0  0  0
  -36.8676   61.3662   70.3624 C   0  0  0  0  0  0  0  0  0  0  0  0
  -37.9762   61.1226   71.3541 C   0  0  0  0  0  0  0  0  0  0  0  0
  -37.4944   61.1663   72.7875 C   0  0  0  0  0  0  0  0  0  0  0  0
  -36.8944   62.4768   73.2143 C   0  0  0  0  0  0  0  0  0  0  0  0
  -36.4224   62.4721   74.6130 C   0  0  0  0  0  0  0  0  0  0  0  0
  -37.4781   62.1803   75.5807 C   0  0  0  0  0  0  0  0  0  0  0  0
  -38.1660   62.5876   62.3771 H   0  0  0  0  0  0  0  0  0  0  0  0
  -39.8691   60.5157   61.3345 H   0  0  0  0  0  0  0  0  0  0  0  0
  -39.4146   64.0167   60.9292 H   0  0  0  0  0  0  0  0  0  0  0  0
  -40.3034   62.6568   60.3040 H   0  0  0  0  0  0  0  0  0  0  0  0
  -38.0696   60.2980   56.6824 H   0  0  0  0  0  0  0  0  0  0  0  0
  -36.8458   60.9858   57.6800 H   0  0  0  0  0  0  0  0  0  0  0  0
  -38.4695   61.1230   59.5343 H   0  0  0  0  0  0  0  0  0  0  0  0
  -39.6545   60.3295   58.4395 H   0  0  0  0  0  0  0  0  0  0  0  0
  -39.4540   57.9945   57.8901 H   0  0  0  0  0  0  0  0  0  0  0  0
  -38.1342   57.0602   58.5523 H   0  0  0  0  0  0  0  0  0  0  0  0
  -37.8239   58.2585   57.3191 H   0  0  0  0  0  0  0  0  0  0  0  0
  -36.8931   64.7413   58.8230 H   0  0  0  0  0  0  0  0  0  0  0  0
  -40.0756   58.6717   60.1558 H   0  0  0  0  0  0  0  0  0  0  0  0
  -38.8830   59.4042   61.2019 H   0  0  0  0  0  0  0  0  0  0  0  0
  -38.7489   57.7160   60.7719 H   0  0  0  0  0  0  0  0  0  0  0  0
  -36.1822   59.3365   58.7600 H   0  0  0  0  0  0  0  0  0  0  0  0
  -36.4834   58.1027   59.9601 H   0  0  0  0  0  0  0  0  0  0  0  0
  -36.6176   59.7910   60.3901 H   0  0  0  0  0  0  0  0  0  0  0  0
  -41.0579   62.0590   62.7939 H   0  0  0  0  0  0  0  0  0  0  0  0
  -40.1947   63.4587   63.3318 H   0  0  0  0  0  0  0  0  0  0  0  0
  -40.9394   60.8604   66.0042 H   0  0  0  0  0  0  0  0  0  0  0  0
  -40.1713   59.2627   66.0109 H   0  0  0  0  0  0  0  0  0  0  0  0
  -41.8086   58.4429   64.4703 H   0  0  0  0  0  0  0  0  0  0  0  0
  -42.5713   60.0428   64.4426 H   0  0  0  0  0  0  0  0  0  0  0  0
  -43.7930   58.5073   65.8363 H   0  0  0  0  0  0  0  0  0  0  0  0
  -43.0753   59.8597   66.7531 H   0  0  0  0  0  0  0  0  0  0  0  0
  -42.0192   57.0902   66.6505 H   0  0  0  0  0  0  0  0  0  0  0  0
  -42.9543   57.8333   67.9702 H   0  0  0  0  0  0  0  0  0  0  0  0
  -41.2185   59.4067   68.3522 H   0  0  0  0  0  0  0  0  0  0  0  0
  -40.2851   58.7014   67.0255 H   0  0  0  0  0  0  0  0  0  0  0  0
  -40.1372   56.6355   68.1997 H   0  0  0  0  0  0  0  0  0  0  0  0
  -41.0842   57.3664   69.5337 H   0  0  0  0  0  0  0  0  0  0  0  0
  -38.7653   57.1930   70.0747 H   0  0  0  0  0  0  0  0  0  0  0  0
  -39.3526   58.8665   69.9816 H   0  0  0  0  0  0  0  0  0  0  0  0
  -38.2567   58.2285   67.4952 H   0  0  0  0  0  0  0  0  0  0  0  0
  -36.2122   58.9510   67.9716 H   0  0  0  0  0  0  0  0  0  0  0  0
  -35.3663   58.3020   70.2031 H   0  0  0  0  0  0  0  0  0  0  0  0
  -36.9875   58.7444   70.8277 H   0  0  0  0  0  0  0  0  0  0  0  0
  -35.0094   60.6380   69.6893 H   0  0  0  0  0  0  0  0  0  0  0  0
  -35.3511   60.3724   71.4069 H   0  0  0  0  0  0  0  0  0  0  0  0
  -37.2892   61.3455   69.3792 H   0  0  0  0  0  0  0  0  0  0  0  0
  -36.4375   62.3126   70.6161 H   0  0  0  0  0  0  0  0  0  0  0  0
  -38.4002   60.1588   71.1642 H   0  0  0  0  0  0  0  0  0  0  0  0
  -38.6984   61.9026   71.2309 H   0  0  0  0  0  0  0  0  0  0  0  0
  -36.7529   60.4050   72.9121 H   0  0  0  0  0  0  0  0  0  0  0  0
  -38.3598   61.0192   73.3993 H   0  0  0  0  0  0  0  0  0  0  0  0
  -37.6358   63.2410   73.1082 H   0  0  0  0  0  0  0  0  0  0  0  0
  -36.0424   62.6543   72.5917 H   0  0  0  0  0  0  0  0  0  0  0  0
  -36.0142   63.4356   74.8365 H   0  0  0  0  0  0  0  0  0  0  0  0
  -35.6925   61.6943   74.6975 H   0  0  0  0  0  0  0  0  0  0  0  0
  -38.2308   62.9389   75.5269 H   0  0  0  0  0  0  0  0  0  0  0  0
  -37.0626   62.1593   76.5664 H   0  0  0  0  0  0  0  0  0  0  0  0
  -37.9139   61.2290   75.3570 H   0  0  0  0  0  0  0  0  0  0  0  0
  1  9  1  0  0  0  0
  1 11  1  0  0  0  0
  1 13  1  0  0  0  0
  1 15  1  0  0  0  0
  2  3  1  0  0  0  0
  2  5  1  0  0  0  0
  2 17  1  0  0  0  0
  2 36  1  1  0  0  0
  3 37  1  0  0  0  0
  4  6  1  0  0  0  0
  4  8  2  6  0  0  0
  4 10  1  0  0  0  0
  4 12  1  0  0  0  0
  5  6  1  0  0  0  0
  5 38  1  0  0  0  0
  5 39  1  0  0  0  0
  7  9  1  0  0  0  0
  7 10  1  0  0  0  0
  7 40  1  0  0  0  0
  7 41  1  0  0  0  0
  9 42  1  0  0  0  0
  9 43  1  0  0  0  0
 11 44  1  0  0  0  0
 11 45  1  0  0  0  0
 11 46  1  0  0  0  0
 12 47  1  0  0  0  0
 13 48  1  0  0  0  0
 13 49  1  0  0  0  0
 13 50  1  0  0  0  0
 14 17  1  0  0  0  0
 14 18  1  0  0  0  0
 15 51  1  0  0  0  0
 15 52  1  0  0  0  0
 15 53  1  0  0  0  0
 16 18  2  0  0  0  0
 17 54  1  0  0  0  0
 17 55  1  0  0  0  0
 18 19  1  0  0  0  0
 19 20  1  0  0  0  0
 19 56  1  0  0  0  0
 19 57  1  0  0  0  0
 20 21  1  0  0  0  0
 20 58  1  0  0  0  0
 20 59  1  0  0  0  0
 21 22  1  0  0  0  0
 21 60  1  0  0  0  0
 21 61  1  0  0  0  0
 22 23  1  0  0  0  0
 22 62  1  0  0  0  0
 22 63  1  0  0  0  0
 23 24  1  0  0  0  0
 23 64  1  0  0  0  0
 23 65  1  0  0  0  0
 24 25  1  0  0  0  0
 24 66  1  0  0  0  0
 24 67  1  0  0  0  0
 25 26  1  0  0  0  0
 25 68  1  0  0  0  0
 25 69  1  0  0  0  0
 26 27  2  0  0  0  0
 26 70  1  0  0  0  0
 27 28  1  0  0  0  0
 27 71  1  0  0  0  0
 28 29  1  0  0  0  0
 28 72  1  0  0  0  0
 28 73  1  0  0  0  0
 29 30  1  0  0  0  0
 29 74  1  0  0  0  0
 29 75  1  0  0  0  0
 30 31  1  0  0  0  0
 30 76  1  0  0  0  0
 30 77  1  0  0  0  0
 31 32  1  0  0  0  0
 31 78  1  0  0  0  0
 31 79  1  0  0  0  0
 32 33  1  0  0  0  0
 32 80  1  0  0  0  0
 32 81  1  0  0  0  0
 33 34  1  0  0  0  0
 33 82  1  0  0  0  0
 33 83  1  0  0  0  0
 34 35  1  0  0  0  0
 34 84  1  0  0  0  0
 34 85  1  0  0  0  0
 35 86  1  0  0  0  0
 35 87  1  0  0  0  0
 35 88  1  0  0  0  0
M  CHG  1   8  -1
M  END
$$$$
/media/chris/experiments/cd1a-new-docking/inputs/ligands/4x6c_ligand.pdb
 OpenBabel07012320263D

 88 87  0  0  1  0  0  0  0  0999 V2000
  -41.6655   66.2578   65.1441 N   0  0  0  0  0  4  0  0  0  0  0  0
  -40.2815   63.9089   67.5020 C   0  0  1  0  0  0  0  0  0  0  0  0
  -39.5156   64.5417   66.4768 O   0  0  0  0  0  0  0  0  0  0  0  0
  -43.2795   63.0215   65.1619 P   0  0  2  0  0  0  0  0  0  0  0  0
  -41.7315   63.9110   67.0825 C   0  0  0  0  0  0  0  0  0  0  0  0
  -41.8541   63.1707   65.8513 O   0  0  0  0  0  0  0  0  0  0  0  0
  -44.0092   65.4454   64.4701 C   0  0  0  0  0  0  0  0  0  0  0  0
  -43.2823   61.7281   64.4491 O   0  5  0  0  0  0  0  0  0  0  0  0
  -43.1045   66.0019   65.5460 C   0  0  0  0  0  0  0  0  0  0  0  0
  -43.4318   64.1759   64.0844 O   0  0  0  0  0  0  0  0  0  0  0  0
  -41.0052   65.0012   64.6755 C   0  0  0  0  0  0  0  0  0  0  0  0
  -44.2891   63.2672   66.2104 O   0  0  0  0  0  0  0  0  0  0  0  0
  -40.9053   66.7881   66.3173 C   0  0  0  0  0  0  0  0  0  0  0  0
  -39.7518   61.7899   66.5621 O   0  0  0  0  0  0  0  0  0  0  0  0
  -41.6257   67.2617   64.0351 C   0  0  0  0  0  0  0  0  0  0  0  0
  -41.9781   61.6793   66.5336 O   0  0  0  0  0  0  0  0  0  0  0  0
  -39.7021   62.5438   67.7939 C   0  0  0  0  0  0  0  0  0  0  0  0
  -40.9154   61.2318   66.2282 C   0  0  0  0  0  0  0  0  0  0  0  0
  -40.7200   59.9800   65.4370 C   0  0  0  0  0  0  0  0  0  0  0  0
  -42.0280   59.3300   65.0270 C   0  0  0  0  0  0  0  0  0  0  0  0
  -42.8960   58.9560   66.2090 C   0  0  0  0  0  0  0  0  0  0  0  0
  -44.2012   58.2902   65.8416 C   0  0  0  0  0  0  0  0  0  0  0  0
  -45.0623   57.9388   67.0279 C   0  0  0  0  0  0  0  0  0  0  0  0
  -46.3454   57.2626   66.6256 C   0  0  0  0  0  0  0  0  0  0  0  0
  -46.1864   55.9650   65.8901 C   0  0  0  0  0  0  0  0  0  0  0  0
  -45.4822   54.9361   66.6690 C   0  0  0  0  0  0  0  0  0  0  0  0
  -46.0004   54.0374   67.4767 C   0  0  0  0  0  0  0  0  0  0  0  0
  -47.4332   53.8129   67.7949 C   0  0  0  0  0  0  0  0  0  0  0  0
  -48.1543   52.8263   66.8995 C   0  0  0  0  0  0  0  0  0  0  0  0
  -47.5526   51.4488   66.9491 C   0  0  0  0  0  0  0  0  0  0  0  0
  -48.2268   50.4349   66.0606 C   0  0  0  0  0  0  0  0  0  0  0  0
  -48.1748   50.8176   64.5979 C   0  0  0  0  0  0  0  0  0  0  0  0
  -48.8477   49.8491   63.6657 C   0  0  0  0  0  0  0  0  0  0  0  0
  -48.2751   48.4898   63.7270 C   0  0  0  0  0  0  0  0  0  0  0  0
  -48.3822   47.8741   65.0482 C   0  0  0  0  0  0  0  0  0  0  0  0
  -40.2343   64.4389   68.4303 H   0  0  0  0  0  0  0  0  0  0  0  0
  -39.5871   64.0289   65.6566 H   0  0  0  0  0  0  0  0  0  0  0  0
  -42.0620   64.9176   66.9325 H   0  0  0  0  0  0  0  0  0  0  0  0
  -42.3332   63.4589   67.8430 H   0  0  0  0  0  0  0  0  0  0  0  0
  -44.0424   66.1093   63.6316 H   0  0  0  0  0  0  0  0  0  0  0  0
  -45.0131   65.3299   64.8217 H   0  0  0  0  0  0  0  0  0  0  0  0
  -43.5217   66.9306   65.8751 H   0  0  0  0  0  0  0  0  0  0  0  0
  -43.0606   65.2462   66.3022 H   0  0  0  0  0  0  0  0  0  0  0  0
  -41.0264   64.2733   65.4595 H   0  0  0  0  0  0  0  0  0  0  0  0
  -39.9899   65.2096   64.4096 H   0  0  0  0  0  0  0  0  0  0  0  0
  -41.5266   64.6212   63.8219 H   0  0  0  0  0  0  0  0  0  0  0  0
  -44.2248   62.5773   66.8892 H   0  0  0  0  0  0  0  0  0  0  0  0
  -40.9318   66.0726   67.1124 H   0  0  0  0  0  0  0  0  0  0  0  0
  -41.3506   67.7037   66.6464 H   0  0  0  0  0  0  0  0  0  0  0  0
  -39.8896   66.9676   66.0325 H   0  0  0  0  0  0  0  0  0  0  0  0
  -42.1690   66.8853   63.1936 H   0  0  0  0  0  0  0  0  0  0  0  0
  -40.6094   67.4407   63.7524 H   0  0  0  0  0  0  0  0  0  0  0  0
  -42.0703   68.1769   64.3663 H   0  0  0  0  0  0  0  0  0  0  0  0
  -40.2807   62.0530   68.5484 H   0  0  0  0  0  0  0  0  0  0  0  0
  -38.6967   62.6247   68.1510 H   0  0  0  0  0  0  0  0  0  0  0  0
  -40.1644   59.2843   66.0305 H   0  0  0  0  0  0  0  0  0  0  0  0
  -40.1985   60.2448   64.5410 H   0  0  0  0  0  0  0  0  0  0  0  0
  -41.8086   58.4429   64.4703 H   0  0  0  0  0  0  0  0  0  0  0  0
  -42.5713   60.0428   64.4426 H   0  0  0  0  0  0  0  0  0  0  0  0
  -43.1183   59.8483   66.7560 H   0  0  0  0  0  0  0  0  0  0  0  0
  -42.3406   58.2423   66.7808 H   0  0  0  0  0  0  0  0  0  0  0  0
  -43.9814   57.3901   65.3063 H   0  0  0  0  0  0  0  0  0  0  0  0
  -44.7539   58.9929   65.2537 H   0  0  0  0  0  0  0  0  0  0  0  0
  -45.2991   58.8372   67.5587 H   0  0  0  0  0  0  0  0  0  0  0  0
  -44.5114   57.2554   67.6397 H   0  0  0  0  0  0  0  0  0  0  0  0
  -46.8891   57.9348   65.9952 H   0  0  0  0  0  0  0  0  0  0  0  0
  -46.8512   57.0241   67.5379 H   0  0  0  0  0  0  0  0  0  0  0  0
  -45.6333   56.1490   64.9928 H   0  0  0  0  0  0  0  0  0  0  0  0
  -47.1692   55.5925   65.6896 H   0  0  0  0  0  0  0  0  0  0  0  0
  -44.4552   54.9169   66.5696 H   0  0  0  0  0  0  0  0  0  0  0  0
  -45.3287   53.4110   67.9474 H   0  0  0  0  0  0  0  0  0  0  0  0
  -47.9380   54.7535   67.7225 H   0  0  0  0  0  0  0  0  0  0  0  0
  -47.4525   53.3868   68.7762 H   0  0  0  0  0  0  0  0  0  0  0  0
  -48.1098   53.1830   65.8917 H   0  0  0  0  0  0  0  0  0  0  0  0
  -49.1629   52.7508   67.2487 H   0  0  0  0  0  0  0  0  0  0  0  0
  -47.6079   51.0970   67.9581 H   0  0  0  0  0  0  0  0  0  0  0  0
  -46.5487   51.5443   66.5913 H   0  0  0  0  0  0  0  0  0  0  0  0
  -49.2515   50.3480   66.3560 H   0  0  0  0  0  0  0  0  0  0  0  0
  -47.7041   49.5079   66.1719 H   0  0  0  0  0  0  0  0  0  0  0  0
  -47.1469   50.8954   64.3111 H   0  0  0  0  0  0  0  0  0  0  0  0
  -48.7103   51.7398   64.5100 H   0  0  0  0  0  0  0  0  0  0  0  0
  -48.7483   50.2152   62.6652 H   0  0  0  0  0  0  0  0  0  0  0  0
  -49.8718   49.7767   63.9672 H   0  0  0  0  0  0  0  0  0  0  0  0
  -47.2401   48.5455   63.4615 H   0  0  0  0  0  0  0  0  0  0  0  0
  -48.8344   47.8805   63.0481 H   0  0  0  0  0  0  0  0  0  0  0  0
  -47.8336   48.4566   65.7586 H   0  0  0  0  0  0  0  0  0  0  0  0
  -47.9806   46.8830   65.0134 H   0  0  0  0  0  0  0  0  0  0  0  0
  -49.4109   47.8322   65.3398 H   0  0  0  0  0  0  0  0  0  0  0  0
  1  9  1  0  0  0  0
  1 11  1  0  0  0  0
  1 13  1  0  0  0  0
  1 15  1  0  0  0  0
  2  3  1  0  0  0  0
  2  5  1  0  0  0  0
  2 17  1  0  0  0  0
  2 36  1  1  0  0  0
  3 37  1  0  0  0  0
  4  6  1  0  0  0  0
  4  8  2  6  0  0  0
  4 10  1  0  0  0  0
  4 12  1  0  0  0  0
  5  6  1  0  0  0  0
  5 38  1  0  0  0  0
  5 39  1  0  0  0  0
  7  9  1  0  0  0  0
  7 10  1  0  0  0  0
  7 40  1  0  0  0  0
  7 41  1  0  0  0  0
  9 42  1  0  0  0  0
  9 43  1  0  0  0  0
 11 44  1  0  0  0  0
 11 45  1  0  0  0  0
 11 46  1  0  0  0  0
 12 47  1  0  0  0  0
 13 48  1  0  0  0  0
 13 49  1  0  0  0  0
 13 50  1  0  0  0  0
 14 17  1  0  0  0  0
 14 18  1  0  0  0  0
 15 51  1  0  0  0  0
 15 52  1  0  0  0  0
 15 53  1  0  0  0  0
 16 18  2  0  0  0  0
 17 54  1  0  0  0  0
 17 55  1  0  0  0  0
 18 19  1  0  0  0  0
 19 20  1  0  0  0  0
 19 56  1  0  0  0  0
 19 57  1  0  0  0  0
 20 21  1  0  0  0  0
 20 58  1  0  0  0  0
 20 59  1  0  0  0  0
 21 22  1  0  0  0  0
 21 60  1  0  0  0  0
 21 61  1  0  0  0  0
 22 23  1  0  0  0  0
 22 62  1  0  0  0  0
 22 63  1  0  0  0  0
 23 24  1  0  0  0  0
 23 64  1  0  0  0  0
 23 65  1  0  0  0  0
 24 25  1  0  0  0  0
 24 66  1  0  0  0  0
 24 67  1  0  0  0  0
 25 26  1  0  0  0  0
 25 68  1  0  0  0  0
 25 69  1  0  0  0  0
 26 27  2  0  0  0  0
 26 70  1  0  0  0  0
 27 28  1  0  0  0  0
 27 71  1  0  0  0  0
 28 29  1  0  0  0  0
 28 72  1  0  0  0  0
 28 73  1  0  0  0  0
 29 30  1  0  0  0  0
 29 74  1  0  0  0  0
 29 75  1  0  0  0  0
 30 31  1  0  0  0  0
 30 76  1  0  0  0  0
 30 77  1  0  0  0  0
 31 32  1  0  0  0  0
 31 78  1  0  0  0  0
 31 79  1  0  0  0  0
 32 33  1  0  0  0  0
 32 80  1  0  0  0  0
 32 81  1  0  0  0  0
 33 34  1  0  0  0  0
 33 82  1  0  0  0  0
 33 83  1  0  0  0  0
 34 35  1  0  0  0  0
 34 84  1  0  0  0  0
 34 85  1  0  0  0  0
 35 86  1  0  0  0  0
 35 87  1  0  0  0  0
 35 88  1  0  0  0  0
M  CHG  1   8  -1
M  END
$$$$
/media/chris/experiments/cd1a-new-docking/inputs/ligands/4x6c_ligand.pdb
 OpenBabel07012320263D

 88 87  0  0  1  0  0  0  0  0999 V2000
  -39.1705   59.9999   72.7753 N   0  0  0  0  0  4  0  0  0  0  0  0
  -38.5429   58.5687   68.7297 C   0  0  1  0  0  0  0  0  0  0  0  0
  -39.6777   57.7650   68.4069 O   0  0  0  0  0  0  0  0  0  0  0  0
  -35.5104   58.1107   71.1475 P   0  0  2  0  0  0  0  0  0  0  0  0
  -37.7138   57.8317   69.7534 C   0  0  0  0  0  0  0  0  0  0  0  0
  -36.5749   58.6474   70.0948 O   0  0  0  0  0  0  0  0  0  0  0  0
  -36.7543   59.2193   73.1748 C   0  0  0  0  0  0  0  0  0  0  0  0
  -35.9661   56.7744   71.5809 O   0  5  0  0  0  0  0  0  0  0  0  0
  -37.7900   59.7417   72.2052 C   0  0  0  0  0  0  0  0  0  0  0  0
  -35.5349   59.0708   72.4102 O   0  0  0  0  0  0  0  0  0  0  0  0
  -39.7566   58.7525   73.3543 C   0  0  0  0  0  0  0  0  0  0  0  0
  -34.1815   58.2489   70.5198 O   0  0  0  0  0  0  0  0  0  0  0  0
  -40.0746   60.4944   71.6920 C   0  0  0  0  0  0  0  0  0  0  0  0
  -38.7345   59.6918   66.6427 O   0  0  0  0  0  0  0  0  0  0  0  0
  -39.0820   61.0328   73.8546 C   0  0  0  0  0  0  0  0  0  0  0  0
  -40.1597   57.9783   66.5999 O   0  0  0  0  0  0  0  0  0  0  0  0
  -37.8107   58.9398   67.4606 C   0  0  0  0  0  0  0  0  0  0  0  0
  -39.8694   59.0915   66.2844 C   0  0  0  0  0  0  0  0  0  0  0  0
  -40.7200   59.9800   65.4370 C   0  0  0  0  0  0  0  0  0  0  0  0
  -42.0280   59.3300   65.0270 C   0  0  0  0  0  0  0  0  0  0  0  0
  -42.8960   58.9560   66.2090 C   0  0  0  0  0  0  0  0  0  0  0  0
  -44.2012   58.2902   65.8416 C   0  0  0  0  0  0  0  0  0  0  0  0
  -44.0348   56.9933   65.0915 C   0  0  0  0  0  0  0  0  0  0  0  0
  -43.2785   57.1689   63.8021 C   0  0  0  0  0  0  0  0  0  0  0  0
  -43.0884   55.9208   62.9919 C   0  0  0  0  0  0  0  0  0  0  0  0
  -42.3307   56.1409   61.7515 C   0  0  0  0  0  0  0  0  0  0  0  0
  -41.0305   56.0623   61.5733 C   0  0  0  0  0  0  0  0  0  0  0  0
  -39.9911   55.7086   62.5728 C   0  0  0  0  0  0  0  0  0  0  0  0
  -40.4374   54.7697   63.6749 C   0  0  0  0  0  0  0  0  0  0  0  0
  -39.3418   54.4673   64.6600 C   0  0  0  0  0  0  0  0  0  0  0  0
  -38.1150   53.8289   64.0607 C   0  0  0  0  0  0  0  0  0  0  0  0
  -38.4187   52.5143   63.3766 C   0  0  0  0  0  0  0  0  0  0  0  0
  -39.0223   51.4626   64.2650 C   0  0  0  0  0  0  0  0  0  0  0  0
  -39.2878   50.1912   63.5634 C   0  0  0  0  0  0  0  0  0  0  0  0
  -39.8899   49.1709   64.4194 C   0  0  0  0  0  0  0  0  0  0  0  0
  -38.8190   59.5003   69.1779 H   0  0  0  0  0  0  0  0  0  0  0  0
  -39.3812   56.9336   68.0045 H   0  0  0  0  0  0  0  0  0  0  0  0
  -37.3809   56.9004   69.3451 H   0  0  0  0  0  0  0  0  0  0  0  0
  -38.2996   57.6368   70.6273 H   0  0  0  0  0  0  0  0  0  0  0  0
  -37.0608   58.2750   73.5738 H   0  0  0  0  0  0  0  0  0  0  0  0
  -36.6206   59.8838   74.0027 H   0  0  0  0  0  0  0  0  0  0  0  0
  -37.4251   60.6637   71.8032 H   0  0  0  0  0  0  0  0  0  0  0  0
  -37.9202   58.9658   71.4799 H   0  0  0  0  0  0  0  0  0  0  0  0
  -39.8259   58.0041   72.5927 H   0  0  0  0  0  0  0  0  0  0  0  0
  -40.7331   58.9620   73.7383 H   0  0  0  0  0  0  0  0  0  0  0  0
  -39.1303   58.3984   74.1463 H   0  0  0  0  0  0  0  0  0  0  0  0
  -34.1304   57.6733   69.7408 H   0  0  0  0  0  0  0  0  0  0  0  0
  -40.1402   59.7581   70.9184 H   0  0  0  0  0  0  0  0  0  0  0  0
  -39.6817   61.4035   71.2868 H   0  0  0  0  0  0  0  0  0  0  0  0
  -41.0489   60.6755   72.0956 H   0  0  0  0  0  0  0  0  0  0  0  0
  -38.4356   60.6821   74.6317 H   0  0  0  0  0  0  0  0  0  0  0  0
  -40.0572   61.2134   74.2562 H   0  0  0  0  0  0  0  0  0  0  0  0
  -38.6900   61.9414   73.4474 H   0  0  0  0  0  0  0  0  0  0  0  0
  -37.4991   58.0557   66.9446 H   0  0  0  0  0  0  0  0  0  0  0  0
  -36.9374   59.5180   67.6795 H   0  0  0  0  0  0  0  0  0  0  0  0
  -40.1733   60.2341   64.5530 H   0  0  0  0  0  0  0  0  0  0  0  0
  -40.9602   60.8449   66.0193 H   0  0  0  0  0  0  0  0  0  0  0  0
  -41.8086   58.4429   64.4703 H   0  0  0  0  0  0  0  0  0  0  0  0
  -42.5713   60.0428   64.4426 H   0  0  0  0  0  0  0  0  0  0  0  0
  -43.1183   59.8483   66.7560 H   0  0  0  0  0  0  0  0  0  0  0  0
  -42.3406   58.2423   66.7808 H   0  0  0  0  0  0  0  0  0  0  0  0
  -44.7626   58.9643   65.2288 H   0  0  0  0  0  0  0  0  0  0  0  0
  -44.7001   58.0569   66.7589 H   0  0  0  0  0  0  0  0  0  0  0  0
  -45.0040   56.5976   64.8702 H   0  0  0  0  0  0  0  0  0  0  0  0
  -43.4718   56.3277   65.7118 H   0  0  0  0  0  0  0  0  0  0  0  0
  -42.3108   57.5600   64.0377 H   0  0  0  0  0  0  0  0  0  0  0  0
  -43.8722   57.8238   63.1992 H   0  0  0  0  0  0  0  0  0  0  0  0
  -44.0520   55.5319   62.7365 H   0  0  0  0  0  0  0  0  0  0  0  0
  -42.5230   55.2379   63.5910 H   0  0  0  0  0  0  0  0  0  0  0  0
  -42.8878   56.3874   60.9184 H   0  0  0  0  0  0  0  0  0  0  0  0
  -40.6906   56.2722   60.6218 H   0  0  0  0  0  0  0  0  0  0  0  0
  -39.6512   56.6146   63.0294 H   0  0  0  0  0  0  0  0  0  0  0  0
  -39.2301   55.1856   62.0321 H   0  0  0  0  0  0  0  0  0  0  0  0
  -40.7619   53.8515   63.2316 H   0  0  0  0  0  0  0  0  0  0  0  0
  -41.2283   55.2526   64.2098 H   0  0  0  0  0  0  0  0  0  0  0  0
  -39.7344   53.8036   65.4018 H   0  0  0  0  0  0  0  0  0  0  0  0
  -39.0278   55.4083   65.0611 H   0  0  0  0  0  0  0  0  0  0  0  0
  -37.4043   53.6531   64.8411 H   0  0  0  0  0  0  0  0  0  0  0  0
  -37.7301   54.4985   63.3201 H   0  0  0  0  0  0  0  0  0  0  0  0
  -37.5038   52.1278   62.9784 H   0  0  0  0  0  0  0  0  0  0  0  0
  -39.1504   52.7289   62.6259 H   0  0  0  0  0  0  0  0  0  0  0  0
  -39.9466   51.8357   64.6541 H   0  0  0  0  0  0  0  0  0  0  0  0
  -38.3141   51.2563   65.0401 H   0  0  0  0  0  0  0  0  0  0  0  0
  -38.3612   49.8128   63.1849 H   0  0  0  0  0  0  0  0  0  0  0  0
  -39.9879   50.4016   62.7822 H   0  0  0  0  0  0  0  0  0  0  0  0
  -39.2175   48.9319   65.2166 H   0  0  0  0  0  0  0  0  0  0  0  0
  -40.0858   48.2914   63.8423 H   0  0  0  0  0  0  0  0  0  0  0  0
  -40.8073   49.5424   64.8258 H   0  0  0  0  0  0  0  0  0  0  0  0
  1  9  1  0  0  0  0
  1 11  1  0  0  0  0
  1 13  1  0  0  0  0
  1 15  1  0  0  0  0
  2  3  1  0  0  0  0
  2  5  1  0  0  0  0
  2 17  1  0  0  0  0
  2 36  1  1  0  0  0
  3 37  1  0  0  0  0
  4  6  1  0  0  0  0
  4  8  2  1  0  0  0
  4 10  1  0  0  0  0
  4 12  1  0  0  0  0
  5  6  1  0  0  0  0
  5 38  1  0  0  0  0
  5 39  1  0  0  0  0
  7  9  1  0  0  0  0
  7 10  1  0  0  0  0
  7 40  1  0  0  0  0
  7 41  1  0  0  0  0
  9 42  1  0  0  0  0
  9 43  1  0  0  0  0
 11 44  1  0  0  0  0
 11 45  1  0  0  0  0
 11 46  1  0  0  0  0
 12 47  1  0  0  0  0
 13 48  1  0  0  0  0
 13 49  1  0  0  0  0
 13 50  1  0  0  0  0
 14 17  1  0  0  0  0
 14 18  1  0  0  0  0
 15 51  1  0  0  0  0
 15 52  1  0  0  0  0
 15 53  1  0  0  0  0
 16 18  2  0  0  0  0
 17 54  1  0  0  0  0
 17 55  1  0  0  0  0
 18 19  1  0  0  0  0
 19 20  1  0  0  0  0
 19 56  1  0  0  0  0
 19 57  1  0  0  0  0
 20 21  1  0  0  0  0
 20 58  1  0  0  0  0
 20 59  1  0  0  0  0
 21 22  1  0  0  0  0
 21 60  1  0  0  0  0
 21 61  1  0  0  0  0
 22 23  1  0  0  0  0
 22 62  1  0  0  0  0
 22 63  1  0  0  0  0
 23 24  1  0  0  0  0
 23 64  1  0  0  0  0
 23 65  1  0  0  0  0
 24 25  1  0  0  0  0
 24 66  1  0  0  0  0
 24 67  1  0  0  0  0
 25 26  1  0  0  0  0
 25 68  1  0  0  0  0
 25 69  1  0  0  0  0
 26 27  2  0  0  0  0
 26 70  1  0  0  0  0
 27 28  1  0  0  0  0
 27 71  1  0  0  0  0
 28 29  1  0  0  0  0
 28 72  1  0  0  0  0
 28 73  1  0  0  0  0
 29 30  1  0  0  0  0
 29 74  1  0  0  0  0
 29 75  1  0  0  0  0
 30 31  1  0  0  0  0
 30 76  1  0  0  0  0
 30 77  1  0  0  0  0
 31 32  1  0  0  0  0
 31 78  1  0  0  0  0
 31 79  1  0  0  0  0
 32 33  1  0  0  0  0
 32 80  1  0  0  0  0
 32 81  1  0  0  0  0
 33 34  1  0  0  0  0
 33 82  1  0  0  0  0
 33 83  1  0  0  0  0
 34 35  1  0  0  0  0
 34 84  1  0  0  0  0
 34 85  1  0  0  0  0
 35 86  1  0  0  0  0
 35 87  1  0  0  0  0
 35 88  1  0  0  0  0
M  CHG  1   8  -1
M  END
$$$$
/media/chris/experiments/cd1a-new-docking/inputs/ligands/4x6c_ligand.pdb
 OpenBabel07012320263D

 88 87  0  0  1  0  0  0  0  0999 V2000
  -33.5604   54.3269   70.9386 N   0  0  0  0  0  4  0  0  0  0  0  0
  -37.0497   57.2170   66.2602 C   0  0  1  0  0  0  0  0  0  0  0  0
  -36.6281   57.1782   64.8968 O   0  0  0  0  0  0  0  0  0  0  0  0
  -33.4272   57.3475   67.7133 P   0  0  2  0  0  0  0  0  0  0  0  0
  -35.9088   56.7382   67.1247 C   0  0  0  0  0  0  0  0  0  0  0  0
  -34.7859   57.6222   66.9337 O   0  0  0  0  0  0  0  0  0  0  0  0
  -32.9420   56.7140   70.2133 C   0  0  0  0  0  0  0  0  0  0  0  0
  -32.6028   56.4757   66.8523 O   0  5  0  0  0  0  0  0  0  0  0  0
  -33.5312   55.8060   71.2687 C   0  0  0  0  0  0  0  0  0  0  0  0
  -33.7700   56.5457   69.0386 O   0  0  0  0  0  0  0  0  0  0  0  0
  -34.3533   54.0670   69.6981 C   0  0  0  0  0  0  0  0  0  0  0  0
  -32.8966   58.6625   68.1238 O   0  0  0  0  0  0  0  0  0  0  0  0
  -34.1833   53.5740   72.0702 C   0  0  0  0  0  0  0  0  0  0  0  0
  -38.6880   58.8520   65.7154 O   0  0  0  0  0  0  0  0  0  0  0  0
  -32.1639   53.8330   70.7262 C   0  0  0  0  0  0  0  0  0  0  0  0
  -40.2020   58.6418   67.3381 O   0  0  0  0  0  0  0  0  0  0  0  0
  -37.5652   58.5992   66.5892 C   0  0  0  0  0  0  0  0  0  0  0  0
  -39.8694   59.0915   66.2844 C   0  0  0  0  0  0  0  0  0  0  0  0
  -40.7200   59.9800   65.4370 C   0  0  0  0  0  0  0  0  0  0  0  0
  -42.0280   59.3300   65.0270 C   0  0  0  0  0  0  0  0  0  0  0  0
  -42.8960   58.9560   66.2090 C   0  0  0  0  0  0  0  0  0  0  0  0
  -44.2012   58.2902   65.8416 C   0  0  0  0  0  0  0  0  0  0  0  0
  -44.0348   56.9933   65.0915 C   0  0  0  0  0  0  0  0  0  0  0  0
  -45.3544   56.3674   64.7274 C   0  0  0  0  0  0  0  0  0  0  0  0
  -46.2363   57.1945   63.8396 C   0  0  0  0  0  0  0  0  0  0  0  0
  -45.6280   57.5022   62.5372 C   0  0  0  0  0  0  0  0  0  0  0  0
  -44.7591   56.7840   61.8606 C   0  0  0  0  0  0  0  0  0  0  0  0
  -44.1833   55.4648   62.2250 C   0  0  0  0  0  0  0  0  0  0  0  0
  -42.6758   55.4282   62.3718 C   0  0  0  0  0  0  0  0  0  0  0  0
  -42.1592   54.0605   62.7246 C   0  0  0  0  0  0  0  0  0  0  0  0
  -42.7021   53.4953   64.0121 C   0  0  0  0  0  0  0  0  0  0  0  0
  -44.2064   53.3368   63.9891 C   0  0  0  0  0  0  0  0  0  0  0  0
  -44.7296   52.4112   62.9264 C   0  0  0  0  0  0  0  0  0  0  0  0
  -44.2269   51.0297   63.0598 C   0  0  0  0  0  0  0  0  0  0  0  0
  -44.5979   50.3967   64.3238 C   0  0  0  0  0  0  0  0  0  0  0  0
  -37.8708   56.5578   66.4504 H   0  0  0  0  0  0  0  0  0  0  0  0
  -35.8848   57.7887   64.7707 H   0  0  0  0  0  0  0  0  0  0  0  0
  -35.6360   55.7426   66.8431 H   0  0  0  0  0  0  0  0  0  0  0  0
  -36.2039   56.7383   68.1532 H   0  0  0  0  0  0  0  0  0  0  0  0
  -31.9322   56.4312   70.0005 H   0  0  0  0  0  0  0  0  0  0  0  0
  -32.9230   57.7334   70.5379 H   0  0  0  0  0  0  0  0  0  0  0  0
  -32.9571   55.9296   72.1631 H   0  0  0  0  0  0  0  0  0  0  0  0
  -34.5562   56.0995   71.3591 H   0  0  0  0  0  0  0  0  0  0  0  0
  -35.3555   54.4156   69.8359 H   0  0  0  0  0  0  0  0  0  0  0  0
  -34.3657   53.0163   69.4963 H   0  0  0  0  0  0  0  0  0  0  0  0
  -33.9062   54.5832   68.8744 H   0  0  0  0  0  0  0  0  0  0  0  0
  -32.6753   59.1822   67.3353 H   0  0  0  0  0  0  0  0  0  0  0  0
  -35.1823   53.9247   72.2249 H   0  0  0  0  0  0  0  0  0  0  0  0
  -33.6093   53.7282   72.9600 H   0  0  0  0  0  0  0  0  0  0  0  0
  -34.2040   52.5302   71.8356 H   0  0  0  0  0  0  0  0  0  0  0  0
  -31.7149   54.3698   69.9167 H   0  0  0  0  0  0  0  0  0  0  0  0
  -32.1864   52.7890   70.4927 H   0  0  0  0  0  0  0  0  0  0  0  0
  -31.5917   53.9870   71.6171 H   0  0  0  0  0  0  0  0  0  0  0  0
  -36.7985   59.3265   66.4216 H   0  0  0  0  0  0  0  0  0  0  0  0
  -37.8594   58.6619   67.6160 H   0  0  0  0  0  0  0  0  0  0  0  0
  -40.1733   60.2341   64.5530 H   0  0  0  0  0  0  0  0  0  0  0  0
  -40.9602   60.8449   66.0193 H   0  0  0  0  0  0  0  0  0  0  0  0
  -41.8086   58.4429   64.4703 H   0  0  0  0  0  0  0  0  0  0  0  0
  -42.5713   60.0428   64.4426 H   0  0  0  0  0  0  0  0  0  0  0  0
  -43.1183   59.8483   66.7560 H   0  0  0  0  0  0  0  0  0  0  0  0
  -42.3406   58.2423   66.7808 H   0  0  0  0  0  0  0  0  0  0  0  0
  -44.7626   58.9643   65.2288 H   0  0  0  0  0  0  0  0  0  0  0  0
  -44.7001   58.0569   66.7589 H   0  0  0  0  0  0  0  0  0  0  0  0
  -43.4877   56.3089   65.7056 H   0  0  0  0  0  0  0  0  0  0  0  0
  -43.5133   57.2072   64.1820 H   0  0  0  0  0  0  0  0  0  0  0  0
  -45.8884   56.1724   65.6339 H   0  0  0  0  0  0  0  0  0  0  0  0
  -45.1181   55.4858   64.1690 H   0  0  0  0  0  0  0  0  0  0  0  0
  -46.4526   58.1157   64.3393 H   0  0  0  0  0  0  0  0  0  0  0  0
  -47.1196   56.6216   63.6488 H   0  0  0  0  0  0  0  0  0  0  0  0
  -45.9186   58.3908   62.1003 H   0  0  0  0  0  0  0  0  0  0  0  0
  -44.4377   57.1866   60.9664 H   0  0  0  0  0  0  0  0  0  0  0  0
  -44.4573   54.7642   61.4640 H   0  0  0  0  0  0  0  0  0  0  0  0
  -44.5780   55.2293   63.1912 H   0  0  0  0  0  0  0  0  0  0  0  0
  -42.3906   56.1114   63.1443 H   0  0  0  0  0  0  0  0  0  0  0  0
  -42.2528   55.6993   61.4272 H   0  0  0  0  0  0  0  0  0  0  0  0
  -41.0941   54.1179   62.8087 H   0  0  0  0  0  0  0  0  0  0  0  0
  -42.4850   53.4039   61.9451 H   0  0  0  0  0  0  0  0  0  0  0  0
  -42.4391   54.1539   64.8134 H   0  0  0  0  0  0  0  0  0  0  0  0
  -42.2757   52.5229   64.1446 H   0  0  0  0  0  0  0  0  0  0  0  0
  -44.6399   54.3023   63.8317 H   0  0  0  0  0  0  0  0  0  0  0  0
  -44.4763   52.8991   64.9275 H   0  0  0  0  0  0  0  0  0  0  0  0
  -44.4342   52.7898   61.9702 H   0  0  0  0  0  0  0  0  0  0  0  0
  -45.7936   52.3741   63.0327 H   0  0  0  0  0  0  0  0  0  0  0  0
  -43.1593   51.0490   62.9906 H   0  0  0  0  0  0  0  0  0  0  0  0
  -44.6725   50.4542   62.2755 H   0  0  0  0  0  0  0  0  0  0  0  0
  -44.1696   50.9452   65.1366 H   0  0  0  0  0  0  0  0  0  0  0  0
  -44.2323   49.3913   64.3401 H   0  0  0  0  0  0  0  0  0  0  0  0
  -45.6636   50.3903   64.4202 H   0  0  0  0  0  0  0  0  0  0  0  0
  1  9  1  0  0  0  0
  1 11  1  0  0  0  0
  1 13  1  0  0  0  0
  1 15  1  0  0  0  0
  2  3  1  0  0  0  0
  2  5  1  0  0  0  0
  2 17  1  0  0  0  0
  2 36  1  1  0  0  0
  3 37  1  0  0  0  0
  4  6  1  0  0  0  0
  4  8  2  6  0  0  0
  4 10  1  0  0  0  0
  4 12  1  0  0  0  0
  5  6  1  0  0  0  0
  5 38  1  0  0  0  0
  5 39  1  0  0  0  0
  7  9  1  0  0  0  0
  7 10  1  0  0  0  0
  7 40  1  0  0  0  0
  7 41  1  0  0  0  0
  9 42  1  0  0  0  0
  9 43  1  0  0  0  0
 11 44  1  0  0  0  0
 11 45  1  0  0  0  0
 11 46  1  0  0  0  0
 12 47  1  0  0  0  0
 13 48  1  0  0  0  0
 13 49  1  0  0  0  0
 13 50  1  0  0  0  0
 14 17  1  0  0  0  0
 14 18  1  0  0  0  0
 15 51  1  0  0  0  0
 15 52  1  0  0  0  0
 15 53  1  0  0  0  0
 16 18  2  0  0  0  0
 17 54  1  0  0  0  0
 17 55  1  0  0  0  0
 18 19  1  0  0  0  0
 19 20  1  0  0  0  0
 19 56  1  0  0  0  0
 19 57  1  0  0  0  0
 20 21  1  0  0  0  0
 20 58  1  0  0  0  0
 20 59  1  0  0  0  0
 21 22  1  0  0  0  0
 21 60  1  0  0  0  0
 21 61  1  0  0  0  0
 22 23  1  0  0  0  0
 22 62  1  0  0  0  0
 22 63  1  0  0  0  0
 23 24  1  0  0  0  0
 23 64  1  0  0  0  0
 23 65  1  0  0  0  0
 24 25  1  0  0  0  0
 24 66  1  0  0  0  0
 24 67  1  0  0  0  0
 25 26  1  0  0  0  0
 25 68  1  0  0  0  0
 25 69  1  0  0  0  0
 26 27  2  0  0  0  0
 26 70  1  0  0  0  0
 27 28  1  0  0  0  0
 27 71  1  0  0  0  0
 28 29  1  0  0  0  0
 28 72  1  0  0  0  0
 28 73  1  0  0  0  0
 29 30  1  0  0  0  0
 29 74  1  0  0  0  0
 29 75  1  0  0  0  0
 30 31  1  0  0  0  0
 30 76  1  0  0  0  0
 30 77  1  0  0  0  0
 31 32  1  0  0  0  0
 31 78  1  0  0  0  0
 31 79  1  0  0  0  0
 32 33  1  0  0  0  0
 32 80  1  0  0  0  0
 32 81  1  0  0  0  0
 33 34  1  0  0  0  0
 33 82  1  0  0  0  0
 33 83  1  0  0  0  0
 34 35  1  0  0  0  0
 34 84  1  0  0  0  0
 34 85  1  0  0  0  0
 35 86  1  0  0  0  0
 35 87  1  0  0  0  0
 35 88  1  0  0  0  0
M  CHG  1   8  -1
M  END
$$$$
/media/chris/experiments/cd1a-new-docking/inputs/ligands/4x6c_ligand.pdb
 OpenBabel07012320263D

 88 87  0  0  1  0  0  0  0  0999 V2000
  -44.8005   69.2040   69.0203 N   0  0  0  0  0  4  0  0  0  0  0  0
  -41.9236   62.5547   68.5186 C   0  0  1  0  0  0  0  0  0  0  0  0
  -40.5065   62.4366   68.3920 O   0  0  0  0  0  0  0  0  0  0  0  0
  -44.5524   64.0820   68.3408 P   0  0  2  0  0  0  0  0  0  0  0  0
  -42.2233   63.6816   69.4770 C   0  0  0  0  0  0  0  0  0  0  0  0
  -43.6536   63.7935   69.6207 O   0  0  0  0  0  0  0  0  0  0  0  0
  -44.4406   66.6818   68.6804 C   0  0  0  0  0  0  0  0  0  0  0  0
  -43.6396   64.1801   67.1840 O   0  5  0  0  0  0  0  0  0  0  0  0
  -45.4119   67.8262   68.8608 C   0  0  0  0  0  0  0  0  0  0  0  0
  -45.2521   65.4926   68.5346 O   0  0  0  0  0  0  0  0  0  0  0  0
  -43.8935   69.2571   70.2075 C   0  0  0  0  0  0  0  0  0  0  0  0
  -45.6204   63.0630   68.3300 O   0  0  0  0  0  0  0  0  0  0  0  0
  -45.8867   70.2151   69.2034 C   0  0  0  0  0  0  0  0  0  0  0  0
  -42.2078   61.5072   66.4029 O   0  0  0  0  0  0  0  0  0  0  0  0
  -44.0087   69.5458   67.7974 C   0  0  0  0  0  0  0  0  0  0  0  0
  -40.0293   61.9106   66.6489 O   0  0  0  0  0  0  0  0  0  0  0  0
  -42.5416   62.7001   67.1470 C   0  0  0  0  0  0  0  0  0  0  0  0
  -40.9154   61.2318   66.2282 C   0  0  0  0  0  0  0  0  0  0  0  0
  -40.7200   59.9800   65.4370 C   0  0  0  0  0  0  0  0  0  0  0  0
  -42.0280   59.3300   65.0270 C   0  0  0  0  0  0  0  0  0  0  0  0
  -42.8960   58.9560   66.2090 C   0  0  0  0  0  0  0  0  0  0  0  0
  -44.2012   58.2902   65.8416 C   0  0  0  0  0  0  0  0  0  0  0  0
  -44.0348   56.9933   65.0915 C   0  0  0  0  0  0  0  0  0  0  0  0
  -43.2785   57.1689   63.8021 C   0  0  0  0  0  0  0  0  0  0  0  0
  -43.0884   55.9208   62.9919 C   0  0  0  0  0  0  0  0  0  0  0  0
  -42.3307   56.1409   61.7515 C   0  0  0  0  0  0  0  0  0  0  0  0
  -41.0305   56.0623   61.5733 C   0  0  0  0  0  0  0  0  0  0  0  0
  -39.9911   55.7086   62.5728 C   0  0  0  0  0  0  0  0  0  0  0  0
  -40.4374   54.7697   63.6749 C   0  0  0  0  0  0  0  0  0  0  0  0
  -39.3418   54.4673   64.6600 C   0  0  0  0  0  0  0  0  0  0  0  0
  -39.7339   53.5228   65.7672 C   0  0  0  0  0  0  0  0  0  0  0  0
  -40.8895   54.0429   66.5935 C   0  0  0  0  0  0  0  0  0  0  0  0
  -40.6432   55.3650   67.2652 C   0  0  0  0  0  0  0  0  0  0  0  0
  -41.7879   55.8285   68.0739 C   0  0  0  0  0  0  0  0  0  0  0  0
  -41.5591   57.1215   68.7158 C   0  0  0  0  0  0  0  0  0  0  0  0
  -42.3688   61.6758   68.9361 H   0  0  0  0  0  0  0  0  0  0  0  0
  -40.1468   63.2529   68.0109 H   0  0  0  0  0  0  0  0  0  0  0  0
  -41.8267   64.5977   69.0919 H   0  0  0  0  0  0  0  0  0  0  0  0
  -41.7744   63.4827   70.4277 H   0  0  0  0  0  0  0  0  0  0  0  0
  -43.8040   66.5954   69.5361 H   0  0  0  0  0  0  0  0  0  0  0  0
  -43.8087   66.8330   67.8303 H   0  0  0  0  0  0  0  0  0  0  0  0
  -46.0513   67.8500   68.0032 H   0  0  0  0  0  0  0  0  0  0  0  0
  -45.9185   67.6292   69.7825 H   0  0  0  0  0  0  0  0  0  0  0  0
  -44.4471   69.0145   71.0904 H   0  0  0  0  0  0  0  0  0  0  0  0
  -43.4861   70.2420   70.3014 H   0  0  0  0  0  0  0  0  0  0  0  0
  -43.0982   68.5527   70.0805 H   0  0  0  0  0  0  0  0  0  0  0  0
  -45.2274   62.1840   68.2128 H   0  0  0  0  0  0  0  0  0  0  0  0
  -46.4551   69.9737   70.0772 H   0  0  0  0  0  0  0  0  0  0  0  0
  -46.5285   70.2080   68.3473 H   0  0  0  0  0  0  0  0  0  0  0  0
  -45.4538   71.1870   69.3167 H   0  0  0  0  0  0  0  0  0  0  0  0
  -43.2302   68.8240   67.6633 H   0  0  0  0  0  0  0  0  0  0  0  0
  -43.5775   70.5183   67.9120 H   0  0  0  0  0  0  0  0  0  0  0  0
  -44.6521   69.5394   66.9425 H   0  0  0  0  0  0  0  0  0  0  0  0
  -42.1443   63.5631   66.6548 H   0  0  0  0  0  0  0  0  0  0  0  0
  -43.6024   62.8210   67.2177 H   0  0  0  0  0  0  0  0  0  0  0  0
  -40.1644   59.2843   66.0305 H   0  0  0  0  0  0  0  0  0  0  0  0
  -40.1985   60.2448   64.5410 H   0  0  0  0  0  0  0  0  0  0  0  0
  -41.8086   58.4429   64.4703 H   0  0  0  0  0  0  0  0  0  0  0  0
  -42.5713   60.0428   64.4426 H   0  0  0  0  0  0  0  0  0  0  0  0
  -43.1183   59.8483   66.7560 H   0  0  0  0  0  0  0  0  0  0  0  0
  -42.3406   58.2423   66.7808 H   0  0  0  0  0  0  0  0  0  0  0  0
  -44.7626   58.9643   65.2288 H   0  0  0  0  0  0  0  0  0  0  0  0
  -44.7001   58.0569   66.7589 H   0  0  0  0  0  0  0  0  0  0  0  0
  -45.0040   56.5976   64.8702 H   0  0  0  0  0  0  0  0  0  0  0  0
  -43.4718   56.3277   65.7118 H   0  0  0  0  0  0  0  0  0  0  0  0
  -42.3108   57.5600   64.0377 H   0  0  0  0  0  0  0  0  0  0  0  0
  -43.8722   57.8238   63.1992 H   0  0  0  0  0  0  0  0  0  0  0  0
  -44.0520   55.5319   62.7365 H   0  0  0  0  0  0  0  0  0  0  0  0
  -42.5230   55.2379   63.5910 H   0  0  0  0  0  0  0  0  0  0  0  0
  -42.8878   56.3874   60.9184 H   0  0  0  0  0  0  0  0  0  0  0  0
  -40.6906   56.2722   60.6218 H   0  0  0  0  0  0  0  0  0  0  0  0
  -39.6512   56.6146   63.0294 H   0  0  0  0  0  0  0  0  0  0  0  0
  -39.2301   55.1856   62.0321 H   0  0  0  0  0  0  0  0  0  0  0  0
  -40.7619   53.8515   63.2316 H   0  0  0  0  0  0  0  0  0  0  0  0
  -41.2283   55.2526   64.2098 H   0  0  0  0  0  0  0  0  0  0  0  0
  -39.0287   55.3893   65.1036 H   0  0  0  0  0  0  0  0  0  0  0  0
  -38.5649   53.9806   64.1083 H   0  0  0  0  0  0  0  0  0  0  0  0
  -38.8905   53.3789   66.4098 H   0  0  0  0  0  0  0  0  0  0  0  0
  -40.0463   52.6048   65.3147 H   0  0  0  0  0  0  0  0  0  0  0  0
  -41.1075   53.3203   67.3519 H   0  0  0  0  0  0  0  0  0  0  0  0
  -41.6993   54.1991   65.9118 H   0  0  0  0  0  0  0  0  0  0  0  0
  -40.4408   56.0970   66.5114 H   0  0  0  0  0  0  0  0  0  0  0  0
  -39.8157   55.2342   67.9309 H   0  0  0  0  0  0  0  0  0  0  0  0
  -41.9821   55.1017   68.8348 H   0  0  0  0  0  0  0  0  0  0  0  0
  -42.6170   55.9485   67.4083 H   0  0  0  0  0  0  0  0  0  0  0  0
  -40.7339   57.0428   69.3923 H   0  0  0  0  0  0  0  0  0  0  0  0
  -42.4362   57.4120   69.2554 H   0  0  0  0  0  0  0  0  0  0  0  0
  -41.3398   57.8563   67.9696 H   0  0  0  0  0  0  0  0  0  0  0  0
  1  9  1  0  0  0  0
  1 11  1  0  0  0  0
  1 13  1  0  0  0  0
  1 15  1  0  0  0  0
  2  3  1  0  0  0  0
  2  5  1  0  0  0  0
  2 17  1  0  0  0  0
  2 36  1  1  0  0  0
  3 37  1  0  0  0  0
  4  6  1  0  0  0  0
  4  8  2  6  0  0  0
  4 10  1  0  0  0  0
  4 12  1  0  0  0  0
  5  6  1  0  0  0  0
  5 38  1  0  0  0  0
  5 39  1  0  0  0  0
  7  9  1  0  0  0  0
  7 10  1  0  0  0  0
  7 40  1  0  0  0  0
  7 41  1  0  0  0  0
  9 42  1  0  0  0  0
  9 43  1  0  0  0  0
 11 44  1  0  0  0  0
 11 45  1  0  0  0  0
 11 46  1  0  0  0  0
 12 47  1  0  0  0  0
 13 48  1  0  0  0  0
 13 49  1  0  0  0  0
 13 50  1  0  0  0  0
 14 17  1  0  0  0  0
 14 18  1  0  0  0  0
 15 51  1  0  0  0  0
 15 52  1  0  0  0  0
 15 53  1  0  0  0  0
 16 18  2  0  0  0  0
 17 54  1  0  0  0  0
 17 55  1  0  0  0  0
 18 19  1  0  0  0  0
 19 20  1  0  0  0  0
 19 56  1  0  0  0  0
 19 57  1  0  0  0  0
 20 21  1  0  0  0  0
 20 58  1  0  0  0  0
 20 59  1  0  0  0  0
 21 22  1  0  0  0  0
 21 60  1  0  0  0  0
 21 61  1  0  0  0  0
 22 23  1  0  0  0  0
 22 62  1  0  0  0  0
 22 63  1  0  0  0  0
 23 24  1  0  0  0  0
 23 64  1  0  0  0  0
 23 65  1  0  0  0  0
 24 25  1  0  0  0  0
 24 66  1  0  0  0  0
 24 67  1  0  0  0  0
 25 26  1  0  0  0  0
 25 68  1  0  0  0  0
 25 69  1  0  0  0  0
 26 27  2  0  0  0  0
 26 70  1  0  0  0  0
 27 28  1  0  0  0  0
 27 71  1  0  0  0  0
 28 29  1  0  0  0  0
 28 72  1  0  0  0  0
 28 73  1  0  0  0  0
 29 30  1  0  0  0  0
 29 74  1  0  0  0  0
 29 75  1  0  0  0  0
 30 31  1  0  0  0  0
 30 76  1  0  0  0  0
 30 77  1  0  0  0  0
 31 32  1  0  0  0  0
 31 78  1  0  0  0  0
 31 79  1  0  0  0  0
 32 33  1  0  0  0  0
 32 80  1  0  0  0  0
 32 81  1  0  0  0  0
 33 34  1  0  0  0  0
 33 82  1  0  0  0  0
 33 83  1  0  0  0  0
 34 35  1  0  0  0  0
 34 84  1  0  0  0  0
 34 85  1  0  0  0  0
 35 86  1  0  0  0  0
 35 87  1  0  0  0  0
 35 88  1  0  0  0  0
M  CHG  1   8  -1
M  END
$$$$
/media/chris/experiments/cd1a-new-docking/inputs/ligands/4x6c_ligand.pdb
 OpenBabel07012320263D

 88 87  0  0  1  0  0  0  0  0999 V2000
  -44.4253   62.8080   63.2252 N   0  0  0  0  0  4  0  0  0  0  0  0
  -41.6460   63.0181   68.5663 C   0  0  1  0  0  0  0  0  0  0  0  0
  -41.2444   64.0795   69.4324 O   0  0  0  0  0  0  0  0  0  0  0  0
  -41.2560   65.1102   65.2918 P   0  0  2  0  0  0  0  0  0  0  0  0
  -42.1237   63.6194   67.2668 C   0  0  0  0  0  0  0  0  0  0  0  0
  -41.0335   64.3516   66.6718 O   0  0  0  0  0  0  0  0  0  0  0  0
  -42.0468   63.7810   63.1718 C   0  0  0  0  0  0  0  0  0  0  0  0
  -42.6778   65.5064   65.2401 O   0  5  0  0  0  0  0  0  0  0  0  0
  -43.1861   63.2222   63.9936 C   0  0  0  0  0  0  0  0  0  0  0  0
  -40.9899   64.0823   64.1130 O   0  0  0  0  0  0  0  0  0  0  0  0
  -44.1122   61.7300   62.2379 C   0  0  0  0  0  0  0  0  0  0  0  0
  -40.2150   66.1532   65.2047 O   0  0  0  0  0  0  0  0  0  0  0  0
  -44.9737   63.9871   62.4873 C   0  0  0  0  0  0  0  0  0  0  0  0
  -40.9716   60.9836   67.5366 O   0  0  0  0  0  0  0  0  0  0  0  0
  -45.4594   62.2977   64.1790 C   0  0  0  0  0  0  0  0  0  0  0  0
  -41.0168   62.3219   65.7544 O   0  0  0  0  0  0  0  0  0  0  0  0
  -40.5172   62.0217   68.4332 C   0  0  0  0  0  0  0  0  0  0  0  0
  -40.9154   61.2318   66.2282 C   0  0  0  0  0  0  0  0  0  0  0  0
  -40.7200   59.9800   65.4370 C   0  0  0  0  0  0  0  0  0  0  0  0
  -42.0280   59.3300   65.0270 C   0  0  0  0  0  0  0  0  0  0  0  0
  -42.8960   58.9560   66.2090 C   0  0  0  0  0  0  0  0  0  0  0  0
  -44.2012   58.2902   65.8416 C   0  0  0  0  0  0  0  0  0  0  0  0
  -45.0623   57.9388   67.0279 C   0  0  0  0  0  0  0  0  0  0  0  0
  -44.3705   57.0027   67.9821 C   0  0  0  0  0  0  0  0  0  0  0  0
  -43.1025   57.5245   68.5905 C   0  0  0  0  0  0  0  0  0  0  0  0
  -43.2966   58.7466   69.3840 C   0  0  0  0  0  0  0  0  0  0  0  0
  -43.0427   58.9306   70.6609 C   0  0  0  0  0  0  0  0  0  0  0  0
  -42.4727   57.9593   71.6283 C   0  0  0  0  0  0  0  0  0  0  0  0
  -42.9232   58.1274   73.0650 C   0  0  0  0  0  0  0  0  0  0  0  0
  -44.4100   57.9721   73.2299 C   0  0  0  0  0  0  0  0  0  0  0  0
  -44.9513   56.6256   72.8226 C   0  0  0  0  0  0  0  0  0  0  0  0
  -46.4514   56.5266   72.9914 C   0  0  0  0  0  0  0  0  0  0  0  0
  -47.0447   55.1975   72.6153 C   0  0  0  0  0  0  0  0  0  0  0  0
  -46.7916   54.8247   71.2095 C   0  0  0  0  0  0  0  0  0  0  0  0
  -47.3806   53.5406   70.8347 C   0  0  0  0  0  0  0  0  0  0  0  0
  -42.4687   62.4600   68.9619 H   0  0  0  0  0  0  0  0  0  0  0  0
  -40.4989   64.5564   69.0352 H   0  0  0  0  0  0  0  0  0  0  0  0
  -42.9426   64.2818   67.4554 H   0  0  0  0  0  0  0  0  0  0  0  0
  -42.4501   62.8457   66.6036 H   0  0  0  0  0  0  0  0  0  0  0  0
  -42.3562   64.6697   62.6624 H   0  0  0  0  0  0  0  0  0  0  0  0
  -41.7224   63.0859   62.4258 H   0  0  0  0  0  0  0  0  0  0  0  0
  -42.8216   62.3611   64.5138 H   0  0  0  0  0  0  0  0  0  0  0  0
  -43.4987   64.0225   64.6313 H   0  0  0  0  0  0  0  0  0  0  0  0
  -43.3730   62.0815   61.5486 H   0  0  0  0  0  0  0  0  0  0  0  0
  -45.0011   61.4663   61.7039 H   0  0  0  0  0  0  0  0  0  0  0  0
  -43.7382   60.8709   62.7545 H   0  0  0  0  0  0  0  0  0  0  0  0
  -40.3472   66.8019   65.9136 H   0  0  0  0  0  0  0  0  0  0  0  0
  -44.2367   64.3546   61.8042 H   0  0  0  0  0  0  0  0  0  0  0  0
  -45.2290   64.7572   63.1849 H   0  0  0  0  0  0  0  0  0  0  0  0
  -45.8478   63.6932   61.9447 H   0  0  0  0  0  0  0  0  0  0  0  0
  -45.0702   61.4536   64.7089 H   0  0  0  0  0  0  0  0  0  0  0  0
  -46.3331   62.0054   63.6349 H   0  0  0  0  0  0  0  0  0  0  0  0
  -45.7143   63.0693   64.8751 H   0  0  0  0  0  0  0  0  0  0  0  0
  -40.2818   61.6038   69.3896 H   0  0  0  0  0  0  0  0  0  0  0  0
  -39.6349   62.4936   68.0541 H   0  0  0  0  0  0  0  0  0  0  0  0
  -40.1644   59.2843   66.0305 H   0  0  0  0  0  0  0  0  0  0  0  0
  -40.1985   60.2448   64.5410 H   0  0  0  0  0  0  0  0  0  0  0  0
  -41.8086   58.4429   64.4703 H   0  0  0  0  0  0  0  0  0  0  0  0
  -42.5713   60.0428   64.4426 H   0  0  0  0  0  0  0  0  0  0  0  0
  -43.1183   59.8483   66.7560 H   0  0  0  0  0  0  0  0  0  0  0  0
  -42.3406   58.2423   66.7808 H   0  0  0  0  0  0  0  0  0  0  0  0
  -43.9814   57.3901   65.3063 H   0  0  0  0  0  0  0  0  0  0  0  0
  -44.7539   58.9929   65.2537 H   0  0  0  0  0  0  0  0  0  0  0  0
  -45.9577   57.4707   66.6758 H   0  0  0  0  0  0  0  0  0  0  0  0
  -45.2749   58.8446   67.5562 H   0  0  0  0  0  0  0  0  0  0  0  0
  -44.1362   56.1039   67.4510 H   0  0  0  0  0  0  0  0  0  0  0  0
  -45.0496   56.8570   68.7961 H   0  0  0  0  0  0  0  0  0  0  0  0
  -42.4108   57.7378   67.8025 H   0  0  0  0  0  0  0  0  0  0  0  0
  -42.7370   56.7702   69.2555 H   0  0  0  0  0  0  0  0  0  0  0  0
  -43.6792   59.5598   68.8767 H   0  0  0  0  0  0  0  0  0  0  0  0
  -43.2673   59.8651   71.0369 H   0  0  0  0  0  0  0  0  0  0  0  0
  -41.4074   58.0562   71.6035 H   0  0  0  0  0  0  0  0  0  0  0  0
  -42.8260   56.9972   71.3207 H   0  0  0  0  0  0  0  0  0  0  0  0
  -42.6419   59.1040   73.3997 H   0  0  0  0  0  0  0  0  0  0  0  0
  -42.4523   57.3597   73.6429 H   0  0  0  0  0  0  0  0  0  0  0  0
  -44.8914   58.7191   72.6339 H   0  0  0  0  0  0  0  0  0  0  0  0
  -44.6106   58.0747   74.2759 H   0  0  0  0  0  0  0  0  0  0  0  0
  -44.4881   55.8732   73.4260 H   0  0  0  0  0  0  0  0  0  0  0  0
  -44.7323   56.4888   71.7842 H   0  0  0  0  0  0  0  0  0  0  0  0
  -46.9050   57.2780   72.3795 H   0  0  0  0  0  0  0  0  0  0  0  0
  -46.6450   56.6567   74.0357 H   0  0  0  0  0  0  0  0  0  0  0  0
  -48.1025   55.2411   72.7704 H   0  0  0  0  0  0  0  0  0  0  0  0
  -46.5786   54.4559   73.2298 H   0  0  0  0  0  0  0  0  0  0  0  0
  -45.7338   54.7697   71.0584 H   0  0  0  0  0  0  0  0  0  0  0  0
  -47.2492   55.5731   70.5969 H   0  0  0  0  0  0  0  0  0  0  0  0
  -46.9470   52.7627   71.4279 H   0  0  0  0  0  0  0  0  0  0  0  0
  -47.1889   53.3488   69.7997 H   0  0  0  0  0  0  0  0  0  0  0  0
  -48.4369   53.5702   71.0023 H   0  0  0  0  0  0  0  0  0  0  0  0
  1  9  1  0  0  0  0
  1 11  1  0  0  0  0
  1 13  1  0  0  0  0
  1 15  1  0  0  0  0
  2  3  1  0  0  0  0
  2  5  1  0  0  0  0
  2 17  1  0  0  0  0
  2 36  1  1  0  0  0
  3 37  1  0  0  0  0
  4  6  1  0  0  0  0
  4  8  2  6  0  0  0
  4 10  1  0  0  0  0
  4 12  1  0  0  0  0
  5  6  1  0  0  0  0
  5 38  1  0  0  0  0
  5 39  1  0  0  0  0
  7  9  1  0  0  0  0
  7 10  1  0  0  0  0
  7 40  1  0  0  0  0
  7 41  1  0  0  0  0
  9 42  1  0  0  0  0
  9 43  1  0  0  0  0
 11 44  1  0  0  0  0
 11 45  1  0  0  0  0
 11 46  1  0  0  0  0
 12 47  1  0  0  0  0
 13 48  1  0  0  0  0
 13 49  1  0  0  0  0
 13 50  1  0  0  0  0
 14 17  1  0  0  0  0
 14 18  1  0  0  0  0
 15 51  1  0  0  0  0
 15 52  1  0  0  0  0
 15 53  1  0  0  0  0
 16 18  2  0  0  0  0
 17 54  1  0  0  0  0
 17 55  1  0  0  0  0
 18 19  1  0  0  0  0
 19 20  1  0  0  0  0
 19 56  1  0  0  0  0
 19 57  1  0  0  0  0
 20 21  1  0  0  0  0
 20 58  1  0  0  0  0
 20 59  1  0  0  0  0
 21 22  1  0  0  0  0
 21 60  1  0  0  0  0
 21 61  1  0  0  0  0
 22 23  1  0  0  0  0
 22 62  1  0  0  0  0
 22 63  1  0  0  0  0
 23 24  1  0  0  0  0
 23 64  1  0  0  0  0
 23 65  1  0  0  0  0
 24 25  1  0  0  0  0
 24 66  1  0  0  0  0
 24 67  1  0  0  0  0
 25 26  1  0  0  0  0
 25 68  1  0  0  0  0
 25 69  1  0  0  0  0
 26 27  2  0  0  0  0
 26 70  1  0  0  0  0
 27 28  1  0  0  0  0
 27 71  1  0  0  0  0
 28 29  1  0  0  0  0
 28 72  1  0  0  0  0
 28 73  1  0  0  0  0
 29 30  1  0  0  0  0
 29 74  1  0  0  0  0
 29 75  1  0  0  0  0
 30 31  1  0  0  0  0
 30 76  1  0  0  0  0
 30 77  1  0  0  0  0
 31 32  1  0  0  0  0
 31 78  1  0  0  0  0
 31 79  1  0  0  0  0
 32 33  1  0  0  0  0
 32 80  1  0  0  0  0
 32 81  1  0  0  0  0
 33 34  1  0  0  0  0
 33 82  1  0  0  0  0
 33 83  1  0  0  0  0
 34 35  1  0  0  0  0
 34 84  1  0  0  0  0
 34 85  1  0  0  0  0
 35 86  1  0  0  0  0
 35 87  1  0  0  0  0
 35 88  1  0  0  0  0
M  CHG  1   8  -1
M  END
$$$$
/media/chris/experiments/cd1a-new-docking/inputs/ligands/4x6c_ligand.pdb
 OpenBabel07012320263D

 88 87  0  0  1  0  0  0  0  0999 V2000
  -42.9864   68.8433   73.1765 N   0  0  0  0  0  4  0  0  0  0  0  0
  -40.2447   63.6065   67.9894 C   0  0  1  0  0  0  0  0  0  0  0  0
  -41.2507   63.8651   67.0100 O   0  0  0  0  0  0  0  0  0  0  0  0
  -42.3121   65.0626   70.9655 P   0  0  2  0  0  0  0  0  0  0  0  0
  -40.4821   64.5197   69.1676 C   0  0  0  0  0  0  0  0  0  0  0  0
  -41.7846   64.2330   69.7154 O   0  0  0  0  0  0  0  0  0  0  0  0
  -43.7757   67.2047   71.3602 C   0  0  0  0  0  0  0  0  0  0  0  0
  -43.2012   64.1684   71.7344 O   0  5  0  0  0  0  0  0  0  0  0  0
  -42.6214   67.8291   72.1108 C   0  0  0  0  0  0  0  0  0  0  0  0
  -43.1827   66.2736   70.4247 O   0  0  0  0  0  0  0  0  0  0  0  0
  -43.8343   68.2249   74.2412 C   0  0  0  0  0  0  0  0  0  0  0  0
  -41.1253   65.6395   71.6271 O   0  0  0  0  0  0  0  0  0  0  0  0
  -43.7468   69.9705   72.5548 C   0  0  0  0  0  0  0  0  0  0  0  0
  -39.9198   61.4286   67.0924 O   0  0  0  0  0  0  0  0  0  0  0  0
  -41.7394   69.3778   73.8080 C   0  0  0  0  0  0  0  0  0  0  0  0
  -41.8482   61.9662   66.1119 O   0  0  0  0  0  0  0  0  0  0  0  0
  -40.2277   62.1311   68.3170 C   0  0  0  0  0  0  0  0  0  0  0  0
  -40.9154   61.2318   66.2282 C   0  0  0  0  0  0  0  0  0  0  0  0
  -40.7200   59.9800   65.4370 C   0  0  0  0  0  0  0  0  0  0  0  0
  -42.0280   59.3300   65.0270 C   0  0  0  0  0  0  0  0  0  0  0  0
  -42.8960   58.9560   66.2090 C   0  0  0  0  0  0  0  0  0  0  0  0
  -43.3110   60.1221   67.0749 C   0  0  0  0  0  0  0  0  0  0  0  0
  -44.1610   59.7323   68.2572 C   0  0  0  0  0  0  0  0  0  0  0  0
  -43.4497   58.7882   69.1890 C   0  0  0  0  0  0  0  0  0  0  0  0
  -42.1877   59.3181   69.8028 C   0  0  0  0  0  0  0  0  0  0  0  0
  -41.5222   58.3541   70.6911 C   0  0  0  0  0  0  0  0  0  0  0  0
  -41.9034   57.1314   70.9882 C   0  0  0  0  0  0  0  0  0  0  0  0
  -43.0928   56.3979   70.4865 C   0  0  0  0  0  0  0  0  0  0  0  0
  -44.0797   55.9515   71.5458 C   0  0  0  0  0  0  0  0  0  0  0  0
  -45.2497   55.2013   70.9710 C   0  0  0  0  0  0  0  0  0  0  0  0
  -46.2687   54.7506   71.9861 C   0  0  0  0  0  0  0  0  0  0  0  0
  -47.4150   53.9872   71.3602 C   0  0  0  0  0  0  0  0  0  0  0  0
  -48.1934   54.7500   70.3248 C   0  0  0  0  0  0  0  0  0  0  0  0
  -48.7995   55.9896   70.8495 C   0  0  0  0  0  0  0  0  0  0  0  0
  -47.8177   56.9448   71.3593 C   0  0  0  0  0  0  0  0  0  0  0  0
  -39.2613   63.8263   67.6296 H   0  0  0  0  0  0  0  0  0  0  0  0
  -42.1226   63.6527   67.3781 H   0  0  0  0  0  0  0  0  0  0  0  0
  -40.4422   65.5398   68.8471 H   0  0  0  0  0  0  0  0  0  0  0  0
  -39.7293   64.3610   69.9113 H   0  0  0  0  0  0  0  0  0  0  0  0
  -44.3295   67.9561   70.8371 H   0  0  0  0  0  0  0  0  0  0  0  0
  -44.4569   66.7146   72.0240 H   0  0  0  0  0  0  0  0  0  0  0  0
  -42.0750   67.0402   72.5843 H   0  0  0  0  0  0  0  0  0  0  0  0
  -42.0634   68.3727   71.3773 H   0  0  0  0  0  0  0  0  0  0  0  0
  -44.7307   67.8380   73.8034 H   0  0  0  0  0  0  0  0  0  0  0  0
  -44.0850   68.9650   74.9722 H   0  0  0  0  0  0  0  0  0  0  0  0
  -43.2940   67.4292   74.7101 H   0  0  0  0  0  0  0  0  0  0  0  0
  -40.5675   64.9245   71.9715 H   0  0  0  0  0  0  0  0  0  0  0  0
  -44.6393   69.5918   72.1022 H   0  0  0  0  0  0  0  0  0  0  0  0
  -43.1407   70.4411   71.8091 H   0  0  0  0  0  0  0  0  0  0  0  0
  -44.0045   70.6852   73.3082 H   0  0  0  0  0  0  0  0  0  0  0  0
  -41.1926   68.5735   74.2541 H   0  0  0  0  0  0  0  0  0  0  0  0
  -41.9989   70.0930   74.5603 H   0  0  0  0  0  0  0  0  0  0  0  0
  -41.1351   69.8489   73.0612 H   0  0  0  0  0  0  0  0  0  0  0  0
  -41.1849   61.8256   68.6848 H   0  0  0  0  0  0  0  0  0  0  0  0
  -39.5011   61.9167   69.0726 H   0  0  0  0  0  0  0  0  0  0  0  0
  -40.1644   59.2843   66.0305 H   0  0  0  0  0  0  0  0  0  0  0  0
  -40.1985   60.2448   64.5410 H   0  0  0  0  0  0  0  0  0  0  0  0
  -41.8086   58.4429   64.4703 H   0  0  0  0  0  0  0  0  0  0  0  0
  -42.5713   60.0428   64.4426 H   0  0  0  0  0  0  0  0  0  0  0  0
  -42.3518   58.2646   66.8179 H   0  0  0  0  0  0  0  0  0  0  0  0
  -43.7960   58.5403   65.8064 H   0  0  0  0  0  0  0  0  0  0  0  0
  -43.8675   60.8086   66.4716 H   0  0  0  0  0  0  0  0  0  0  0  0
  -42.4135   60.5536   67.4661 H   0  0  0  0  0  0  0  0  0  0  0  0
  -45.0502   59.2568   67.8993 H   0  0  0  0  0  0  0  0  0  0  0  0
  -44.3860   60.6234   68.8051 H   0  0  0  0  0  0  0  0  0  0  0  0
  -43.2032   57.9044   68.6385 H   0  0  0  0  0  0  0  0  0  0  0  0
  -44.1226   58.6146   70.0027 H   0  0  0  0  0  0  0  0  0  0  0  0
  -42.4276   60.1929   70.3703 H   0  0  0  0  0  0  0  0  0  0  0  0
  -41.5108   59.5295   69.0015 H   0  0  0  0  0  0  0  0  0  0  0  0
  -40.6487   58.6767   71.1359 H   0  0  0  0  0  0  0  0  0  0  0  0
  -41.3020   56.6185   71.6517 H   0  0  0  0  0  0  0  0  0  0  0  0
  -42.7487   55.5270   69.9689 H   0  0  0  0  0  0  0  0  0  0  0  0
  -43.6227   57.0888   69.8645 H   0  0  0  0  0  0  0  0  0  0  0  0
  -44.4462   56.8164   72.0582 H   0  0  0  0  0  0  0  0  0  0  0  0
  -43.5643   55.2876   72.2079 H   0  0  0  0  0  0  0  0  0  0  0  0
  -44.8752   54.3348   70.4672 H   0  0  0  0  0  0  0  0  0  0  0  0
  -45.7543   55.8824   70.3180 H   0  0  0  0  0  0  0  0  0  0  0  0
  -46.6619   55.6128   72.4831 H   0  0  0  0  0  0  0  0  0  0  0  0
  -45.7755   54.0917   72.6699 H   0  0  0  0  0  0  0  0  0  0  0  0
  -48.0898   53.7024   72.1402 H   0  0  0  0  0  0  0  0  0  0  0  0
  -46.9779   53.1530   70.8523 H   0  0  0  0  0  0  0  0  0  0  0  0
  -48.9748   54.1199   69.9542 H   0  0  0  0  0  0  0  0  0  0  0  0
  -47.5063   55.0331   69.5550 H   0  0  0  0  0  0  0  0  0  0  0  0
  -49.4659   55.7307   71.6456 H   0  0  0  0  0  0  0  0  0  0  0  0
  -49.3070   56.4626   70.0349 H   0  0  0  0  0  0  0  0  0  0  0  0
  -47.2866   56.5074   72.1788 H   0  0  0  0  0  0  0  0  0  0  0  0
  -48.3197   57.8295   71.6911 H   0  0  0  0  0  0  0  0  0  0  0  0
  -47.1278   57.1968   70.5811 H   0  0  0  0  0  0  0  0  0  0  0  0
  1  9  1  0  0  0  0
  1 11  1  0  0  0  0
  1 13  1  0  0  0  0
  1 15  1  0  0  0  0
  2  3  1  0  0  0  0
  2  5  1  0  0  0  0
  2 17  1  0  0  0  0
  2 36  1  6  0  0  0
  3 37  1  0  0  0  0
  4  6  1  0  0  0  0
  4  8  2  1  0  0  0
  4 10  1  0  0  0  0
  4 12  1  0  0  0  0
  5  6  1  0  0  0  0
  5 38  1  0  0  0  0
  5 39  1  0  0  0  0
  7  9  1  0  0  0  0
  7 10  1  0  0  0  0
  7 40  1  0  0  0  0
  7 41  1  0  0  0  0
  9 42  1  0  0  0  0
  9 43  1  0  0  0  0
 11 44  1  0  0  0  0
 11 45  1  0  0  0  0
 11 46  1  0  0  0  0
 12 47  1  0  0  0  0
 13 48  1  0  0  0  0
 13 49  1  0  0  0  0
 13 50  1  0  0  0  0
 14 17  1  0  0  0  0
 14 18  1  0  0  0  0
 15 51  1  0  0  0  0
 15 52  1  0  0  0  0
 15 53  1  0  0  0  0
 16 18  2  0  0  0  0
 17 54  1  0  0  0  0
 17 55  1  0  0  0  0
 18 19  1  0  0  0  0
 19 20  1  0  0  0  0
 19 56  1  0  0  0  0
 19 57  1  0  0  0  0
 20 21  1  0  0  0  0
 20 58  1  0  0  0  0
 20 59  1  0  0  0  0
 21 22  1  0  0  0  0
 21 60  1  0  0  0  0
 21 61  1  0  0  0  0
 22 23  1  0  0  0  0
 22 62  1  0  0  0  0
 22 63  1  0  0  0  0
 23 24  1  0  0  0  0
 23 64  1  0  0  0  0
 23 65  1  0  0  0  0
 24 25  1  0  0  0  0
 24 66  1  0  0  0  0
 24 67  1  0  0  0  0
 25 26  1  0  0  0  0
 25 68  1  0  0  0  0
 25 69  1  0  0  0  0
 26 27  2  0  0  0  0
 26 70  1  0  0  0  0
 27 28  1  0  0  0  0
 27 71  1  0  0  0  0
 28 29  1  0  0  0  0
 28 72  1  0  0  0  0
 28 73  1  0  0  0  0
 29 30  1  0  0  0  0
 29 74  1  0  0  0  0
 29 75  1  0  0  0  0
 30 31  1  0  0  0  0
 30 76  1  0  0  0  0
 30 77  1  0  0  0  0
 31 32  1  0  0  0  0
 31 78  1  0  0  0  0
 31 79  1  0  0  0  0
 32 33  1  0  0  0  0
 32 80  1  0  0  0  0
 32 81  1  0  0  0  0
 33 34  1  0  0  0  0
 33 82  1  0  0  0  0
 33 83  1  0  0  0  0
 34 35  1  0  0  0  0
 34 84  1  0  0  0  0
 34 85  1  0  0  0  0
 35 86  1  0  0  0  0
 35 87  1  0  0  0  0
 35 88  1  0  0  0  0
M  CHG  1   8  -1
M  END
$$$$
/media/chris/experiments/cd1a-new-docking/inputs/ligands/4x6c_ligand.pdb
 OpenBabel07012320263D

 88 87  0  0  1  0  0  0  0  0999 V2000
  -31.6667   63.1373   71.1665 N   0  0  0  0  0  4  0  0  0  0  0  0
  -37.8117   62.0408   65.7336 C   0  0  1  0  0  0  0  0  0  0  0  0
  -37.9242   60.6991   66.2085 O   0  0  0  0  0  0  0  0  0  0  0  0
  -34.7419   62.9155   67.9836 P   0  0  2  0  0  0  0  0  0  0  0  0
  -36.4049   62.5215   65.9948 C   0  0  0  0  0  0  0  0  0  0  0  0
  -36.1517   62.4510   67.4125 O   0  0  0  0  0  0  0  0  0  0  0  0
  -32.7272   61.8017   69.2434 C   0  0  0  0  0  0  0  0  0  0  0  0
  -33.9314   63.3559   66.8302 O   0  5  0  0  0  0  0  0  0  0  0  0
  -32.9091   62.7952   70.3684 C   0  0  0  0  0  0  0  0  0  0  0  0
  -34.0297   61.6541   68.6307 O   0  0  0  0  0  0  0  0  0  0  0  0
  -31.0802   61.9170   71.8003 C   0  0  0  0  0  0  0  0  0  0  0  0
  -35.0166   63.8696   69.0760 O   0  0  0  0  0  0  0  0  0  0  0  0
  -32.0171   64.1134   72.2435 C   0  0  0  0  0  0  0  0  0  0  0  0
  -39.6306   61.6754   64.2463 O   0  0  0  0  0  0  0  0  0  0  0  0
  -30.6419   63.7466   70.2622 C   0  0  0  0  0  0  0  0  0  0  0  0
  -39.4598   59.5996   63.4520 O   0  0  0  0  0  0  0  0  0  0  0  0
  -38.2508   62.1024   64.2887 C   0  0  0  0  0  0  0  0  0  0  0  0
  -39.8706   60.3644   64.2700 C   0  0  0  0  0  0  0  0  0  0  0  0
  -40.7200   59.9800   65.4370 C   0  0  0  0  0  0  0  0  0  0  0  0
  -42.0280   59.3300   65.0270 C   0  0  0  0  0  0  0  0  0  0  0  0
  -42.8960   58.9560   66.2090 C   0  0  0  0  0  0  0  0  0  0  0  0
  -42.2531   57.9915   67.1776 C   0  0  0  0  0  0  0  0  0  0  0  0
  -40.9882   58.5136   67.8098 C   0  0  0  0  0  0  0  0  0  0  0  0
  -40.3667   57.5208   68.7550 C   0  0  0  0  0  0  0  0  0  0  0  0
  -39.1108   57.9787   69.4356 C   0  0  0  0  0  0  0  0  0  0  0  0
  -38.0329   58.3250   68.4980 C   0  0  0  0  0  0  0  0  0  0  0  0
  -36.8186   58.7427   68.7803 C   0  0  0  0  0  0  0  0  0  0  0  0
  -36.2125   58.9515   70.1195 C   0  0  0  0  0  0  0  0  0  0  0  0
  -36.1288   57.7199   70.9978 C   0  0  0  0  0  0  0  0  0  0  0  0
  -35.2933   56.6275   70.3889 C   0  0  0  0  0  0  0  0  0  0  0  0
  -35.1940   55.3737   71.2196 C   0  0  0  0  0  0  0  0  0  0  0  0
  -36.5408   54.7288   71.4625 C   0  0  0  0  0  0  0  0  0  0  0  0
  -37.2688   54.2959   70.2205 C   0  0  0  0  0  0  0  0  0  0  0  0
  -38.5843   53.6872   70.5001 C   0  0  0  0  0  0  0  0  0  0  0  0
  -38.5061   52.5026   71.3526 C   0  0  0  0  0  0  0  0  0  0  0  0
  -38.4623   62.7120   66.2543 H   0  0  0  0  0  0  0  0  0  0  0  0
  -37.3190   60.1280   65.7101 H   0  0  0  0  0  0  0  0  0  0  0  0
  -36.3010   63.5323   65.6597 H   0  0  0  0  0  0  0  0  0  0  0  0
  -35.7046   61.9083   65.4670 H   0  0  0  0  0  0  0  0  0  0  0  0
  -32.3879   60.8624   69.6275 H   0  0  0  0  0  0  0  0  0  0  0  0
  -31.9965   62.1370   68.5374 H   0  0  0  0  0  0  0  0  0  0  0  0
  -33.2852   63.7029   69.9447 H   0  0  0  0  0  0  0  0  0  0  0  0
  -33.5741   62.3240   71.0617 H   0  0  0  0  0  0  0  0  0  0  0  0
  -31.8030   61.4704   72.4506 H   0  0  0  0  0  0  0  0  0  0  0  0
  -30.2131   62.1900   72.3647 H   0  0  0  0  0  0  0  0  0  0  0  0
  -30.8046   61.2173   71.0392 H   0  0  0  0  0  0  0  0  0  0  0  0
  -35.4539   64.6568   68.7154 H   0  0  0  0  0  0  0  0  0  0  0  0
  -32.7499   63.6809   72.8922 H   0  0  0  0  0  0  0  0  0  0  0  0
  -32.4127   65.0044   71.8024 H   0  0  0  0  0  0  0  0  0  0  0  0
  -31.1395   64.3535   72.8066 H   0  0  0  0  0  0  0  0  0  0  0  0
  -30.3887   63.0505   69.4900 H   0  0  0  0  0  0  0  0  0  0  0  0
  -29.7655   63.9870   70.8270 H   0  0  0  0  0  0  0  0  0  0  0  0
  -31.0386   64.6379   69.8228 H   0  0  0  0  0  0  0  0  0  0  0  0
  -37.6462   61.4507   63.6931 H   0  0  0  0  0  0  0  0  0  0  0  0
  -38.1465   63.0941   63.9005 H   0  0  0  0  0  0  0  0  0  0  0  0
  -40.9394   60.8604   66.0042 H   0  0  0  0  0  0  0  0  0  0  0  0
  -40.1713   59.2627   66.0109 H   0  0  0  0  0  0  0  0  0  0  0  0
  -41.8086   58.4429   64.4703 H   0  0  0  0  0  0  0  0  0  0  0  0
  -42.5713   60.0428   64.4426 H   0  0  0  0  0  0  0  0  0  0  0  0
  -43.7930   58.5073   65.8363 H   0  0  0  0  0  0  0  0  0  0  0  0
  -43.0753   59.8597   66.7531 H   0  0  0  0  0  0  0  0  0  0  0  0
  -42.0192   57.0902   66.6505 H   0  0  0  0  0  0  0  0  0  0  0  0
  -42.9543   57.8333   67.9702 H   0  0  0  0  0  0  0  0  0  0  0  0
  -41.2185   59.4067   68.3522 H   0  0  0  0  0  0  0  0  0  0  0  0
  -40.2851   58.7014   67.0255 H   0  0  0  0  0  0  0  0  0  0  0  0
  -40.1372   56.6355   68.1997 H   0  0  0  0  0  0  0  0  0  0  0  0
  -41.0842   57.3664   69.5337 H   0  0  0  0  0  0  0  0  0  0  0  0
  -38.7653   57.1930   70.0747 H   0  0  0  0  0  0  0  0  0  0  0  0
  -39.3526   58.8665   69.9816 H   0  0  0  0  0  0  0  0  0  0  0  0
  -38.2567   58.2285   67.4952 H   0  0  0  0  0  0  0  0  0  0  0  0
  -36.2122   58.9510   67.9716 H   0  0  0  0  0  0  0  0  0  0  0  0
  -36.7971   59.6846   70.6350 H   0  0  0  0  0  0  0  0  0  0  0  0
  -35.2017   59.2532   69.9403 H   0  0  0  0  0  0  0  0  0  0  0  0
  -37.1183   57.3453   71.1571 H   0  0  0  0  0  0  0  0  0  0  0  0
  -35.6622   58.0094   71.9161 H   0  0  0  0  0  0  0  0  0  0  0  0
  -34.3043   57.0079   70.2400 H   0  0  0  0  0  0  0  0  0  0  0  0
  -35.7785   56.3483   69.4770 H   0  0  0  0  0  0  0  0  0  0  0  0
  -34.7577   55.6223   72.1645 H   0  0  0  0  0  0  0  0  0  0  0  0
  -34.5921   54.6735   70.6791 H   0  0  0  0  0  0  0  0  0  0  0  0
  -37.1577   55.4327   71.9809 H   0  0  0  0  0  0  0  0  0  0  0  0
  -36.3500   53.8382   72.0240 H   0  0  0  0  0  0  0  0  0  0  0  0
  -36.6649   53.5787   69.7048 H   0  0  0  0  0  0  0  0  0  0  0  0
  -37.4426   55.1724   69.6319 H   0  0  0  0  0  0  0  0  0  0  0  0
  -39.0328   53.4067   69.5700 H   0  0  0  0  0  0  0  0  0  0  0  0
  -39.1648   54.4166   71.0252 H   0  0  0  0  0  0  0  0  0  0  0  0
  -37.9308   51.7464   70.8606 H   0  0  0  0  0  0  0  0  0  0  0  0
  -39.4925   52.1337   71.5420 H   0  0  0  0  0  0  0  0  0  0  0  0
  -38.0377   52.7605   72.2795 H   0  0  0  0  0  0  0  0  0  0  0  0
  1  9  1  0  0  0  0
  1 11  1  0  0  0  0
  1 13  1  0  0  0  0
  1 15  1  0  0  0  0
  2  3  1  0  0  0  0
  2  5  1  0  0  0  0
  2 17  1  0  0  0  0
  2 36  1  1  0  0  0
  3 37  1  0  0  0  0
  4  6  1  0  0  0  0
  4  8  2  6  0  0  0
  4 10  1  0  0  0  0
  4 12  1  0  0  0  0
  5  6  1  0  0  0  0
  5 38  1  0  0  0  0
  5 39  1  0  0  0  0
  7  9  1  0  0  0  0
  7 10  1  0  0  0  0
  7 40  1  0  0  0  0
  7 41  1  0  0  0  0
  9 42  1  0  0  0  0
  9 43  1  0  0  0  0
 11 44  1  0  0  0  0
 11 45  1  0  0  0  0
 11 46  1  0  0  0  0
 12 47  1  0  0  0  0
 13 48  1  0  0  0  0
 13 49  1  0  0  0  0
 13 50  1  0  0  0  0
 14 17  1  0  0  0  0
 14 18  1  0  0  0  0
 15 51  1  0  0  0  0
 15 52  1  0  0  0  0
 15 53  1  0  0  0  0
 16 18  2  0  0  0  0
 17 54  1  0  0  0  0
 17 55  1  0  0  0  0
 18 19  1  0  0  0  0
 19 20  1  0  0  0  0
 19 56  1  0  0  0  0
 19 57  1  0  0  0  0
 20 21  1  0  0  0  0
 20 58  1  0  0  0  0
 20 59  1  0  0  0  0
 21 22  1  0  0  0  0
 21 60  1  0  0  0  0
 21 61  1  0  0  0  0
 22 23  1  0  0  0  0
 22 62  1  0  0  0  0
 22 63  1  0  0  0  0
 23 24  1  0  0  0  0
 23 64  1  0  0  0  0
 23 65  1  0  0  0  0
 24 25  1  0  0  0  0
 24 66  1  0  0  0  0
 24 67  1  0  0  0  0
 25 26  1  0  0  0  0
 25 68  1  0  0  0  0
 25 69  1  0  0  0  0
 26 27  2  0  0  0  0
 26 70  1  0  0  0  0
 27 28  1  0  0  0  0
 27 71  1  0  0  0  0
 28 29  1  0  0  0  0
 28 72  1  0  0  0  0
 28 73  1  0  0  0  0
 29 30  1  0  0  0  0
 29 74  1  0  0  0  0
 29 75  1  0  0  0  0
 30 31  1  0  0  0  0
 30 76  1  0  0  0  0
 30 77  1  0  0  0  0
 31 32  1  0  0  0  0
 31 78  1  0  0  0  0
 31 79  1  0  0  0  0
 32 33  1  0  0  0  0
 32 80  1  0  0  0  0
 32 81  1  0  0  0  0
 33 34  1  0  0  0  0
 33 82  1  0  0  0  0
 33 83  1  0  0  0  0
 34 35  1  0  0  0  0
 34 84  1  0  0  0  0
 34 85  1  0  0  0  0
 35 86  1  0  0  0  0
 35 87  1  0  0  0  0
 35 88  1  0  0  0  0
M  CHG  1   8  -1
M  END
$$$$
/media/chris/experiments/cd1a-new-docking/inputs/ligands/4x6c_ligand.pdb
 OpenBabel07012320263D

 88 87  0  0  1  0  0  0  0  0999 V2000
  -45.1671   71.2021   64.1847 N   0  0  0  0  0  4  0  0  0  0  0  0
  -41.4020   63.8609   64.7992 C   0  0  1  0  0  0  0  0  0  0  0  0
  -42.1115   63.4553   63.6287 O   0  0  0  0  0  0  0  0  0  0  0  0
  -42.7707   67.5182   64.7532 P   0  0  2  0  0  0  0  0  0  0  0  0
  -41.2746   65.3649   64.7809 C   0  0  0  0  0  0  0  0  0  0  0  0
  -42.5978   65.9376   64.7866 O   0  0  0  0  0  0  0  0  0  0  0  0
  -44.4505   69.2801   65.7335 C   0  0  0  0  0  0  0  0  0  0  0  0
  -41.5881   68.0973   65.4220 O   0  5  0  0  0  0  0  0  0  0  0  0
  -44.7398   69.7548   64.3277 C   0  0  0  0  0  0  0  0  0  0  0  0
  -44.0520   67.8945   65.6097 O   0  0  0  0  0  0  0  0  0  0  0  0
  -46.4128   71.4759   64.9646 C   0  0  0  0  0  0  0  0  0  0  0  0
  -43.0579   67.8873   63.3531 O   0  0  0  0  0  0  0  0  0  0  0  0
  -45.4286   71.5065   62.7444 C   0  0  0  0  0  0  0  0  0  0  0  0
  -42.0474   61.8525   65.8962 O   0  0  0  0  0  0  0  0  0  0  0  0
  -44.0799   72.0981   64.6893 C   0  0  0  0  0  0  0  0  0  0  0  0
  -40.1534   61.6365   67.0519 O   0  0  0  0  0  0  0  0  0  0  0  0
  -42.0818   63.2915   66.0232 C   0  0  0  0  0  0  0  0  0  0  0  0
  -40.9154   61.2318   66.2282 C   0  0  0  0  0  0  0  0  0  0  0  0
  -40.7200   59.9800   65.4370 C   0  0  0  0  0  0  0  0  0  0  0  0
  -42.0280   59.3300   65.0270 C   0  0  0  0  0  0  0  0  0  0  0  0
  -42.8960   58.9560   66.2090 C   0  0  0  0  0  0  0  0  0  0  0  0
  -44.2012   58.2902   65.8416 C   0  0  0  0  0  0  0  0  0  0  0  0
  -45.0623   57.9388   67.0279 C   0  0  0  0  0  0  0  0  0  0  0  0
  -46.3454   57.2626   66.6256 C   0  0  0  0  0  0  0  0  0  0  0  0
  -46.1864   55.9650   65.8901 C   0  0  0  0  0  0  0  0  0  0  0  0
  -45.4253   56.0937   64.6390 C   0  0  0  0  0  0  0  0  0  0  0  0
  -45.8246   55.8165   63.4173 C   0  0  0  0  0  0  0  0  0  0  0  0
  -47.1552   55.3230   62.9809 C   0  0  0  0  0  0  0  0  0  0  0  0
  -48.1702   55.1168   64.0866 C   0  0  0  0  0  0  0  0  0  0  0  0
  -49.4879   54.6008   63.5772 C   0  0  0  0  0  0  0  0  0  0  0  0
  -50.1667   55.4935   62.5702 C   0  0  0  0  0  0  0  0  0  0  0  0
  -51.4942   54.9387   62.1027 C   0  0  0  0  0  0  0  0  0  0  0  0
  -51.4212   53.5857   61.4516 C   0  0  0  0  0  0  0  0  0  0  0  0
  -52.7341   53.0883   60.9955 C   0  0  0  0  0  0  0  0  0  0  0  0
  -53.3669   53.9502   59.9990 C   0  0  0  0  0  0  0  0  0  0  0  0
  -40.4051   63.4731   64.8249 H   0  0  0  0  0  0  0  0  0  0  0  0
  -43.0067   63.8284   63.6476 H   0  0  0  0  0  0  0  0  0  0  0  0
  -40.7525   65.6719   63.8988 H   0  0  0  0  0  0  0  0  0  0  0  0
  -40.7285   65.6964   65.6392 H   0  0  0  0  0  0  0  0  0  0  0  0
  -45.3268   69.3625   66.3420 H   0  0  0  0  0  0  0  0  0  0  0  0
  -43.6869   69.8686   66.1977 H   0  0  0  0  0  0  0  0  0  0  0  0
  -43.8512   69.6180   63.7475 H   0  0  0  0  0  0  0  0  0  0  0  0
  -45.5759   69.1753   63.9961 H   0  0  0  0  0  0  0  0  0  0  0  0
  -47.1998   70.8414   64.6140 H   0  0  0  0  0  0  0  0  0  0  0  0
  -46.6961   72.4997   64.8363 H   0  0  0  0  0  0  0  0  0  0  0  0
  -46.2340   71.2825   66.0017 H   0  0  0  0  0  0  0  0  0  0  0  0
  -42.2926   67.6703   62.7980 H   0  0  0  0  0  0  0  0  0  0  0  0
  -46.2058   70.8675   62.3802 H   0  0  0  0  0  0  0  0  0  0  0  0
  -44.5364   71.3418   62.1773 H   0  0  0  0  0  0  0  0  0  0  0  0
  -45.7310   72.5280   62.6449 H   0  0  0  0  0  0  0  0  0  0  0  0
  -43.8901   71.8829   65.7201 H   0  0  0  0  0  0  0  0  0  0  0  0
  -44.3834   73.1191   64.5881 H   0  0  0  0  0  0  0  0  0  0  0  0
  -43.1888   71.9328   64.1205 H   0  0  0  0  0  0  0  0  0  0  0  0
  -43.0951   63.6317   66.0722 H   0  0  0  0  0  0  0  0  0  0  0  0
  -41.5851   63.6074   66.9167 H   0  0  0  0  0  0  0  0  0  0  0  0
  -40.1644   59.2843   66.0305 H   0  0  0  0  0  0  0  0  0  0  0  0
  -40.1985   60.2448   64.5410 H   0  0  0  0  0  0  0  0  0  0  0  0
  -41.8086   58.4429   64.4703 H   0  0  0  0  0  0  0  0  0  0  0  0
  -42.5713   60.0428   64.4426 H   0  0  0  0  0  0  0  0  0  0  0  0
  -43.1183   59.8483   66.7560 H   0  0  0  0  0  0  0  0  0  0  0  0
  -42.3406   58.2423   66.7808 H   0  0  0  0  0  0  0  0  0  0  0  0
  -43.9814   57.3901   65.3063 H   0  0  0  0  0  0  0  0  0  0  0  0
  -44.7539   58.9929   65.2537 H   0  0  0  0  0  0  0  0  0  0  0  0
  -45.2991   58.8372   67.5587 H   0  0  0  0  0  0  0  0  0  0  0  0
  -44.5114   57.2554   67.6397 H   0  0  0  0  0  0  0  0  0  0  0  0
  -46.8891   57.9348   65.9952 H   0  0  0  0  0  0  0  0  0  0  0  0
  -46.8512   57.0241   67.5379 H   0  0  0  0  0  0  0  0  0  0  0  0
  -47.1593   55.5850   65.6580 H   0  0  0  0  0  0  0  0  0  0  0  0
  -45.6367   55.3050   66.5282 H   0  0  0  0  0  0  0  0  0  0  0  0
  -44.4592   56.4447   64.7308 H   0  0  0  0  0  0  0  0  0  0  0  0
  -45.1275   55.9595   62.6699 H   0  0  0  0  0  0  0  0  0  0  0  0
  -47.0125   54.3853   62.4856 H   0  0  0  0  0  0  0  0  0  0  0  0
  -47.5593   56.0873   62.3506 H   0  0  0  0  0  0  0  0  0  0  0  0
  -48.3360   56.0528   64.5777 H   0  0  0  0  0  0  0  0  0  0  0  0
  -47.7732   54.3828   64.7565 H   0  0  0  0  0  0  0  0  0  0  0  0
  -50.1449   54.4815   64.4133 H   0  0  0  0  0  0  0  0  0  0  0  0
  -49.2777   53.6809   63.0727 H   0  0  0  0  0  0  0  0  0  0  0  0
  -49.5237   55.6043   61.7221 H   0  0  0  0  0  0  0  0  0  0  0  0
  -50.3574   56.4326   63.0461 H   0  0  0  0  0  0  0  0  0  0  0  0
  -51.9110   55.6255   61.3960 H   0  0  0  0  0  0  0  0  0  0  0  0
  -52.0942   54.8172   62.9802 H   0  0  0  0  0  0  0  0  0  0  0  0
  -51.0205   52.8894   62.1583 H   0  0  0  0  0  0  0  0  0  0  0  0
  -50.7996   53.6825   60.5860 H   0  0  0  0  0  0  0  0  0  0  0  0
  -53.3830   53.0170   61.8434 H   0  0  0  0  0  0  0  0  0  0  0  0
  -52.5685   52.1382   60.5321 H   0  0  0  0  0  0  0  0  0  0  0  0
  -53.5497   54.9142   60.4258 H   0  0  0  0  0  0  0  0  0  0  0  0
  -54.2942   53.5157   59.6889 H   0  0  0  0  0  0  0  0  0  0  0  0
  -52.7199   54.0516   59.1528 H   0  0  0  0  0  0  0  0  0  0  0  0
  1  9  1  0  0  0  0
  1 11  1  0  0  0  0
  1 13  1  0  0  0  0
  1 15  1  0  0  0  0
  2  3  1  0  0  0  0
  2  5  1  0  0  0  0
  2 17  1  0  0  0  0
  2 36  1  6  0  0  0
  3 37  1  0  0  0  0
  4  6  1  0  0  0  0
  4  8  2  1  0  0  0
  4 10  1  0  0  0  0
  4 12  1  0  0  0  0
  5  6  1  0  0  0  0
  5 38  1  0  0  0  0
  5 39  1  0  0  0  0
  7  9  1  0  0  0  0
  7 10  1  0  0  0  0
  7 40  1  0  0  0  0
  7 41  1  0  0  0  0
  9 42  1  0  0  0  0
  9 43  1  0  0  0  0
 11 44  1  0  0  0  0
 11 45  1  0  0  0  0
 11 46  1  0  0  0  0
 12 47  1  0  0  0  0
 13 48  1  0  0  0  0
 13 49  1  0  0  0  0
 13 50  1  0  0  0  0
 14 17  1  0  0  0  0
 14 18  1  0  0  0  0
 15 51  1  0  0  0  0
 15 52  1  0  0  0  0
 15 53  1  0  0  0  0
 16 18  2  0  0  0  0
 17 54  1  0  0  0  0
 17 55  1  0  0  0  0
 18 19  1  0  0  0  0
 19 20  1  0  0  0  0
 19 56  1  0  0  0  0
 19 57  1  0  0  0  0
 20 21  1  0  0  0  0
 20 58  1  0  0  0  0
 20 59  1  0  0  0  0
 21 22  1  0  0  0  0
 21 60  1  0  0  0  0
 21 61  1  0  0  0  0
 22 23  1  0  0  0  0
 22 62  1  0  0  0  0
 22 63  1  0  0  0  0
 23 24  1  0  0  0  0
 23 64  1  0  0  0  0
 23 65  1  0  0  0  0
 24 25  1  0  0  0  0
 24 66  1  0  0  0  0
 24 67  1  0  0  0  0
 25 26  1  0  0  0  0
 25 68  1  0  0  0  0
 25 69  1  0  0  0  0
 26 27  2  0  0  0  0
 26 70  1  0  0  0  0
 27 28  1  0  0  0  0
 27 71  1  0  0  0  0
 28 29  1  0  0  0  0
 28 72  1  0  0  0  0
 28 73  1  0  0  0  0
 29 30  1  0  0  0  0
 29 74  1  0  0  0  0
 29 75  1  0  0  0  0
 30 31  1  0  0  0  0
 30 76  1  0  0  0  0
 30 77  1  0  0  0  0
 31 32  1  0  0  0  0
 31 78  1  0  0  0  0
 31 79  1  0  0  0  0
 32 33  1  0  0  0  0
 32 80  1  0  0  0  0
 32 81  1  0  0  0  0
 33 34  1  0  0  0  0
 33 82  1  0  0  0  0
 33 83  1  0  0  0  0
 34 35  1  0  0  0  0
 34 84  1  0  0  0  0
 34 85  1  0  0  0  0
 35 86  1  0  0  0  0
 35 87  1  0  0  0  0
 35 88  1  0  0  0  0
M  CHG  1   8  -1
M  END
$$$$
/media/chris/experiments/cd1a-new-docking/inputs/ligands/4x6c_ligand.pdb
 OpenBabel07012320263D

 88 87  0  0  1  0  0  0  0  0999 V2000
  -48.0803   65.0281   64.2721 N   0  0  0  0  0  4  0  0  0  0  0  0
  -42.5438   63.0786   67.9971 C   0  0  1  0  0  0  0  0  0  0  0  0
  -41.7723   63.7475   66.9994 O   0  0  0  0  0  0  0  0  0  0  0  0
  -45.8682   64.9360   67.1317 P   0  0  2  0  0  0  0  0  0  0  0  0
  -43.7546   63.9243   68.3085 C   0  0  0  0  0  0  0  0  0  0  0  0
  -44.5333   64.0720   67.1041 O   0  0  0  0  0  0  0  0  0  0  0  0
  -48.4314   64.5089   66.7649 C   0  0  0  0  0  0  0  0  0  0  0  0
  -46.0285   65.4412   68.5102 O   0  5  0  0  0  0  0  0  0  0  0  0
  -48.4228   65.5383   65.6578 C   0  0  0  0  0  0  0  0  0  0  0  0
  -47.0886   63.9722   66.8174 O   0  0  0  0  0  0  0  0  0  0  0  0
  -46.7228   64.4025   64.2484 C   0  0  0  0  0  0  0  0  0  0  0  0
  -45.7761   65.9007   66.0182 O   0  0  0  0  0  0  0  0  0  0  0  0
  -48.0993   66.1652   63.3015 C   0  0  0  0  0  0  0  0  0  0  0  0
  -41.5801   61.0002   67.3601 O   0  0  0  0  0  0  0  0  0  0  0  0
  -49.0869   64.0034   63.8522 C   0  0  0  0  0  0  0  0  0  0  0  0
  -40.5330   62.3105   65.8918 O   0  0  0  0  0  0  0  0  0  0  0  0
  -42.8476   61.6706   67.5391 C   0  0  0  0  0  0  0  0  0  0  0  0
  -40.9154   61.2318   66.2282 C   0  0  0  0  0  0  0  0  0  0  0  0
  -40.7200   59.9800   65.4370 C   0  0  0  0  0  0  0  0  0  0  0  0
  -42.0280   59.3300   65.0270 C   0  0  0  0  0  0  0  0  0  0  0  0
  -42.8960   58.9560   66.2090 C   0  0  0  0  0  0  0  0  0  0  0  0
  -44.2012   58.2902   65.8416 C   0  0  0  0  0  0  0  0  0  0  0  0
  -45.0623   57.9388   67.0279 C   0  0  0  0  0  0  0  0  0  0  0  0
  -45.4546   59.1497   67.8311 C   0  0  0  0  0  0  0  0  0  0  0  0
  -46.3003   58.8748   69.0392 C   0  0  0  0  0  0  0  0  0  0  0  0
  -46.6704   60.0893   69.7802 C   0  0  0  0  0  0  0  0  0  0  0  0
  -46.0217   60.6620   70.7700 C   0  0  0  0  0  0  0  0  0  0  0  0
  -44.7351   60.2443   71.3820 C   0  0  0  0  0  0  0  0  0  0  0  0
  -43.5434   60.2232   70.4467 C   0  0  0  0  0  0  0  0  0  0  0  0
  -42.2787   59.7756   71.1267 C   0  0  0  0  0  0  0  0  0  0  0  0
  -41.8568   60.6284   72.2957 C   0  0  0  0  0  0  0  0  0  0  0  0
  -41.6191   62.0711   71.9074 C   0  0  0  0  0  0  0  0  0  0  0  0
  -41.1793   62.9656   73.0326 C   0  0  0  0  0  0  0  0  0  0  0  0
  -42.1498   63.0224   74.1435 C   0  0  0  0  0  0  0  0  0  0  0  0
  -41.7340   63.9039   75.2327 C   0  0  0  0  0  0  0  0  0  0  0  0
  -42.0086   62.9660   68.9168 H   0  0  0  0  0  0  0  0  0  0  0  0
  -42.2948   63.8271   66.1860 H   0  0  0  0  0  0  0  0  0  0  0  0
  -43.4424   64.8868   68.6565 H   0  0  0  0  0  0  0  0  0  0  0  0
  -44.3428   63.4553   69.0695 H   0  0  0  0  0  0  0  0  0  0  0  0
  -49.1343   63.7324   66.5458 H   0  0  0  0  0  0  0  0  0  0  0  0
  -48.7189   64.9406   67.7008 H   0  0  0  0  0  0  0  0  0  0  0  0
  -49.3976   65.9771   65.6124 H   0  0  0  0  0  0  0  0  0  0  0  0
  -47.6421   66.2248   65.9112 H   0  0  0  0  0  0  0  0  0  0  0  0
  -45.9919   65.1247   64.5469 H   0  0  0  0  0  0  0  0  0  0  0  0
  -46.5041   64.0622   63.2578 H   0  0  0  0  0  0  0  0  0  0  0  0
  -46.7006   63.5726   64.9235 H   0  0  0  0  0  0  0  0  0  0  0  0
  -45.0372   66.5086   66.1774 H   0  0  0  0  0  0  0  0  0  0  0  0
  -47.3805   66.8999   63.5988 H   0  0  0  0  0  0  0  0  0  0  0  0
  -49.0744   66.6055   63.2871 H   0  0  0  0  0  0  0  0  0  0  0  0
  -47.8567   65.8038   62.3241 H   0  0  0  0  0  0  0  0  0  0  0  0
  -49.0759   63.1880   64.5449 H   0  0  0  0  0  0  0  0  0  0  0  0
  -48.8433   63.6440   62.8743 H   0  0  0  0  0  0  0  0  0  0  0  0
  -50.0611   64.4457   63.8373 H   0  0  0  0  0  0  0  0  0  0  0  0
  -43.3849   61.6933   66.6141 H   0  0  0  0  0  0  0  0  0  0  0  0
  -43.4519   61.1579   68.2581 H   0  0  0  0  0  0  0  0  0  0  0  0
  -40.1644   59.2843   66.0305 H   0  0  0  0  0  0  0  0  0  0  0  0
  -40.1985   60.2448   64.5410 H   0  0  0  0  0  0  0  0  0  0  0  0
  -41.8086   58.4429   64.4703 H   0  0  0  0  0  0  0  0  0  0  0  0
  -42.5713   60.0428   64.4426 H   0  0  0  0  0  0  0  0  0  0  0  0
  -43.1183   59.8483   66.7560 H   0  0  0  0  0  0  0  0  0  0  0  0
  -42.3406   58.2423   66.7808 H   0  0  0  0  0  0  0  0  0  0  0  0
  -43.9814   57.3901   65.3063 H   0  0  0  0  0  0  0  0  0  0  0  0
  -44.7539   58.9929   65.2537 H   0  0  0  0  0  0  0  0  0  0  0  0
  -44.5188   57.2683   67.6603 H   0  0  0  0  0  0  0  0  0  0  0  0
  -45.9594   57.4883   66.6576 H   0  0  0  0  0  0  0  0  0  0  0  0
  -46.0008   59.8088   67.1891 H   0  0  0  0  0  0  0  0  0  0  0  0
  -44.5411   59.5673   68.1999 H   0  0  0  0  0  0  0  0  0  0  0  0
  -45.7546   58.2298   69.6958 H   0  0  0  0  0  0  0  0  0  0  0  0
  -47.2081   58.4256   68.6943 H   0  0  0  0  0  0  0  0  0  0  0  0
  -47.5470   60.5486   69.4875 H   0  0  0  0  0  0  0  0  0  0  0  0
  -46.4608   61.5056   71.1708 H   0  0  0  0  0  0  0  0  0  0  0  0
  -44.8625   59.2576   71.7757 H   0  0  0  0  0  0  0  0  0  0  0  0
  -44.5113   60.9804   72.1256 H   0  0  0  0  0  0  0  0  0  0  0  0
  -43.3936   61.2099   70.0609 H   0  0  0  0  0  0  0  0  0  0  0  0
  -43.7568   59.5214   69.6677 H   0  0  0  0  0  0  0  0  0  0  0  0
  -41.4897   59.7867   70.4040 H   0  0  0  0  0  0  0  0  0  0  0  0
  -42.4756   58.8000   71.5196 H   0  0  0  0  0  0  0  0  0  0  0  0
  -40.9510   60.2291   72.7019 H   0  0  0  0  0  0  0  0  0  0  0  0
  -42.6513   60.6122   73.0122 H   0  0  0  0  0  0  0  0  0  0  0  0
  -42.5317   62.4626   71.5088 H   0  0  0  0  0  0  0  0  0  0  0  0
  -40.8167   62.0629   71.1996 H   0  0  0  0  0  0  0  0  0  0  0  0
  -41.0446   63.9549   72.6478 H   0  0  0  0  0  0  0  0  0  0  0  0
  -40.2704   62.5597   73.4249 H   0  0  0  0  0  0  0  0  0  0  0  0
  -42.2750   62.0347   74.5354 H   0  0  0  0  0  0  0  0  0  0  0  0
  -43.0612   63.4186   73.7469 H   0  0  0  0  0  0  0  0  0  0  0  0
  -40.8219   63.5400   75.6575 H   0  0  0  0  0  0  0  0  0  0  0  0
  -42.4946   63.9244   75.9850 H   0  0  0  0  0  0  0  0  0  0  0  0
  -41.5812   64.8925   74.8530 H   0  0  0  0  0  0  0  0  0  0  0  0
  1  9  1  0  0  0  0
  1 11  1  0  0  0  0
  1 13  1  0  0  0  0
  1 15  1  0  0  0  0
  2  3  1  0  0  0  0
  2  5  1  0  0  0  0
  2 17  1  0  0  0  0
  2 36  1  1  0  0  0
  3 37  1  0  0  0  0
  4  6  1  0  0  0  0
  4  8  2  1  0  0  0
  4 10  1  0  0  0  0
  4 12  1  0  0  0  0
  5  6  1  0  0  0  0
  5 38  1  0  0  0  0
  5 39  1  0  0  0  0
  7  9  1  0  0  0  0
  7 10  1  0  0  0  0
  7 40  1  0  0  0  0
  7 41  1  0  0  0  0
  9 42  1  0  0  0  0
  9 43  1  0  0  0  0
 11 44  1  0  0  0  0
 11 45  1  0  0  0  0
 11 46  1  0  0  0  0
 12 47  1  0  0  0  0
 13 48  1  0  0  0  0
 13 49  1  0  0  0  0
 13 50  1  0  0  0  0
 14 17  1  0  0  0  0
 14 18  1  0  0  0  0
 15 51  1  0  0  0  0
 15 52  1  0  0  0  0
 15 53  1  0  0  0  0
 16 18  2  0  0  0  0
 17 54  1  0  0  0  0
 17 55  1  0  0  0  0
 18 19  1  0  0  0  0
 19 20  1  0  0  0  0
 19 56  1  0  0  0  0
 19 57  1  0  0  0  0
 20 21  1  0  0  0  0
 20 58  1  0  0  0  0
 20 59  1  0  0  0  0
 21 22  1  0  0  0  0
 21 60  1  0  0  0  0
 21 61  1  0  0  0  0
 22 23  1  0  0  0  0
 22 62  1  0  0  0  0
 22 63  1  0  0  0  0
 23 24  1  0  0  0  0
 23 64  1  0  0  0  0
 23 65  1  0  0  0  0
 24 25  1  0  0  0  0
 24 66  1  0  0  0  0
 24 67  1  0  0  0  0
 25 26  1  0  0  0  0
 25 68  1  0  0  0  0
 25 69  1  0  0  0  0
 26 27  2  0  0  0  0
 26 70  1  0  0  0  0
 27 28  1  0  0  0  0
 27 71  1  0  0  0  0
 28 29  1  0  0  0  0
 28 72  1  0  0  0  0
 28 73  1  0  0  0  0
 29 30  1  0  0  0  0
 29 74  1  0  0  0  0
 29 75  1  0  0  0  0
 30 31  1  0  0  0  0
 30 76  1  0  0  0  0
 30 77  1  0  0  0  0
 31 32  1  0  0  0  0
 31 78  1  0  0  0  0
 31 79  1  0  0  0  0
 32 33  1  0  0  0  0
 32 80  1  0  0  0  0
 32 81  1  0  0  0  0
 33 34  1  0  0  0  0
 33 82  1  0  0  0  0
 33 83  1  0  0  0  0
 34 35  1  0  0  0  0
 34 84  1  0  0  0  0
 34 85  1  0  0  0  0
 35 86  1  0  0  0  0
 35 87  1  0  0  0  0
 35 88  1  0  0  0  0
M  CHG  1   8  -1
M  END
$$$$
/media/chris/experiments/cd1a-new-docking/inputs/ligands/4x6c_ligand.pdb
 OpenBabel07012320263D

 88 87  0  0  1  0  0  0  0  0999 V2000
  -38.4211   57.8987   54.7758 N   0  0  0  0  0  4  0  0  0  0  0  0
  -38.4629   62.1301   62.2472 C   0  0  1  0  0  0  0  0  0  0  0  0
  -37.7420   60.9498   62.6013 O   0  0  0  0  0  0  0  0  0  0  0  0
  -38.1097   61.5795   58.3971 P   0  0  2  0  0  0  0  0  0  0  0  0
  -38.0717   62.5232   60.8433 C   0  0  0  0  0  0  0  0  0  0  0  0
  -38.4241   61.4473   59.9505 O   0  0  0  0  0  0  0  0  0  0  0  0
  -38.0724   59.8065   56.4627 C   0  0  0  0  0  0  0  0  0  0  0  0
  -38.8302   62.7730   57.9096 O   0  5  0  0  0  0  0  0  0  0  0  0
  -38.8995   58.6211   56.0196 C   0  0  0  0  0  0  0  0  0  0  0  0
  -38.7101   60.3091   57.6604 O   0  0  0  0  0  0  0  0  0  0  0  0
  -37.0464   57.3443   54.9697 C   0  0  0  0  0  0  0  0  0  0  0  0
  -36.6422   61.5156   58.2511 O   0  0  0  0  0  0  0  0  0  0  0  0
  -38.3940   58.8510   53.6235 C   0  0  0  0  0  0  0  0  0  0  0  0
  -40.1290   61.6065   63.8608 O   0  0  0  0  0  0  0  0  0  0  0  0
  -39.3524   56.7702   54.4621 C   0  0  0  0  0  0  0  0  0  0  0  0
  -39.0635   59.6511   63.7574 O   0  0  0  0  0  0  0  0  0  0  0  0
  -39.9417   61.8999   62.4584 C   0  0  0  0  0  0  0  0  0  0  0  0
  -39.8706   60.3644   64.2700 C   0  0  0  0  0  0  0  0  0  0  0  0
  -40.7200   59.9800   65.4370 C   0  0  0  0  0  0  0  0  0  0  0  0
  -42.0280   59.3300   65.0270 C   0  0  0  0  0  0  0  0  0  0  0  0
  -42.8960   58.9560   66.2090 C   0  0  0  0  0  0  0  0  0  0  0  0
  -43.3110   60.1221   67.0749 C   0  0  0  0  0  0  0  0  0  0  0  0
  -44.1610   59.7323   68.2572 C   0  0  0  0  0  0  0  0  0  0  0  0
  -45.4346   59.0435   67.8464 C   0  0  0  0  0  0  0  0  0  0  0  0
  -45.2577   57.7641   67.0836 C   0  0  0  0  0  0  0  0  0  0  0  0
  -44.5334   56.7311   67.8381 C   0  0  0  0  0  0  0  0  0  0  0  0
  -44.8751   56.1738   68.9788 C   0  0  0  0  0  0  0  0  0  0  0  0
  -46.0925   56.4260   69.7904 C   0  0  0  0  0  0  0  0  0  0  0  0
  -46.5943   55.2473   70.5991 C   0  0  0  0  0  0  0  0  0  0  0  0
  -47.8376   55.5670   71.3828 C   0  0  0  0  0  0  0  0  0  0  0  0
  -49.0214   55.9778   70.5451 C   0  0  0  0  0  0  0  0  0  0  0  0
  -49.4519   54.8977   69.5773 C   0  0  0  0  0  0  0  0  0  0  0  0
  -50.6200   55.2596   68.7030 C   0  0  0  0  0  0  0  0  0  0  0  0
  -51.8367   55.5959   69.4682 C   0  0  0  0  0  0  0  0  0  0  0  0
  -52.3007   54.5087   70.3277 C   0  0  0  0  0  0  0  0  0  0  0  0
  -38.2151   62.9610   62.8742 H   0  0  0  0  0  0  0  0  0  0  0  0
  -37.9973   60.2252   62.0091 H   0  0  0  0  0  0  0  0  0  0  0  0
  -37.0171   62.6984   60.7984 H   0  0  0  0  0  0  0  0  0  0  0  0
  -38.5837   63.4184   60.5577 H   0  0  0  0  0  0  0  0  0  0  0  0
  -38.0631   60.5591   55.7022 H   0  0  0  0  0  0  0  0  0  0  0  0
  -37.0552   59.5296   56.6457 H   0  0  0  0  0  0  0  0  0  0  0  0
  -38.9133   57.9142   56.8227 H   0  0  0  0  0  0  0  0  0  0  0  0
  -39.8597   59.0202   55.7674 H   0  0  0  0  0  0  0  0  0  0  0  0
  -36.3689   58.1412   55.1950 H   0  0  0  0  0  0  0  0  0  0  0  0
  -36.7312   56.8507   54.0742 H   0  0  0  0  0  0  0  0  0  0  0  0
  -37.0550   56.6441   55.7787 H   0  0  0  0  0  0  0  0  0  0  0  0
  -36.2399   62.2804   58.6916 H   0  0  0  0  0  0  0  0  0  0  0  0
  -37.7288   59.6595   53.8445 H   0  0  0  0  0  0  0  0  0  0  0  0
  -39.3784   59.2350   53.4549 H   0  0  0  0  0  0  0  0  0  0  0  0
  -38.0554   58.3401   52.7465 H   0  0  0  0  0  0  0  0  0  0  0  0
  -39.3742   56.0865   55.2849 H   0  0  0  0  0  0  0  0  0  0  0  0
  -39.0129   56.2611   53.5843 H   0  0  0  0  0  0  0  0  0  0  0  0
  -40.3360   57.1560   54.2927 H   0  0  0  0  0  0  0  0  0  0  0  0
  -40.2736   61.0750   61.8631 H   0  0  0  0  0  0  0  0  0  0  0  0
  -40.5066   62.7618   62.1705 H   0  0  0  0  0  0  0  0  0  0  0  0
  -40.9394   60.8604   66.0042 H   0  0  0  0  0  0  0  0  0  0  0  0
  -40.1713   59.2627   66.0109 H   0  0  0  0  0  0  0  0  0  0  0  0
  -41.8086   58.4429   64.4703 H   0  0  0  0  0  0  0  0  0  0  0  0
  -42.5713   60.0428   64.4426 H   0  0  0  0  0  0  0  0  0  0  0  0
  -42.3518   58.2646   66.8179 H   0  0  0  0  0  0  0  0  0  0  0  0
  -43.7960   58.5403   65.8064 H   0  0  0  0  0  0  0  0  0  0  0  0
  -43.8675   60.8086   66.4716 H   0  0  0  0  0  0  0  0  0  0  0  0
  -42.4135   60.5536   67.4661 H   0  0  0  0  0  0  0  0  0  0  0  0
  -44.4100   60.6155   68.8074 H   0  0  0  0  0  0  0  0  0  0  0  0
  -43.5962   59.0456   68.8526 H   0  0  0  0  0  0  0  0  0  0  0  0
  -45.9920   59.7195   67.2322 H   0  0  0  0  0  0  0  0  0  0  0  0
  -45.9324   58.7780   68.7556 H   0  0  0  0  0  0  0  0  0  0  0  0
  -44.7118   57.9757   66.1880 H   0  0  0  0  0  0  0  0  0  0  0  0
  -46.2352   57.3797   66.8795 H   0  0  0  0  0  0  0  0  0  0  0  0
  -43.6480   56.4032   67.4213 H   0  0  0  0  0  0  0  0  0  0  0  0
  -44.2162   55.4751   69.3566 H   0  0  0  0  0  0  0  0  0  0  0  0
  -46.8752   56.7265   69.1256 H   0  0  0  0  0  0  0  0  0  0  0  0
  -45.8197   57.1760   70.5032 H   0  0  0  0  0  0  0  0  0  0  0  0
  -45.8265   54.9494   71.2822 H   0  0  0  0  0  0  0  0  0  0  0  0
  -46.8384   54.4646   69.9116 H   0  0  0  0  0  0  0  0  0  0  0  0
  -47.6111   56.3679   72.0552 H   0  0  0  0  0  0  0  0  0  0  0  0
  -48.1200   54.6644   71.8833 H   0  0  0  0  0  0  0  0  0  0  0  0
  -48.7597   56.8529   69.9877 H   0  0  0  0  0  0  0  0  0  0  0  0
  -49.8397   56.1630   71.2091 H   0  0  0  0  0  0  0  0  0  0  0  0
  -49.7175   54.0300   70.1443 H   0  0  0  0  0  0  0  0  0  0  0  0
  -48.6234   54.7368   68.9195 H   0  0  0  0  0  0  0  0  0  0  0  0
  -50.8381   54.4283   68.0655 H   0  0  0  0  0  0  0  0  0  0  0  0
  -50.3431   56.1307   68.1468 H   0  0  0  0  0  0  0  0  0  0  0  0
  -52.6164   55.8378   68.7764 H   0  0  0  0  0  0  0  0  0  0  0  0
  -51.5916   56.4198   70.1054 H   0  0  0  0  0  0  0  0  0  0  0  0
  -52.5569   53.6623   69.7252 H   0  0  0  0  0  0  0  0  0  0  0  0
  -53.1617   54.8299   70.8758 H   0  0  0  0  0  0  0  0  0  0  0  0
  -51.5233   54.2378   71.0112 H   0  0  0  0  0  0  0  0  0  0  0  0
  1  9  1  0  0  0  0
  1 11  1  0  0  0  0
  1 13  1  0  0  0  0
  1 15  1  0  0  0  0
  2  3  1  0  0  0  0
  2  5  1  0  0  0  0
  2 17  1  0  0  0  0
  2 36  1  1  0  0  0
  3 37  1  0  0  0  0
  4  6  1  0  0  0  0
  4  8  2  6  0  0  0
  4 10  1  0  0  0  0
  4 12  1  0  0  0  0
  5  6  1  0  0  0  0
  5 38  1  0  0  0  0
  5 39  1  0  0  0  0
  7  9  1  0  0  0  0
  7 10  1  0  0  0  0
  7 40  1  0  0  0  0
  7 41  1  0  0  0  0
  9 42  1  0  0  0  0
  9 43  1  0  0  0  0
 11 44  1  0  0  0  0
 11 45  1  0  0  0  0
 11 46  1  0  0  0  0
 12 47  1  0  0  0  0
 13 48  1  0  0  0  0
 13 49  1  0  0  0  0
 13 50  1  0  0  0  0
 14 17  1  0  0  0  0
 14 18  1  0  0  0  0
 15 51  1  0  0  0  0
 15 52  1  0  0  0  0
 15 53  1  0  0  0  0
 16 18  2  0  0  0  0
 17 54  1  0  0  0  0
 17 55  1  0  0  0  0
 18 19  1  0  0  0  0
 19 20  1  0  0  0  0
 19 56  1  0  0  0  0
 19 57  1  0  0  0  0
 20 21  1  0  0  0  0
 20 58  1  0  0  0  0
 20 59  1  0  0  0  0
 21 22  1  0  0  0  0
 21 60  1  0  0  0  0
 21 61  1  0  0  0  0
 22 23  1  0  0  0  0
 22 62  1  0  0  0  0
 22 63  1  0  0  0  0
 23 24  1  0  0  0  0
 23 64  1  0  0  0  0
 23 65  1  0  0  0  0
 24 25  1  0  0  0  0
 24 66  1  0  0  0  0
 24 67  1  0  0  0  0
 25 26  1  0  0  0  0
 25 68  1  0  0  0  0
 25 69  1  0  0  0  0
 26 27  2  0  0  0  0
 26 70  1  0  0  0  0
 27 28  1  0  0  0  0
 27 71  1  0  0  0  0
 28 29  1  0  0  0  0
 28 72  1  0  0  0  0
 28 73  1  0  0  0  0
 29 30  1  0  0  0  0
 29 74  1  0  0  0  0
 29 75  1  0  0  0  0
 30 31  1  0  0  0  0
 30 76  1  0  0  0  0
 30 77  1  0  0  0  0
 31 32  1  0  0  0  0
 31 78  1  0  0  0  0
 31 79  1  0  0  0  0
 32 33  1  0  0  0  0
 32 80  1  0  0  0  0
 32 81  1  0  0  0  0
 33 34  1  0  0  0  0
 33 82  1  0  0  0  0
 33 83  1  0  0  0  0
 34 35  1  0  0  0  0
 34 84  1  0  0  0  0
 34 85  1  0  0  0  0
 35 86  1  0  0  0  0
 35 87  1  0  0  0  0
 35 88  1  0  0  0  0
M  CHG  1   8  -1
M  END
$$$$
/media/chris/experiments/cd1a-new-docking/inputs/ligands/4x6c_ligand.pdb
 OpenBabel07012320263D

 88 87  0  0  1  0  0  0  0  0999 V2000
  -32.6502   56.9448   60.8182 N   0  0  0  0  0  4  0  0  0  0  0  0
  -36.6839   58.0497   66.7661 C   0  0  1  0  0  0  0  0  0  0  0  0
  -37.3721   56.8618   66.3746 O   0  0  0  0  0  0  0  0  0  0  0  0
  -33.7840   57.5978   64.1897 P   0  0  2  0  0  0  0  0  0  0  0  0
  -35.7920   58.4801   65.6268 C   0  0  0  0  0  0  0  0  0  0  0  0
  -34.8640   57.4139   65.3425 O   0  0  0  0  0  0  0  0  0  0  0  0
  -34.3580   55.8031   62.3632 C   0  0  0  0  0  0  0  0  0  0  0  0
  -34.3737   58.5054   63.1849 O   0  5  0  0  0  0  0  0  0  0  0  0
  -34.0856   56.8358   61.2933 C   0  0  0  0  0  0  0  0  0  0  0  0
  -33.5503   56.1881   63.5004 O   0  0  0  0  0  0  0  0  0  0  0  0
  -32.1803   55.6564   60.2230 C   0  0  0  0  0  0  0  0  0  0  0  0
  -32.5178   57.9775   64.8468 O   0  0  0  0  0  0  0  0  0  0  0  0
  -31.7656   57.2881   61.9736 C   0  0  0  0  0  0  0  0  0  0  0  0
  -38.5713   59.3368   66.1067 O   0  0  0  0  0  0  0  0  0  0  0  0
  -32.5458   58.0177   59.7803 C   0  0  0  0  0  0  0  0  0  0  0  0
  -40.2919   58.2579   67.0258 O   0  0  0  0  0  0  0  0  0  0  0  0
  -37.6858   59.0860   67.2206 C   0  0  0  0  0  0  0  0  0  0  0  0
  -39.8694   59.0915   66.2844 C   0  0  0  0  0  0  0  0  0  0  0  0
  -40.7200   59.9800   65.4370 C   0  0  0  0  0  0  0  0  0  0  0  0
  -42.0280   59.3300   65.0270 C   0  0  0  0  0  0  0  0  0  0  0  0
  -42.8960   58.9560   66.2090 C   0  0  0  0  0  0  0  0  0  0  0  0
  -44.2012   58.2902   65.8416 C   0  0  0  0  0  0  0  0  0  0  0  0
  -45.0623   57.9388   67.0279 C   0  0  0  0  0  0  0  0  0  0  0  0
  -46.3454   57.2626   66.6256 C   0  0  0  0  0  0  0  0  0  0  0  0
  -46.1864   55.9650   65.8901 C   0  0  0  0  0  0  0  0  0  0  0  0
  -45.4822   54.9361   66.6690 C   0  0  0  0  0  0  0  0  0  0  0  0
  -44.3584   54.3229   66.3695 C   0  0  0  0  0  0  0  0  0  0  0  0
  -43.4962   54.5262   65.1779 C   0  0  0  0  0  0  0  0  0  0  0  0
  -42.0767   54.9697   65.4668 C   0  0  0  0  0  0  0  0  0  0  0  0
  -41.3150   53.9752   66.2991 C   0  0  0  0  0  0  0  0  0  0  0  0
  -41.1616   52.6141   65.6700 C   0  0  0  0  0  0  0  0  0  0  0  0
  -40.4041   51.6472   66.5530 C   0  0  0  0  0  0  0  0  0  0  0  0
  -39.0104   52.0789   66.9151 C   0  0  0  0  0  0  0  0  0  0  0  0
  -38.9716   53.3510   67.6630 C   0  0  0  0  0  0  0  0  0  0  0  0
  -39.6900   53.2986   68.9347 C   0  0  0  0  0  0  0  0  0  0  0  0
  -36.0432   57.8894   67.6079 H   0  0  0  0  0  0  0  0  0  0  0  0
  -37.9389   57.0532   65.6110 H   0  0  0  0  0  0  0  0  0  0  0  0
  -35.2538   59.3625   65.9036 H   0  0  0  0  0  0  0  0  0  0  0  0
  -36.3822   58.6925   64.7600 H   0  0  0  0  0  0  0  0  0  0  0  0
  -34.0777   54.8290   62.0203 H   0  0  0  0  0  0  0  0  0  0  0  0
  -35.3972   55.7626   62.6149 H   0  0  0  0  0  0  0  0  0  0  0  0
  -34.6927   56.5956   60.4456 H   0  0  0  0  0  0  0  0  0  0  0  0
  -34.3108   57.7803   61.7430 H   0  0  0  0  0  0  0  0  0  0  0  0
  -32.2495   54.8791   60.9551 H   0  0  0  0  0  0  0  0  0  0  0  0
  -31.1631   55.7595   59.9073 H   0  0  0  0  0  0  0  0  0  0  0  0
  -32.7918   55.4086   59.3807 H   0  0  0  0  0  0  0  0  0  0  0  0
  -32.6242   58.8385   65.2807 H   0  0  0  0  0  0  0  0  0  0  0  0
  -31.8379   56.5227   62.7179 H   0  0  0  0  0  0  0  0  0  0  0  0
  -32.0731   58.2233   62.3927 H   0  0  0  0  0  0  0  0  0  0  0  0
  -30.7527   57.3638   61.6371 H   0  0  0  0  0  0  0  0  0  0  0  0
  -33.1778   57.7752   58.9517 H   0  0  0  0  0  0  0  0  0  0  0  0
  -31.5322   58.0928   59.4458 H   0  0  0  0  0  0  0  0  0  0  0  0
  -32.8526   58.9523   60.2013 H   0  0  0  0  0  0  0  0  0  0  0  0
  -37.1810   59.9876   67.4987 H   0  0  0  0  0  0  0  0  0  0  0  0
  -38.2331   58.7393   68.0722 H   0  0  0  0  0  0  0  0  0  0  0  0
  -40.1733   60.2341   64.5530 H   0  0  0  0  0  0  0  0  0  0  0  0
  -40.9602   60.8449   66.0193 H   0  0  0  0  0  0  0  0  0  0  0  0
  -41.8086   58.4429   64.4703 H   0  0  0  0  0  0  0  0  0  0  0  0
  -42.5713   60.0428   64.4426 H   0  0  0  0  0  0  0  0  0  0  0  0
  -43.1183   59.8483   66.7560 H   0  0  0  0  0  0  0  0  0  0  0  0
  -42.3406   58.2423   66.7808 H   0  0  0  0  0  0  0  0  0  0  0  0
  -43.9814   57.3901   65.3063 H   0  0  0  0  0  0  0  0  0  0  0  0
  -44.7539   58.9929   65.2537 H   0  0  0  0  0  0  0  0  0  0  0  0
  -45.2991   58.8372   67.5587 H   0  0  0  0  0  0  0  0  0  0  0  0
  -44.5114   57.2554   67.6397 H   0  0  0  0  0  0  0  0  0  0  0  0
  -46.8891   57.9348   65.9952 H   0  0  0  0  0  0  0  0  0  0  0  0
  -46.8512   57.0241   67.5379 H   0  0  0  0  0  0  0  0  0  0  0  0
  -45.6333   56.1490   64.9928 H   0  0  0  0  0  0  0  0  0  0  0  0
  -47.1692   55.5925   65.6896 H   0  0  0  0  0  0  0  0  0  0  0  0
  -45.9242   54.6614   67.5602 H   0  0  0  0  0  0  0  0  0  0  0  0
  -44.0359   53.6131   67.0457 H   0  0  0  0  0  0  0  0  0  0  0  0
  -43.9554   55.2712   64.5623 H   0  0  0  0  0  0  0  0  0  0  0  0
  -43.4144   53.5682   64.7082 H   0  0  0  0  0  0  0  0  0  0  0  0
  -42.1095   55.9014   65.9919 H   0  0  0  0  0  0  0  0  0  0  0  0
  -41.5699   55.0611   64.5289 H   0  0  0  0  0  0  0  0  0  0  0  0
  -41.8292   53.8561   67.2299 H   0  0  0  0  0  0  0  0  0  0  0  0
  -40.3266   54.3693   66.4118 H   0  0  0  0  0  0  0  0  0  0  0  0
  -40.6324   52.7212   64.7462 H   0  0  0  0  0  0  0  0  0  0  0  0
  -42.1426   52.2145   65.5187 H   0  0  0  0  0  0  0  0  0  0  0  0
  -40.3391   50.7101   66.0406 H   0  0  0  0  0  0  0  0  0  0  0  0
  -40.9488   51.5906   67.4722 H   0  0  0  0  0  0  0  0  0  0  0  0
  -38.4459   52.1969   66.0138 H   0  0  0  0  0  0  0  0  0  0  0  0
  -38.5986   51.3234   67.5512 H   0  0  0  0  0  0  0  0  0  0  0  0
  -39.4113   54.1148   67.0562 H   0  0  0  0  0  0  0  0  0  0  0  0
  -37.9454   53.5542   67.8879 H   0  0  0  0  0  0  0  0  0  0  0  0
  -40.7247   53.0966   68.7518 H   0  0  0  0  0  0  0  0  0  0  0  0
  -39.5936   54.2381   69.4378 H   0  0  0  0  0  0  0  0  0  0  0  0
  -39.2777   52.5229   69.5456 H   0  0  0  0  0  0  0  0  0  0  0  0
  1  9  1  0  0  0  0
  1 11  1  0  0  0  0
  1 13  1  0  0  0  0
  1 15  1  0  0  0  0
  2  3  1  0  0  0  0
  2  5  1  0  0  0  0
  2 17  1  0  0  0  0
  2 36  1  1  0  0  0
  3 37  1  0  0  0  0
  4  6  1  0  0  0  0
  4  8  2  6  0  0  0
  4 10  1  0  0  0  0
  4 12  1  0  0  0  0
  5  6  1  0  0  0  0
  5 38  1  0  0  0  0
  5 39  1  0  0  0  0
  7  9  1  0  0  0  0
  7 10  1  0  0  0  0
  7 40  1  0  0  0  0
  7 41  1  0  0  0  0
  9 42  1  0  0  0  0
  9 43  1  0  0  0  0
 11 44  1  0  0  0  0
 11 45  1  0  0  0  0
 11 46  1  0  0  0  0
 12 47  1  0  0  0  0
 13 48  1  0  0  0  0
 13 49  1  0  0  0  0
 13 50  1  0  0  0  0
 14 17  1  0  0  0  0
 14 18  1  0  0  0  0
 15 51  1  0  0  0  0
 15 52  1  0  0  0  0
 15 53  1  0  0  0  0
 16 18  2  0  0  0  0
 17 54  1  0  0  0  0
 17 55  1  0  0  0  0
 18 19  1  0  0  0  0
 19 20  1  0  0  0  0
 19 56  1  0  0  0  0
 19 57  1  0  0  0  0
 20 21  1  0  0  0  0
 20 58  1  0  0  0  0
 20 59  1  0  0  0  0
 21 22  1  0  0  0  0
 21 60  1  0  0  0  0
 21 61  1  0  0  0  0
 22 23  1  0  0  0  0
 22 62  1  0  0  0  0
 22 63  1  0  0  0  0
 23 24  1  0  0  0  0
 23 64  1  0  0  0  0
 23 65  1  0  0  0  0
 24 25  1  0  0  0  0
 24 66  1  0  0  0  0
 24 67  1  0  0  0  0
 25 26  1  0  0  0  0
 25 68  1  0  0  0  0
 25 69  1  0  0  0  0
 26 27  2  0  0  0  0
 26 70  1  0  0  0  0
 27 28  1  0  0  0  0
 27 71  1  0  0  0  0
 28 29  1  0  0  0  0
 28 72  1  0  0  0  0
 28 73  1  0  0  0  0
 29 30  1  0  0  0  0
 29 74  1  0  0  0  0
 29 75  1  0  0  0  0
 30 31  1  0  0  0  0
 30 76  1  0  0  0  0
 30 77  1  0  0  0  0
 31 32  1  0  0  0  0
 31 78  1  0  0  0  0
 31 79  1  0  0  0  0
 32 33  1  0  0  0  0
 32 80  1  0  0  0  0
 32 81  1  0  0  0  0
 33 34  1  0  0  0  0
 33 82  1  0  0  0  0
 33 83  1  0  0  0  0
 34 35  1  0  0  0  0
 34 84  1  0  0  0  0
 34 85  1  0  0  0  0
 35 86  1  0  0  0  0
 35 87  1  0  0  0  0
 35 88  1  0  0  0  0
M  CHG  1   8  -1
M  END
$$$$
/media/chris/experiments/cd1a-new-docking/inputs/ligands/4x6c_ligand.pdb
 OpenBabel07012320263D

 88 87  0  0  1  0  0  0  0  0999 V2000
  -43.0635   54.5807   60.5047 N   0  0  0  0  0  4  0  0  0  0  0  0
  -39.0847   60.8760   61.3870 C   0  0  1  0  0  0  0  0  0  0  0  0
  -38.0544   60.3161   62.2013 O   0  0  0  0  0  0  0  0  0  0  0  0
  -40.9205   57.4779   60.8095 P   0  0  2  0  0  0  0  0  0  0  0  0
  -39.6789   59.7724   60.5459 C   0  0  0  0  0  0  0  0  0  0  0  0
  -40.2367   58.7751   61.4251 O   0  0  0  0  0  0  0  0  0  0  0  0
  -43.4722   57.0174   61.2137 C   0  0  0  0  0  0  0  0  0  0  0  0
  -41.4753   57.8630   59.4961 O   0  5  0  0  0  0  0  0  0  0  0  0
  -43.4414   55.9926   60.1027 C   0  0  0  0  0  0  0  0  0  0  0  0
  -42.1288   57.0614   61.7495 O   0  0  0  0  0  0  0  0  0  0  0  0
  -44.0323   54.0258   61.4989 C   0  0  0  0  0  0  0  0  0  0  0  0
  -39.9205   56.3942   60.8781 O   0  0  0  0  0  0  0  0  0  0  0  0
  -41.6995   54.5832   61.1169 C   0  0  0  0  0  0  0  0  0  0  0  0
  -40.6084   60.6579   63.1994 O   0  0  0  0  0  0  0  0  0  0  0  0
  -43.0606   53.6989   59.2957 C   0  0  0  0  0  0  0  0  0  0  0  0
  -38.6783   60.3998   64.2845 O   0  0  0  0  0  0  0  0  0  0  0  0
  -40.0713   61.6162   62.2607 C   0  0  0  0  0  0  0  0  0  0  0  0
  -39.8706   60.3644   64.2700 C   0  0  0  0  0  0  0  0  0  0  0  0
  -40.7200   59.9800   65.4370 C   0  0  0  0  0  0  0  0  0  0  0  0
  -42.0280   59.3300   65.0270 C   0  0  0  0  0  0  0  0  0  0  0  0
  -42.8960   58.9560   66.2090 C   0  0  0  0  0  0  0  0  0  0  0  0
  -44.2012   58.2902   65.8416 C   0  0  0  0  0  0  0  0  0  0  0  0
  -45.0623   57.9388   67.0279 C   0  0  0  0  0  0  0  0  0  0  0  0
  -44.3705   57.0027   67.9821 C   0  0  0  0  0  0  0  0  0  0  0  0
  -43.9464   55.6870   67.3997 C   0  0  0  0  0  0  0  0  0  0  0  0
  -42.9896   55.8214   66.2918 C   0  0  0  0  0  0  0  0  0  0  0  0
  -41.7681   55.3409   66.2153 C   0  0  0  0  0  0  0  0  0  0  0  0
  -41.0455   54.5184   67.2181 C   0  0  0  0  0  0  0  0  0  0  0  0
  -40.2369   55.2936   68.2382 C   0  0  0  0  0  0  0  0  0  0  0  0
  -41.0831   56.2176   69.0702 C   0  0  0  0  0  0  0  0  0  0  0  0
  -40.3196   57.0238   70.0894 C   0  0  0  0  0  0  0  0  0  0  0  0
  -41.2171   57.9233   70.9104 C   0  0  0  0  0  0  0  0  0  0  0  0
  -42.0050   58.9273   70.1161 C   0  0  0  0  0  0  0  0  0  0  0  0
  -41.1547   59.8456   69.3331 C   0  0  0  0  0  0  0  0  0  0  0  0
  -41.9160   60.8342   68.5719 C   0  0  0  0  0  0  0  0  0  0  0  0
  -38.7093   61.6087   60.7035 H   0  0  0  0  0  0  0  0  0  0  0  0
  -38.4389   59.6596   62.8032 H   0  0  0  0  0  0  0  0  0  0  0  0
  -38.9164   59.3317   59.9383 H   0  0  0  0  0  0  0  0  0  0  0  0
  -40.4428   60.1680   59.9097 H   0  0  0  0  0  0  0  0  0  0  0  0
  -44.1662   56.7226   61.9729 H   0  0  0  0  0  0  0  0  0  0  0  0
  -43.7840   57.9762   60.8555 H   0  0  0  0  0  0  0  0  0  0  0  0
  -44.4168   55.9571   59.6642 H   0  0  0  0  0  0  0  0  0  0  0  0
  -42.6700   56.3165   59.4356 H   0  0  0  0  0  0  0  0  0  0  0  0
  -44.0448   54.6472   62.3699 H   0  0  0  0  0  0  0  0  0  0  0  0
  -43.7349   53.0349   61.7719 H   0  0  0  0  0  0  0  0  0  0  0  0
  -45.0106   53.9982   61.0664 H   0  0  0  0  0  0  0  0  0  0  0  0
  -39.1641   56.6159   60.3128 H   0  0  0  0  0  0  0  0  0  0  0  0
  -41.6979   55.2129   61.9820 H   0  0  0  0  0  0  0  0  0  0  0  0
  -40.9901   54.9521   60.4059 H   0  0  0  0  0  0  0  0  0  0  0  0
  -41.4342   53.5862   61.4010 H   0  0  0  0  0  0  0  0  0  0  0  0
  -44.0356   53.6949   58.8549 H   0  0  0  0  0  0  0  0  0  0  0  0
  -42.7942   52.7028   59.5813 H   0  0  0  0  0  0  0  0  0  0  0  0
  -42.3500   54.0686   58.5862 H   0  0  0  0  0  0  0  0  0  0  0  0
  -40.8583   62.0242   61.6615 H   0  0  0  0  0  0  0  0  0  0  0  0
  -39.5944   62.4256   62.7729 H   0  0  0  0  0  0  0  0  0  0  0  0
  -40.9394   60.8604   66.0042 H   0  0  0  0  0  0  0  0  0  0  0  0
  -40.1713   59.2627   66.0109 H   0  0  0  0  0  0  0  0  0  0  0  0
  -41.8086   58.4429   64.4703 H   0  0  0  0  0  0  0  0  0  0  0  0
  -42.5713   60.0428   64.4426 H   0  0  0  0  0  0  0  0  0  0  0  0
  -43.1183   59.8483   66.7560 H   0  0  0  0  0  0  0  0  0  0  0  0
  -42.3406   58.2423   66.7808 H   0  0  0  0  0  0  0  0  0  0  0  0
  -43.9814   57.3901   65.3063 H   0  0  0  0  0  0  0  0  0  0  0  0
  -44.7539   58.9929   65.2537 H   0  0  0  0  0  0  0  0  0  0  0  0
  -45.9577   57.4707   66.6758 H   0  0  0  0  0  0  0  0  0  0  0  0
  -45.2749   58.8446   67.5562 H   0  0  0  0  0  0  0  0  0  0  0  0
  -45.0397   56.8042   68.7931 H   0  0  0  0  0  0  0  0  0  0  0  0
  -43.4695   57.4976   68.2790 H   0  0  0  0  0  0  0  0  0  0  0  0
  -44.8163   55.1801   67.0372 H   0  0  0  0  0  0  0  0  0  0  0  0
  -43.4552   55.1404   68.1774 H   0  0  0  0  0  0  0  0  0  0  0  0
  -43.3167   56.3588   65.4737 H   0  0  0  0  0  0  0  0  0  0  0  0
  -41.2478   55.5627   65.3521 H   0  0  0  0  0  0  0  0  0  0  0  0
  -40.3769   53.8695   66.6919 H   0  0  0  0  0  0  0  0  0  0  0  0
  -41.8006   54.0023   67.7733 H   0  0  0  0  0  0  0  0  0  0  0  0
  -39.5017   55.8749   67.7219 H   0  0  0  0  0  0  0  0  0  0  0  0
  -39.7870   54.5838   68.9005 H   0  0  0  0  0  0  0  0  0  0  0  0
  -41.8101   55.6278   69.5884 H   0  0  0  0  0  0  0  0  0  0  0  0
  -41.5183   56.9217   68.3921 H   0  0  0  0  0  0  0  0  0  0  0  0
  -39.6014   57.6305   69.5784 H   0  0  0  0  0  0  0  0  0  0  0  0
  -39.8489   56.3359   70.7603 H   0  0  0  0  0  0  0  0  0  0  0  0
  -40.6050   58.4571   71.6070 H   0  0  0  0  0  0  0  0  0  0  0  0
  -41.9343   57.2831   71.3803 H   0  0  0  0  0  0  0  0  0  0  0  0
  -42.5979   59.5065   70.7928 H   0  0  0  0  0  0  0  0  0  0  0  0
  -42.6072   58.3808   69.4208 H   0  0  0  0  0  0  0  0  0  0  0  0
  -40.5709   59.2665   68.6485 H   0  0  0  0  0  0  0  0  0  0  0  0
  -40.5458   60.3835   70.0294 H   0  0  0  0  0  0  0  0  0  0  0  0
  -42.5402   60.3337   67.8615 H   0  0  0  0  0  0  0  0  0  0  0  0
  -41.2406   61.4852   68.0572 H   0  0  0  0  0  0  0  0  0  0  0  0
  -42.5244   61.4073   69.2399 H   0  0  0  0  0  0  0  0  0  0  0  0
  1  9  1  0  0  0  0
  1 11  1  0  0  0  0
  1 13  1  0  0  0  0
  1 15  1  0  0  0  0
  2  3  1  0  0  0  0
  2  5  1  0  0  0  0
  2 17  1  0  0  0  0
  2 36  1  6  0  0  0
  3 37  1  0  0  0  0
  4  6  1  0  0  0  0
  4  8  2  6  0  0  0
  4 10  1  0  0  0  0
  4 12  1  0  0  0  0
  5  6  1  0  0  0  0
  5 38  1  0  0  0  0
  5 39  1  0  0  0  0
  7  9  1  0  0  0  0
  7 10  1  0  0  0  0
  7 40  1  0  0  0  0
  7 41  1  0  0  0  0
  9 42  1  0  0  0  0
  9 43  1  0  0  0  0
 11 44  1  0  0  0  0
 11 45  1  0  0  0  0
 11 46  1  0  0  0  0
 12 47  1  0  0  0  0
 13 48  1  0  0  0  0
 13 49  1  0  0  0  0
 13 50  1  0  0  0  0
 14 17  1  0  0  0  0
 14 18  1  0  0  0  0
 15 51  1  0  0  0  0
 15 52  1  0  0  0  0
 15 53  1  0  0  0  0
 16 18  2  0  0  0  0
 17 54  1  0  0  0  0
 17 55  1  0  0  0  0
 18 19  1  0  0  0  0
 19 20  1  0  0  0  0
 19 56  1  0  0  0  0
 19 57  1  0  0  0  0
 20 21  1  0  0  0  0
 20 58  1  0  0  0  0
 20 59  1  0  0  0  0
 21 22  1  0  0  0  0
 21 60  1  0  0  0  0
 21 61  1  0  0  0  0
 22 23  1  0  0  0  0
 22 62  1  0  0  0  0
 22 63  1  0  0  0  0
 23 24  1  0  0  0  0
 23 64  1  0  0  0  0
 23 65  1  0  0  0  0
 24 25  1  0  0  0  0
 24 66  1  0  0  0  0
 24 67  1  0  0  0  0
 25 26  1  0  0  0  0
 25 68  1  0  0  0  0
 25 69  1  0  0  0  0
 26 27  2  0  0  0  0
 26 70  1  0  0  0  0
 27 28  1  0  0  0  0
 27 71  1  0  0  0  0
 28 29  1  0  0  0  0
 28 72  1  0  0  0  0
 28 73  1  0  0  0  0
 29 30  1  0  0  0  0
 29 74  1  0  0  0  0
 29 75  1  0  0  0  0
 30 31  1  0  0  0  0
 30 76  1  0  0  0  0
 30 77  1  0  0  0  0
 31 32  1  0  0  0  0
 31 78  1  0  0  0  0
 31 79  1  0  0  0  0
 32 33  1  0  0  0  0
 32 80  1  0  0  0  0
 32 81  1  0  0  0  0
 33 34  1  0  0  0  0
 33 82  1  0  0  0  0
 33 83  1  0  0  0  0
 34 35  1  0  0  0  0
 34 84  1  0  0  0  0
 34 85  1  0  0  0  0
 35 86  1  0  0  0  0
 35 87  1  0  0  0  0
 35 88  1  0  0  0  0
M  CHG  1   8  -1
M  END
$$$$
/media/chris/experiments/cd1a-new-docking/inputs/ligands/4x6c_ligand.pdb
 OpenBabel07012320263D

 88 87  0  0  1  0  0  0  0  0999 V2000
  -37.5504   59.8012   67.6941 N   0  0  0  0  0  4  0  0  0  0  0  0
  -39.0847   60.8760   61.3870 C   0  0  1  0  0  0  0  0  0  0  0  0
  -38.5081   61.7824   60.4467 O   0  0  0  0  0  0  0  0  0  0  0  0
  -35.9277   60.7422   63.6819 P   0  0  2  0  0  0  0  0  0  0  0  0
  -37.9664   60.1857   62.1296 C   0  0  0  0  0  0  0  0  0  0  0  0
  -37.1913   61.1841   62.8232 O   0  0  0  0  0  0  0  0  0  0  0  0
  -35.8886   61.1531   66.2735 C   0  0  0  0  0  0  0  0  0  0  0  0
  -36.1960   59.3764   64.1755 O   0  5  0  0  0  0  0  0  0  0  0  0
  -37.2274   60.4569   66.3661 C   0  0  0  0  0  0  0  0  0  0  0  0
  -35.8209   61.7057   64.9379 O   0  0  0  0  0  0  0  0  0  0  0  0
  -37.5743   60.8069   68.7999 C   0  0  0  0  0  0  0  0  0  0  0  0
  -34.7363   60.9834   62.8445 O   0  0  0  0  0  0  0  0  0  0  0  0
  -36.5140   58.7704   68.0081 C   0  0  0  0  0  0  0  0  0  0  0  0
  -40.6084   60.6579   63.1994 O   0  0  0  0  0  0  0  0  0  0  0  0
  -38.8926   59.1442   67.6155 C   0  0  0  0  0  0  0  0  0  0  0  0
  -38.6783   60.3998   64.2845 O   0  0  0  0  0  0  0  0  0  0  0  0
  -40.0713   61.6162   62.2607 C   0  0  0  0  0  0  0  0  0  0  0  0
  -39.8706   60.3644   64.2700 C   0  0  0  0  0  0  0  0  0  0  0  0
  -40.7200   59.9800   65.4370 C   0  0  0  0  0  0  0  0  0  0  0  0
  -42.0280   59.3300   65.0270 C   0  0  0  0  0  0  0  0  0  0  0  0
  -42.8960   58.9560   66.2090 C   0  0  0  0  0  0  0  0  0  0  0  0
  -44.2012   58.2902   65.8416 C   0  0  0  0  0  0  0  0  0  0  0  0
  -45.0885   59.1315   64.9600 C   0  0  0  0  0  0  0  0  0  0  0  0
  -45.4551   60.4437   65.5996 C   0  0  0  0  0  0  0  0  0  0  0  0
  -46.1823   60.3416   66.9077 C   0  0  0  0  0  0  0  0  0  0  0  0
  -45.4105   59.6514   67.9512 C   0  0  0  0  0  0  0  0  0  0  0  0
  -45.0240   60.1225   69.1163 C   0  0  0  0  0  0  0  0  0  0  0  0
  -45.2857   61.4663   69.6907 C   0  0  0  0  0  0  0  0  0  0  0  0
  -44.2462   62.5236   69.3793 C   0  0  0  0  0  0  0  0  0  0  0  0
  -44.1036   62.7820   67.9046 C   0  0  0  0  0  0  0  0  0  0  0  0
  -45.3562   63.2775   67.2283 C   0  0  0  0  0  0  0  0  0  0  0  0
  -45.1650   63.5056   65.7450 C   0  0  0  0  0  0  0  0  0  0  0  0
  -46.3793   64.0167   65.0212 C   0  0  0  0  0  0  0  0  0  0  0  0
  -47.5410   63.1117   65.1233 C   0  0  0  0  0  0  0  0  0  0  0  0
  -48.7192   63.5967   64.4073 C   0  0  0  0  0  0  0  0  0  0  0  0
  -39.6535   60.1046   60.9114 H   0  0  0  0  0  0  0  0  0  0  0  0
  -38.0036   62.4621   60.9204 H   0  0  0  0  0  0  0  0  0  0  0  0
  -37.3422   59.6622   61.4359 H   0  0  0  0  0  0  0  0  0  0  0  0
  -38.3701   59.4843   62.8295 H   0  0  0  0  0  0  0  0  0  0  0  0
  -35.0938   60.4536   66.4277 H   0  0  0  0  0  0  0  0  0  0  0  0
  -35.7890   61.9141   67.0191 H   0  0  0  0  0  0  0  0  0  0  0  0
  -37.9875   61.1832   66.1672 H   0  0  0  0  0  0  0  0  0  0  0  0
  -37.1845   59.6582   65.6553 H   0  0  0  0  0  0  0  0  0  0  0  0
  -36.6196   61.2852   68.8678 H   0  0  0  0  0  0  0  0  0  0  0  0
  -37.7934   60.3150   69.7246 H   0  0  0  0  0  0  0  0  0  0  0  0
  -38.3272   61.5402   68.5990 H   0  0  0  0  0  0  0  0  0  0  0  0
  -34.7682   60.4086   62.0637 H   0  0  0  0  0  0  0  0  0  0  0  0
  -35.5527   59.2369   68.0650 H   0  0  0  0  0  0  0  0  0  0  0  0
  -36.5049   58.0276   67.2380 H   0  0  0  0  0  0  0  0  0  0  0  0
  -36.7427   58.3089   68.9460 H   0  0  0  0  0  0  0  0  0  0  0  0
  -39.6369   59.8793   67.3908 H   0  0  0  0  0  0  0  0  0  0  0  0
  -39.1191   58.6824   68.5537 H   0  0  0  0  0  0  0  0  0  0  0  0
  -38.8814   58.4011   66.8457 H   0  0  0  0  0  0  0  0  0  0  0  0
  -40.8583   62.0242   61.6615 H   0  0  0  0  0  0  0  0  0  0  0  0
  -39.5944   62.4256   62.7729 H   0  0  0  0  0  0  0  0  0  0  0  0
  -40.9394   60.8604   66.0042 H   0  0  0  0  0  0  0  0  0  0  0  0
  -40.1713   59.2627   66.0109 H   0  0  0  0  0  0  0  0  0  0  0  0
  -41.8086   58.4429   64.4703 H   0  0  0  0  0  0  0  0  0  0  0  0
  -42.5713   60.0428   64.4426 H   0  0  0  0  0  0  0  0  0  0  0  0
  -43.1183   59.8483   66.7560 H   0  0  0  0  0  0  0  0  0  0  0  0
  -42.3406   58.2423   66.7808 H   0  0  0  0  0  0  0  0  0  0  0  0
  -44.7331   58.0706   66.7436 H   0  0  0  0  0  0  0  0  0  0  0  0
  -43.9552   57.4099   65.2853 H   0  0  0  0  0  0  0  0  0  0  0  0
  -45.9862   58.5862   64.7557 H   0  0  0  0  0  0  0  0  0  0  0  0
  -44.5472   59.3462   64.0623 H   0  0  0  0  0  0  0  0  0  0  0  0
  -46.0790   60.9810   64.9163 H   0  0  0  0  0  0  0  0  0  0  0  0
  -44.5294   60.9353   65.8148 H   0  0  0  0  0  0  0  0  0  0  0  0
  -47.0937   59.8041   66.7482 H   0  0  0  0  0  0  0  0  0  0  0  0
  -46.3568   61.3397   67.2513 H   0  0  0  0  0  0  0  0  0  0  0  0
  -45.1387   58.6776   67.7439 H   0  0  0  0  0  0  0  0  0  0  0  0
  -44.4706   59.4792   69.7036 H   0  0  0  0  0  0  0  0  0  0  0  0
  -45.3437   61.3644   70.7542 H   0  0  0  0  0  0  0  0  0  0  0  0
  -46.1943   61.8064   69.2393 H   0  0  0  0  0  0  0  0  0  0  0  0
  -43.3017   62.1981   69.7626 H   0  0  0  0  0  0  0  0  0  0  0  0
  -44.5664   63.4360   69.8375 H   0  0  0  0  0  0  0  0  0  0  0  0
  -43.8094   61.8678   67.4328 H   0  0  0  0  0  0  0  0  0  0  0  0
  -43.3769   63.5608   67.8030 H   0  0  0  0  0  0  0  0  0  0  0  0
  -45.6482   64.2014   67.6823 H   0  0  0  0  0  0  0  0  0  0  0  0
  -46.1076   62.5250   67.3463 H   0  0  0  0  0  0  0  0  0  0  0  0
  -44.8798   62.5753   65.2998 H   0  0  0  0  0  0  0  0  0  0  0  0
  -44.4182   64.2663   65.6523 H   0  0  0  0  0  0  0  0  0  0  0  0
  -46.1328   64.1382   63.9871 H   0  0  0  0  0  0  0  0  0  0  0  0
  -46.6565   64.9429   65.4797 H   0  0  0  0  0  0  0  0  0  0  0  0
  -47.7943   63.0002   66.1569 H   0  0  0  0  0  0  0  0  0  0  0  0
  -47.2583   62.1827   64.6738 H   0  0  0  0  0  0  0  0  0  0  0  0
  -49.0343   64.5283   64.8289 H   0  0  0  0  0  0  0  0  0  0  0  0
  -49.5094   62.8805   64.4942 H   0  0  0  0  0  0  0  0  0  0  0  0
  -48.4765   63.7366   63.3746 H   0  0  0  0  0  0  0  0  0  0  0  0
  1  9  1  0  0  0  0
  1 11  1  0  0  0  0
  1 13  1  0  0  0  0
  1 15  1  0  0  0  0
  2  3  1  0  0  0  0
  2  5  1  0  0  0  0
  2 17  1  0  0  0  0
  2 36  1  6  0  0  0
  3 37  1  0  0  0  0
  4  6  1  0  0  0  0
  4  8  2  1  0  0  0
  4 10  1  0  0  0  0
  4 12  1  0  0  0  0
  5  6  1  0  0  0  0
  5 38  1  0  0  0  0
  5 39  1  0  0  0  0
  7  9  1  0  0  0  0
  7 10  1  0  0  0  0
  7 40  1  0  0  0  0
  7 41  1  0  0  0  0
  9 42  1  0  0  0  0
  9 43  1  0  0  0  0
 11 44  1  0  0  0  0
 11 45  1  0  0  0  0
 11 46  1  0  0  0  0
 12 47  1  0  0  0  0
 13 48  1  0  0  0  0
 13 49  1  0  0  0  0
 13 50  1  0  0  0  0
 14 17  1  0  0  0  0
 14 18  1  0  0  0  0
 15 51  1  0  0  0  0
 15 52  1  0  0  0  0
 15 53  1  0  0  0  0
 16 18  2  0  0  0  0
 17 54  1  0  0  0  0
 17 55  1  0  0  0  0
 18 19  1  0  0  0  0
 19 20  1  0  0  0  0
 19 56  1  0  0  0  0
 19 57  1  0  0  0  0
 20 21  1  0  0  0  0
 20 58  1  0  0  0  0
 20 59  1  0  0  0  0
 21 22  1  0  0  0  0
 21 60  1  0  0  0  0
 21 61  1  0  0  0  0
 22 23  1  0  0  0  0
 22 62  1  0  0  0  0
 22 63  1  0  0  0  0
 23 24  1  0  0  0  0
 23 64  1  0  0  0  0
 23 65  1  0  0  0  0
 24 25  1  0  0  0  0
 24 66  1  0  0  0  0
 24 67  1  0  0  0  0
 25 26  1  0  0  0  0
 25 68  1  0  0  0  0
 25 69  1  0  0  0  0
 26 27  2  0  0  0  0
 26 70  1  0  0  0  0
 27 28  1  0  0  0  0
 27 71  1  0  0  0  0
 28 29  1  0  0  0  0
 28 72  1  0  0  0  0
 28 73  1  0  0  0  0
 29 30  1  0  0  0  0
 29 74  1  0  0  0  0
 29 75  1  0  0  0  0
 30 31  1  0  0  0  0
 30 76  1  0  0  0  0
 30 77  1  0  0  0  0
 31 32  1  0  0  0  0
 31 78  1  0  0  0  0
 31 79  1  0  0  0  0
 32 33  1  0  0  0  0
 32 80  1  0  0  0  0
 32 81  1  0  0  0  0
 33 34  1  0  0  0  0
 33 82  1  0  0  0  0
 33 83  1  0  0  0  0
 34 35  1  0  0  0  0
 34 84  1  0  0  0  0
 34 85  1  0  0  0  0
 35 86  1  0  0  0  0
 35 87  1  0  0  0  0
 35 88  1  0  0  0  0
M  CHG  1   8  -1
M  END
$$$$
/media/chris/experiments/cd1a-new-docking/inputs/ligands/4x6c_ligand.pdb
 OpenBabel07012320263D

 88 87  0  0  1  0  0  0  0  0999 V2000
  -42.4397   55.0103   62.1410 N   0  0  0  0  0  4  0  0  0  0  0  0
  -38.5671   57.9412   68.7688 C   0  0  1  0  0  0  0  0  0  0  0  0
  -39.6376   58.0048   69.7111 O   0  0  0  0  0  0  0  0  0  0  0  0
  -40.6393   56.0446   66.0559 P   0  0  2  0  0  0  0  0  0  0  0  0
  -38.8454   56.8105   67.8084 C   0  0  0  0  0  0  0  0  0  0  0  0
  -40.0848   57.0839   67.1244 O   0  0  0  0  0  0  0  0  0  0  0  0
  -40.3298   55.5900   63.4899 C   0  0  0  0  0  0  0  0  0  0  0  0
  -40.1715   54.7065   66.4704 O   0  5  0  0  0  0  0  0  0  0  0  0
  -41.8198   55.7636   63.3012 C   0  0  0  0  0  0  0  0  0  0  0  0
  -39.9828   56.3804   64.6512 O   0  0  0  0  0  0  0  0  0  0  0  0
  -43.9081   55.2752   62.0494 C   0  0  0  0  0  0  0  0  0  0  0  0
  -42.0890   56.2928   65.9306 O   0  0  0  0  0  0  0  0  0  0  0  0
  -42.2300   53.5419   62.3289 C   0  0  0  0  0  0  0  0  0  0  0  0
  -39.6287   59.6329   67.4785 O   0  0  0  0  0  0  0  0  0  0  0  0
  -41.7947   55.4415   60.8614 C   0  0  0  0  0  0  0  0  0  0  0  0
  -39.4477   58.0302   65.9397 O   0  0  0  0  0  0  0  0  0  0  0  0
  -38.3811   59.2960   68.1251 C   0  0  0  0  0  0  0  0  0  0  0  0
  -39.8694   59.0915   66.2844 C   0  0  0  0  0  0  0  0  0  0  0  0
  -40.7200   59.9800   65.4370 C   0  0  0  0  0  0  0  0  0  0  0  0
  -42.0280   59.3300   65.0270 C   0  0  0  0  0  0  0  0  0  0  0  0
  -42.8960   58.9560   66.2090 C   0  0  0  0  0  0  0  0  0  0  0  0
  -44.2012   58.2902   65.8416 C   0  0  0  0  0  0  0  0  0  0  0  0
  -45.0623   57.9388   67.0279 C   0  0  0  0  0  0  0  0  0  0  0  0
  -46.3454   57.2626   66.6256 C   0  0  0  0  0  0  0  0  0  0  0  0
  -47.2626   56.8977   67.7552 C   0  0  0  0  0  0  0  0  0  0  0  0
  -46.6505   55.9843   68.7310 C   0  0  0  0  0  0  0  0  0  0  0  0
  -46.1635   54.7817   68.5183 C   0  0  0  0  0  0  0  0  0  0  0  0
  -46.0843   54.0423   67.2333 C   0  0  0  0  0  0  0  0  0  0  0  0
  -44.9211   53.0802   67.1040 C   0  0  0  0  0  0  0  0  0  0  0  0
  -44.8920   52.3788   65.7738 C   0  0  0  0  0  0  0  0  0  0  0  0
  -46.1225   51.5653   65.4640 C   0  0  0  0  0  0  0  0  0  0  0  0
  -47.3796   52.4058   65.4207 C   0  0  0  0  0  0  0  0  0  0  0  0
  -47.3799   53.4918   64.3814 C   0  0  0  0  0  0  0  0  0  0  0  0
  -47.2459   52.9783   63.0039 C   0  0  0  0  0  0  0  0  0  0  0  0
  -48.3318   52.0827   62.6103 C   0  0  0  0  0  0  0  0  0  0  0  0
  -37.6292   57.7194   69.2336 H   0  0  0  0  0  0  0  0  0  0  0  0
  -40.4651   58.2074   69.2473 H   0  0  0  0  0  0  0  0  0  0  0  0
  -38.9268   55.8903   68.3484 H   0  0  0  0  0  0  0  0  0  0  0  0
  -38.0474   56.7267   67.1004 H   0  0  0  0  0  0  0  0  0  0  0  0
  -39.8020   55.9424   62.6285 H   0  0  0  0  0  0  0  0  0  0  0  0
  -40.0677   54.5611   63.6222 H   0  0  0  0  0  0  0  0  0  0  0  0
  -42.3027   55.4364   64.1982 H   0  0  0  0  0  0  0  0  0  0  0  0
  -41.9612   56.8004   63.0777 H   0  0  0  0  0  0  0  0  0  0  0  0
  -44.3828   54.9712   62.9588 H   0  0  0  0  0  0  0  0  0  0  0  0
  -44.3197   54.7232   61.2304 H   0  0  0  0  0  0  0  0  0  0  0  0
  -44.0728   56.3209   61.8933 H   0  0  0  0  0  0  0  0  0  0  0  0
  -42.5248   56.0969   66.7748 H   0  0  0  0  0  0  0  0  0  0  0  0
  -42.6900   53.2300   63.2432 H   0  0  0  0  0  0  0  0  0  0  0  0
  -41.1812   53.3335   62.3681 H   0  0  0  0  0  0  0  0  0  0  0  0
  -42.6687   53.0113   61.5098 H   0  0  0  0  0  0  0  0  0  0  0  0
  -41.9429   56.4922   60.7238 H   0  0  0  0  0  0  0  0  0  0  0  0
  -42.2338   54.9092   60.0436 H   0  0  0  0  0  0  0  0  0  0  0  0
  -40.7463   55.2315   60.9019 H   0  0  0  0  0  0  0  0  0  0  0  0
  -37.5928   59.2543   67.4029 H   0  0  0  0  0  0  0  0  0  0  0  0
  -38.1194   60.0325   68.8558 H   0  0  0  0  0  0  0  0  0  0  0  0
  -40.1733   60.2341   64.5530 H   0  0  0  0  0  0  0  0  0  0  0  0
  -40.9602   60.8449   66.0193 H   0  0  0  0  0  0  0  0  0  0  0  0
  -41.8086   58.4429   64.4703 H   0  0  0  0  0  0  0  0  0  0  0  0
  -42.5713   60.0428   64.4426 H   0  0  0  0  0  0  0  0  0  0  0  0
  -43.1183   59.8483   66.7560 H   0  0  0  0  0  0  0  0  0  0  0  0
  -42.3406   58.2423   66.7808 H   0  0  0  0  0  0  0  0  0  0  0  0
  -43.9814   57.3901   65.3063 H   0  0  0  0  0  0  0  0  0  0  0  0
  -44.7539   58.9929   65.2537 H   0  0  0  0  0  0  0  0  0  0  0  0
  -45.2991   58.8372   67.5587 H   0  0  0  0  0  0  0  0  0  0  0  0
  -44.5114   57.2554   67.6397 H   0  0  0  0  0  0  0  0  0  0  0  0
  -46.0947   56.3645   66.1008 H   0  0  0  0  0  0  0  0  0  0  0  0
  -46.8793   57.9739   66.0307 H   0  0  0  0  0  0  0  0  0  0  0  0
  -48.1320   56.4257   67.3474 H   0  0  0  0  0  0  0  0  0  0  0  0
  -47.5003   57.8024   68.2746 H   0  0  0  0  0  0  0  0  0  0  0  0
  -46.5965   56.3294   69.7021 H   0  0  0  0  0  0  0  0  0  0  0  0
  -45.7905   54.2915   69.3463 H   0  0  0  0  0  0  0  0  0  0  0  0
  -46.0070   54.7606   66.4440 H   0  0  0  0  0  0  0  0  0  0  0  0
  -46.9685   53.4416   67.1854 H   0  0  0  0  0  0  0  0  0  0  0  0
  -44.9980   52.3445   67.8771 H   0  0  0  0  0  0  0  0  0  0  0  0
  -44.0196   53.6504   67.1880 H   0  0  0  0  0  0  0  0  0  0  0  0
  -44.0468   51.7227   65.7613 H   0  0  0  0  0  0  0  0  0  0  0  0
  -44.8408   53.1452   65.0289 H   0  0  0  0  0  0  0  0  0  0  0  0
  -46.2370   50.8160   66.2192 H   0  0  0  0  0  0  0  0  0  0  0  0
  -45.9889   51.1317   64.4950 H   0  0  0  0  0  0  0  0  0  0  0  0
  -47.5066   52.8634   66.3796 H   0  0  0  0  0  0  0  0  0  0  0  0
  -48.1761   51.7407   65.1598 H   0  0  0  0  0  0  0  0  0  0  0  0
  -46.5615   54.1521   64.5792 H   0  0  0  0  0  0  0  0  0  0  0  0
  -48.3238   53.9917   64.4440 H   0  0  0  0  0  0  0  0  0  0  0  0
  -46.3218   52.4442   62.9293 H   0  0  0  0  0  0  0  0  0  0  0  0
  -47.2790   53.8226   62.3473 H   0  0  0  0  0  0  0  0  0  0  0  0
  -48.3325   51.2221   63.2461 H   0  0  0  0  0  0  0  0  0  0  0  0
  -48.1909   51.7759   61.5950 H   0  0  0  0  0  0  0  0  0  0  0  0
  -49.2671   52.5944   62.7018 H   0  0  0  0  0  0  0  0  0  0  0  0
  1  9  1  0  0  0  0
  1 11  1  0  0  0  0
  1 13  1  0  0  0  0
  1 15  1  0  0  0  0
  2  3  1  0  0  0  0
  2  5  1  0  0  0  0
  2 17  1  0  0  0  0
  2 36  1  1  0  0  0
  3 37  1  0  0  0  0
  4  6  1  0  0  0  0
  4  8  2  1  0  0  0
  4 10  1  0  0  0  0
  4 12  1  0  0  0  0
  5  6  1  0  0  0  0
  5 38  1  0  0  0  0
  5 39  1  0  0  0  0
  7  9  1  0  0  0  0
  7 10  1  0  0  0  0
  7 40  1  0  0  0  0
  7 41  1  0  0  0  0
  9 42  1  0  0  0  0
  9 43  1  0  0  0  0
 11 44  1  0  0  0  0
 11 45  1  0  0  0  0
 11 46  1  0  0  0  0
 12 47  1  0  0  0  0
 13 48  1  0  0  0  0
 13 49  1  0  0  0  0
 13 50  1  0  0  0  0
 14 17  1  0  0  0  0
 14 18  1  0  0  0  0
 15 51  1  0  0  0  0
 15 52  1  0  0  0  0
 15 53  1  0  0  0  0
 16 18  2  0  0  0  0
 17 54  1  0  0  0  0
 17 55  1  0  0  0  0
 18 19  1  0  0  0  0
 19 20  1  0  0  0  0
 19 56  1  0  0  0  0
 19 57  1  0  0  0  0
 20 21  1  0  0  0  0
 20 58  1  0  0  0  0
 20 59  1  0  0  0  0
 21 22  1  0  0  0  0
 21 60  1  0  0  0  0
 21 61  1  0  0  0  0
 22 23  1  0  0  0  0
 22 62  1  0  0  0  0
 22 63  1  0  0  0  0
 23 24  1  0  0  0  0
 23 64  1  0  0  0  0
 23 65  1  0  0  0  0
 24 25  1  0  0  0  0
 24 66  1  0  0  0  0
 24 67  1  0  0  0  0
 25 26  1  0  0  0  0
 25 68  1  0  0  0  0
 25 69  1  0  0  0  0
 26 27  2  0  0  0  0
 26 70  1  0  0  0  0
 27 28  1  0  0  0  0
 27 71  1  0  0  0  0
 28 29  1  0  0  0  0
 28 72  1  0  0  0  0
 28 73  1  0  0  0  0
 29 30  1  0  0  0  0
 29 74  1  0  0  0  0
 29 75  1  0  0  0  0
 30 31  1  0  0  0  0
 30 76  1  0  0  0  0
 30 77  1  0  0  0  0
 31 32  1  0  0  0  0
 31 78  1  0  0  0  0
 31 79  1  0  0  0  0
 32 33  1  0  0  0  0
 32 80  1  0  0  0  0
 32 81  1  0  0  0  0
 33 34  1  0  0  0  0
 33 82  1  0  0  0  0
 33 83  1  0  0  0  0
 34 35  1  0  0  0  0
 34 84  1  0  0  0  0
 34 85  1  0  0  0  0
 35 86  1  0  0  0  0
 35 87  1  0  0  0  0
 35 88  1  0  0  0  0
M  CHG  1   8  -1
M  END
$$$$
/media/chris/experiments/cd1a-new-docking/inputs/ligands/4x6c_ligand.pdb
 OpenBabel07012320263D

 88 87  0  0  1  0  0  0  0  0999 V2000
  -34.5806   59.4671   67.7064 N   0  0  0  0  0  4  0  0  0  0  0  0
  -39.0847   60.8760   61.3870 C   0  0  1  0  0  0  0  0  0  0  0  0
  -38.5081   61.7824   60.4467 O   0  0  0  0  0  0  0  0  0  0  0  0
  -35.9277   60.7422   63.6819 P   0  0  2  0  0  0  0  0  0  0  0  0
  -37.9664   60.1857   62.1296 C   0  0  0  0  0  0  0  0  0  0  0  0
  -37.1913   61.1841   62.8232 O   0  0  0  0  0  0  0  0  0  0  0  0
  -35.8886   61.1531   66.2735 C   0  0  0  0  0  0  0  0  0  0  0  0
  -36.1960   59.3764   64.1755 O   0  5  0  0  0  0  0  0  0  0  0  0
  -34.7224   60.1977   66.3859 C   0  0  0  0  0  0  0  0  0  0  0  0
  -35.8209   61.7057   64.9379 O   0  0  0  0  0  0  0  0  0  0  0  0
  -35.7830   58.6246   67.9880 C   0  0  0  0  0  0  0  0  0  0  0  0
  -34.7363   60.9834   62.8445 O   0  0  0  0  0  0  0  0  0  0  0  0
  -34.4232   60.4600   68.8131 C   0  0  0  0  0  0  0  0  0  0  0  0
  -40.6084   60.6579   63.1994 O   0  0  0  0  0  0  0  0  0  0  0  0
  -33.3753   58.5813   67.6624 C   0  0  0  0  0  0  0  0  0  0  0  0
  -38.6783   60.3998   64.2845 O   0  0  0  0  0  0  0  0  0  0  0  0
  -40.0713   61.6162   62.2607 C   0  0  0  0  0  0  0  0  0  0  0  0
  -39.8706   60.3644   64.2700 C   0  0  0  0  0  0  0  0  0  0  0  0
  -40.7200   59.9800   65.4370 C   0  0  0  0  0  0  0  0  0  0  0  0
  -42.0280   59.3300   65.0270 C   0  0  0  0  0  0  0  0  0  0  0  0
  -42.8960   58.9560   66.2090 C   0  0  0  0  0  0  0  0  0  0  0  0
  -44.2012   58.2902   65.8416 C   0  0  0  0  0  0  0  0  0  0  0  0
  -45.0623   57.9388   67.0279 C   0  0  0  0  0  0  0  0  0  0  0  0
  -44.3705   57.0027   67.9821 C   0  0  0  0  0  0  0  0  0  0  0  0
  -43.9464   55.6870   67.3997 C   0  0  0  0  0  0  0  0  0  0  0  0
  -42.9896   55.8214   66.2918 C   0  0  0  0  0  0  0  0  0  0  0  0
  -41.7681   55.3409   66.2153 C   0  0  0  0  0  0  0  0  0  0  0  0
  -41.0455   54.5184   67.2181 C   0  0  0  0  0  0  0  0  0  0  0  0
  -40.2369   55.2936   68.2382 C   0  0  0  0  0  0  0  0  0  0  0  0
  -41.0831   56.2176   69.0702 C   0  0  0  0  0  0  0  0  0  0  0  0
  -42.1522   55.5321   69.8820 C   0  0  0  0  0  0  0  0  0  0  0  0
  -42.9853   56.5054   70.6866 C   0  0  0  0  0  0  0  0  0  0  0  0
  -44.0581   55.8745   71.5297 C   0  0  0  0  0  0  0  0  0  0  0  0
  -45.0334   55.0950   70.7420 C   0  0  0  0  0  0  0  0  0  0  0  0
  -46.0878   54.4932   71.5558 C   0  0  0  0  0  0  0  0  0  0  0  0
  -39.6535   60.1046   60.9114 H   0  0  0  0  0  0  0  0  0  0  0  0
  -38.0036   62.4621   60.9204 H   0  0  0  0  0  0  0  0  0  0  0  0
  -37.3422   59.6622   61.4359 H   0  0  0  0  0  0  0  0  0  0  0  0
  -38.3701   59.4843   62.8295 H   0  0  0  0  0  0  0  0  0  0  0  0
  -35.8040   61.9313   67.0030 H   0  0  0  0  0  0  0  0  0  0  0  0
  -36.8209   60.6574   66.4469 H   0  0  0  0  0  0  0  0  0  0  0  0
  -34.8273   59.4625   65.6156 H   0  0  0  0  0  0  0  0  0  0  0  0
  -33.8455   60.8048   66.2990 H   0  0  0  0  0  0  0  0  0  0  0  0
  -36.6536   59.2457   68.0224 H   0  0  0  0  0  0  0  0  0  0  0  0
  -35.6600   58.1306   68.9291 H   0  0  0  0  0  0  0  0  0  0  0  0
  -35.8961   57.8944   67.2141 H   0  0  0  0  0  0  0  0  0  0  0  0
  -34.7682   60.4086   62.0637 H   0  0  0  0  0  0  0  0  0  0  0  0
  -35.2836   61.0952   68.8474 H   0  0  0  0  0  0  0  0  0  0  0  0
  -33.5493   61.0523   68.6392 H   0  0  0  0  0  0  0  0  0  0  0  0
  -34.3241   59.9430   69.7447 H   0  0  0  0  0  0  0  0  0  0  0  0
  -33.4846   57.8693   66.8713 H   0  0  0  0  0  0  0  0  0  0  0  0
  -33.2771   58.0660   68.5950 H   0  0  0  0  0  0  0  0  0  0  0  0
  -32.5023   59.1753   67.4895 H   0  0  0  0  0  0  0  0  0  0  0  0
  -40.8583   62.0242   61.6615 H   0  0  0  0  0  0  0  0  0  0  0  0
  -39.5944   62.4256   62.7729 H   0  0  0  0  0  0  0  0  0  0  0  0
  -40.9394   60.8604   66.0042 H   0  0  0  0  0  0  0  0  0  0  0  0
  -40.1713   59.2627   66.0109 H   0  0  0  0  0  0  0  0  0  0  0  0
  -41.8086   58.4429   64.4703 H   0  0  0  0  0  0  0  0  0  0  0  0
  -42.5713   60.0428   64.4426 H   0  0  0  0  0  0  0  0  0  0  0  0
  -43.1183   59.8483   66.7560 H   0  0  0  0  0  0  0  0  0  0  0  0
  -42.3406   58.2423   66.7808 H   0  0  0  0  0  0  0  0  0  0  0  0
  -43.9814   57.3901   65.3063 H   0  0  0  0  0  0  0  0  0  0  0  0
  -44.7539   58.9929   65.2537 H   0  0  0  0  0  0  0  0  0  0  0  0
  -45.9577   57.4707   66.6758 H   0  0  0  0  0  0  0  0  0  0  0  0
  -45.2749   58.8446   67.5562 H   0  0  0  0  0  0  0  0  0  0  0  0
  -45.0397   56.8042   68.7931 H   0  0  0  0  0  0  0  0  0  0  0  0
  -43.4695   57.4976   68.2790 H   0  0  0  0  0  0  0  0  0  0  0  0
  -44.8163   55.1801   67.0372 H   0  0  0  0  0  0  0  0  0  0  0  0
  -43.4552   55.1404   68.1774 H   0  0  0  0  0  0  0  0  0  0  0  0
  -43.3167   56.3588   65.4737 H   0  0  0  0  0  0  0  0  0  0  0  0
  -41.2478   55.5627   65.3521 H   0  0  0  0  0  0  0  0  0  0  0  0
  -40.3769   53.8695   66.6919 H   0  0  0  0  0  0  0  0  0  0  0  0
  -41.8006   54.0023   67.7733 H   0  0  0  0  0  0  0  0  0  0  0  0
  -39.5017   55.8749   67.7219 H   0  0  0  0  0  0  0  0  0  0  0  0
  -39.7870   54.5838   68.9005 H   0  0  0  0  0  0  0  0  0  0  0  0
  -41.5592   56.9155   68.4135 H   0  0  0  0  0  0  0  0  0  0  0  0
  -40.4227   56.6831   69.7716 H   0  0  0  0  0  0  0  0  0  0  0  0
  -41.6837   54.8444   70.5546 H   0  0  0  0  0  0  0  0  0  0  0  0
  -42.8071   55.0322   69.1992 H   0  0  0  0  0  0  0  0  0  0  0  0
  -43.4542   57.1840   70.0050 H   0  0  0  0  0  0  0  0  0  0  0  0
  -42.3127   56.9850   71.3666 H   0  0  0  0  0  0  0  0  0  0  0  0
  -44.5822   56.6495   72.0490 H   0  0  0  0  0  0  0  0  0  0  0  0
  -43.5763   55.1952   72.2015 H   0  0  0  0  0  0  0  0  0  0  0  0
  -44.5102   54.3130   70.2324 H   0  0  0  0  0  0  0  0  0  0  0  0
  -45.5064   55.7739   70.0636 H   0  0  0  0  0  0  0  0  0  0  0  0
  -45.6534   53.8048   72.2502 H   0  0  0  0  0  0  0  0  0  0  0  0
  -46.7753   53.9738   70.9214 H   0  0  0  0  0  0  0  0  0  0  0  0
  -46.6067   55.2605   72.0914 H   0  0  0  0  0  0  0  0  0  0  0  0
  1  9  1  0  0  0  0
  1 11  1  0  0  0  0
  1 13  1  0  0  0  0
  1 15  1  0  0  0  0
  2  3  1  0  0  0  0
  2  5  1  0  0  0  0
  2 17  1  0  0  0  0
  2 36  1  6  0  0  0
  3 37  1  0  0  0  0
  4  6  1  0  0  0  0
  4  8  2  1  0  0  0
  4 10  1  0  0  0  0
  4 12  1  0  0  0  0
  5  6  1  0  0  0  0
  5 38  1  0  0  0  0
  5 39  1  0  0  0  0
  7  9  1  0  0  0  0
  7 10  1  0  0  0  0
  7 40  1  0  0  0  0
  7 41  1  0  0  0  0
  9 42  1  0  0  0  0
  9 43  1  0  0  0  0
 11 44  1  0  0  0  0
 11 45  1  0  0  0  0
 11 46  1  0  0  0  0
 12 47  1  0  0  0  0
 13 48  1  0  0  0  0
 13 49  1  0  0  0  0
 13 50  1  0  0  0  0
 14 17  1  0  0  0  0
 14 18  1  0  0  0  0
 15 51  1  0  0  0  0
 15 52  1  0  0  0  0
 15 53  1  0  0  0  0
 16 18  2  0  0  0  0
 17 54  1  0  0  0  0
 17 55  1  0  0  0  0
 18 19  1  0  0  0  0
 19 20  1  0  0  0  0
 19 56  1  0  0  0  0
 19 57  1  0  0  0  0
 20 21  1  0  0  0  0
 20 58  1  0  0  0  0
 20 59  1  0  0  0  0
 21 22  1  0  0  0  0
 21 60  1  0  0  0  0
 21 61  1  0  0  0  0
 22 23  1  0  0  0  0
 22 62  1  0  0  0  0
 22 63  1  0  0  0  0
 23 24  1  0  0  0  0
 23 64  1  0  0  0  0
 23 65  1  0  0  0  0
 24 25  1  0  0  0  0
 24 66  1  0  0  0  0
 24 67  1  0  0  0  0
 25 26  1  0  0  0  0
 25 68  1  0  0  0  0
 25 69  1  0  0  0  0
 26 27  2  0  0  0  0
 26 70  1  0  0  0  0
 27 28  1  0  0  0  0
 27 71  1  0  0  0  0
 28 29  1  0  0  0  0
 28 72  1  0  0  0  0
 28 73  1  0  0  0  0
 29 30  1  0  0  0  0
 29 74  1  0  0  0  0
 29 75  1  0  0  0  0
 30 31  1  0  0  0  0
 30 76  1  0  0  0  0
 30 77  1  0  0  0  0
 31 32  1  0  0  0  0
 31 78  1  0  0  0  0
 31 79  1  0  0  0  0
 32 33  1  0  0  0  0
 32 80  1  0  0  0  0
 32 81  1  0  0  0  0
 33 34  1  0  0  0  0
 33 82  1  0  0  0  0
 33 83  1  0  0  0  0
 34 35  1  0  0  0  0
 34 84  1  0  0  0  0
 34 85  1  0  0  0  0
 35 86  1  0  0  0  0
 35 87  1  0  0  0  0
 35 88  1  0  0  0  0
M  CHG  1   8  -1
M  END
$$$$
/media/chris/experiments/cd1a-new-docking/inputs/ligands/4x6c_ligand.pdb
 OpenBabel07012320263D

 88 87  0  0  1  0  0  0  0  0999 V2000
  -43.3334   60.0720   76.3757 N   0  0  0  0  0  4  0  0  0  0  0  0
  -41.3995   61.0996   69.2180 C   0  0  1  0  0  0  0  0  0  0  0  0
  -40.0457   60.8658   68.8297 O   0  0  0  0  0  0  0  0  0  0  0  0
  -41.3555   59.2824   71.6616 P   0  0  2  0  0  0  0  0  0  0  0  0
  -41.4009   61.6840   70.6098 C   0  0  0  0  0  0  0  0  0  0  0  0
  -40.7607   60.7486   71.5009 O   0  0  0  0  0  0  0  0  0  0  0  0
  -42.1418   59.7521   74.1209 C   0  0  0  0  0  0  0  0  0  0  0  0
  -42.0001   58.9338   70.3795 O   0  5  0  0  0  0  0  0  0  0  0  0
  -43.4209   59.6556   74.9209 C   0  0  0  0  0  0  0  0  0  0  0  0
  -42.4794   59.3237   72.7806 O   0  0  0  0  0  0  0  0  0  0  0  0
  -42.3346   59.2410   77.1151 C   0  0  0  0  0  0  0  0  0  0  0  0
  -40.2626   58.4314   72.1721 O   0  0  0  0  0  0  0  0  0  0  0  0
  -44.6694   59.9037   77.0254 C   0  0  0  0  0  0  0  0  0  0  0  0
  -42.0468   61.1978   66.9322 O   0  0  0  0  0  0  0  0  0  0  0  0
  -42.9195   61.5075   76.4623 C   0  0  0  0  0  0  0  0  0  0  0  0
  -40.1603   62.1553   66.2294 O   0  0  0  0  0  0  0  0  0  0  0  0
  -42.0861   61.9438   68.1691 C   0  0  0  0  0  0  0  0  0  0  0  0
  -40.9154   61.2318   66.2282 C   0  0  0  0  0  0  0  0  0  0  0  0
  -40.7200   59.9800   65.4370 C   0  0  0  0  0  0  0  0  0  0  0  0
  -42.0280   59.3300   65.0270 C   0  0  0  0  0  0  0  0  0  0  0  0
  -42.8960   58.9560   66.2090 C   0  0  0  0  0  0  0  0  0  0  0  0
  -44.2012   58.2902   65.8416 C   0  0  0  0  0  0  0  0  0  0  0  0
  -44.0348   56.9933   65.0915 C   0  0  0  0  0  0  0  0  0  0  0  0
  -43.2816   55.9620   65.8880 C   0  0  0  0  0  0  0  0  0  0  0  0
  -43.9193   55.5574   67.1841 C   0  0  0  0  0  0  0  0  0  0  0  0
  -43.1383   54.5616   67.9320 C   0  0  0  0  0  0  0  0  0  0  0  0
  -42.6294   54.6734   69.1392 C   0  0  0  0  0  0  0  0  0  0  0  0
  -42.7303   55.8257   70.0700 C   0  0  0  0  0  0  0  0  0  0  0  0
  -44.1356   56.2043   70.4908 C   0  0  0  0  0  0  0  0  0  0  0  0
  -44.8455   55.0924   71.2132 C   0  0  0  0  0  0  0  0  0  0  0  0
  -44.1799   54.6451   72.4894 C   0  0  0  0  0  0  0  0  0  0  0  0
  -44.0773   55.7553   73.5120 C   0  0  0  0  0  0  0  0  0  0  0  0
  -43.4057   55.3695   74.8004 C   0  0  0  0  0  0  0  0  0  0  0  0
  -43.3409   56.4754   75.7761 C   0  0  0  0  0  0  0  0  0  0  0  0
  -44.6552   56.9761   76.1738 C   0  0  0  0  0  0  0  0  0  0  0  0
  -41.9695   60.1954   69.2689 H   0  0  0  0  0  0  0  0  0  0  0  0
  -39.5685   61.7097   68.7968 H   0  0  0  0  0  0  0  0  0  0  0  0
  -42.4081   61.8542   70.9284 H   0  0  0  0  0  0  0  0  0  0  0  0
  -40.8739   62.6151   70.6163 H   0  0  0  0  0  0  0  0  0  0  0  0
  -41.3925   59.1125   74.5384 H   0  0  0  0  0  0  0  0  0  0  0  0
  -41.7478   60.7469   74.1280 H   0  0  0  0  0  0  0  0  0  0  0  0
  -44.1504   60.2783   74.4464 H   0  0  0  0  0  0  0  0  0  0  0  0
  -43.6719   58.6156   74.9353 H   0  0  0  0  0  0  0  0  0  0  0  0
  -42.6183   58.2107   77.0615 H   0  0  0  0  0  0  0  0  0  0  0  0
  -42.3024   59.5493   78.1392 H   0  0  0  0  0  0  0  0  0  0  0  0
  -41.3682   59.3683   76.6737 H   0  0  0  0  0  0  0  0  0  0  0  0
  -39.5546   58.3833   71.5108 H   0  0  0  0  0  0  0  0  0  0  0  0
  -44.9685   58.8781   76.9653 H   0  0  0  0  0  0  0  0  0  0  0  0
  -45.3897   60.5153   76.5235 H   0  0  0  0  0  0  0  0  0  0  0  0
  -44.6061   60.1972   78.0525 H   0  0  0  0  0  0  0  0  0  0  0  0
  -41.9635   61.6317   75.9981 H   0  0  0  0  0  0  0  0  0  0  0  0
  -42.8577   61.7996   77.4898 H   0  0  0  0  0  0  0  0  0  0  0  0
  -43.6414   62.1177   75.9609 H   0  0  0  0  0  0  0  0  0  0  0  0
  -41.5719   62.8749   68.0529 H   0  0  0  0  0  0  0  0  0  0  0  0
  -43.0952   62.1584   68.4530 H   0  0  0  0  0  0  0  0  0  0  0  0
  -40.1644   59.2843   66.0305 H   0  0  0  0  0  0  0  0  0  0  0  0
  -40.1985   60.2448   64.5410 H   0  0  0  0  0  0  0  0  0  0  0  0
  -41.8086   58.4429   64.4703 H   0  0  0  0  0  0  0  0  0  0  0  0
  -42.5713   60.0428   64.4426 H   0  0  0  0  0  0  0  0  0  0  0  0
  -43.1183   59.8483   66.7560 H   0  0  0  0  0  0  0  0  0  0  0  0
  -42.3406   58.2423   66.7808 H   0  0  0  0  0  0  0  0  0  0  0  0
  -44.7626   58.9643   65.2288 H   0  0  0  0  0  0  0  0  0  0  0  0
  -44.7001   58.0569   66.7589 H   0  0  0  0  0  0  0  0  0  0  0  0
  -43.4990   57.1866   64.1857 H   0  0  0  0  0  0  0  0  0  0  0  0
  -45.0114   56.6033   64.8938 H   0  0  0  0  0  0  0  0  0  0  0  0
  -42.3118   56.3577   66.1068 H   0  0  0  0  0  0  0  0  0  0  0  0
  -43.2599   55.0802   65.2824 H   0  0  0  0  0  0  0  0  0  0  0  0
  -44.8834   55.1440   66.9734 H   0  0  0  0  0  0  0  0  0  0  0  0
  -43.9804   56.4345   67.7940 H   0  0  0  0  0  0  0  0  0  0  0  0
  -42.9686   53.6647   67.4505 H   0  0  0  0  0  0  0  0  0  0  0  0
  -42.0941   53.8604   69.4818 H   0  0  0  0  0  0  0  0  0  0  0  0
  -42.2895   56.6753   69.5916 H   0  0  0  0  0  0  0  0  0  0  0  0
  -42.2271   55.5247   70.9650 H   0  0  0  0  0  0  0  0  0  0  0  0
  -44.6979   56.4582   69.6166 H   0  0  0  0  0  0  0  0  0  0  0  0
  -44.0588   57.0307   71.1662 H   0  0  0  0  0  0  0  0  0  0  0  0
  -44.9037   54.2510   70.5549 H   0  0  0  0  0  0  0  0  0  0  0  0
  -45.8048   55.4764   71.4911 H   0  0  0  0  0  0  0  0  0  0  0  0
  -43.1938   54.2995   72.2587 H   0  0  0  0  0  0  0  0  0  0  0  0
  -44.7811   53.8683   72.9135 H   0  0  0  0  0  0  0  0  0  0  0  0
  -45.0679   56.0891   73.7405 H   0  0  0  0  0  0  0  0  0  0  0  0
  -43.4657   56.5141   73.0704 H   0  0  0  0  0  0  0  0  0  0  0  0
  -42.4082   55.0501   74.5816 H   0  0  0  0  0  0  0  0  0  0  0  0
  -43.9897   54.5894   75.2422 H   0  0  0  0  0  0  0  0  0  0  0  0
  -42.7889   57.2812   75.3393 H   0  0  0  0  0  0  0  0  0  0  0  0
  -42.8689   56.0925   76.6567 H   0  0  0  0  0  0  0  0  0  0  0  0
  -45.1613   57.3693   75.3169 H   0  0  0  0  0  0  0  0  0  0  0  0
  -44.5364   57.7493   76.9038 H   0  0  0  0  0  0  0  0  0  0  0  0
  -45.2301   56.1762   76.5917 H   0  0  0  0  0  0  0  0  0  0  0  0
  1  9  1  0  0  0  0
  1 11  1  0  0  0  0
  1 13  1  0  0  0  0
  1 15  1  0  0  0  0
  2  3  1  0  0  0  0
  2  5  1  0  0  0  0
  2 17  1  0  0  0  0
  2 36  1  1  0  0  0
  3 37  1  0  0  0  0
  4  6  1  0  0  0  0
  4  8  2  6  0  0  0
  4 10  1  0  0  0  0
  4 12  1  0  0  0  0
  5  6  1  0  0  0  0
  5 38  1  0  0  0  0
  5 39  1  0  0  0  0
  7  9  1  0  0  0  0
  7 10  1  0  0  0  0
  7 40  1  0  0  0  0
  7 41  1  0  0  0  0
  9 42  1  0  0  0  0
  9 43  1  0  0  0  0
 11 44  1  0  0  0  0
 11 45  1  0  0  0  0
 11 46  1  0  0  0  0
 12 47  1  0  0  0  0
 13 48  1  0  0  0  0
 13 49  1  0  0  0  0
 13 50  1  0  0  0  0
 14 17  1  0  0  0  0
 14 18  1  0  0  0  0
 15 51  1  0  0  0  0
 15 52  1  0  0  0  0
 15 53  1  0  0  0  0
 16 18  2  0  0  0  0
 17 54  1  0  0  0  0
 17 55  1  0  0  0  0
 18 19  1  0  0  0  0
 19 20  1  0  0  0  0
 19 56  1  0  0  0  0
 19 57  1  0  0  0  0
 20 21  1  0  0  0  0
 20 58  1  0  0  0  0
 20 59  1  0  0  0  0
 21 22  1  0  0  0  0
 21 60  1  0  0  0  0
 21 61  1  0  0  0  0
 22 23  1  0  0  0  0
 22 62  1  0  0  0  0
 22 63  1  0  0  0  0
 23 24  1  0  0  0  0
 23 64  1  0  0  0  0
 23 65  1  0  0  0  0
 24 25  1  0  0  0  0
 24 66  1  0  0  0  0
 24 67  1  0  0  0  0
 25 26  1  0  0  0  0
 25 68  1  0  0  0  0
 25 69  1  0  0  0  0
 26 27  2  0  0  0  0
 26 70  1  0  0  0  0
 27 28  1  0  0  0  0
 27 71  1  0  0  0  0
 28 29  1  0  0  0  0
 28 72  1  0  0  0  0
 28 73  1  0  0  0  0
 29 30  1  0  0  0  0
 29 74  1  0  0  0  0
 29 75  1  0  0  0  0
 30 31  1  0  0  0  0
 30 76  1  0  0  0  0
 30 77  1  0  0  0  0
 31 32  1  0  0  0  0
 31 78  1  0  0  0  0
 31 79  1  0  0  0  0
 32 33  1  0  0  0  0
 32 80  1  0  0  0  0
 32 81  1  0  0  0  0
 33 34  1  0  0  0  0
 33 82  1  0  0  0  0
 33 83  1  0  0  0  0
 34 35  1  0  0  0  0
 34 84  1  0  0  0  0
 34 85  1  0  0  0  0
 35 86  1  0  0  0  0
 35 87  1  0  0  0  0
 35 88  1  0  0  0  0
M  CHG  1   8  -1
M  END
$$$$
/media/chris/experiments/cd1a-new-docking/inputs/ligands/4x6c_ligand.pdb
 OpenBabel07012320263D

 88 87  0  0  1  0  0  0  0  0999 V2000
  -33.6308   64.4521   65.7936 N   0  0  0  0  0  4  0  0  0  0  0  0
  -37.8117   62.0408   65.7336 C   0  0  1  0  0  0  0  0  0  0  0  0
  -38.6421   62.8951   66.5203 O   0  0  0  0  0  0  0  0  0  0  0  0
  -35.8767   61.3169   67.9713 P   0  0  2  0  0  0  0  0  0  0  0  0
  -37.8296   60.6623   66.3484 C   0  0  0  0  0  0  0  0  0  0  0  0
  -37.3406   60.7569   67.7015 O   0  0  0  0  0  0  0  0  0  0  0  0
  -33.9211   61.9579   66.3430 C   0  0  0  0  0  0  0  0  0  0  0  0
  -35.9982   62.7780   68.1491 O   0  5  0  0  0  0  0  0  0  0  0  0
  -34.5618   63.3162   66.1687 C   0  0  0  0  0  0  0  0  0  0  0  0
  -34.9985   61.0516   66.6769 O   0  0  0  0  0  0  0  0  0  0  0  0
  -32.9557   64.1863   64.4865 C   0  0  0  0  0  0  0  0  0  0  0  0
  -35.3027   60.5048   69.0621 O   0  0  0  0  0  0  0  0  0  0  0  0
  -32.5835   64.6098   66.8489 C   0  0  0  0  0  0  0  0  0  0  0  0
  -39.6306   61.6754   64.2463 O   0  0  0  0  0  0  0  0  0  0  0  0
  -34.4119   65.7234   65.6791 C   0  0  0  0  0  0  0  0  0  0  0  0
  -39.4598   59.5996   63.4520 O   0  0  0  0  0  0  0  0  0  0  0  0
  -38.2508   62.1024   64.2887 C   0  0  0  0  0  0  0  0  0  0  0  0
  -39.8706   60.3644   64.2700 C   0  0  0  0  0  0  0  0  0  0  0  0
  -40.7200   59.9800   65.4370 C   0  0  0  0  0  0  0  0  0  0  0  0
  -42.0280   59.3300   65.0270 C   0  0  0  0  0  0  0  0  0  0  0  0
  -42.8960   58.9560   66.2090 C   0  0  0  0  0  0  0  0  0  0  0  0
  -42.2531   57.9915   67.1776 C   0  0  0  0  0  0  0  0  0  0  0  0
  -41.8564   56.6765   66.5567 C   0  0  0  0  0  0  0  0  0  0  0  0
  -40.8515   56.8447   65.4489 C   0  0  0  0  0  0  0  0  0  0  0  0
  -40.4214   55.5772   64.7715 C   0  0  0  0  0  0  0  0  0  0  0  0
  -39.8060   54.6065   65.6881 C   0  0  0  0  0  0  0  0  0  0  0  0
  -39.3197   53.4191   65.4011 C   0  0  0  0  0  0  0  0  0  0  0  0
  -39.2448   52.7591   64.0733 C   0  0  0  0  0  0  0  0  0  0  0  0
  -38.4246   53.4865   63.0276 C   0  0  0  0  0  0  0  0  0  0  0  0
  -36.9851   53.6533   63.4305 C   0  0  0  0  0  0  0  0  0  0  0  0
  -36.1318   54.3871   62.4279 C   0  0  0  0  0  0  0  0  0  0  0  0
  -36.6182   55.7964   62.1711 C   0  0  0  0  0  0  0  0  0  0  0  0
  -36.6285   56.6926   63.3780 C   0  0  0  0  0  0  0  0  0  0  0  0
  -37.1248   58.0524   63.0883 C   0  0  0  0  0  0  0  0  0  0  0  0
  -36.3387   58.7533   62.0749 C   0  0  0  0  0  0  0  0  0  0  0  0
  -36.7897   62.3576   65.7309 H   0  0  0  0  0  0  0  0  0  0  0  0
  -39.5560   62.5712   66.4941 H   0  0  0  0  0  0  0  0  0  0  0  0
  -37.2009   60.0069   65.7827 H   0  0  0  0  0  0  0  0  0  0  0  0
  -38.8264   60.2733   66.3458 H   0  0  0  0  0  0  0  0  0  0  0  0
  -33.1995   61.9853   67.1325 H   0  0  0  0  0  0  0  0  0  0  0  0
  -33.4081   61.6488   65.4564 H   0  0  0  0  0  0  0  0  0  0  0  0
  -35.3009   63.2323   65.3996 H   0  0  0  0  0  0  0  0  0  0  0  0
  -34.9541   63.5732   67.1305 H   0  0  0  0  0  0  0  0  0  0  0  0
  -32.3927   63.2789   64.5539 H   0  0  0  0  0  0  0  0  0  0  0  0
  -32.2981   64.9976   64.2533 H   0  0  0  0  0  0  0  0  0  0  0  0
  -33.6930   64.0923   63.7169 H   0  0  0  0  0  0  0  0  0  0  0  0
  -35.8169   60.6427   69.8729 H   0  0  0  0  0  0  0  0  0  0  0  0
  -32.0230   63.7023   66.9335 H   0  0  0  0  0  0  0  0  0  0  0  0
  -33.0515   64.8286   67.7859 H   0  0  0  0  0  0  0  0  0  0  0  0
  -31.9266   65.4113   66.5825 H   0  0  0  0  0  0  0  0  0  0  0  0
  -35.1625   65.6140   64.9244 H   0  0  0  0  0  0  0  0  0  0  0  0
  -33.7533   66.5239   65.4137 H   0  0  0  0  0  0  0  0  0  0  0  0
  -34.8782   65.9412   66.6171 H   0  0  0  0  0  0  0  0  0  0  0  0
  -37.6462   61.4507   63.6931 H   0  0  0  0  0  0  0  0  0  0  0  0
  -38.1465   63.0941   63.9005 H   0  0  0  0  0  0  0  0  0  0  0  0
  -40.9394   60.8604   66.0042 H   0  0  0  0  0  0  0  0  0  0  0  0
  -40.1713   59.2627   66.0109 H   0  0  0  0  0  0  0  0  0  0  0  0
  -41.8086   58.4429   64.4703 H   0  0  0  0  0  0  0  0  0  0  0  0
  -42.5713   60.0428   64.4426 H   0  0  0  0  0  0  0  0  0  0  0  0
  -43.7930   58.5073   65.8363 H   0  0  0  0  0  0  0  0  0  0  0  0
  -43.0753   59.8597   66.7531 H   0  0  0  0  0  0  0  0  0  0  0  0
  -42.9469   57.7952   67.9682 H   0  0  0  0  0  0  0  0  0  0  0  0
  -41.3537   58.4544   67.5263 H   0  0  0  0  0  0  0  0  0  0  0  0
  -42.7314   56.2067   66.1584 H   0  0  0  0  0  0  0  0  0  0  0  0
  -41.4034   56.0788   67.3199 H   0  0  0  0  0  0  0  0  0  0  0  0
  -39.9808   57.3104   65.8611 H   0  0  0  0  0  0  0  0  0  0  0  0
  -41.3374   57.4304   64.6968 H   0  0  0  0  0  0  0  0  0  0  0  0
  -39.7105   55.8234   64.0107 H   0  0  0  0  0  0  0  0  0  0  0  0
  -41.3009   55.1192   64.3696 H   0  0  0  0  0  0  0  0  0  0  0  0
  -39.7487   54.8920   66.6781 H   0  0  0  0  0  0  0  0  0  0  0  0
  -38.9439   52.8797   66.1966 H   0  0  0  0  0  0  0  0  0  0  0  0
  -40.2420   52.6586   63.6986 H   0  0  0  0  0  0  0  0  0  0  0  0
  -38.7490   51.8252   64.2375 H   0  0  0  0  0  0  0  0  0  0  0  0
  -38.8507   54.4555   62.8718 H   0  0  0  0  0  0  0  0  0  0  0  0
  -38.4437   52.8970   62.1349 H   0  0  0  0  0  0  0  0  0  0  0  0
  -36.5650   52.6802   63.5770 H   0  0  0  0  0  0  0  0  0  0  0  0
  -36.9870   54.2489   64.3194 H   0  0  0  0  0  0  0  0  0  0  0  0
  -36.1458   53.8462   61.5048 H   0  0  0  0  0  0  0  0  0  0  0  0
  -35.1430   54.4539   62.8311 H   0  0  0  0  0  0  0  0  0  0  0  0
  -37.6168   55.7393   61.7911 H   0  0  0  0  0  0  0  0  0  0  0  0
  -35.9262   56.2313   61.4805 H   0  0  0  0  0  0  0  0  0  0  0  0
  -35.6297   56.7681   63.7541 H   0  0  0  0  0  0  0  0  0  0  0  0
  -37.2951   56.2563   64.0924 H   0  0  0  0  0  0  0  0  0  0  0  0
  -37.0982   58.6231   63.9929 H   0  0  0  0  0  0  0  0  0  0  0  0
  -38.1180   57.9509   62.7033 H   0  0  0  0  0  0  0  0  0  0  0  0
  -35.3345   58.8749   62.4237 H   0  0  0  0  0  0  0  0  0  0  0  0
  -36.7709   59.7145   61.8900 H   0  0  0  0  0  0  0  0  0  0  0  0
  -36.3351   58.1836   61.1692 H   0  0  0  0  0  0  0  0  0  0  0  0
  1  9  1  0  0  0  0
  1 11  1  0  0  0  0
  1 13  1  0  0  0  0
  1 15  1  0  0  0  0
  2  3  1  0  0  0  0
  2  5  1  0  0  0  0
  2 17  1  0  0  0  0
  2 36  1  1  0  0  0
  3 37  1  0  0  0  0
  4  6  1  0  0  0  0
  4  8  2  1  0  0  0
  4 10  1  0  0  0  0
  4 12  1  0  0  0  0
  5  6  1  0  0  0  0
  5 38  1  0  0  0  0
  5 39  1  0  0  0  0
  7  9  1  0  0  0  0
  7 10  1  0  0  0  0
  7 40  1  0  0  0  0
  7 41  1  0  0  0  0
  9 42  1  0  0  0  0
  9 43  1  0  0  0  0
 11 44  1  0  0  0  0
 11 45  1  0  0  0  0
 11 46  1  0  0  0  0
 12 47  1  0  0  0  0
 13 48  1  0  0  0  0
 13 49  1  0  0  0  0
 13 50  1  0  0  0  0
 14 17  1  0  0  0  0
 14 18  1  0  0  0  0
 15 51  1  0  0  0  0
 15 52  1  0  0  0  0
 15 53  1  0  0  0  0
 16 18  2  0  0  0  0
 17 54  1  0  0  0  0
 17 55  1  0  0  0  0
 18 19  1  0  0  0  0
 19 20  1  0  0  0  0
 19 56  1  0  0  0  0
 19 57  1  0  0  0  0
 20 21  1  0  0  0  0
 20 58  1  0  0  0  0
 20 59  1  0  0  0  0
 21 22  1  0  0  0  0
 21 60  1  0  0  0  0
 21 61  1  0  0  0  0
 22 23  1  0  0  0  0
 22 62  1  0  0  0  0
 22 63  1  0  0  0  0
 23 24  1  0  0  0  0
 23 64  1  0  0  0  0
 23 65  1  0  0  0  0
 24 25  1  0  0  0  0
 24 66  1  0  0  0  0
 24 67  1  0  0  0  0
 25 26  1  0  0  0  0
 25 68  1  0  0  0  0
 25 69  1  0  0  0  0
 26 27  2  0  0  0  0
 26 70  1  0  0  0  0
 27 28  1  0  0  0  0
 27 71  1  0  0  0  0
 28 29  1  0  0  0  0
 28 72  1  0  0  0  0
 28 73  1  0  0  0  0
 29 30  1  0  0  0  0
 29 74  1  0  0  0  0
 29 75  1  0  0  0  0
 30 31  1  0  0  0  0
 30 76  1  0  0  0  0
 30 77  1  0  0  0  0
 31 32  1  0  0  0  0
 31 78  1  0  0  0  0
 31 79  1  0  0  0  0
 32 33  1  0  0  0  0
 32 80  1  0  0  0  0
 32 81  1  0  0  0  0
 33 34  1  0  0  0  0
 33 82  1  0  0  0  0
 33 83  1  0  0  0  0
 34 35  1  0  0  0  0
 34 84  1  0  0  0  0
 34 85  1  0  0  0  0
 35 86  1  0  0  0  0
 35 87  1  0  0  0  0
 35 88  1  0  0  0  0
M  CHG  1   8  -1
M  END
$$$$
/media/chris/experiments/cd1a-new-docking/inputs/ligands/4x6c_ligand.pdb
 OpenBabel07012320263D

 88 87  0  0  1  0  0  0  0  0999 V2000
  -33.3869   60.4835   55.6321 N   0  0  0  0  0  4  0  0  0  0  0  0
  -38.0113   62.0196   62.5395 C   0  0  1  0  0  0  0  0  0  0  0  0
  -37.8085   60.6098   62.4409 O   0  0  0  0  0  0  0  0  0  0  0  0
  -35.4839   62.9014   59.6959 P   0  0  2  0  0  0  0  0  0  0  0  0
  -37.5924   62.6528   61.2349 C   0  0  0  0  0  0  0  0  0  0  0  0
  -36.2036   62.3446   61.0003 O   0  0  0  0  0  0  0  0  0  0  0  0
  -34.3611   61.8894   57.5508 C   0  0  0  0  0  0  0  0  0  0  0  0
  -36.4893   63.6816   58.9465 O   0  5  0  0  0  0  0  0  0  0  0  0
  -34.1243   60.5198   56.9560 C   0  0  0  0  0  0  0  0  0  0  0  0
  -35.0555   61.6641   58.8001 O   0  0  0  0  0  0  0  0  0  0  0  0
  -34.1231   61.2541   54.5837 C   0  0  0  0  0  0  0  0  0  0  0  0
  -34.2442   63.5666   60.1428 O   0  0  0  0  0  0  0  0  0  0  0  0
  -33.2489   59.0666   55.1751 C   0  0  0  0  0  0  0  0  0  0  0  0
  -39.6306   61.6754   64.2463 O   0  0  0  0  0  0  0  0  0  0  0  0
  -32.0261   61.0831   55.7997 C   0  0  0  0  0  0  0  0  0  0  0  0
  -39.4598   59.5996   63.4520 O   0  0  0  0  0  0  0  0  0  0  0  0
  -39.4378   62.2956   62.9555 C   0  0  0  0  0  0  0  0  0  0  0  0
  -39.8706   60.3644   64.2700 C   0  0  0  0  0  0  0  0  0  0  0  0
  -40.7200   59.9800   65.4370 C   0  0  0  0  0  0  0  0  0  0  0  0
  -42.0280   59.3300   65.0270 C   0  0  0  0  0  0  0  0  0  0  0  0
  -42.8960   58.9560   66.2090 C   0  0  0  0  0  0  0  0  0  0  0  0
  -42.2531   57.9915   67.1776 C   0  0  0  0  0  0  0  0  0  0  0  0
  -40.9882   58.5136   67.8098 C   0  0  0  0  0  0  0  0  0  0  0  0
  -40.3667   57.5208   68.7550 C   0  0  0  0  0  0  0  0  0  0  0  0
  -39.1108   57.9787   69.4356 C   0  0  0  0  0  0  0  0  0  0  0  0
  -38.0329   58.3250   68.4980 C   0  0  0  0  0  0  0  0  0  0  0  0
  -36.8186   58.7427   68.7803 C   0  0  0  0  0  0  0  0  0  0  0  0
  -36.2125   58.9515   70.1195 C   0  0  0  0  0  0  0  0  0  0  0  0
  -36.1288   57.7199   70.9978 C   0  0  0  0  0  0  0  0  0  0  0  0
  -35.2933   56.6275   70.3889 C   0  0  0  0  0  0  0  0  0  0  0  0
  -35.1940   55.3737   71.2196 C   0  0  0  0  0  0  0  0  0  0  0  0
  -36.5408   54.7288   71.4625 C   0  0  0  0  0  0  0  0  0  0  0  0
  -37.2688   54.2959   70.2205 C   0  0  0  0  0  0  0  0  0  0  0  0
  -38.5843   53.6872   70.5001 C   0  0  0  0  0  0  0  0  0  0  0  0
  -38.5061   52.5026   71.3526 C   0  0  0  0  0  0  0  0  0  0  0  0
  -37.4050   62.4650   63.3004 H   0  0  0  0  0  0  0  0  0  0  0  0
  -38.3760   60.2497   61.7415 H   0  0  0  0  0  0  0  0  0  0  0  0
  -37.7220   63.7134   61.2908 H   0  0  0  0  0  0  0  0  0  0  0  0
  -38.1920   62.2726   60.4344 H   0  0  0  0  0  0  0  0  0  0  0  0
  -34.9615   62.4822   56.8928 H   0  0  0  0  0  0  0  0  0  0  0  0
  -33.4423   62.4167   57.7014 H   0  0  0  0  0  0  0  0  0  0  0  0
  -33.5559   59.9511   57.6620 H   0  0  0  0  0  0  0  0  0  0  0  0
  -35.0973   60.1238   56.7527 H   0  0  0  0  0  0  0  0  0  0  0  0
  -35.0992   60.8358   54.4532 H   0  0  0  0  0  0  0  0  0  0  0  0
  -33.5862   61.2018   53.6597 H   0  0  0  0  0  0  0  0  0  0  0  0
  -34.2108   62.2761   54.8880 H   0  0  0  0  0  0  0  0  0  0  0  0
  -34.4688   64.3314   60.6956 H   0  0  0  0  0  0  0  0  0  0  0  0
  -34.2204   58.6347   55.0542 H   0  0  0  0  0  0  0  0  0  0  0  0
  -32.6987   58.5088   55.9038 H   0  0  0  0  0  0  0  0  0  0  0  0
  -32.7290   59.0424   54.2402 H   0  0  0  0  0  0  0  0  0  0  0  0
  -32.1211   62.0974   56.1268 H   0  0  0  0  0  0  0  0  0  0  0  0
  -31.5072   61.0571   54.8642 H   0  0  0  0  0  0  0  0  0  0  0  0
  -31.4769   60.5234   56.5278 H   0  0  0  0  0  0  0  0  0  0  0  0
  -40.1161   61.8766   62.2418 H   0  0  0  0  0  0  0  0  0  0  0  0
  -39.6231   63.3482   63.0068 H   0  0  0  0  0  0  0  0  0  0  0  0
  -40.9394   60.8604   66.0042 H   0  0  0  0  0  0  0  0  0  0  0  0
  -40.1713   59.2627   66.0109 H   0  0  0  0  0  0  0  0  0  0  0  0
  -41.8086   58.4429   64.4703 H   0  0  0  0  0  0  0  0  0  0  0  0
  -42.5713   60.0428   64.4426 H   0  0  0  0  0  0  0  0  0  0  0  0
  -43.7930   58.5073   65.8363 H   0  0  0  0  0  0  0  0  0  0  0  0
  -43.0753   59.8597   66.7531 H   0  0  0  0  0  0  0  0  0  0  0  0
  -42.0192   57.0902   66.6505 H   0  0  0  0  0  0  0  0  0  0  0  0
  -42.9543   57.8333   67.9702 H   0  0  0  0  0  0  0  0  0  0  0  0
  -41.2185   59.4067   68.3522 H   0  0  0  0  0  0  0  0  0  0  0  0
  -40.2851   58.7014   67.0255 H   0  0  0  0  0  0  0  0  0  0  0  0
  -40.1372   56.6355   68.1997 H   0  0  0  0  0  0  0  0  0  0  0  0
  -41.0842   57.3664   69.5337 H   0  0  0  0  0  0  0  0  0  0  0  0
  -38.7653   57.1930   70.0747 H   0  0  0  0  0  0  0  0  0  0  0  0
  -39.3526   58.8665   69.9816 H   0  0  0  0  0  0  0  0  0  0  0  0
  -38.2567   58.2285   67.4952 H   0  0  0  0  0  0  0  0  0  0  0  0
  -36.2122   58.9510   67.9716 H   0  0  0  0  0  0  0  0  0  0  0  0
  -36.7971   59.6846   70.6350 H   0  0  0  0  0  0  0  0  0  0  0  0
  -35.2017   59.2532   69.9403 H   0  0  0  0  0  0  0  0  0  0  0  0
  -37.1183   57.3453   71.1571 H   0  0  0  0  0  0  0  0  0  0  0  0
  -35.6622   58.0094   71.9161 H   0  0  0  0  0  0  0  0  0  0  0  0
  -34.3043   57.0079   70.2400 H   0  0  0  0  0  0  0  0  0  0  0  0
  -35.7785   56.3483   69.4770 H   0  0  0  0  0  0  0  0  0  0  0  0
  -34.7577   55.6223   72.1645 H   0  0  0  0  0  0  0  0  0  0  0  0
  -34.5921   54.6735   70.6791 H   0  0  0  0  0  0  0  0  0  0  0  0
  -37.1577   55.4327   71.9809 H   0  0  0  0  0  0  0  0  0  0  0  0
  -36.3500   53.8382   72.0240 H   0  0  0  0  0  0  0  0  0  0  0  0
  -36.6649   53.5787   69.7048 H   0  0  0  0  0  0  0  0  0  0  0  0
  -37.4426   55.1724   69.6319 H   0  0  0  0  0  0  0  0  0  0  0  0
  -39.0328   53.4067   69.5700 H   0  0  0  0  0  0  0  0  0  0  0  0
  -39.1648   54.4166   71.0252 H   0  0  0  0  0  0  0  0  0  0  0  0
  -37.9308   51.7464   70.8606 H   0  0  0  0  0  0  0  0  0  0  0  0
  -39.4925   52.1337   71.5420 H   0  0  0  0  0  0  0  0  0  0  0  0
  -38.0377   52.7605   72.2795 H   0  0  0  0  0  0  0  0  0  0  0  0
  1  9  1  0  0  0  0
  1 11  1  0  0  0  0
  1 13  1  0  0  0  0
  1 15  1  0  0  0  0
  2  3  1  0  0  0  0
  2  5  1  0  0  0  0
  2 17  1  0  0  0  0
  2 36  1  1  0  0  0
  3 37  1  0  0  0  0
  4  6  1  0  0  0  0
  4  8  2  6  0  0  0
  4 10  1  0  0  0  0
  4 12  1  0  0  0  0
  5  6  1  0  0  0  0
  5 38  1  0  0  0  0
  5 39  1  0  0  0  0
  7  9  1  0  0  0  0
  7 10  1  0  0  0  0
  7 40  1  0  0  0  0
  7 41  1  0  0  0  0
  9 42  1  0  0  0  0
  9 43  1  0  0  0  0
 11 44  1  0  0  0  0
 11 45  1  0  0  0  0
 11 46  1  0  0  0  0
 12 47  1  0  0  0  0
 13 48  1  0  0  0  0
 13 49  1  0  0  0  0
 13 50  1  0  0  0  0
 14 17  1  0  0  0  0
 14 18  1  0  0  0  0
 15 51  1  0  0  0  0
 15 52  1  0  0  0  0
 15 53  1  0  0  0  0
 16 18  2  0  0  0  0
 17 54  1  0  0  0  0
 17 55  1  0  0  0  0
 18 19  1  0  0  0  0
 19 20  1  0  0  0  0
 19 56  1  0  0  0  0
 19 57  1  0  0  0  0
 20 21  1  0  0  0  0
 20 58  1  0  0  0  0
 20 59  1  0  0  0  0
 21 22  1  0  0  0  0
 21 60  1  0  0  0  0
 21 61  1  0  0  0  0
 22 23  1  0  0  0  0
 22 62  1  0  0  0  0
 22 63  1  0  0  0  0
 23 24  1  0  0  0  0
 23 64  1  0  0  0  0
 23 65  1  0  0  0  0
 24 25  1  0  0  0  0
 24 66  1  0  0  0  0
 24 67  1  0  0  0  0
 25 26  1  0  0  0  0
 25 68  1  0  0  0  0
 25 69  1  0  0  0  0
 26 27  2  0  0  0  0
 26 70  1  0  0  0  0
 27 28  1  0  0  0  0
 27 71  1  0  0  0  0
 28 29  1  0  0  0  0
 28 72  1  0  0  0  0
 28 73  1  0  0  0  0
 29 30  1  0  0  0  0
 29 74  1  0  0  0  0
 29 75  1  0  0  0  0
 30 31  1  0  0  0  0
 30 76  1  0  0  0  0
 30 77  1  0  0  0  0
 31 32  1  0  0  0  0
 31 78  1  0  0  0  0
 31 79  1  0  0  0  0
 32 33  1  0  0  0  0
 32 80  1  0  0  0  0
 32 81  1  0  0  0  0
 33 34  1  0  0  0  0
 33 82  1  0  0  0  0
 33 83  1  0  0  0  0
 34 35  1  0  0  0  0
 34 84  1  0  0  0  0
 34 85  1  0  0  0  0
 35 86  1  0  0  0  0
 35 87  1  0  0  0  0
 35 88  1  0  0  0  0
M  CHG  1   8  -1
M  END
$$$$
/media/chris/experiments/cd1a-new-docking/inputs/ligands/4x6c_ligand.pdb
 OpenBabel07012320263D

 88 87  0  0  1  0  0  0  0  0999 V2000
  -36.6590   59.9143   70.9141 N   0  0  0  0  0  4  0  0  0  0  0  0
  -39.5490   57.5828   68.6732 C   0  0  1  0  0  0  0  0  0  0  0  0
  -40.8249   57.8626   69.2493 O   0  0  0  0  0  0  0  0  0  0  0  0
  -36.4083   55.6108   69.8976 P   0  0  2  0  0  0  0  0  0  0  0  0
  -38.7549   56.7556   69.6549 C   0  0  0  0  0  0  0  0  0  0  0  0
  -37.4590   56.4847   69.0840 O   0  0  0  0  0  0  0  0  0  0  0  0
  -35.3295   57.7175   71.0311 C   0  0  0  0  0  0  0  0  0  0  0  0
  -37.0518   55.2369   71.1732 O   0  5  0  0  0  0  0  0  0  0  0  0
  -36.3170   58.5809   70.2794 C   0  0  0  0  0  0  0  0  0  0  0  0
  -35.1552   56.5254   70.2297 O   0  0  0  0  0  0  0  0  0  0  0  0
  -37.2453   59.7280   72.2766 C   0  0  0  0  0  0  0  0  0  0  0  0
  -35.9424   54.5460   68.9876 O   0  0  0  0  0  0  0  0  0  0  0  0
  -37.6532   60.6342   70.0605 C   0  0  0  0  0  0  0  0  0  0  0  0
  -40.4503   57.9108   66.4975 O   0  0  0  0  0  0  0  0  0  0  0  0
  -35.4197   60.7441   71.0357 C   0  0  0  0  0  0  0  0  0  0  0  0
  -38.8039   59.3963   66.7259 O   0  0  0  0  0  0  0  0  0  0  0  0
  -39.7376   56.9534   67.3121 C   0  0  0  0  0  0  0  0  0  0  0  0
  -39.8694   59.0915   66.2844 C   0  0  0  0  0  0  0  0  0  0  0  0
  -40.7200   59.9800   65.4370 C   0  0  0  0  0  0  0  0  0  0  0  0
  -42.0280   59.3300   65.0270 C   0  0  0  0  0  0  0  0  0  0  0  0
  -42.8960   58.9560   66.2090 C   0  0  0  0  0  0  0  0  0  0  0  0
  -44.2012   58.2902   65.8416 C   0  0  0  0  0  0  0  0  0  0  0  0
  -44.0348   56.9933   65.0915 C   0  0  0  0  0  0  0  0  0  0  0  0
  -43.2785   57.1689   63.8021 C   0  0  0  0  0  0  0  0  0  0  0  0
  -43.0884   55.9208   62.9919 C   0  0  0  0  0  0  0  0  0  0  0  0
  -44.3532   55.3016   62.5699 C   0  0  0  0  0  0  0  0  0  0  0  0
  -45.0328   55.5221   61.4662 C   0  0  0  0  0  0  0  0  0  0  0  0
  -44.6886   56.4367   60.3485 C   0  0  0  0  0  0  0  0  0  0  0  0
  -43.8662   55.8244   59.2331 C   0  0  0  0  0  0  0  0  0  0  0  0
  -43.5396   56.8089   58.1439 C   0  0  0  0  0  0  0  0  0  0  0  0
  -42.7358   56.2409   57.0024 C   0  0  0  0  0  0  0  0  0  0  0  0
  -41.4056   55.6775   57.4514 C   0  0  0  0  0  0  0  0  0  0  0  0
  -40.5532   55.1117   56.3500 C   0  0  0  0  0  0  0  0  0  0  0  0
  -39.2725   54.5580   56.8321 C   0  0  0  0  0  0  0  0  0  0  0  0
  -38.4332   54.0213   55.7626 C   0  0  0  0  0  0  0  0  0  0  0  0
  -38.9795   58.4712   68.4960 H   0  0  0  0  0  0  0  0  0  0  0  0
  -41.3045   57.0316   69.3920 H   0  0  0  0  0  0  0  0  0  0  0  0
  -39.2648   55.8344   69.8457 H   0  0  0  0  0  0  0  0  0  0  0  0
  -38.6448   57.2875   70.5768 H   0  0  0  0  0  0  0  0  0  0  0  0
  -35.7159   57.4640   71.9962 H   0  0  0  0  0  0  0  0  0  0  0  0
  -34.4010   58.2261   71.1861 H   0  0  0  0  0  0  0  0  0  0  0  0
  -35.9082   58.7760   69.3100 H   0  0  0  0  0  0  0  0  0  0  0  0
  -37.2319   58.0261   70.2681 H   0  0  0  0  0  0  0  0  0  0  0  0
  -38.1334   59.1356   72.2048 H   0  0  0  0  0  0  0  0  0  0  0  0
  -37.4864   60.6830   72.6947 H   0  0  0  0  0  0  0  0  0  0  0  0
  -36.5356   59.2323   72.9056 H   0  0  0  0  0  0  0  0  0  0  0  0
  -36.6858   53.9650   68.7623 H   0  0  0  0  0  0  0  0  0  0  0  0
  -38.5408   60.0435   69.9714 H   0  0  0  0  0  0  0  0  0  0  0  0
  -37.2358   60.7996   69.0893 H   0  0  0  0  0  0  0  0  0  0  0  0
  -37.8943   61.5748   70.5100 H   0  0  0  0  0  0  0  0  0  0  0  0
  -34.7057   60.2317   71.6462 H   0  0  0  0  0  0  0  0  0  0  0  0
  -35.6628   61.6846   71.4843 H   0  0  0  0  0  0  0  0  0  0  0  0
  -35.0043   60.9095   70.0636 H   0  0  0  0  0  0  0  0  0  0  0  0
  -40.3060   56.0512   67.4003 H   0  0  0  0  0  0  0  0  0  0  0  0
  -38.7940   56.7062   66.8723 H   0  0  0  0  0  0  0  0  0  0  0  0
  -40.1733   60.2341   64.5530 H   0  0  0  0  0  0  0  0  0  0  0  0
  -40.9602   60.8449   66.0193 H   0  0  0  0  0  0  0  0  0  0  0  0
  -41.8086   58.4429   64.4703 H   0  0  0  0  0  0  0  0  0  0  0  0
  -42.5713   60.0428   64.4426 H   0  0  0  0  0  0  0  0  0  0  0  0
  -43.1183   59.8483   66.7560 H   0  0  0  0  0  0  0  0  0  0  0  0
  -42.3406   58.2423   66.7808 H   0  0  0  0  0  0  0  0  0  0  0  0
  -44.7626   58.9643   65.2288 H   0  0  0  0  0  0  0  0  0  0  0  0
  -44.7001   58.0569   66.7589 H   0  0  0  0  0  0  0  0  0  0  0  0
  -45.0040   56.5976   64.8702 H   0  0  0  0  0  0  0  0  0  0  0  0
  -43.4718   56.3277   65.7118 H   0  0  0  0  0  0  0  0  0  0  0  0
  -42.3108   57.5600   64.0377 H   0  0  0  0  0  0  0  0  0  0  0  0
  -43.8722   57.8238   63.1992 H   0  0  0  0  0  0  0  0  0  0  0  0
  -42.5442   55.2130   63.5816 H   0  0  0  0  0  0  0  0  0  0  0  0
  -42.5599   56.1977   62.1037 H   0  0  0  0  0  0  0  0  0  0  0  0
  -44.7570   54.6089   63.2196 H   0  0  0  0  0  0  0  0  0  0  0  0
  -45.9139   54.9945   61.3643 H   0  0  0  0  0  0  0  0  0  0  0  0
  -44.1348   57.2579   60.7535 H   0  0  0  0  0  0  0  0  0  0  0  0
  -45.6197   56.7209   59.9046 H   0  0  0  0  0  0  0  0  0  0  0  0
  -44.4184   55.0131   58.8067 H   0  0  0  0  0  0  0  0  0  0  0  0
  -42.9413   55.4942   59.6578 H   0  0  0  0  0  0  0  0  0  0  0  0
  -42.9816   57.6124   58.5773 H   0  0  0  0  0  0  0  0  0  0  0  0
  -44.4749   57.1219   57.7289 H   0  0  0  0  0  0  0  0  0  0  0  0
  -42.5557   57.0186   56.2898 H   0  0  0  0  0  0  0  0  0  0  0  0
  -43.3005   55.4382   56.5761 H   0  0  0  0  0  0  0  0  0  0  0  0
  -41.5967   54.8971   58.1580 H   0  0  0  0  0  0  0  0  0  0  0  0
  -40.8564   56.4979   57.8643 H   0  0  0  0  0  0  0  0  0  0  0  0
  -40.3438   55.8911   55.6475 H   0  0  0  0  0  0  0  0  0  0  0  0
  -41.1006   54.3067   55.9059 H   0  0  0  0  0  0  0  0  0  0  0  0
  -39.4829   53.7707   57.5256 H   0  0  0  0  0  0  0  0  0  0  0  0
  -38.7312   55.3620   57.2853 H   0  0  0  0  0  0  0  0  0  0  0  0
  -38.9416   53.2114   55.2826 H   0  0  0  0  0  0  0  0  0  0  0  0
  -37.5111   53.6690   56.1756 H   0  0  0  0  0  0  0  0  0  0  0  0
  -38.2324   54.7908   55.0467 H   0  0  0  0  0  0  0  0  0  0  0  0
  1  9  1  0  0  0  0
  1 11  1  0  0  0  0
  1 13  1  0  0  0  0
  1 15  1  0  0  0  0
  2  3  1  0  0  0  0
  2  5  1  0  0  0  0
  2 17  1  0  0  0  0
  2 36  1  6  0  0  0
  3 37  1  0  0  0  0
  4  6  1  0  0  0  0
  4  8  2  1  0  0  0
  4 10  1  0  0  0  0
  4 12  1  0  0  0  0
  5  6  1  0  0  0  0
  5 38  1  0  0  0  0
  5 39  1  0  0  0  0
  7  9  1  0  0  0  0
  7 10  1  0  0  0  0
  7 40  1  0  0  0  0
  7 41  1  0  0  0  0
  9 42  1  0  0  0  0
  9 43  1  0  0  0  0
 11 44  1  0  0  0  0
 11 45  1  0  0  0  0
 11 46  1  0  0  0  0
 12 47  1  0  0  0  0
 13 48  1  0  0  0  0
 13 49  1  0  0  0  0
 13 50  1  0  0  0  0
 14 17  1  0  0  0  0
 14 18  1  0  0  0  0
 15 51  1  0  0  0  0
 15 52  1  0  0  0  0
 15 53  1  0  0  0  0
 16 18  2  0  0  0  0
 17 54  1  0  0  0  0
 17 55  1  0  0  0  0
 18 19  1  0  0  0  0
 19 20  1  0  0  0  0
 19 56  1  0  0  0  0
 19 57  1  0  0  0  0
 20 21  1  0  0  0  0
 20 58  1  0  0  0  0
 20 59  1  0  0  0  0
 21 22  1  0  0  0  0
 21 60  1  0  0  0  0
 21 61  1  0  0  0  0
 22 23  1  0  0  0  0
 22 62  1  0  0  0  0
 22 63  1  0  0  0  0
 23 24  1  0  0  0  0
 23 64  1  0  0  0  0
 23 65  1  0  0  0  0
 24 25  1  0  0  0  0
 24 66  1  0  0  0  0
 24 67  1  0  0  0  0
 25 26  1  0  0  0  0
 25 68  1  0  0  0  0
 25 69  1  0  0  0  0
 26 27  2  0  0  0  0
 26 70  1  0  0  0  0
 27 28  1  0  0  0  0
 27 71  1  0  0  0  0
 28 29  1  0  0  0  0
 28 72  1  0  0  0  0
 28 73  1  0  0  0  0
 29 30  1  0  0  0  0
 29 74  1  0  0  0  0
 29 75  1  0  0  0  0
 30 31  1  0  0  0  0
 30 76  1  0  0  0  0
 30 77  1  0  0  0  0
 31 32  1  0  0  0  0
 31 78  1  0  0  0  0
 31 79  1  0  0  0  0
 32 33  1  0  0  0  0
 32 80  1  0  0  0  0
 32 81  1  0  0  0  0
 33 34  1  0  0  0  0
 33 82  1  0  0  0  0
 33 83  1  0  0  0  0
 34 35  1  0  0  0  0
 34 84  1  0  0  0  0
 34 85  1  0  0  0  0
 35 86  1  0  0  0  0
 35 87  1  0  0  0  0
 35 88  1  0  0  0  0
M  CHG  1   8  -1
M  END
$$$$
/media/chris/experiments/cd1a-new-docking/inputs/ligands/4x6c_ligand.pdb
 OpenBabel07012320263D

 88 87  0  0  1  0  0  0  0  0999 V2000
  -32.0025   59.7601   61.9443 N   0  0  0  0  0  4  0  0  0  0  0  0
  -37.5690   62.1759   63.4873 C   0  0  1  0  0  0  0  0  0  0  0  0
  -37.1127   62.6662   64.7481 O   0  0  0  0  0  0  0  0  0  0  0  0
  -34.6118   62.6825   64.0099 P   0  0  2  0  0  0  0  0  0  0  0  0
  -36.6852   62.7488   62.4060 C   0  0  0  0  0  0  0  0  0  0  0  0
  -35.3313   62.3122   62.6408 O   0  0  0  0  0  0  0  0  0  0  0  0
  -32.4346   62.2004   62.6263 C   0  0  0  0  0  0  0  0  0  0  0  0
  -35.1859   63.9638   64.4678 O   0  5  0  0  0  0  0  0  0  0  0  0
  -32.6064   60.7313   62.9391 C   0  0  0  0  0  0  0  0  0  0  0  0
  -33.0706   62.9139   63.7127 O   0  0  0  0  0  0  0  0  0  0  0  0
  -30.5235   59.9493   61.8361 C   0  0  0  0  0  0  0  0  0  0  0  0
  -34.7147   61.4957   64.8815 O   0  0  0  0  0  0  0  0  0  0  0  0
  -32.6121   59.9805   60.5970 C   0  0  0  0  0  0  0  0  0  0  0  0
  -38.5722   60.3099   64.5669 O   0  0  0  0  0  0  0  0  0  0  0  0
  -32.2745   58.3563   62.3857 C   0  0  0  0  0  0  0  0  0  0  0  0
  -40.2945   60.6885   63.2031 O   0  0  0  0  0  0  0  0  0  0  0  0
  -37.6341   60.6664   63.5272 C   0  0  0  0  0  0  0  0  0  0  0  0
  -39.8706   60.3644   64.2700 C   0  0  0  0  0  0  0  0  0  0  0  0
  -40.7200   59.9800   65.4370 C   0  0  0  0  0  0  0  0  0  0  0  0
  -42.0280   59.3300   65.0270 C   0  0  0  0  0  0  0  0  0  0  0  0
  -42.8960   58.9560   66.2090 C   0  0  0  0  0  0  0  0  0  0  0  0
  -42.2531   57.9915   67.1776 C   0  0  0  0  0  0  0  0  0  0  0  0
  -40.9882   58.5136   67.8098 C   0  0  0  0  0  0  0  0  0  0  0  0
  -41.2206   59.7695   68.6062 C   0  0  0  0  0  0  0  0  0  0  0  0
  -40.0010   60.3572   69.2522 C   0  0  0  0  0  0  0  0  0  0  0  0
  -38.9610   60.7458   68.2886 C   0  0  0  0  0  0  0  0  0  0  0  0
  -39.0481   61.6258   67.3156 C   0  0  0  0  0  0  0  0  0  0  0  0
  -40.2120   62.4725   66.9511 C   0  0  0  0  0  0  0  0  0  0  0  0
  -39.9762   63.9679   67.0113 C   0  0  0  0  0  0  0  0  0  0  0  0
  -38.8903   64.4233   66.0756 C   0  0  0  0  0  0  0  0  0  0  0  0
  -38.6076   65.9033   66.1121 C   0  0  0  0  0  0  0  0  0  0  0  0
  -38.1539   66.3753   67.4759 C   0  0  0  0  0  0  0  0  0  0  0  0
  -37.8732   67.8488   67.5752 C   0  0  0  0  0  0  0  0  0  0  0  0
  -37.4177   68.2648   68.9163 C   0  0  0  0  0  0  0  0  0  0  0  0
  -38.3813   67.9679   69.9744 C   0  0  0  0  0  0  0  0  0  0  0  0
  -38.5657   62.4947   63.2639 H   0  0  0  0  0  0  0  0  0  0  0  0
  -36.2086   62.3537   64.9085 H   0  0  0  0  0  0  0  0  0  0  0  0
  -36.7293   63.8176   62.4328 H   0  0  0  0  0  0  0  0  0  0  0  0
  -37.0169   62.4127   61.4459 H   0  0  0  0  0  0  0  0  0  0  0  0
  -32.9065   62.4406   61.6965 H   0  0  0  0  0  0  0  0  0  0  0  0
  -31.4018   62.4644   62.5340 H   0  0  0  0  0  0  0  0  0  0  0  0
  -32.1556   60.5455   63.8916 H   0  0  0  0  0  0  0  0  0  0  0  0
  -33.6611   60.5535   62.9088 H   0  0  0  0  0  0  0  0  0  0  0  0
  -30.3140   60.9501   61.5209 H   0  0  0  0  0  0  0  0  0  0  0  0
  -30.1271   59.2596   61.1206 H   0  0  0  0  0  0  0  0  0  0  0  0
  -30.0708   59.7735   62.7896 H   0  0  0  0  0  0  0  0  0  0  0  0
  -35.6475   61.3237   65.0847 H   0  0  0  0  0  0  0  0  0  0  0  0
  -32.4195   60.9836   60.2781 H   0  0  0  0  0  0  0  0  0  0  0  0
  -33.6686   59.8208   60.6530 H   0  0  0  0  0  0  0  0  0  0  0  0
  -32.1844   59.2950   59.8955 H   0  0  0  0  0  0  0  0  0  0  0  0
  -31.8395   58.1951   63.3499 H   0  0  0  0  0  0  0  0  0  0  0  0
  -31.8471   57.6722   61.6827 H   0  0  0  0  0  0  0  0  0  0  0  0
  -33.3313   58.1980   62.4402 H   0  0  0  0  0  0  0  0  0  0  0  0
  -36.6684   60.2630   63.7498 H   0  0  0  0  0  0  0  0  0  0  0  0
  -37.9450   60.2731   62.5819 H   0  0  0  0  0  0  0  0  0  0  0  0
  -40.9394   60.8604   66.0042 H   0  0  0  0  0  0  0  0  0  0  0  0
  -40.1713   59.2627   66.0109 H   0  0  0  0  0  0  0  0  0  0  0  0
  -41.8086   58.4429   64.4703 H   0  0  0  0  0  0  0  0  0  0  0  0
  -42.5713   60.0428   64.4426 H   0  0  0  0  0  0  0  0  0  0  0  0
  -43.7930   58.5073   65.8363 H   0  0  0  0  0  0  0  0  0  0  0  0
  -43.0753   59.8597   66.7531 H   0  0  0  0  0  0  0  0  0  0  0  0
  -42.0192   57.0902   66.6505 H   0  0  0  0  0  0  0  0  0  0  0  0
  -42.9543   57.8333   67.9702 H   0  0  0  0  0  0  0  0  0  0  0  0
  -40.2789   58.7234   67.0366 H   0  0  0  0  0  0  0  0  0  0  0  0
  -40.6258   57.7638   68.4816 H   0  0  0  0  0  0  0  0  0  0  0  0
  -41.9270   59.5449   69.3779 H   0  0  0  0  0  0  0  0  0  0  0  0
  -41.5656   60.5021   67.9069 H   0  0  0  0  0  0  0  0  0  0  0  0
  -39.5889   59.6319   69.9222 H   0  0  0  0  0  0  0  0  0  0  0  0
  -40.3098   61.2469   69.7603 H   0  0  0  0  0  0  0  0  0  0  0  0
  -38.0509   60.2695   68.3880 H   0  0  0  0  0  0  0  0  0  0  0  0
  -38.2038   61.7423   66.7338 H   0  0  0  0  0  0  0  0  0  0  0  0
  -41.0127   62.2380   67.6210 H   0  0  0  0  0  0  0  0  0  0  0  0
  -40.4269   62.2504   65.9267 H   0  0  0  0  0  0  0  0  0  0  0  0
  -39.6990   64.2306   68.0108 H   0  0  0  0  0  0  0  0  0  0  0  0
  -40.8834   64.4500   66.7121 H   0  0  0  0  0  0  0  0  0  0  0  0
  -39.1789   64.1635   65.0785 H   0  0  0  0  0  0  0  0  0  0  0  0
  -37.9926   63.9360   66.3943 H   0  0  0  0  0  0  0  0  0  0  0  0
  -39.5008   66.4295   65.8471 H   0  0  0  0  0  0  0  0  0  0  0  0
  -37.8146   66.0990   65.4210 H   0  0  0  0  0  0  0  0  0  0  0  0
  -37.2575   65.8485   67.7286 H   0  0  0  0  0  0  0  0  0  0  0  0
  -38.9643   66.1785   68.1463 H   0  0  0  0  0  0  0  0  0  0  0  0
  -38.7703   68.3824   67.3400 H   0  0  0  0  0  0  0  0  0  0  0  0
  -37.0828   68.0689   66.8884 H   0  0  0  0  0  0  0  0  0  0  0  0
  -37.2432   69.3204   68.9029 H   0  0  0  0  0  0  0  0  0  0  0  0
  -36.5286   67.7108   69.1340 H   0  0  0  0  0  0  0  0  0  0  0  0
  -39.2882   68.5056   69.7920 H   0  0  0  0  0  0  0  0  0  0  0  0
  -37.9755   68.2631   70.9194 H   0  0  0  0  0  0  0  0  0  0  0  0
  -38.5855   66.9177   69.9863 H   0  0  0  0  0  0  0  0  0  0  0  0
  1  9  1  0  0  0  0
  1 11  1  0  0  0  0
  1 13  1  0  0  0  0
  1 15  1  0  0  0  0
  2  3  1  0  0  0  0
  2  5  1  0  0  0  0
  2 17  1  0  0  0  0
  2 36  1  6  0  0  0
  3 37  1  0  0  0  0
  4  6  1  0  0  0  0
  4  8  2  1  0  0  0
  4 10  1  0  0  0  0
  4 12  1  0  0  0  0
  5  6  1  0  0  0  0
  5 38  1  0  0  0  0
  5 39  1  0  0  0  0
  7  9  1  0  0  0  0
  7 10  1  0  0  0  0
  7 40  1  0  0  0  0
  7 41  1  0  0  0  0
  9 42  1  0  0  0  0
  9 43  1  0  0  0  0
 11 44  1  0  0  0  0
 11 45  1  0  0  0  0
 11 46  1  0  0  0  0
 12 47  1  0  0  0  0
 13 48  1  0  0  0  0
 13 49  1  0  0  0  0
 13 50  1  0  0  0  0
 14 17  1  0  0  0  0
 14 18  1  0  0  0  0
 15 51  1  0  0  0  0
 15 52  1  0  0  0  0
 15 53  1  0  0  0  0
 16 18  2  0  0  0  0
 17 54  1  0  0  0  0
 17 55  1  0  0  0  0
 18 19  1  0  0  0  0
 19 20  1  0  0  0  0
 19 56  1  0  0  0  0
 19 57  1  0  0  0  0
 20 21  1  0  0  0  0
 20 58  1  0  0  0  0
 20 59  1  0  0  0  0
 21 22  1  0  0  0  0
 21 60  1  0  0  0  0
 21 61  1  0  0  0  0
 22 23  1  0  0  0  0
 22 62  1  0  0  0  0
 22 63  1  0  0  0  0
 23 24  1  0  0  0  0
 23 64  1  0  0  0  0
 23 65  1  0  0  0  0
 24 25  1  0  0  0  0
 24 66  1  0  0  0  0
 24 67  1  0  0  0  0
 25 26  1  0  0  0  0
 25 68  1  0  0  0  0
 25 69  1  0  0  0  0
 26 27  2  0  0  0  0
 26 70  1  0  0  0  0
 27 28  1  0  0  0  0
 27 71  1  0  0  0  0
 28 29  1  0  0  0  0
 28 72  1  0  0  0  0
 28 73  1  0  0  0  0
 29 30  1  0  0  0  0
 29 74  1  0  0  0  0
 29 75  1  0  0  0  0
 30 31  1  0  0  0  0
 30 76  1  0  0  0  0
 30 77  1  0  0  0  0
 31 32  1  0  0  0  0
 31 78  1  0  0  0  0
 31 79  1  0  0  0  0
 32 33  1  0  0  0  0
 32 80  1  0  0  0  0
 32 81  1  0  0  0  0
 33 34  1  0  0  0  0
 33 82  1  0  0  0  0
 33 83  1  0  0  0  0
 34 35  1  0  0  0  0
 34 84  1  0  0  0  0
 34 85  1  0  0  0  0
 35 86  1  0  0  0  0
 35 87  1  0  0  0  0
 35 88  1  0  0  0  0
M  CHG  1   8  -1
M  END
$$$$
/media/chris/experiments/cd1a-new-docking/inputs/ligands/4x6c_ligand.pdb
 OpenBabel07012320263D

 88 87  0  0  1  0  0  0  0  0999 V2000
  -34.3990   61.6036   71.1825 N   0  0  0  0  0  4  0  0  0  0  0  0
  -36.6839   58.0497   66.7661 C   0  0  1  0  0  0  0  0  0  0  0  0
  -35.9434   58.5582   65.6564 O   0  0  0  0  0  0  0  0  0  0  0  0
  -33.7903   58.5517   69.3403 P   0  0  2  0  0  0  0  0  0  0  0  0
  -35.7061   57.5993   67.8241 C   0  0  0  0  0  0  0  0  0  0  0  0
  -34.9217   58.7361   68.2379 O   0  0  0  0  0  0  0  0  0  0  0  0
  -33.6879   59.2320   71.8728 C   0  0  0  0  0  0  0  0  0  0  0  0
  -33.2879   57.1683   69.2178 O   0  5  0  0  0  0  0  0  0  0  0  0
  -33.2741   60.6261   71.4595 C   0  0  0  0  0  0  0  0  0  0  0  0
  -34.4618   58.7050   70.7695 O   0  0  0  0  0  0  0  0  0  0  0  0
  -35.2866   61.1075   70.0867 C   0  0  0  0  0  0  0  0  0  0  0  0
  -32.8480   59.6763   69.1780 O   0  0  0  0  0  0  0  0  0  0  0  0
  -33.8261   62.9225   70.7731 C   0  0  0  0  0  0  0  0  0  0  0  0
  -38.5713   59.3368   66.1067 O   0  0  0  0  0  0  0  0  0  0  0  0
  -35.2215   61.7850   72.4195 C   0  0  0  0  0  0  0  0  0  0  0  0
  -40.2919   58.2579   67.0258 O   0  0  0  0  0  0  0  0  0  0  0  0
  -37.6858   59.0860   67.2206 C   0  0  0  0  0  0  0  0  0  0  0  0
  -39.8694   59.0915   66.2844 C   0  0  0  0  0  0  0  0  0  0  0  0
  -40.7200   59.9800   65.4370 C   0  0  0  0  0  0  0  0  0  0  0  0
  -42.0280   59.3300   65.0270 C   0  0  0  0  0  0  0  0  0  0  0  0
  -42.8960   58.9560   66.2090 C   0  0  0  0  0  0  0  0  0  0  0  0
  -44.2012   58.2902   65.8416 C   0  0  0  0  0  0  0  0  0  0  0  0
  -44.0348   56.9933   65.0915 C   0  0  0  0  0  0  0  0  0  0  0  0
  -43.2816   55.9620   65.8880 C   0  0  0  0  0  0  0  0  0  0  0  0
  -43.9193   55.5574   67.1841 C   0  0  0  0  0  0  0  0  0  0  0  0
  -45.2519   54.9598   67.0163 C   0  0  0  0  0  0  0  0  0  0  0  0
  -46.2670   54.9998   67.8509 C   0  0  0  0  0  0  0  0  0  0  0  0
  -46.3394   55.6780   69.1697 C   0  0  0  0  0  0  0  0  0  0  0  0
  -46.6199   54.7755   70.3538 C   0  0  0  0  0  0  0  0  0  0  0  0
  -46.6965   55.5286   71.6534 C   0  0  0  0  0  0  0  0  0  0  0  0
  -45.4463   56.2889   72.0150 C   0  0  0  0  0  0  0  0  0  0  0  0
  -45.5686   57.0143   73.3369 C   0  0  0  0  0  0  0  0  0  0  0  0
  -45.8221   56.1282   74.5245 C   0  0  0  0  0  0  0  0  0  0  0  0
  -44.7467   55.1437   74.7555 C   0  0  0  0  0  0  0  0  0  0  0  0
  -43.4455   55.7563   75.0160 C   0  0  0  0  0  0  0  0  0  0  0  0
  -37.2660   57.1903   66.5065 H   0  0  0  0  0  0  0  0  0  0  0  0
  -35.4325   59.3336   65.9366 H   0  0  0  0  0  0  0  0  0  0  0  0
  -35.0629   56.8441   67.4228 H   0  0  0  0  0  0  0  0  0  0  0  0
  -36.2342   57.1945   68.6620 H   0  0  0  0  0  0  0  0  0  0  0  0
  -34.2831   59.2683   72.7612 H   0  0  0  0  0  0  0  0  0  0  0  0
  -32.8387   58.6170   72.0863 H   0  0  0  0  0  0  0  0  0  0  0  0
  -32.6728   61.0344   72.2447 H   0  0  0  0  0  0  0  0  0  0  0  0
  -32.7613   60.5082   70.5278 H   0  0  0  0  0  0  0  0  0  0  0  0
  -34.7110   60.9731   69.1948 H   0  0  0  0  0  0  0  0  0  0  0  0
  -36.0631   61.8212   69.9060 H   0  0  0  0  0  0  0  0  0  0  0  0
  -35.7211   60.1731   70.3750 H   0  0  0  0  0  0  0  0  0  0  0  0
  -32.4171   59.6145   68.3112 H   0  0  0  0  0  0  0  0  0  0  0  0
  -33.2372   62.7965   69.8887 H   0  0  0  0  0  0  0  0  0  0  0  0
  -33.2100   63.3037   71.5605 H   0  0  0  0  0  0  0  0  0  0  0  0
  -34.6211   63.6114   70.5771 H   0  0  0  0  0  0  0  0  0  0  0  0
  -35.6332   60.8428   72.7154 H   0  0  0  0  0  0  0  0  0  0  0  0
  -36.0152   62.4748   72.2220 H   0  0  0  0  0  0  0  0  0  0  0  0
  -34.6041   62.1672   73.2054 H   0  0  0  0  0  0  0  0  0  0  0  0
  -37.1810   59.9876   67.4987 H   0  0  0  0  0  0  0  0  0  0  0  0
  -38.2331   58.7393   68.0722 H   0  0  0  0  0  0  0  0  0  0  0  0
  -40.1733   60.2341   64.5530 H   0  0  0  0  0  0  0  0  0  0  0  0
  -40.9602   60.8449   66.0193 H   0  0  0  0  0  0  0  0  0  0  0  0
  -41.8086   58.4429   64.4703 H   0  0  0  0  0  0  0  0  0  0  0  0
  -42.5713   60.0428   64.4426 H   0  0  0  0  0  0  0  0  0  0  0  0
  -43.1183   59.8483   66.7560 H   0  0  0  0  0  0  0  0  0  0  0  0
  -42.3406   58.2423   66.7808 H   0  0  0  0  0  0  0  0  0  0  0  0
  -44.7626   58.9643   65.2288 H   0  0  0  0  0  0  0  0  0  0  0  0
  -44.7001   58.0569   66.7589 H   0  0  0  0  0  0  0  0  0  0  0  0
  -43.4990   57.1866   64.1857 H   0  0  0  0  0  0  0  0  0  0  0  0
  -45.0114   56.6033   64.8938 H   0  0  0  0  0  0  0  0  0  0  0  0
  -42.3118   56.3577   66.1068 H   0  0  0  0  0  0  0  0  0  0  0  0
  -43.2599   55.0802   65.2824 H   0  0  0  0  0  0  0  0  0  0  0  0
  -44.0122   56.4258   67.8023 H   0  0  0  0  0  0  0  0  0  0  0  0
  -43.2917   54.8121   67.6263 H   0  0  0  0  0  0  0  0  0  0  0  0
  -45.4099   54.4458   66.1355 H   0  0  0  0  0  0  0  0  0  0  0  0
  -47.1182   54.4981   67.5526 H   0  0  0  0  0  0  0  0  0  0  0  0
  -47.1185   56.4099   69.1214 H   0  0  0  0  0  0  0  0  0  0  0  0
  -45.3677   56.0923   69.3402 H   0  0  0  0  0  0  0  0  0  0  0  0
  -45.8364   54.0502   70.4243 H   0  0  0  0  0  0  0  0  0  0  0  0
  -47.5720   54.3154   70.1907 H   0  0  0  0  0  0  0  0  0  0  0  0
  -46.8969   54.8256   72.4348 H   0  0  0  0  0  0  0  0  0  0  0  0
  -47.4703   56.2581   71.5350 H   0  0  0  0  0  0  0  0  0  0  0  0
  -45.2477   57.0071   71.2471 H   0  0  0  0  0  0  0  0  0  0  0  0
  -44.6506   55.5794   72.1070 H   0  0  0  0  0  0  0  0  0  0  0  0
  -46.3793   57.7086   73.2613 H   0  0  0  0  0  0  0  0  0  0  0  0
  -44.6230   57.4842   73.5098 H   0  0  0  0  0  0  0  0  0  0  0  0
  -46.7386   55.5996   74.3649 H   0  0  0  0  0  0  0  0  0  0  0  0
  -45.8670   56.7587   75.3879 H   0  0  0  0  0  0  0  0  0  0  0  0
  -44.6621   54.5238   73.8876 H   0  0  0  0  0  0  0  0  0  0  0  0
  -45.0127   54.5840   75.6278 H   0  0  0  0  0  0  0  0  0  0  0  0
  -43.1430   56.3274   74.1632 H   0  0  0  0  0  0  0  0  0  0  0  0
  -42.7227   54.9907   75.2071 H   0  0  0  0  0  0  0  0  0  0  0  0
  -43.5180   56.3991   75.8683 H   0  0  0  0  0  0  0  0  0  0  0  0
  1  9  1  0  0  0  0
  1 11  1  0  0  0  0
  1 13  1  0  0  0  0
  1 15  1  0  0  0  0
  2  3  1  0  0  0  0
  2  5  1  0  0  0  0
  2 17  1  0  0  0  0
  2 36  1  6  0  0  0
  3 37  1  0  0  0  0
  4  6  1  0  0  0  0
  4  8  2  6  0  0  0
  4 10  1  0  0  0  0
  4 12  1  0  0  0  0
  5  6  1  0  0  0  0
  5 38  1  0  0  0  0
  5 39  1  0  0  0  0
  7  9  1  0  0  0  0
  7 10  1  0  0  0  0
  7 40  1  0  0  0  0
  7 41  1  0  0  0  0
  9 42  1  0  0  0  0
  9 43  1  0  0  0  0
 11 44  1  0  0  0  0
 11 45  1  0  0  0  0
 11 46  1  0  0  0  0
 12 47  1  0  0  0  0
 13 48  1  0  0  0  0
 13 49  1  0  0  0  0
 13 50  1  0  0  0  0
 14 17  1  0  0  0  0
 14 18  1  0  0  0  0
 15 51  1  0  0  0  0
 15 52  1  0  0  0  0
 15 53  1  0  0  0  0
 16 18  2  0  0  0  0
 17 54  1  0  0  0  0
 17 55  1  0  0  0  0
 18 19  1  0  0  0  0
 19 20  1  0  0  0  0
 19 56  1  0  0  0  0
 19 57  1  0  0  0  0
 20 21  1  0  0  0  0
 20 58  1  0  0  0  0
 20 59  1  0  0  0  0
 21 22  1  0  0  0  0
 21 60  1  0  0  0  0
 21 61  1  0  0  0  0
 22 23  1  0  0  0  0
 22 62  1  0  0  0  0
 22 63  1  0  0  0  0
 23 24  1  0  0  0  0
 23 64  1  0  0  0  0
 23 65  1  0  0  0  0
 24 25  1  0  0  0  0
 24 66  1  0  0  0  0
 24 67  1  0  0  0  0
 25 26  1  0  0  0  0
 25 68  1  0  0  0  0
 25 69  1  0  0  0  0
 26 27  2  0  0  0  0
 26 70  1  0  0  0  0
 27 28  1  0  0  0  0
 27 71  1  0  0  0  0
 28 29  1  0  0  0  0
 28 72  1  0  0  0  0
 28 73  1  0  0  0  0
 29 30  1  0  0  0  0
 29 74  1  0  0  0  0
 29 75  1  0  0  0  0
 30 31  1  0  0  0  0
 30 76  1  0  0  0  0
 30 77  1  0  0  0  0
 31 32  1  0  0  0  0
 31 78  1  0  0  0  0
 31 79  1  0  0  0  0
 32 33  1  0  0  0  0
 32 80  1  0  0  0  0
 32 81  1  0  0  0  0
 33 34  1  0  0  0  0
 33 82  1  0  0  0  0
 33 83  1  0  0  0  0
 34 35  1  0  0  0  0
 34 84  1  0  0  0  0
 34 85  1  0  0  0  0
 35 86  1  0  0  0  0
 35 87  1  0  0  0  0
 35 88  1  0  0  0  0
M  CHG  1   8  -1
M  END
$$$$
/media/chris/experiments/cd1a-new-docking/inputs/ligands/4x6c_ligand.pdb
 OpenBabel07012320263D

 88 87  0  0  1  0  0  0  0  0999 V2000
  -32.0609   59.0670   63.5304 N   0  0  0  0  0  4  0  0  0  0  0  0
  -37.2129   60.6294   65.7045 C   0  0  1  0  0  0  0  0  0  0  0  0
  -37.5688   61.4423   66.8229 O   0  0  0  0  0  0  0  0  0  0  0  0
  -35.5882   58.5950   67.2846 P   0  0  2  0  0  0  0  0  0  0  0  0
  -37.7458   59.2369   65.9398 C   0  0  0  0  0  0  0  0  0  0  0  0
  -37.1682   58.7241   67.1573 O   0  0  0  0  0  0  0  0  0  0  0  0
  -33.6584   58.9403   65.5401 C   0  0  0  0  0  0  0  0  0  0  0  0
  -35.0940   59.8674   67.8485 O   0  5  0  0  0  0  0  0  0  0  0  0
  -33.4101   58.6457   64.0782 C   0  0  0  0  0  0  0  0  0  0  0  0
  -34.9849   58.4377   65.8257 O   0  0  0  0  0  0  0  0  0  0  0  0
  -30.9476   58.3722   64.2465 C   0  0  0  0  0  0  0  0  0  0  0  0
  -35.3190   57.3357   68.0062 O   0  0  0  0  0  0  0  0  0  0  0  0
  -31.8908   60.5426   63.7002 C   0  0  0  0  0  0  0  0  0  0  0  0
  -39.1217   61.4343   64.5373 O   0  0  0  0  0  0  0  0  0  0  0  0
  -31.9815   58.7248   62.0757 C   0  0  0  0  0  0  0  0  0  0  0  0
  -39.8630   59.7939   63.2225 O   0  0  0  0  0  0  0  0  0  0  0  0
  -37.6880   61.2893   64.4305 C   0  0  0  0  0  0  0  0  0  0  0  0
  -39.8706   60.3644   64.2700 C   0  0  0  0  0  0  0  0  0  0  0  0
  -40.7200   59.9800   65.4370 C   0  0  0  0  0  0  0  0  0  0  0  0
  -42.0280   59.3300   65.0270 C   0  0  0  0  0  0  0  0  0  0  0  0
  -42.8960   58.9560   66.2090 C   0  0  0  0  0  0  0  0  0  0  0  0
  -42.2531   57.9915   67.1776 C   0  0  0  0  0  0  0  0  0  0  0  0
  -41.8564   56.6765   66.5567 C   0  0  0  0  0  0  0  0  0  0  0  0
  -43.0292   55.9472   65.9583 C   0  0  0  0  0  0  0  0  0  0  0  0
  -42.7125   54.6199   65.3354 C   0  0  0  0  0  0  0  0  0  0  0  0
  -41.7323   54.7076   64.2434 C   0  0  0  0  0  0  0  0  0  0  0  0
  -41.2626   53.7318   63.4979 C   0  0  0  0  0  0  0  0  0  0  0  0
  -41.6167   52.2908   63.5496 C   0  0  0  0  0  0  0  0  0  0  0  0
  -43.0716   51.9657   63.2796 C   0  0  0  0  0  0  0  0  0  0  0  0
  -43.5198   52.3995   61.9110 C   0  0  0  0  0  0  0  0  0  0  0  0
  -44.9668   52.1119   61.6020 C   0  0  0  0  0  0  0  0  0  0  0  0
  -45.9145   52.8131   62.5501 C   0  0  0  0  0  0  0  0  0  0  0  0
  -45.7377   52.4579   64.0000 C   0  0  0  0  0  0  0  0  0  0  0  0
  -46.6916   53.1504   64.8887 C   0  0  0  0  0  0  0  0  0  0  0  0
  -46.5976   54.6072   64.8183 C   0  0  0  0  0  0  0  0  0  0  0  0
  -36.1531   60.5330   65.5932 H   0  0  0  0  0  0  0  0  0  0  0  0
  -38.5350   61.5017   66.8850 H   0  0  0  0  0  0  0  0  0  0  0  0
  -37.4778   58.6047   65.1192 H   0  0  0  0  0  0  0  0  0  0  0  0
  -38.8123   59.2623   66.0230 H   0  0  0  0  0  0  0  0  0  0  0  0
  -33.6127   59.9940   65.7205 H   0  0  0  0  0  0  0  0  0  0  0  0
  -32.9211   58.4805   66.1644 H   0  0  0  0  0  0  0  0  0  0  0  0
  -33.5040   57.5891   63.9375 H   0  0  0  0  0  0  0  0  0  0  0  0
  -34.1309   59.2272   63.5424 H   0  0  0  0  0  0  0  0  0  0  0  0
  -30.9922   58.6082   65.2892 H   0  0  0  0  0  0  0  0  0  0  0  0
  -30.0094   58.6966   63.8471 H   0  0  0  0  0  0  0  0  0  0  0  0
  -31.0445   57.3147   64.1157 H   0  0  0  0  0  0  0  0  0  0  0  0
  -35.6757   57.3962   68.9063 H   0  0  0  0  0  0  0  0  0  0  0  0
  -31.9471   60.7909   64.7394 H   0  0  0  0  0  0  0  0  0  0  0  0
  -32.6657   61.0545   63.1687 H   0  0  0  0  0  0  0  0  0  0  0  0
  -30.9378   60.8386   63.3139 H   0  0  0  0  0  0  0  0  0  0  0  0
  -32.1029   57.6691   61.9505 H   0  0  0  0  0  0  0  0  0  0  0  0
  -31.0284   59.0223   61.6909 H   0  0  0  0  0  0  0  0  0  0  0  0
  -32.7562   59.2382   61.5457 H   0  0  0  0  0  0  0  0  0  0  0  0
  -37.4425   60.6784   63.5870 H   0  0  0  0  0  0  0  0  0  0  0  0
  -37.2176   62.2408   64.2956 H   0  0  0  0  0  0  0  0  0  0  0  0
  -40.9394   60.8604   66.0042 H   0  0  0  0  0  0  0  0  0  0  0  0
  -40.1713   59.2627   66.0109 H   0  0  0  0  0  0  0  0  0  0  0  0
  -41.8086   58.4429   64.4703 H   0  0  0  0  0  0  0  0  0  0  0  0
  -42.5713   60.0428   64.4426 H   0  0  0  0  0  0  0  0  0  0  0  0
  -43.7930   58.5073   65.8363 H   0  0  0  0  0  0  0  0  0  0  0  0
  -43.0753   59.8597   66.7531 H   0  0  0  0  0  0  0  0  0  0  0  0
  -42.9469   57.7952   67.9682 H   0  0  0  0  0  0  0  0  0  0  0  0
  -41.3537   58.4544   67.5263 H   0  0  0  0  0  0  0  0  0  0  0  0
  -41.4166   56.0588   67.3116 H   0  0  0  0  0  0  0  0  0  0  0  0
  -41.1643   56.8840   65.7675 H   0  0  0  0  0  0  0  0  0  0  0  0
  -43.4562   56.5729   65.2026 H   0  0  0  0  0  0  0  0  0  0  0  0
  -43.6933   55.7401   66.7713 H   0  0  0  0  0  0  0  0  0  0  0  0
  -43.6178   54.2030   64.9460 H   0  0  0  0  0  0  0  0  0  0  0  0
  -42.2813   54.0069   66.0990 H   0  0  0  0  0  0  0  0  0  0  0  0
  -41.3681   55.6508   64.0366 H   0  0  0  0  0  0  0  0  0  0  0  0
  -40.5616   54.0004   62.7897 H   0  0  0  0  0  0  0  0  0  0  0  0
  -41.3734   51.9266   64.5259 H   0  0  0  0  0  0  0  0  0  0  0  0
  -41.0610   51.8237   62.7636 H   0  0  0  0  0  0  0  0  0  0  0  0
  -43.6746   52.4626   64.0106 H   0  0  0  0  0  0  0  0  0  0  0  0
  -43.1801   50.9025   63.3329 H   0  0  0  0  0  0  0  0  0  0  0  0
  -42.9171   51.8927   61.1866 H   0  0  0  0  0  0  0  0  0  0  0  0
  -43.4097   53.4634   61.8799 H   0  0  0  0  0  0  0  0  0  0  0  0
  -45.1293   51.0567   61.6731 H   0  0  0  0  0  0  0  0  0  0  0  0
  -45.1663   52.4762   60.6159 H   0  0  0  0  0  0  0  0  0  0  0  0
  -46.9150   52.5619   62.2660 H   0  0  0  0  0  0  0  0  0  0  0  0
  -45.7008   53.8584   62.4691 H   0  0  0  0  0  0  0  0  0  0  0  0
  -44.7440   52.7218   64.2961 H   0  0  0  0  0  0  0  0  0  0  0  0
  -45.9197   51.4078   64.0947 H   0  0  0  0  0  0  0  0  0  0  0  0
  -46.4986   52.8463   65.8963 H   0  0  0  0  0  0  0  0  0  0  0  0
  -47.6759   52.8813   64.5667 H   0  0  0  0  0  0  0  0  0  0  0  0
  -45.6234   54.9174   65.1339 H   0  0  0  0  0  0  0  0  0  0  0  0
  -47.3356   55.0436   65.4584 H   0  0  0  0  0  0  0  0  0  0  0  0
  -46.7649   54.9272   63.8110 H   0  0  0  0  0  0  0  0  0  0  0  0
  1  9  1  0  0  0  0
  1 11  1  0  0  0  0
  1 13  1  0  0  0  0
  1 15  1  0  0  0  0
  2  3  1  0  0  0  0
  2  5  1  0  0  0  0
  2 17  1  0  0  0  0
  2 36  1  6  0  0  0
  3 37  1  0  0  0  0
  4  6  1  0  0  0  0
  4  8  2  1  0  0  0
  4 10  1  0  0  0  0
  4 12  1  0  0  0  0
  5  6  1  0  0  0  0
  5 38  1  0  0  0  0
  5 39  1  0  0  0  0
  7  9  1  0  0  0  0
  7 10  1  0  0  0  0
  7 40  1  0  0  0  0
  7 41  1  0  0  0  0
  9 42  1  0  0  0  0
  9 43  1  0  0  0  0
 11 44  1  0  0  0  0
 11 45  1  0  0  0  0
 11 46  1  0  0  0  0
 12 47  1  0  0  0  0
 13 48  1  0  0  0  0
 13 49  1  0  0  0  0
 13 50  1  0  0  0  0
 14 17  1  0  0  0  0
 14 18  1  0  0  0  0
 15 51  1  0  0  0  0
 15 52  1  0  0  0  0
 15 53  1  0  0  0  0
 16 18  2  0  0  0  0
 17 54  1  0  0  0  0
 17 55  1  0  0  0  0
 18 19  1  0  0  0  0
 19 20  1  0  0  0  0
 19 56  1  0  0  0  0
 19 57  1  0  0  0  0
 20 21  1  0  0  0  0
 20 58  1  0  0  0  0
 20 59  1  0  0  0  0
 21 22  1  0  0  0  0
 21 60  1  0  0  0  0
 21 61  1  0  0  0  0
 22 23  1  0  0  0  0
 22 62  1  0  0  0  0
 22 63  1  0  0  0  0
 23 24  1  0  0  0  0
 23 64  1  0  0  0  0
 23 65  1  0  0  0  0
 24 25  1  0  0  0  0
 24 66  1  0  0  0  0
 24 67  1  0  0  0  0
 25 26  1  0  0  0  0
 25 68  1  0  0  0  0
 25 69  1  0  0  0  0
 26 27  2  0  0  0  0
 26 70  1  0  0  0  0
 27 28  1  0  0  0  0
 27 71  1  0  0  0  0
 28 29  1  0  0  0  0
 28 72  1  0  0  0  0
 28 73  1  0  0  0  0
 29 30  1  0  0  0  0
 29 74  1  0  0  0  0
 29 75  1  0  0  0  0
 30 31  1  0  0  0  0
 30 76  1  0  0  0  0
 30 77  1  0  0  0  0
 31 32  1  0  0  0  0
 31 78  1  0  0  0  0
 31 79  1  0  0  0  0
 32 33  1  0  0  0  0
 32 80  1  0  0  0  0
 32 81  1  0  0  0  0
 33 34  1  0  0  0  0
 33 82  1  0  0  0  0
 33 83  1  0  0  0  0
 34 35  1  0  0  0  0
 34 84  1  0  0  0  0
 34 85  1  0  0  0  0
 35 86  1  0  0  0  0
 35 87  1  0  0  0  0
 35 88  1  0  0  0  0
M  CHG  1   8  -1
M  END
$$$$
/media/chris/experiments/cd1a-new-docking/inputs/ligands/4x6c_ligand.pdb
 OpenBabel07012320263D

 88 87  0  0  1  0  0  0  0  0999 V2000
  -38.7761   54.0806   74.5372 N   0  0  0  0  0  4  0  0  0  0  0  0
  -37.2027   57.9501   67.1659 C   0  0  1  0  0  0  0  0  0  0  0  0
  -35.9741   57.3234   66.7970 O   0  0  0  0  0  0  0  0  0  0  0  0
  -36.7722   57.2640   70.9862 P   0  0  2  0  0  0  0  0  0  0  0  0
  -37.1186   58.3420   68.6211 C   0  0  0  0  0  0  0  0  0  0  0  0
  -36.8882   57.1534   69.4039 O   0  0  0  0  0  0  0  0  0  0  0  0
  -37.5913   55.6843   72.9151 C   0  0  0  0  0  0  0  0  0  0  0  0
  -35.4330   56.7644   71.3581 O   0  5  0  0  0  0  0  0  0  0  0  0
  -38.7990   54.8268   73.2179 C   0  0  0  0  0  0  0  0  0  0  0  0
  -37.8527   56.2975   71.6308 O   0  0  0  0  0  0  0  0  0  0  0  0
  -38.6909   55.0276   75.6907 C   0  0  0  0  0  0  0  0  0  0  0  0
  -37.1508   58.6443   71.3471 O   0  0  0  0  0  0  0  0  0  0  0  0
  -37.5900   53.1712   74.5769 C   0  0  0  0  0  0  0  0  0  0  0  0
  -38.7345   59.6918   66.6427 O   0  0  0  0  0  0  0  0  0  0  0  0
  -40.0257   53.2689   74.6757 C   0  0  0  0  0  0  0  0  0  0  0  0
  -40.1597   57.9783   66.5999 O   0  0  0  0  0  0  0  0  0  0  0  0
  -37.4946   59.0865   66.2132 C   0  0  0  0  0  0  0  0  0  0  0  0
  -39.8694   59.0915   66.2844 C   0  0  0  0  0  0  0  0  0  0  0  0
  -40.7200   59.9800   65.4370 C   0  0  0  0  0  0  0  0  0  0  0  0
  -42.0280   59.3300   65.0270 C   0  0  0  0  0  0  0  0  0  0  0  0
  -42.8960   58.9560   66.2090 C   0  0  0  0  0  0  0  0  0  0  0  0
  -42.2531   57.9915   67.1776 C   0  0  0  0  0  0  0  0  0  0  0  0
  -43.1355   57.6153   68.3405 C   0  0  0  0  0  0  0  0  0  0  0  0
  -42.4571   56.6674   69.2927 C   0  0  0  0  0  0  0  0  0  0  0  0
  -43.2824   56.2352   70.4683 C   0  0  0  0  0  0  0  0  0  0  0  0
  -42.5710   55.3240   71.3765 C   0  0  0  0  0  0  0  0  0  0  0  0
  -42.5322   54.0104   71.3373 C   0  0  0  0  0  0  0  0  0  0  0  0
  -43.1781   53.1063   70.3524 C   0  0  0  0  0  0  0  0  0  0  0  0
  -42.4527   51.8026   70.0887 C   0  0  0  0  0  0  0  0  0  0  0  0
  -43.1516   50.9441   69.0707 C   0  0  0  0  0  0  0  0  0  0  0  0
  -44.5602   50.5529   69.4377 C   0  0  0  0  0  0  0  0  0  0  0  0
  -45.2122   49.6771   68.3905 C   0  0  0  0  0  0  0  0  0  0  0  0
  -44.5165   48.3689   68.1366 C   0  0  0  0  0  0  0  0  0  0  0  0
  -44.4477   47.5054   69.3319 C   0  0  0  0  0  0  0  0  0  0  0  0
  -45.7607   47.1360   69.8572 C   0  0  0  0  0  0  0  0  0  0  0  0
  -38.0387   57.2880   67.0787 H   0  0  0  0  0  0  0  0  0  0  0  0
  -35.2465   57.9579   66.8910 H   0  0  0  0  0  0  0  0  0  0  0  0
  -38.0360   58.8015   68.9245 H   0  0  0  0  0  0  0  0  0  0  0  0
  -36.3185   59.0373   68.7673 H   0  0  0  0  0  0  0  0  0  0  0  0
  -36.7090   55.0809   72.8668 H   0  0  0  0  0  0  0  0  0  0  0  0
  -37.4303   56.4192   73.6760 H   0  0  0  0  0  0  0  0  0  0  0  0
  -39.6594   55.4629   73.2176 H   0  0  0  0  0  0  0  0  0  0  0  0
  -38.8101   54.0704   72.4612 H   0  0  0  0  0  0  0  0  0  0  0  0
  -37.8009   55.6154   75.6046 H   0  0  0  0  0  0  0  0  0  0  0  0
  -38.6653   54.4737   76.6058 H   0  0  0  0  0  0  0  0  0  0  0  0
  -39.5453   55.6717   75.6874 H   0  0  0  0  0  0  0  0  0  0  0  0
  -36.5092   59.2652   70.9680 H   0  0  0  0  0  0  0  0  0  0  0  0
  -36.6946   53.7485   74.4781 H   0  0  0  0  0  0  0  0  0  0  0  0
  -37.6521   52.4687   73.7723 H   0  0  0  0  0  0  0  0  0  0  0  0
  -37.5746   52.6457   75.5089 H   0  0  0  0  0  0  0  0  0  0  0  0
  -40.8768   53.9167   74.6476 H   0  0  0  0  0  0  0  0  0  0  0  0
  -40.0081   52.7433   75.6076 H   0  0  0  0  0  0  0  0  0  0  0  0
  -40.0856   52.5662   73.8710 H   0  0  0  0  0  0  0  0  0  0  0  0
  -37.5946   58.7129   65.2156 H   0  0  0  0  0  0  0  0  0  0  0  0
  -36.6992   59.8022   66.2183 H   0  0  0  0  0  0  0  0  0  0  0  0
  -40.1733   60.2341   64.5530 H   0  0  0  0  0  0  0  0  0  0  0  0
  -40.9602   60.8449   66.0193 H   0  0  0  0  0  0  0  0  0  0  0  0
  -41.8086   58.4429   64.4703 H   0  0  0  0  0  0  0  0  0  0  0  0
  -42.5713   60.0428   64.4426 H   0  0  0  0  0  0  0  0  0  0  0  0
  -43.7930   58.5073   65.8363 H   0  0  0  0  0  0  0  0  0  0  0  0
  -43.0753   59.8597   66.7531 H   0  0  0  0  0  0  0  0  0  0  0  0
  -41.3629   58.4436   67.5625 H   0  0  0  0  0  0  0  0  0  0  0  0
  -42.0545   57.0914   66.6342 H   0  0  0  0  0  0  0  0  0  0  0  0
  -44.0208   57.1478   67.9628 H   0  0  0  0  0  0  0  0  0  0  0  0
  -43.3642   58.5109   68.8794 H   0  0  0  0  0  0  0  0  0  0  0  0
  -41.5772   57.1484   69.6662 H   0  0  0  0  0  0  0  0  0  0  0  0
  -42.2564   55.7791   68.7311 H   0  0  0  0  0  0  0  0  0  0  0  0
  -44.1568   55.7372   70.1044 H   0  0  0  0  0  0  0  0  0  0  0  0
  -43.5222   57.1155   71.0273 H   0  0  0  0  0  0  0  0  0  0  0  0
  -42.0364   55.7702   72.1381 H   0  0  0  0  0  0  0  0  0  0  0  0
  -41.9856   53.5513   72.0826 H   0  0  0  0  0  0  0  0  0  0  0  0
  -43.2573   53.6328   69.4243 H   0  0  0  0  0  0  0  0  0  0  0  0
  -44.1221   52.8359   70.7775 H   0  0  0  0  0  0  0  0  0  0  0  0
  -42.3841   51.2575   71.0069 H   0  0  0  0  0  0  0  0  0  0  0  0
  -41.4862   52.0443   69.6983 H   0  0  0  0  0  0  0  0  0  0  0  0
  -42.5801   50.0489   68.9407 H   0  0  0  0  0  0  0  0  0  0  0  0
  -43.2234   51.5307   68.1786 H   0  0  0  0  0  0  0  0  0  0  0  0
  -45.1440   51.4422   69.5525 H   0  0  0  0  0  0  0  0  0  0  0  0
  -44.5140   49.9910   70.3471 H   0  0  0  0  0  0  0  0  0  0  0  0
  -45.2392   50.2231   67.4707 H   0  0  0  0  0  0  0  0  0  0  0  0
  -46.1834   49.4323   68.7667 H   0  0  0  0  0  0  0  0  0  0  0  0
  -43.5194   48.5724   67.8062 H   0  0  0  0  0  0  0  0  0  0  0  0
  -45.0855   47.8443   67.3976 H   0  0  0  0  0  0  0  0  0  0  0  0
  -43.9109   48.0268   70.0966 H   0  0  0  0  0  0  0  0  0  0  0  0
  -43.9581   46.5999   69.0398 H   0  0  0  0  0  0  0  0  0  0  0  0
  -46.2841   48.0181   70.1615 H   0  0  0  0  0  0  0  0  0  0  0  0
  -45.6383   46.4858   70.6981 H   0  0  0  0  0  0  0  0  0  0  0  0
  -46.3207   46.6335   69.0964 H   0  0  0  0  0  0  0  0  0  0  0  0
  1  9  1  0  0  0  0
  1 11  1  0  0  0  0
  1 13  1  0  0  0  0
  1 15  1  0  0  0  0
  2  3  1  0  0  0  0
  2  5  1  0  0  0  0
  2 17  1  0  0  0  0
  2 36  1  6  0  0  0
  3 37  1  0  0  0  0
  4  6  1  0  0  0  0
  4  8  2  1  0  0  0
  4 10  1  0  0  0  0
  4 12  1  0  0  0  0
  5  6  1  0  0  0  0
  5 38  1  0  0  0  0
  5 39  1  0  0  0  0
  7  9  1  0  0  0  0
  7 10  1  0  0  0  0
  7 40  1  0  0  0  0
  7 41  1  0  0  0  0
  9 42  1  0  0  0  0
  9 43  1  0  0  0  0
 11 44  1  0  0  0  0
 11 45  1  0  0  0  0
 11 46  1  0  0  0  0
 12 47  1  0  0  0  0
 13 48  1  0  0  0  0
 13 49  1  0  0  0  0
 13 50  1  0  0  0  0
 14 17  1  0  0  0  0
 14 18  1  0  0  0  0
 15 51  1  0  0  0  0
 15 52  1  0  0  0  0
 15 53  1  0  0  0  0
 16 18  2  0  0  0  0
 17 54  1  0  0  0  0
 17 55  1  0  0  0  0
 18 19  1  0  0  0  0
 19 20  1  0  0  0  0
 19 56  1  0  0  0  0
 19 57  1  0  0  0  0
 20 21  1  0  0  0  0
 20 58  1  0  0  0  0
 20 59  1  0  0  0  0
 21 22  1  0  0  0  0
 21 60  1  0  0  0  0
 21 61  1  0  0  0  0
 22 23  1  0  0  0  0
 22 62  1  0  0  0  0
 22 63  1  0  0  0  0
 23 24  1  0  0  0  0
 23 64  1  0  0  0  0
 23 65  1  0  0  0  0
 24 25  1  0  0  0  0
 24 66  1  0  0  0  0
 24 67  1  0  0  0  0
 25 26  1  0  0  0  0
 25 68  1  0  0  0  0
 25 69  1  0  0  0  0
 26 27  2  0  0  0  0
 26 70  1  0  0  0  0
 27 28  1  0  0  0  0
 27 71  1  0  0  0  0
 28 29  1  0  0  0  0
 28 72  1  0  0  0  0
 28 73  1  0  0  0  0
 29 30  1  0  0  0  0
 29 74  1  0  0  0  0
 29 75  1  0  0  0  0
 30 31  1  0  0  0  0
 30 76  1  0  0  0  0
 30 77  1  0  0  0  0
 31 32  1  0  0  0  0
 31 78  1  0  0  0  0
 31 79  1  0  0  0  0
 32 33  1  0  0  0  0
 32 80  1  0  0  0  0
 32 81  1  0  0  0  0
 33 34  1  0  0  0  0
 33 82  1  0  0  0  0
 33 83  1  0  0  0  0
 34 35  1  0  0  0  0
 34 84  1  0  0  0  0
 34 85  1  0  0  0  0
 35 86  1  0  0  0  0
 35 87  1  0  0  0  0
 35 88  1  0  0  0  0
M  CHG  1   8  -1
M  END
$$$$
/media/chris/experiments/cd1a-new-docking/inputs/ligands/4x6c_ligand.pdb
 OpenBabel07012320263D

 88 87  0  0  1  0  0  0  0  0999 V2000
  -33.7339   63.2704   64.5410 N   0  0  0  0  0  4  0  0  0  0  0  0
  -38.1304   61.3670   67.4184 C   0  0  1  0  0  0  0  0  0  0  0  0
  -38.8241   60.1405   67.6480 O   0  0  0  0  0  0  0  0  0  0  0  0
  -37.0717   60.4593   63.7706 P   0  0  2  0  0  0  0  0  0  0  0  0
  -37.1412   61.1515   66.2989 C   0  0  0  0  0  0  0  0  0  0  0  0
  -37.8665   60.7692   65.1128 O   0  0  0  0  0  0  0  0  0  0  0  0
  -36.1043   62.8941   63.6211 C   0  0  0  0  0  0  0  0  0  0  0  0
  -35.7453   59.9416   64.1627 O   0  5  0  0  0  0  0  0  0  0  0  0
  -34.7210   62.3368   63.8689 C   0  0  0  0  0  0  0  0  0  0  0  0
  -36.8553   61.8268   62.9960 O   0  0  0  0  0  0  0  0  0  0  0  0
  -34.2184   63.6842   65.8934 C   0  0  0  0  0  0  0  0  0  0  0  0
  -37.9535   59.6198   62.9359 O   0  0  0  0  0  0  0  0  0  0  0  0
  -33.5534   64.4952   63.7028 C   0  0  0  0  0  0  0  0  0  0  0  0
  -39.9204   62.0973   66.0341 O   0  0  0  0  0  0  0  0  0  0  0  0
  -32.4157   62.5792   64.6958 C   0  0  0  0  0  0  0  0  0  0  0  0
  -41.8412   61.4362   66.9521 O   0  0  0  0  0  0  0  0  0  0  0  0
  -39.1307   62.4754   67.1836 C   0  0  0  0  0  0  0  0  0  0  0  0
  -40.9154   61.2318   66.2282 C   0  0  0  0  0  0  0  0  0  0  0  0
  -40.7200   59.9800   65.4370 C   0  0  0  0  0  0  0  0  0  0  0  0
  -42.0280   59.3300   65.0270 C   0  0  0  0  0  0  0  0  0  0  0  0
  -42.8960   58.9560   66.2090 C   0  0  0  0  0  0  0  0  0  0  0  0
  -44.2012   58.2902   65.8416 C   0  0  0  0  0  0  0  0  0  0  0  0
  -45.0623   57.9388   67.0279 C   0  0  0  0  0  0  0  0  0  0  0  0
  -45.4546   59.1497   67.8311 C   0  0  0  0  0  0  0  0  0  0  0  0
  -46.2524   60.1824   67.0913 C   0  0  0  0  0  0  0  0  0  0  0  0
  -47.5346   59.6741   66.5827 C   0  0  0  0  0  0  0  0  0  0  0  0
  -48.7447   60.1011   66.8688 C   0  0  0  0  0  0  0  0  0  0  0  0
  -49.1303   61.2224   67.7624 C   0  0  0  0  0  0  0  0  0  0  0  0
  -50.6195   61.4624   67.9037 C   0  0  0  0  0  0  0  0  0  0  0  0
  -51.3477   60.2772   68.4756 C   0  0  0  0  0  0  0  0  0  0  0  0
  -52.8365   60.4626   68.6198 C   0  0  0  0  0  0  0  0  0  0  0  0
  -53.5209   60.7240   67.2962 C   0  0  0  0  0  0  0  0  0  0  0  0
  -55.0070   60.9336   67.3821 C   0  0  0  0  0  0  0  0  0  0  0  0
  -55.3835   62.0934   68.2141 C   0  0  0  0  0  0  0  0  0  0  0  0
  -54.8545   63.3613   67.7154 C   0  0  0  0  0  0  0  0  0  0  0  0
  -37.5611   61.6773   68.2696 H   0  0  0  0  0  0  0  0  0  0  0  0
  -39.3248   59.8986   66.8533 H   0  0  0  0  0  0  0  0  0  0  0  0
  -36.4553   60.3756   66.5679 H   0  0  0  0  0  0  0  0  0  0  0  0
  -36.5917   62.0516   66.1177 H   0  0  0  0  0  0  0  0  0  0  0  0
  -36.0528   63.7429   62.9716 H   0  0  0  0  0  0  0  0  0  0  0  0
  -36.5657   63.2192   64.5301 H   0  0  0  0  0  0  0  0  0  0  0  0
  -34.8243   61.4702   64.4880 H   0  0  0  0  0  0  0  0  0  0  0  0
  -34.3138   62.1395   62.8993 H   0  0  0  0  0  0  0  0  0  0  0  0
  -35.1616   64.1805   65.7979 H   0  0  0  0  0  0  0  0  0  0  0  0
  -33.5086   64.3499   66.3383 H   0  0  0  0  0  0  0  0  0  0  0  0
  -34.3319   62.8185   66.5119 H   0  0  0  0  0  0  0  0  0  0  0  0
  -38.1082   58.7716   63.3805 H   0  0  0  0  0  0  0  0  0  0  0  0
  -34.4943   64.9921   63.5901 H   0  0  0  0  0  0  0  0  0  0  0  0
  -33.1796   64.2164   62.7398 H   0  0  0  0  0  0  0  0  0  0  0  0
  -32.8571   65.1537   64.1787 H   0  0  0  0  0  0  0  0  0  0  0  0
  -32.5412   61.7019   65.2954 H   0  0  0  0  0  0  0  0  0  0  0  0
  -31.7204   63.2394   65.1708 H   0  0  0  0  0  0  0  0  0  0  0  0
  -32.0429   62.3021   63.7319 H   0  0  0  0  0  0  0  0  0  0  0  0
  -38.6203   63.3961   66.9917 H   0  0  0  0  0  0  0  0  0  0  0  0
  -39.7520   62.6167   68.0432 H   0  0  0  0  0  0  0  0  0  0  0  0
  -40.1644   59.2843   66.0305 H   0  0  0  0  0  0  0  0  0  0  0  0
  -40.1985   60.2448   64.5410 H   0  0  0  0  0  0  0  0  0  0  0  0
  -41.8086   58.4429   64.4703 H   0  0  0  0  0  0  0  0  0  0  0  0
  -42.5713   60.0428   64.4426 H   0  0  0  0  0  0  0  0  0  0  0  0
  -43.1183   59.8483   66.7560 H   0  0  0  0  0  0  0  0  0  0  0  0
  -42.3406   58.2423   66.7808 H   0  0  0  0  0  0  0  0  0  0  0  0
  -43.9814   57.3901   65.3063 H   0  0  0  0  0  0  0  0  0  0  0  0
  -44.7539   58.9929   65.2537 H   0  0  0  0  0  0  0  0  0  0  0  0
  -44.5188   57.2683   67.6603 H   0  0  0  0  0  0  0  0  0  0  0  0
  -45.9594   57.4883   66.6576 H   0  0  0  0  0  0  0  0  0  0  0  0
  -44.5587   59.6157   68.1846 H   0  0  0  0  0  0  0  0  0  0  0  0
  -46.0905   58.7909   68.6133 H   0  0  0  0  0  0  0  0  0  0  0  0
  -45.6721   60.5297   66.2622 H   0  0  0  0  0  0  0  0  0  0  0  0
  -46.4756   60.9662   67.7847 H   0  0  0  0  0  0  0  0  0  0  0  0
  -47.4779   58.8852   65.9196 H   0  0  0  0  0  0  0  0  0  0  0  0
  -49.5220   59.5947   66.4168 H   0  0  0  0  0  0  0  0  0  0  0  0
  -48.6874   62.1173   67.3780 H   0  0  0  0  0  0  0  0  0  0  0  0
  -48.7827   60.9530   68.7378 H   0  0  0  0  0  0  0  0  0  0  0  0
  -51.0244   61.6790   66.9373 H   0  0  0  0  0  0  0  0  0  0  0  0
  -50.7518   62.2802   68.5810 H   0  0  0  0  0  0  0  0  0  0  0  0
  -50.9419   60.0723   69.4443 H   0  0  0  0  0  0  0  0  0  0  0  0
  -51.2087   59.4738   67.7827 H   0  0  0  0  0  0  0  0  0  0  0  0
  -53.0171   61.2937   69.2690 H   0  0  0  0  0  0  0  0  0  0  0  0
  -53.2390   59.5552   69.0191 H   0  0  0  0  0  0  0  0  0  0  0  0
  -53.3400   59.8851   66.6571 H   0  0  0  0  0  0  0  0  0  0  0  0
  -53.1103   61.6384   66.9217 H   0  0  0  0  0  0  0  0  0  0  0  0
  -55.4506   60.0552   67.8024 H   0  0  0  0  0  0  0  0  0  0  0  0
  -55.3589   61.1261   66.3901 H   0  0  0  0  0  0  0  0  0  0  0  0
  -55.0101   61.9360   69.2043 H   0  0  0  0  0  0  0  0  0  0  0  0
  -56.4509   62.1655   68.1911 H   0  0  0  0  0  0  0  0  0  0  0  0
  -53.7850   63.3291   67.7227 H   0  0  0  0  0  0  0  0  0  0  0  0
  -55.1915   64.1598   68.3428 H   0  0  0  0  0  0  0  0  0  0  0  0
  -55.1996   63.5233   66.7156 H   0  0  0  0  0  0  0  0  0  0  0  0
  1  9  1  0  0  0  0
  1 11  1  0  0  0  0
  1 13  1  0  0  0  0
  1 15  1  0  0  0  0
  2  3  1  0  0  0  0
  2  5  1  0  0  0  0
  2 17  1  0  0  0  0
  2 36  1  1  0  0  0
  3 37  1  0  0  0  0
  4  6  1  0  0  0  0
  4  8  2  1  0  0  0
  4 10  1  0  0  0  0
  4 12  1  0  0  0  0
  5  6  1  0  0  0  0
  5 38  1  0  0  0  0
  5 39  1  0  0  0  0
  7  9  1  0  0  0  0
  7 10  1  0  0  0  0
  7 40  1  0  0  0  0
  7 41  1  0  0  0  0
  9 42  1  0  0  0  0
  9 43  1  0  0  0  0
 11 44  1  0  0  0  0
 11 45  1  0  0  0  0
 11 46  1  0  0  0  0
 12 47  1  0  0  0  0
 13 48  1  0  0  0  0
 13 49  1  0  0  0  0
 13 50  1  0  0  0  0
 14 17  1  0  0  0  0
 14 18  1  0  0  0  0
 15 51  1  0  0  0  0
 15 52  1  0  0  0  0
 15 53  1  0  0  0  0
 16 18  2  0  0  0  0
 17 54  1  0  0  0  0
 17 55  1  0  0  0  0
 18 19  1  0  0  0  0
 19 20  1  0  0  0  0
 19 56  1  0  0  0  0
 19 57  1  0  0  0  0
 20 21  1  0  0  0  0
 20 58  1  0  0  0  0
 20 59  1  0  0  0  0
 21 22  1  0  0  0  0
 21 60  1  0  0  0  0
 21 61  1  0  0  0  0
 22 23  1  0  0  0  0
 22 62  1  0  0  0  0
 22 63  1  0  0  0  0
 23 24  1  0  0  0  0
 23 64  1  0  0  0  0
 23 65  1  0  0  0  0
 24 25  1  0  0  0  0
 24 66  1  0  0  0  0
 24 67  1  0  0  0  0
 25 26  1  0  0  0  0
 25 68  1  0  0  0  0
 25 69  1  0  0  0  0
 26 27  2  0  0  0  0
 26 70  1  0  0  0  0
 27 28  1  0  0  0  0
 27 71  1  0  0  0  0
 28 29  1  0  0  0  0
 28 72  1  0  0  0  0
 28 73  1  0  0  0  0
 29 30  1  0  0  0  0
 29 74  1  0  0  0  0
 29 75  1  0  0  0  0
 30 31  1  0  0  0  0
 30 76  1  0  0  0  0
 30 77  1  0  0  0  0
 31 32  1  0  0  0  0
 31 78  1  0  0  0  0
 31 79  1  0  0  0  0
 32 33  1  0  0  0  0
 32 80  1  0  0  0  0
 32 81  1  0  0  0  0
 33 34  1  0  0  0  0
 33 82  1  0  0  0  0
 33 83  1  0  0  0  0
 34 35  1  0  0  0  0
 34 84  1  0  0  0  0
 34 85  1  0  0  0  0
 35 86  1  0  0  0  0
 35 87  1  0  0  0  0
 35 88  1  0  0  0  0
M  CHG  1   8  -1
M  END
$$$$
/media/chris/experiments/cd1a-new-docking/inputs/ligands/4x6c_ligand.pdb
 OpenBabel07012320263D

 88 87  0  0  1  0  0  0  0  0999 V2000
  -43.3975   65.7430   65.5309 N   0  0  0  0  0  4  0  0  0  0  0  0
  -40.5864   64.1180   67.0958 C   0  0  1  0  0  0  0  0  0  0  0  0
  -40.5096   64.7900   65.8386 O   0  0  0  0  0  0  0  0  0  0  0  0
  -43.9022   62.2353   66.2520 P   0  0  2  0  0  0  0  0  0  0  0  0
  -42.0205   63.7094   67.3300 C   0  0  0  0  0  0  0  0  0  0  0  0
  -42.4219   62.8164   66.2717 O   0  0  0  0  0  0  0  0  0  0  0  0
  -45.4884   64.2991   65.9185 C   0  0  0  0  0  0  0  0  0  0  0  0
  -43.8363   60.9041   65.6160 O   0  5  0  0  0  0  0  0  0  0  0  0
  -44.4177   65.1901   66.5062 C   0  0  0  0  0  0  0  0  0  0  0  0
  -44.7909   63.1747   65.3329 O   0  0  0  0  0  0  0  0  0  0  0  0
  -44.0535   66.5862   64.4851 C   0  0  0  0  0  0  0  0  0  0  0  0
  -44.4247   62.3502   67.6278 O   0  0  0  0  0  0  0  0  0  0  0  0
  -42.6863   64.6137   64.8571 C   0  0  0  0  0  0  0  0  0  0  0  0
  -39.9204   62.0973   66.0341 O   0  0  0  0  0  0  0  0  0  0  0  0
  -42.4028   66.5832   66.2685 C   0  0  0  0  0  0  0  0  0  0  0  0
  -41.8412   61.4362   66.9521 O   0  0  0  0  0  0  0  0  0  0  0  0
  -39.5859   62.9854   67.1238 C   0  0  0  0  0  0  0  0  0  0  0  0
  -40.9154   61.2318   66.2282 C   0  0  0  0  0  0  0  0  0  0  0  0
  -40.7200   59.9800   65.4370 C   0  0  0  0  0  0  0  0  0  0  0  0
  -42.0280   59.3300   65.0270 C   0  0  0  0  0  0  0  0  0  0  0  0
  -42.8960   58.9560   66.2090 C   0  0  0  0  0  0  0  0  0  0  0  0
  -44.2012   58.2902   65.8416 C   0  0  0  0  0  0  0  0  0  0  0  0
  -45.0623   57.9388   67.0279 C   0  0  0  0  0  0  0  0  0  0  0  0
  -45.4546   59.1497   67.8311 C   0  0  0  0  0  0  0  0  0  0  0  0
  -46.2524   60.1824   67.0913 C   0  0  0  0  0  0  0  0  0  0  0  0
  -47.5346   59.6741   66.5827 C   0  0  0  0  0  0  0  0  0  0  0  0
  -48.1880   60.0583   65.5084 C   0  0  0  0  0  0  0  0  0  0  0  0
  -47.7902   61.0897   64.5172 C   0  0  0  0  0  0  0  0  0  0  0  0
  -46.9764   60.5869   63.3423 C   0  0  0  0  0  0  0  0  0  0  0  0
  -46.5939   61.6846   62.3879 C   0  0  0  0  0  0  0  0  0  0  0  0
  -45.7964   61.2298   61.1925 C   0  0  0  0  0  0  0  0  0  0  0  0
  -46.5464   60.2311   60.3389 C   0  0  0  0  0  0  0  0  0  0  0  0
  -45.7911   59.7296   59.1397 C   0  0  0  0  0  0  0  0  0  0  0  0
  -45.3939   60.8060   58.2109 C   0  0  0  0  0  0  0  0  0  0  0  0
  -44.5134   61.8015   58.8189 C   0  0  0  0  0  0  0  0  0  0  0  0
  -40.3154   64.7531   67.9132 H   0  0  0  0  0  0  0  0  0  0  0  0
  -40.7627   64.1787   65.1293 H   0  0  0  0  0  0  0  0  0  0  0  0
  -42.6475   64.5765   67.3276 H   0  0  0  0  0  0  0  0  0  0  0  0
  -42.1115   63.2193   68.2768 H   0  0  0  0  0  0  0  0  0  0  0  0
  -46.0408   64.8260   65.1686 H   0  0  0  0  0  0  0  0  0  0  0  0
  -46.1887   63.9827   66.6630 H   0  0  0  0  0  0  0  0  0  0  0  0
  -44.9044   66.0197   66.9749 H   0  0  0  0  0  0  0  0  0  0  0  0
  -43.8639   64.5676   67.1775 H   0  0  0  0  0  0  0  0  0  0  0  0
  -44.7683   65.9976   63.9490 H   0  0  0  0  0  0  0  0  0  0  0  0
  -43.3123   66.9530   63.8061 H   0  0  0  0  0  0  0  0  0  0  0  0
  -44.5493   67.4116   64.9518 H   0  0  0  0  0  0  0  0  0  0  0  0
  -43.9028   61.7865   68.2200 H   0  0  0  0  0  0  0  0  0  0  0  0
  -43.3948   64.0107   64.3285 H   0  0  0  0  0  0  0  0  0  0  0  0
  -42.1880   64.0168   65.5921 H   0  0  0  0  0  0  0  0  0  0  0  0
  -41.9671   65.0053   64.1684 H   0  0  0  0  0  0  0  0  0  0  0  0
  -42.9086   67.3927   66.7521 H   0  0  0  0  0  0  0  0  0  0  0  0
  -41.6839   66.9731   65.5786 H   0  0  0  0  0  0  0  0  0  0  0  0
  -41.9048   65.9845   67.0023 H   0  0  0  0  0  0  0  0  0  0  0  0
  -39.6485   62.4631   68.0556 H   0  0  0  0  0  0  0  0  0  0  0  0
  -38.5875   63.3560   67.0209 H   0  0  0  0  0  0  0  0  0  0  0  0
  -40.1644   59.2843   66.0305 H   0  0  0  0  0  0  0  0  0  0  0  0
  -40.1985   60.2448   64.5410 H   0  0  0  0  0  0  0  0  0  0  0  0
  -41.8086   58.4429   64.4703 H   0  0  0  0  0  0  0  0  0  0  0  0
  -42.5713   60.0428   64.4426 H   0  0  0  0  0  0  0  0  0  0  0  0
  -43.1183   59.8483   66.7560 H   0  0  0  0  0  0  0  0  0  0  0  0
  -42.3406   58.2423   66.7808 H   0  0  0  0  0  0  0  0  0  0  0  0
  -43.9814   57.3901   65.3063 H   0  0  0  0  0  0  0  0  0  0  0  0
  -44.7539   58.9929   65.2537 H   0  0  0  0  0  0  0  0  0  0  0  0
  -44.5188   57.2683   67.6603 H   0  0  0  0  0  0  0  0  0  0  0  0
  -45.9594   57.4883   66.6576 H   0  0  0  0  0  0  0  0  0  0  0  0
  -44.5587   59.6157   68.1846 H   0  0  0  0  0  0  0  0  0  0  0  0
  -46.0905   58.7909   68.6133 H   0  0  0  0  0  0  0  0  0  0  0  0
  -45.6721   60.5297   66.2622 H   0  0  0  0  0  0  0  0  0  0  0  0
  -46.4756   60.9662   67.7847 H   0  0  0  0  0  0  0  0  0  0  0  0
  -47.9759   58.9235   67.1367 H   0  0  0  0  0  0  0  0  0  0  0  0
  -49.0880   59.5849   65.3326 H   0  0  0  0  0  0  0  0  0  0  0  0
  -47.2100   61.8302   65.0270 H   0  0  0  0  0  0  0  0  0  0  0  0
  -48.7023   61.4656   64.1028 H   0  0  0  0  0  0  0  0  0  0  0  0
  -47.5543   59.8588   62.8124 H   0  0  0  0  0  0  0  0  0  0  0  0
  -46.0721   60.1679   63.7317 H   0  0  0  0  0  0  0  0  0  0  0  0
  -46.0105   62.4039   62.9238 H   0  0  0  0  0  0  0  0  0  0  0  0
  -47.5093   62.0857   62.0059 H   0  0  0  0  0  0  0  0  0  0  0  0
  -44.8914   60.7748   61.5372 H   0  0  0  0  0  0  0  0  0  0  0  0
  -45.5999   62.0902   60.5876 H   0  0  0  0  0  0  0  0  0  0  0  0
  -47.4455   60.6975   59.9941 H   0  0  0  0  0  0  0  0  0  0  0  0
  -46.7229   59.3781   60.9603 H   0  0  0  0  0  0  0  0  0  0  0  0
  -46.4126   59.0369   58.6116 H   0  0  0  0  0  0  0  0  0  0  0  0
  -44.8931   59.2714   59.4982 H   0  0  0  0  0  0  0  0  0  0  0  0
  -46.2782   61.3004   57.8666 H   0  0  0  0  0  0  0  0  0  0  0  0
  -44.8492   60.3486   57.4115 H   0  0  0  0  0  0  0  0  0  0  0  0
  -45.0239   62.2835   59.6264 H   0  0  0  0  0  0  0  0  0  0  0  0
  -44.2385   62.5302   58.0852 H   0  0  0  0  0  0  0  0  0  0  0  0
  -43.6332   61.3197   59.1904 H   0  0  0  0  0  0  0  0  0  0  0  0
  1  9  1  0  0  0  0
  1 11  1  0  0  0  0
  1 13  1  0  0  0  0
  1 15  1  0  0  0  0
  2  3  1  0  0  0  0
  2  5  1  0  0  0  0
  2 17  1  0  0  0  0
  2 36  1  1  0  0  0
  3 37  1  0  0  0  0
  4  6  1  0  0  0  0
  4  8  2  6  0  0  0
  4 10  1  0  0  0  0
  4 12  1  0  0  0  0
  5  6  1  0  0  0  0
  5 38  1  0  0  0  0
  5 39  1  0  0  0  0
  7  9  1  0  0  0  0
  7 10  1  0  0  0  0
  7 40  1  0  0  0  0
  7 41  1  0  0  0  0
  9 42  1  0  0  0  0
  9 43  1  0  0  0  0
 11 44  1  0  0  0  0
 11 45  1  0  0  0  0
 11 46  1  0  0  0  0
 12 47  1  0  0  0  0
 13 48  1  0  0  0  0
 13 49  1  0  0  0  0
 13 50  1  0  0  0  0
 14 17  1  0  0  0  0
 14 18  1  0  0  0  0
 15 51  1  0  0  0  0
 15 52  1  0  0  0  0
 15 53  1  0  0  0  0
 16 18  2  0  0  0  0
 17 54  1  0  0  0  0
 17 55  1  0  0  0  0
 18 19  1  0  0  0  0
 19 20  1  0  0  0  0
 19 56  1  0  0  0  0
 19 57  1  0  0  0  0
 20 21  1  0  0  0  0
 20 58  1  0  0  0  0
 20 59  1  0  0  0  0
 21 22  1  0  0  0  0
 21 60  1  0  0  0  0
 21 61  1  0  0  0  0
 22 23  1  0  0  0  0
 22 62  1  0  0  0  0
 22 63  1  0  0  0  0
 23 24  1  0  0  0  0
 23 64  1  0  0  0  0
 23 65  1  0  0  0  0
 24 25  1  0  0  0  0
 24 66  1  0  0  0  0
 24 67  1  0  0  0  0
 25 26  1  0  0  0  0
 25 68  1  0  0  0  0
 25 69  1  0  0  0  0
 26 27  2  0  0  0  0
 26 70  1  0  0  0  0
 27 28  1  0  0  0  0
 27 71  1  0  0  0  0
 28 29  1  0  0  0  0
 28 72  1  0  0  0  0
 28 73  1  0  0  0  0
 29 30  1  0  0  0  0
 29 74  1  0  0  0  0
 29 75  1  0  0  0  0
 30 31  1  0  0  0  0
 30 76  1  0  0  0  0
 30 77  1  0  0  0  0
 31 32  1  0  0  0  0
 31 78  1  0  0  0  0
 31 79  1  0  0  0  0
 32 33  1  0  0  0  0
 32 80  1  0  0  0  0
 32 81  1  0  0  0  0
 33 34  1  0  0  0  0
 33 82  1  0  0  0  0
 33 83  1  0  0  0  0
 34 35  1  0  0  0  0
 34 84  1  0  0  0  0
 34 85  1  0  0  0  0
 35 86  1  0  0  0  0
 35 87  1  0  0  0  0
 35 88  1  0  0  0  0
M  CHG  1   8  -1
M  END
$$$$
/media/chris/experiments/cd1a-new-docking/inputs/ligands/4x6c_ligand.pdb
 OpenBabel07012320263D

 88 87  0  0  1  0  0  0  0  0999 V2000
  -41.1515   55.2785   73.8615 N   0  0  0  0  0  4  0  0  0  0  0  0
  -40.6663   57.8912   68.7210 C   0  0  1  0  0  0  0  0  0  0  0  0
  -40.5195   56.9907   69.8190 O   0  0  0  0  0  0  0  0  0  0  0  0
  -43.0837   56.6374   70.1151 P   0  0  2  0  0  0  0  0  0  0  0  0
  -41.9449   58.6702   68.9123 C   0  0  0  0  0  0  0  0  0  0  0  0
  -43.0449   57.7399   68.9695 O   0  0  0  0  0  0  0  0  0  0  0  0
  -42.1962   57.2052   72.5186 C   0  0  0  0  0  0  0  0  0  0  0  0
  -44.3052   55.8350   69.9025 O   0  5  0  0  0  0  0  0  0  0  0  0
  -42.1495   55.7226   72.8106 C   0  0  0  0  0  0  0  0  0  0  0  0
  -43.2204   57.3786   71.5112 O   0  0  0  0  0  0  0  0  0  0  0  0
  -41.4439   55.9113   75.1840 C   0  0  0  0  0  0  0  0  0  0  0  0
  -41.7700   55.9643   70.1052 O   0  0  0  0  0  0  0  0  0  0  0  0
  -39.7721   55.6708   73.4387 C   0  0  0  0  0  0  0  0  0  0  0  0
  -39.6287   59.6329   67.4785 O   0  0  0  0  0  0  0  0  0  0  0  0
  -41.2161   53.7916   74.0177 C   0  0  0  0  0  0  0  0  0  0  0  0
  -39.4477   58.0302   65.9397 O   0  0  0  0  0  0  0  0  0  0  0  0
  -39.4180   58.7331   68.5893 C   0  0  0  0  0  0  0  0  0  0  0  0
  -39.8694   59.0915   66.2844 C   0  0  0  0  0  0  0  0  0  0  0  0
  -40.7200   59.9800   65.4370 C   0  0  0  0  0  0  0  0  0  0  0  0
  -42.0280   59.3300   65.0270 C   0  0  0  0  0  0  0  0  0  0  0  0
  -42.8960   58.9560   66.2090 C   0  0  0  0  0  0  0  0  0  0  0  0
  -43.3110   60.1221   67.0749 C   0  0  0  0  0  0  0  0  0  0  0  0
  -44.1216   61.1643   66.3475 C   0  0  0  0  0  0  0  0  0  0  0  0
  -44.5026   62.3181   67.2358 C   0  0  0  0  0  0  0  0  0  0  0  0
  -45.3158   61.9593   68.4442 C   0  0  0  0  0  0  0  0  0  0  0  0
  -44.6280   61.0333   69.3555 C   0  0  0  0  0  0  0  0  0  0  0  0
  -44.3091   61.2269   70.6162 C   0  0  0  0  0  0  0  0  0  0  0  0
  -44.5807   62.4221   71.4541 C   0  0  0  0  0  0  0  0  0  0  0  0
  -45.4268   62.1771   72.6868 C   0  0  0  0  0  0  0  0  0  0  0  0
  -45.6767   63.4310   73.4789 C   0  0  0  0  0  0  0  0  0  0  0  0
  -44.4317   64.1197   73.9766 C   0  0  0  0  0  0  0  0  0  0  0  0
  -43.5960   63.2335   74.8738 C   0  0  0  0  0  0  0  0  0  0  0  0
  -42.3485   63.8755   75.4137 C   0  0  0  0  0  0  0  0  0  0  0  0
  -41.5540   62.9729   76.2700 C   0  0  0  0  0  0  0  0  0  0  0  0
  -42.2886   62.4819   77.4343 C   0  0  0  0  0  0  0  0  0  0  0  0
  -40.7606   57.3798   67.7859 H   0  0  0  0  0  0  0  0  0  0  0  0
  -40.4377   57.4961   70.6429 H   0  0  0  0  0  0  0  0  0  0  0  0
  -42.0837   59.3428   68.0917 H   0  0  0  0  0  0  0  0  0  0  0  0
  -41.8966   59.2361   69.8191 H   0  0  0  0  0  0  0  0  0  0  0  0
  -41.2501   57.5418   72.1493 H   0  0  0  0  0  0  0  0  0  0  0  0
  -42.4116   57.7727   73.3998 H   0  0  0  0  0  0  0  0  0  0  0  0
  -43.1233   55.4235   73.1382 H   0  0  0  0  0  0  0  0  0  0  0  0
  -41.8303   55.2612   71.8995 H   0  0  0  0  0  0  0  0  0  0  0  0
  -41.4011   56.9761   75.0871 H   0  0  0  0  0  0  0  0  0  0  0  0
  -40.7187   55.5890   75.9017 H   0  0  0  0  0  0  0  0  0  0  0  0
  -42.4211   55.6218   75.5097 H   0  0  0  0  0  0  0  0  0  0  0  0
  -41.6517   55.4987   69.2625 H   0  0  0  0  0  0  0  0  0  0  0  0
  -39.7223   56.7337   73.3261 H   0  0  0  0  0  0  0  0  0  0  0  0
  -39.5381   55.2019   72.5059 H   0  0  0  0  0  0  0  0  0  0  0  0
  -39.0687   55.3575   74.1817 H   0  0  0  0  0  0  0  0  0  0  0  0
  -42.2022   53.5073   74.3204 H   0  0  0  0  0  0  0  0  0  0  0  0
  -40.5114   53.4801   74.7602 H   0  0  0  0  0  0  0  0  0  0  0  0
  -40.9808   53.3244   73.0844 H   0  0  0  0  0  0  0  0  0  0  0  0
  -38.5712   58.1072   68.3993 H   0  0  0  0  0  0  0  0  0  0  0  0
  -39.2288   59.2779   69.4906 H   0  0  0  0  0  0  0  0  0  0  0  0
  -40.1733   60.2341   64.5530 H   0  0  0  0  0  0  0  0  0  0  0  0
  -40.9602   60.8449   66.0193 H   0  0  0  0  0  0  0  0  0  0  0  0
  -41.8086   58.4429   64.4703 H   0  0  0  0  0  0  0  0  0  0  0  0
  -42.5713   60.0428   64.4426 H   0  0  0  0  0  0  0  0  0  0  0  0
  -42.3518   58.2646   66.8179 H   0  0  0  0  0  0  0  0  0  0  0  0
  -43.7960   58.5403   65.8064 H   0  0  0  0  0  0  0  0  0  0  0  0
  -42.4276   60.5889   67.4576 H   0  0  0  0  0  0  0  0  0  0  0  0
  -43.9352   59.7276   67.8492 H   0  0  0  0  0  0  0  0  0  0  0  0
  -45.0148   60.7072   65.9759 H   0  0  0  0  0  0  0  0  0  0  0  0
  -43.5184   61.5502   65.5524 H   0  0  0  0  0  0  0  0  0  0  0  0
  -45.0695   63.0118   66.6507 H   0  0  0  0  0  0  0  0  0  0  0  0
  -43.5832   62.7195   67.6079 H   0  0  0  0  0  0  0  0  0  0  0  0
  -46.2255   61.5006   68.1172 H   0  0  0  0  0  0  0  0  0  0  0  0
  -45.4922   62.8645   68.9869 H   0  0  0  0  0  0  0  0  0  0  0  0
  -44.3630   60.1191   68.9568 H   0  0  0  0  0  0  0  0  0  0  0  0
  -43.8085   60.4530   71.0805 H   0  0  0  0  0  0  0  0  0  0  0  0
  -45.0858   63.1431   70.8458 H   0  0  0  0  0  0  0  0  0  0  0  0
  -43.6280   62.7515   71.8130 H   0  0  0  0  0  0  0  0  0  0  0  0
  -44.9224   61.4714   73.3132 H   0  0  0  0  0  0  0  0  0  0  0  0
  -46.3760   61.8081   72.3586 H   0  0  0  0  0  0  0  0  0  0  0  0
  -46.2778   63.1756   74.3265 H   0  0  0  0  0  0  0  0  0  0  0  0
  -46.1570   64.1180   72.8140 H   0  0  0  0  0  0  0  0  0  0  0  0
  -44.7189   64.9912   74.5271 H   0  0  0  0  0  0  0  0  0  0  0  0
  -43.8368   64.3703   73.1233 H   0  0  0  0  0  0  0  0  0  0  0  0
  -43.3087   62.3690   74.3125 H   0  0  0  0  0  0  0  0  0  0  0  0
  -44.2066   63.0044   75.7220 H   0  0  0  0  0  0  0  0  0  0  0  0
  -42.6290   64.7320   75.9904 H   0  0  0  0  0  0  0  0  0  0  0  0
  -41.7376   64.1380   74.5754 H   0  0  0  0  0  0  0  0  0  0  0  0
  -40.6904   63.5035   76.6128 H   0  0  0  0  0  0  0  0  0  0  0  0
  -41.2958   62.1206   75.6768 H   0  0  0  0  0  0  0  0  0  0  0  0
  -42.5659   63.3079   78.0554 H   0  0  0  0  0  0  0  0  0  0  0  0
  -41.6683   61.8102   77.9901 H   0  0  0  0  0  0  0  0  0  0  0  0
  -43.1693   61.9682   77.1097 H   0  0  0  0  0  0  0  0  0  0  0  0
  1  9  1  0  0  0  0
  1 11  1  0  0  0  0
  1 13  1  0  0  0  0
  1 15  1  0  0  0  0
  2  3  1  0  0  0  0
  2  5  1  0  0  0  0
  2 17  1  0  0  0  0
  2 36  1  6  0  0  0
  3 37  1  0  0  0  0
  4  6  1  0  0  0  0
  4  8  2  6  0  0  0
  4 10  1  0  0  0  0
  4 12  1  0  0  0  0
  5  6  1  0  0  0  0
  5 38  1  0  0  0  0
  5 39  1  0  0  0  0
  7  9  1  0  0  0  0
  7 10  1  0  0  0  0
  7 40  1  0  0  0  0
  7 41  1  0  0  0  0
  9 42  1  0  0  0  0
  9 43  1  0  0  0  0
 11 44  1  0  0  0  0
 11 45  1  0  0  0  0
 11 46  1  0  0  0  0
 12 47  1  0  0  0  0
 13 48  1  0  0  0  0
 13 49  1  0  0  0  0
 13 50  1  0  0  0  0
 14 17  1  0  0  0  0
 14 18  1  0  0  0  0
 15 51  1  0  0  0  0
 15 52  1  0  0  0  0
 15 53  1  0  0  0  0
 16 18  2  0  0  0  0
 17 54  1  0  0  0  0
 17 55  1  0  0  0  0
 18 19  1  0  0  0  0
 19 20  1  0  0  0  0
 19 56  1  0  0  0  0
 19 57  1  0  0  0  0
 20 21  1  0  0  0  0
 20 58  1  0  0  0  0
 20 59  1  0  0  0  0
 21 22  1  0  0  0  0
 21 60  1  0  0  0  0
 21 61  1  0  0  0  0
 22 23  1  0  0  0  0
 22 62  1  0  0  0  0
 22 63  1  0  0  0  0
 23 24  1  0  0  0  0
 23 64  1  0  0  0  0
 23 65  1  0  0  0  0
 24 25  1  0  0  0  0
 24 66  1  0  0  0  0
 24 67  1  0  0  0  0
 25 26  1  0  0  0  0
 25 68  1  0  0  0  0
 25 69  1  0  0  0  0
 26 27  2  0  0  0  0
 26 70  1  0  0  0  0
 27 28  1  0  0  0  0
 27 71  1  0  0  0  0
 28 29  1  0  0  0  0
 28 72  1  0  0  0  0
 28 73  1  0  0  0  0
 29 30  1  0  0  0  0
 29 74  1  0  0  0  0
 29 75  1  0  0  0  0
 30 31  1  0  0  0  0
 30 76  1  0  0  0  0
 30 77  1  0  0  0  0
 31 32  1  0  0  0  0
 31 78  1  0  0  0  0
 31 79  1  0  0  0  0
 32 33  1  0  0  0  0
 32 80  1  0  0  0  0
 32 81  1  0  0  0  0
 33 34  1  0  0  0  0
 33 82  1  0  0  0  0
 33 83  1  0  0  0  0
 34 35  1  0  0  0  0
 34 84  1  0  0  0  0
 34 85  1  0  0  0  0
 35 86  1  0  0  0  0
 35 87  1  0  0  0  0
 35 88  1  0  0  0  0
M  CHG  1   8  -1
M  END
$$$$
/media/chris/experiments/cd1a-new-docking/inputs/ligands/4x6c_ligand.pdb
 OpenBabel07012320263D

 88 87  0  0  1  0  0  0  0  0999 V2000
  -37.9737   67.4243   57.1335 N   0  0  0  0  0  4  0  0  0  0  0  0
  -39.0847   60.8760   61.3870 C   0  0  1  0  0  0  0  0  0  0  0  0
  -39.7594   59.8303   60.6875 O   0  0  0  0  0  0  0  0  0  0  0  0
  -38.8400   63.2332   58.2830 P   0  0  2  0  0  0  0  0  0  0  0  0
  -38.3579   61.7315   60.3779 C   0  0  0  0  0  0  0  0  0  0  0  0
  -39.3270   62.2945   59.4708 O   0  0  0  0  0  0  0  0  0  0  0  0
  -39.6049   65.7417   58.1895 C   0  0  0  0  0  0  0  0  0  0  0  0
  -37.6087   63.9077   58.7413 O   0  5  0  0  0  0  0  0  0  0  0  0
  -38.5222   66.0116   57.1694 C   0  0  0  0  0  0  0  0  0  0  0  0
  -39.9475   64.3436   58.0432 O   0  0  0  0  0  0  0  0  0  0  0  0
  -39.0548   68.4150   56.8424 C   0  0  0  0  0  0  0  0  0  0  0  0
  -38.7918   62.3955   57.0685 O   0  0  0  0  0  0  0  0  0  0  0  0
  -36.9304   67.5288   56.0677 C   0  0  0  0  0  0  0  0  0  0  0  0
  -40.6084   60.6579   63.1994 O   0  0  0  0  0  0  0  0  0  0  0  0
  -37.3622   67.7585   58.4577 C   0  0  0  0  0  0  0  0  0  0  0  0
  -38.6783   60.3998   64.2845 O   0  0  0  0  0  0  0  0  0  0  0  0
  -40.0713   61.6162   62.2607 C   0  0  0  0  0  0  0  0  0  0  0  0
  -39.8706   60.3644   64.2700 C   0  0  0  0  0  0  0  0  0  0  0  0
  -40.7200   59.9800   65.4370 C   0  0  0  0  0  0  0  0  0  0  0  0
  -42.0280   59.3300   65.0270 C   0  0  0  0  0  0  0  0  0  0  0  0
  -42.8960   58.9560   66.2090 C   0  0  0  0  0  0  0  0  0  0  0  0
  -44.2012   58.2902   65.8416 C   0  0  0  0  0  0  0  0  0  0  0  0
  -45.0623   57.9388   67.0279 C   0  0  0  0  0  0  0  0  0  0  0  0
  -44.3705   57.0027   67.9821 C   0  0  0  0  0  0  0  0  0  0  0  0
  -43.1025   57.5245   68.5905 C   0  0  0  0  0  0  0  0  0  0  0  0
  -43.2966   58.7466   69.3840 C   0  0  0  0  0  0  0  0  0  0  0  0
  -43.0427   58.9306   70.6609 C   0  0  0  0  0  0  0  0  0  0  0  0
  -42.4727   57.9593   71.6283 C   0  0  0  0  0  0  0  0  0  0  0  0
  -41.0864   57.4452   71.2977 C   0  0  0  0  0  0  0  0  0  0  0  0
  -40.0588   58.5417   71.2379 C   0  0  0  0  0  0  0  0  0  0  0  0
  -39.8781   59.3059   72.5244 C   0  0  0  0  0  0  0  0  0  0  0  0
  -38.8473   60.4070   72.4070 C   0  0  0  0  0  0  0  0  0  0  0  0
  -38.6136   61.1927   73.6671 C   0  0  0  0  0  0  0  0  0  0  0  0
  -39.8306   61.8590   74.1710 C   0  0  0  0  0  0  0  0  0  0  0  0
  -39.6046   62.6376   75.3871 C   0  0  0  0  0  0  0  0  0  0  0  0
  -38.3403   60.5015   62.0582 H   0  0  0  0  0  0  0  0  0  0  0  0
  -40.4226   60.2145   60.0930 H   0  0  0  0  0  0  0  0  0  0  0  0
  -37.6596   61.1315   59.8327 H   0  0  0  0  0  0  0  0  0  0  0  0
  -37.8259   62.5143   60.8771 H   0  0  0  0  0  0  0  0  0  0  0  0
  -40.4593   66.3565   57.9971 H   0  0  0  0  0  0  0  0  0  0  0  0
  -39.2733   65.9633   59.1825 H   0  0  0  0  0  0  0  0  0  0  0  0
  -37.7070   65.3501   57.3758 H   0  0  0  0  0  0  0  0  0  0  0  0
  -38.9829   65.8590   56.2158 H   0  0  0  0  0  0  0  0  0  0  0  0
  -39.5016   68.1879   55.8970 H   0  0  0  0  0  0  0  0  0  0  0  0
  -38.6374   69.3998   56.8123 H   0  0  0  0  0  0  0  0  0  0  0  0
  -39.7991   68.3664   57.6095 H   0  0  0  0  0  0  0  0  0  0  0  0
  -38.1222   61.7026   57.1800 H   0  0  0  0  0  0  0  0  0  0  0  0
  -37.3644   67.2904   55.1191 H   0  0  0  0  0  0  0  0  0  0  0  0
  -36.1355   66.8442   56.2784 H   0  0  0  0  0  0  0  0  0  0  0  0
  -36.5447   68.5265   56.0428 H   0  0  0  0  0  0  0  0  0  0  0  0
  -38.1063   67.6847   59.2230 H   0  0  0  0  0  0  0  0  0  0  0  0
  -36.9761   68.7560   58.4307 H   0  0  0  0  0  0  0  0  0  0  0  0
  -36.5669   67.0737   58.6663 H   0  0  0  0  0  0  0  0  0  0  0  0
  -40.8583   62.0242   61.6615 H   0  0  0  0  0  0  0  0  0  0  0  0
  -39.5944   62.4256   62.7729 H   0  0  0  0  0  0  0  0  0  0  0  0
  -40.9394   60.8604   66.0042 H   0  0  0  0  0  0  0  0  0  0  0  0
  -40.1713   59.2627   66.0109 H   0  0  0  0  0  0  0  0  0  0  0  0
  -41.8086   58.4429   64.4703 H   0  0  0  0  0  0  0  0  0  0  0  0
  -42.5713   60.0428   64.4426 H   0  0  0  0  0  0  0  0  0  0  0  0
  -43.1183   59.8483   66.7560 H   0  0  0  0  0  0  0  0  0  0  0  0
  -42.3406   58.2423   66.7808 H   0  0  0  0  0  0  0  0  0  0  0  0
  -43.9814   57.3901   65.3063 H   0  0  0  0  0  0  0  0  0  0  0  0
  -44.7539   58.9929   65.2537 H   0  0  0  0  0  0  0  0  0  0  0  0
  -45.9577   57.4707   66.6758 H   0  0  0  0  0  0  0  0  0  0  0  0
  -45.2749   58.8446   67.5562 H   0  0  0  0  0  0  0  0  0  0  0  0
  -44.1362   56.1039   67.4510 H   0  0  0  0  0  0  0  0  0  0  0  0
  -45.0496   56.8570   68.7961 H   0  0  0  0  0  0  0  0  0  0  0  0
  -42.4108   57.7378   67.8025 H   0  0  0  0  0  0  0  0  0  0  0  0
  -42.7370   56.7702   69.2555 H   0  0  0  0  0  0  0  0  0  0  0  0
  -43.6792   59.5598   68.8767 H   0  0  0  0  0  0  0  0  0  0  0  0
  -43.2673   59.8651   71.0369 H   0  0  0  0  0  0  0  0  0  0  0  0
  -43.1326   57.1185   71.6785 H   0  0  0  0  0  0  0  0  0  0  0  0
  -42.3764   58.4885   72.5532 H   0  0  0  0  0  0  0  0  0  0  0  0
  -41.1207   56.9561   70.3466 H   0  0  0  0  0  0  0  0  0  0  0  0
  -40.7966   56.7733   72.0784 H   0  0  0  0  0  0  0  0  0  0  0  0
  -40.3540   59.2342   70.4775 H   0  0  0  0  0  0  0  0  0  0  0  0
  -39.1217   58.0671   71.0339 H   0  0  0  0  0  0  0  0  0  0  0  0
  -39.5655   58.6238   73.2872 H   0  0  0  0  0  0  0  0  0  0  0  0
  -40.8152   59.7634   72.7640 H   0  0  0  0  0  0  0  0  0  0  0  0
  -39.1722   61.0866   71.6470 H   0  0  0  0  0  0  0  0  0  0  0  0
  -37.9196   59.9261   72.1770 H   0  0  0  0  0  0  0  0  0  0  0  0
  -37.8737   61.9401   73.4695 H   0  0  0  0  0  0  0  0  0  0  0  0
  -38.2953   60.5010   74.4188 H   0  0  0  0  0  0  0  0  0  0  0  0
  -40.5658   61.1100   74.3795 H   0  0  0  0  0  0  0  0  0  0  0  0
  -40.1533   62.5425   73.4136 H   0  0  0  0  0  0  0  0  0  0  0  0
  -39.2793   61.9870   76.1718 H   0  0  0  0  0  0  0  0  0  0  0  0
  -40.5154   63.1185   75.6771 H   0  0  0  0  0  0  0  0  0  0  0  0
  -38.8538   63.3773   75.2027 H   0  0  0  0  0  0  0  0  0  0  0  0
  1  9  1  0  0  0  0
  1 11  1  0  0  0  0
  1 13  1  0  0  0  0
  1 15  1  0  0  0  0
  2  3  1  0  0  0  0
  2  5  1  0  0  0  0
  2 17  1  0  0  0  0
  2 36  1  1  0  0  0
  3 37  1  0  0  0  0
  4  6  1  0  0  0  0
  4  8  2  1  0  0  0
  4 10  1  0  0  0  0
  4 12  1  0  0  0  0
  5  6  1  0  0  0  0
  5 38  1  0  0  0  0
  5 39  1  0  0  0  0
  7  9  1  0  0  0  0
  7 10  1  0  0  0  0
  7 40  1  0  0  0  0
  7 41  1  0  0  0  0
  9 42  1  0  0  0  0
  9 43  1  0  0  0  0
 11 44  1  0  0  0  0
 11 45  1  0  0  0  0
 11 46  1  0  0  0  0
 12 47  1  0  0  0  0
 13 48  1  0  0  0  0
 13 49  1  0  0  0  0
 13 50  1  0  0  0  0
 14 17  1  0  0  0  0
 14 18  1  0  0  0  0
 15 51  1  0  0  0  0
 15 52  1  0  0  0  0
 15 53  1  0  0  0  0
 16 18  2  0  0  0  0
 17 54  1  0  0  0  0
 17 55  1  0  0  0  0
 18 19  1  0  0  0  0
 19 20  1  0  0  0  0
 19 56  1  0  0  0  0
 19 57  1  0  0  0  0
 20 21  1  0  0  0  0
 20 58  1  0  0  0  0
 20 59  1  0  0  0  0
 21 22  1  0  0  0  0
 21 60  1  0  0  0  0
 21 61  1  0  0  0  0
 22 23  1  0  0  0  0
 22 62  1  0  0  0  0
 22 63  1  0  0  0  0
 23 24  1  0  0  0  0
 23 64  1  0  0  0  0
 23 65  1  0  0  0  0
 24 25  1  0  0  0  0
 24 66  1  0  0  0  0
 24 67  1  0  0  0  0
 25 26  1  0  0  0  0
 25 68  1  0  0  0  0
 25 69  1  0  0  0  0
 26 27  2  0  0  0  0
 26 70  1  0  0  0  0
 27 28  1  0  0  0  0
 27 71  1  0  0  0  0
 28 29  1  0  0  0  0
 28 72  1  0  0  0  0
 28 73  1  0  0  0  0
 29 30  1  0  0  0  0
 29 74  1  0  0  0  0
 29 75  1  0  0  0  0
 30 31  1  0  0  0  0
 30 76  1  0  0  0  0
 30 77  1  0  0  0  0
 31 32  1  0  0  0  0
 31 78  1  0  0  0  0
 31 79  1  0  0  0  0
 32 33  1  0  0  0  0
 32 80  1  0  0  0  0
 32 81  1  0  0  0  0
 33 34  1  0  0  0  0
 33 82  1  0  0  0  0
 33 83  1  0  0  0  0
 34 35  1  0  0  0  0
 34 84  1  0  0  0  0
 34 85  1  0  0  0  0
 35 86  1  0  0  0  0
 35 87  1  0  0  0  0
 35 88  1  0  0  0  0
M  CHG  1   8  -1
M  END
$$$$
