/media/chris/experiments/cd1a-new-docking/inputs/ligands/4x6c_ligand.pdb
 OpenBabel07012320263D

 88 87  0  0  1  0  0  0  0  0999 V2000
  -32.0025   59.7601   61.9443 N   0  0  0  0  0  4  0  0  0  0  0  0
  -37.5690   62.1759   63.4873 C   0  0  1  0  0  0  0  0  0  0  0  0
  -37.1127   62.6662   64.7481 O   0  0  0  0  0  0  0  0  0  0  0  0
  -34.6118   62.6825   64.0099 P   0  0  2  0  0  0  0  0  0  0  0  0
  -36.6852   62.7488   62.4060 C   0  0  0  0  0  0  0  0  0  0  0  0
  -35.3313   62.3122   62.6408 O   0  0  0  0  0  0  0  0  0  0  0  0
  -32.4346   62.2004   62.6263 C   0  0  0  0  0  0  0  0  0  0  0  0
  -35.1859   63.9638   64.4678 O   0  5  0  0  0  0  0  0  0  0  0  0
  -32.6064   60.7313   62.9391 C   0  0  0  0  0  0  0  0  0  0  0  0
  -33.0706   62.9139   63.7127 O   0  0  0  0  0  0  0  0  0  0  0  0
  -30.5235   59.9493   61.8361 C   0  0  0  0  0  0  0  0  0  0  0  0
  -34.7147   61.4957   64.8815 O   0  0  0  0  0  0  0  0  0  0  0  0
  -32.6121   59.9805   60.5970 C   0  0  0  0  0  0  0  0  0  0  0  0
  -38.5722   60.3099   64.5669 O   0  0  0  0  0  0  0  0  0  0  0  0
  -32.2745   58.3563   62.3857 C   0  0  0  0  0  0  0  0  0  0  0  0
  -40.2945   60.6885   63.2031 O   0  0  0  0  0  0  0  0  0  0  0  0
  -37.6341   60.6664   63.5272 C   0  0  0  0  0  0  0  0  0  0  0  0
  -39.8706   60.3644   64.2700 C   0  0  0  0  0  0  0  0  0  0  0  0
  -40.7200   59.9800   65.4370 C   0  0  0  0  0  0  0  0  0  0  0  0
  -42.0280   59.3300   65.0270 C   0  0  0  0  0  0  0  0  0  0  0  0
  -42.8960   58.9560   66.2090 C   0  0  0  0  0  0  0  0  0  0  0  0
  -42.2531   57.9915   67.1776 C   0  0  0  0  0  0  0  0  0  0  0  0
  -40.9882   58.5136   67.8098 C   0  0  0  0  0  0  0  0  0  0  0  0
  -41.2206   59.7695   68.6062 C   0  0  0  0  0  0  0  0  0  0  0  0
  -40.0010   60.3572   69.2522 C   0  0  0  0  0  0  0  0  0  0  0  0
  -38.9610   60.7458   68.2886 C   0  0  0  0  0  0  0  0  0  0  0  0
  -39.0481   61.6258   67.3156 C   0  0  0  0  0  0  0  0  0  0  0  0
  -40.2120   62.4725   66.9511 C   0  0  0  0  0  0  0  0  0  0  0  0
  -39.9762   63.9679   67.0113 C   0  0  0  0  0  0  0  0  0  0  0  0
  -38.8903   64.4233   66.0756 C   0  0  0  0  0  0  0  0  0  0  0  0
  -38.6076   65.9033   66.1121 C   0  0  0  0  0  0  0  0  0  0  0  0
  -38.1539   66.3753   67.4759 C   0  0  0  0  0  0  0  0  0  0  0  0
  -37.8732   67.8488   67.5752 C   0  0  0  0  0  0  0  0  0  0  0  0
  -37.4177   68.2648   68.9163 C   0  0  0  0  0  0  0  0  0  0  0  0
  -38.3813   67.9679   69.9744 C   0  0  0  0  0  0  0  0  0  0  0  0
  -38.5657   62.4947   63.2639 H   0  0  0  0  0  0  0  0  0  0  0  0
  -36.2086   62.3537   64.9085 H   0  0  0  0  0  0  0  0  0  0  0  0
  -36.7293   63.8176   62.4328 H   0  0  0  0  0  0  0  0  0  0  0  0
  -37.0169   62.4127   61.4459 H   0  0  0  0  0  0  0  0  0  0  0  0
  -32.9065   62.4406   61.6965 H   0  0  0  0  0  0  0  0  0  0  0  0
  -31.4018   62.4644   62.5340 H   0  0  0  0  0  0  0  0  0  0  0  0
  -32.1556   60.5455   63.8916 H   0  0  0  0  0  0  0  0  0  0  0  0
  -33.6611   60.5535   62.9088 H   0  0  0  0  0  0  0  0  0  0  0  0
  -30.3140   60.9501   61.5209 H   0  0  0  0  0  0  0  0  0  0  0  0
  -30.1271   59.2596   61.1206 H   0  0  0  0  0  0  0  0  0  0  0  0
  -30.0708   59.7735   62.7896 H   0  0  0  0  0  0  0  0  0  0  0  0
  -35.6475   61.3237   65.0847 H   0  0  0  0  0  0  0  0  0  0  0  0
  -32.4195   60.9836   60.2781 H   0  0  0  0  0  0  0  0  0  0  0  0
  -33.6686   59.8208   60.6530 H   0  0  0  0  0  0  0  0  0  0  0  0
  -32.1844   59.2950   59.8955 H   0  0  0  0  0  0  0  0  0  0  0  0
  -31.8395   58.1951   63.3499 H   0  0  0  0  0  0  0  0  0  0  0  0
  -31.8471   57.6722   61.6827 H   0  0  0  0  0  0  0  0  0  0  0  0
  -33.3313   58.1980   62.4402 H   0  0  0  0  0  0  0  0  0  0  0  0
  -36.6684   60.2630   63.7498 H   0  0  0  0  0  0  0  0  0  0  0  0
  -37.9450   60.2731   62.5819 H   0  0  0  0  0  0  0  0  0  0  0  0
  -40.9394   60.8604   66.0042 H   0  0  0  0  0  0  0  0  0  0  0  0
  -40.1713   59.2627   66.0109 H   0  0  0  0  0  0  0  0  0  0  0  0
  -41.8086   58.4429   64.4703 H   0  0  0  0  0  0  0  0  0  0  0  0
  -42.5713   60.0428   64.4426 H   0  0  0  0  0  0  0  0  0  0  0  0
  -43.7930   58.5073   65.8363 H   0  0  0  0  0  0  0  0  0  0  0  0
  -43.0753   59.8597   66.7531 H   0  0  0  0  0  0  0  0  0  0  0  0
  -42.0192   57.0902   66.6505 H   0  0  0  0  0  0  0  0  0  0  0  0
  -42.9543   57.8333   67.9702 H   0  0  0  0  0  0  0  0  0  0  0  0
  -40.2789   58.7234   67.0366 H   0  0  0  0  0  0  0  0  0  0  0  0
  -40.6258   57.7638   68.4816 H   0  0  0  0  0  0  0  0  0  0  0  0
  -41.9270   59.5449   69.3779 H   0  0  0  0  0  0  0  0  0  0  0  0
  -41.5656   60.5021   67.9069 H   0  0  0  0  0  0  0  0  0  0  0  0
  -39.5889   59.6319   69.9222 H   0  0  0  0  0  0  0  0  0  0  0  0
  -40.3098   61.2469   69.7603 H   0  0  0  0  0  0  0  0  0  0  0  0
  -38.0509   60.2695   68.3880 H   0  0  0  0  0  0  0  0  0  0  0  0
  -38.2038   61.7423   66.7338 H   0  0  0  0  0  0  0  0  0  0  0  0
  -41.0127   62.2380   67.6210 H   0  0  0  0  0  0  0  0  0  0  0  0
  -40.4269   62.2504   65.9267 H   0  0  0  0  0  0  0  0  0  0  0  0
  -39.6990   64.2306   68.0108 H   0  0  0  0  0  0  0  0  0  0  0  0
  -40.8834   64.4500   66.7121 H   0  0  0  0  0  0  0  0  0  0  0  0
  -39.1789   64.1635   65.0785 H   0  0  0  0  0  0  0  0  0  0  0  0
  -37.9926   63.9360   66.3943 H   0  0  0  0  0  0  0  0  0  0  0  0
  -39.5008   66.4295   65.8471 H   0  0  0  0  0  0  0  0  0  0  0  0
  -37.8146   66.0990   65.4210 H   0  0  0  0  0  0  0  0  0  0  0  0
  -37.2575   65.8485   67.7286 H   0  0  0  0  0  0  0  0  0  0  0  0
  -38.9643   66.1785   68.1463 H   0  0  0  0  0  0  0  0  0  0  0  0
  -38.7703   68.3824   67.3400 H   0  0  0  0  0  0  0  0  0  0  0  0
  -37.0828   68.0689   66.8884 H   0  0  0  0  0  0  0  0  0  0  0  0
  -37.2432   69.3204   68.9029 H   0  0  0  0  0  0  0  0  0  0  0  0
  -36.5286   67.7108   69.1340 H   0  0  0  0  0  0  0  0  0  0  0  0
  -39.2882   68.5056   69.7920 H   0  0  0  0  0  0  0  0  0  0  0  0
  -37.9755   68.2631   70.9194 H   0  0  0  0  0  0  0  0  0  0  0  0
  -38.5855   66.9177   69.9863 H   0  0  0  0  0  0  0  0  0  0  0  0
  1  9  1  0  0  0  0
  1 11  1  0  0  0  0
  1 13  1  0  0  0  0
  1 15  1  0  0  0  0
  2  3  1  0  0  0  0
  2  5  1  0  0  0  0
  2 17  1  0  0  0  0
  2 36  1  6  0  0  0
  3 37  1  0  0  0  0
  4  6  1  0  0  0  0
  4  8  2  1  0  0  0
  4 10  1  0  0  0  0
  4 12  1  0  0  0  0
  5  6  1  0  0  0  0
  5 38  1  0  0  0  0
  5 39  1  0  0  0  0
  7  9  1  0  0  0  0
  7 10  1  0  0  0  0
  7 40  1  0  0  0  0
  7 41  1  0  0  0  0
  9 42  1  0  0  0  0
  9 43  1  0  0  0  0
 11 44  1  0  0  0  0
 11 45  1  0  0  0  0
 11 46  1  0  0  0  0
 12 47  1  0  0  0  0
 13 48  1  0  0  0  0
 13 49  1  0  0  0  0
 13 50  1  0  0  0  0
 14 17  1  0  0  0  0
 14 18  1  0  0  0  0
 15 51  1  0  0  0  0
 15 52  1  0  0  0  0
 15 53  1  0  0  0  0
 16 18  2  0  0  0  0
 17 54  1  0  0  0  0
 17 55  1  0  0  0  0
 18 19  1  0  0  0  0
 19 20  1  0  0  0  0
 19 56  1  0  0  0  0
 19 57  1  0  0  0  0
 20 21  1  0  0  0  0
 20 58  1  0  0  0  0
 20 59  1  0  0  0  0
 21 22  1  0  0  0  0
 21 60  1  0  0  0  0
 21 61  1  0  0  0  0
 22 23  1  0  0  0  0
 22 62  1  0  0  0  0
 22 63  1  0  0  0  0
 23 24  1  0  0  0  0
 23 64  1  0  0  0  0
 23 65  1  0  0  0  0
 24 25  1  0  0  0  0
 24 66  1  0  0  0  0
 24 67  1  0  0  0  0
 25 26  1  0  0  0  0
 25 68  1  0  0  0  0
 25 69  1  0  0  0  0
 26 27  2  0  0  0  0
 26 70  1  0  0  0  0
 27 28  1  0  0  0  0
 27 71  1  0  0  0  0
 28 29  1  0  0  0  0
 28 72  1  0  0  0  0
 28 73  1  0  0  0  0
 29 30  1  0  0  0  0
 29 74  1  0  0  0  0
 29 75  1  0  0  0  0
 30 31  1  0  0  0  0
 30 76  1  0  0  0  0
 30 77  1  0  0  0  0
 31 32  1  0  0  0  0
 31 78  1  0  0  0  0
 31 79  1  0  0  0  0
 32 33  1  0  0  0  0
 32 80  1  0  0  0  0
 32 81  1  0  0  0  0
 33 34  1  0  0  0  0
 33 82  1  0  0  0  0
 33 83  1  0  0  0  0
 34 35  1  0  0  0  0
 34 84  1  0  0  0  0
 34 85  1  0  0  0  0
 35 86  1  0  0  0  0
 35 87  1  0  0  0  0
 35 88  1  0  0  0  0
M  CHG  1   8  -1
M  END
$$$$