/media/chris/experiments/cd1a-new-docking/inputs/ligands/4x6c_ligand.pdb
 OpenBabel07012320263D

 88 87  0  0  1  0  0  0  0  0999 V2000
  -41.9002   51.5072   62.8102 N   0  0  0  0  0  4  0  0  0  0  0  0
  -38.5182   56.5608   67.2647 C   0  0  1  0  0  0  0  0  0  0  0  0
  -38.9658   57.4418   68.2950 O   0  0  0  0  0  0  0  0  0  0  0  0
  -42.0456   55.0206   66.6040 P   0  0  2  0  0  0  0  0  0  0  0  0
  -39.5118   55.4313   67.1397 C   0  0  0  0  0  0  0  0  0  0  0  0
  -40.7951   55.9860   66.7870 O   0  0  0  0  0  0  0  0  0  0  0  0
  -41.9582   53.0719   64.8486 C   0  0  0  0  0  0  0  0  0  0  0  0
  -41.8332   53.8632   67.4964 O   0  5  0  0  0  0  0  0  0  0  0  0
  -41.9699   52.9241   63.3441 C   0  0  0  0  0  0  0  0  0  0  0  0
  -42.0489   54.4925   65.1080 O   0  0  0  0  0  0  0  0  0  0  0  0
  -43.0682   50.6981   63.2747 C   0  0  0  0  0  0  0  0  0  0  0  0
  -43.2546   55.8498   66.7767 O   0  0  0  0  0  0  0  0  0  0  0  0
  -40.6445   50.8529   63.2905 C   0  0  0  0  0  0  0  0  0  0  0  0
  -39.5367   57.9710   65.6436 O   0  0  0  0  0  0  0  0  0  0  0  0
  -41.9016   51.5346   61.3140 C   0  0  0  0  0  0  0  0  0  0  0  0
  -39.5314   59.3433   67.4004 O   0  0  0  0  0  0  0  0  0  0  0  0
  -38.2816   57.3477   65.9962 C   0  0  0  0  0  0  0  0  0  0  0  0
  -39.8694   59.0915   66.2844 C   0  0  0  0  0  0  0  0  0  0  0  0
  -40.7200   59.9800   65.4370 C   0  0  0  0  0  0  0  0  0  0  0  0
  -42.0280   59.3300   65.0270 C   0  0  0  0  0  0  0  0  0  0  0  0
  -42.8960   58.9560   66.2090 C   0  0  0  0  0  0  0  0  0  0  0  0
  -43.3110   60.1221   67.0749 C   0  0  0  0  0  0  0  0  0  0  0  0
  -44.1610   59.7323   68.2572 C   0  0  0  0  0  0  0  0  0  0  0  0
  -45.4346   59.0435   67.8464 C   0  0  0  0  0  0  0  0  0  0  0  0
  -45.2577   57.7641   67.0836 C   0  0  0  0  0  0  0  0  0  0  0  0
  -46.5291   57.1389   66.6913 C   0  0  0  0  0  0  0  0  0  0  0  0
  -46.9572   56.8694   65.4777 C   0  0  0  0  0  0  0  0  0  0  0  0
  -46.2587   57.1055   64.1890 C   0  0  0  0  0  0  0  0  0  0  0  0
  -44.9384   56.3821   64.0196 C   0  0  0  0  0  0  0  0  0  0  0  0
  -45.0826   54.8864   64.0842 C   0  0  0  0  0  0  0  0  0  0  0  0
  -45.6637   54.3651   65.3736 C   0  0  0  0  0  0  0  0  0  0  0  0
  -45.7720   52.8563   65.3947 C   0  0  0  0  0  0  0  0  0  0  0  0
  -46.6246   52.2673   64.3057 C   0  0  0  0  0  0  0  0  0  0  0  0
  -48.0187   52.7522   64.3322 C   0  0  0  0  0  0  0  0  0  0  0  0
  -48.8556   52.1697   63.2851 C   0  0  0  0  0  0  0  0  0  0  0  0
  -37.5757   56.1103   67.4963 H   0  0  0  0  0  0  0  0  0  0  0  0
  -39.8203   57.8258   68.0434 H   0  0  0  0  0  0  0  0  0  0  0  0
  -39.5872   54.9124   68.0725 H   0  0  0  0  0  0  0  0  0  0  0  0
  -39.1908   54.7431   66.3859 H   0  0  0  0  0  0  0  0  0  0  0  0
  -41.0505   52.6766   65.2544 H   0  0  0  0  0  0  0  0  0  0  0  0
  -42.7664   52.5372   65.3023 H   0  0  0  0  0  0  0  0  0  0  0  0
  -42.8736   53.3662   62.9797 H   0  0  0  0  0  0  0  0  0  0  0  0
  -41.0762   53.4032   63.0024 H   0  0  0  0  0  0  0  0  0  0  0  0
  -43.0798   50.6698   64.3443 H   0  0  0  0  0  0  0  0  0  0  0  0
  -42.9868   49.7020   62.8925 H   0  0  0  0  0  0  0  0  0  0  0  0
  -43.9742   51.1433   62.9198 H   0  0  0  0  0  0  0  0  0  0  0  0
  -43.2856   56.1911   67.6842 H   0  0  0  0  0  0  0  0  0  0  0  0
  -40.6402   50.8316   64.3603 H   0  0  0  0  0  0  0  0  0  0  0  0
  -39.7979   51.4063   62.9413 H   0  0  0  0  0  0  0  0  0  0  0  0
  -40.5969   49.8526   62.9136 H   0  0  0  0  0  0  0  0  0  0  0  0
  -42.7992   52.0023   60.9667 H   0  0  0  0  0  0  0  0  0  0  0  0
  -41.8529   50.5337   60.9389 H   0  0  0  0  0  0  0  0  0  0  0  0
  -41.0539   52.0873   60.9665 H   0  0  0  0  0  0  0  0  0  0  0  0
  -37.9636   56.6931   65.2118 H   0  0  0  0  0  0  0  0  0  0  0  0
  -37.5181   58.0833   66.1407 H   0  0  0  0  0  0  0  0  0  0  0  0
  -40.1733   60.2341   64.5530 H   0  0  0  0  0  0  0  0  0  0  0  0
  -40.9602   60.8449   66.0193 H   0  0  0  0  0  0  0  0  0  0  0  0
  -41.8086   58.4429   64.4703 H   0  0  0  0  0  0  0  0  0  0  0  0
  -42.5713   60.0428   64.4426 H   0  0  0  0  0  0  0  0  0  0  0  0
  -42.3518   58.2646   66.8179 H   0  0  0  0  0  0  0  0  0  0  0  0
  -43.7960   58.5403   65.8064 H   0  0  0  0  0  0  0  0  0  0  0  0
  -43.8675   60.8086   66.4716 H   0  0  0  0  0  0  0  0  0  0  0  0
  -42.4135   60.5536   67.4661 H   0  0  0  0  0  0  0  0  0  0  0  0
  -44.4100   60.6155   68.8074 H   0  0  0  0  0  0  0  0  0  0  0  0
  -43.5962   59.0456   68.8526 H   0  0  0  0  0  0  0  0  0  0  0  0
  -45.9920   59.7195   67.2322 H   0  0  0  0  0  0  0  0  0  0  0  0
  -45.9324   58.7780   68.7556 H   0  0  0  0  0  0  0  0  0  0  0  0
  -44.7159   57.0752   67.6974 H   0  0  0  0  0  0  0  0  0  0  0  0
  -44.7315   58.0029   66.1830 H   0  0  0  0  0  0  0  0  0  0  0  0
  -47.1632   56.8797   67.4631 H   0  0  0  0  0  0  0  0  0  0  0  0
  -47.8939   56.4411   65.4130 H   0  0  0  0  0  0  0  0  0  0  0  0
  -46.0725   58.1557   64.1028 H   0  0  0  0  0  0  0  0  0  0  0  0
  -46.9052   56.7178   63.4296 H   0  0  0  0  0  0  0  0  0  0  0  0
  -44.2741   56.6957   64.7976 H   0  0  0  0  0  0  0  0  0  0  0  0
  -44.5575   56.6281   63.0504 H   0  0  0  0  0  0  0  0  0  0  0  0
  -44.1132   54.4522   63.9559 H   0  0  0  0  0  0  0  0  0  0  0  0
  -45.7708   54.6153   63.3110 H   0  0  0  0  0  0  0  0  0  0  0  0
  -46.6413   54.7808   65.5017 H   0  0  0  0  0  0  0  0  0  0  0  0
  -45.0053   54.6540   66.1660 H   0  0  0  0  0  0  0  0  0  0  0  0
  -46.1887   52.5662   66.3366 H   0  0  0  0  0  0  0  0  0  0  0  0
  -44.7822   52.4823   65.2360 H   0  0  0  0  0  0  0  0  0  0  0  0
  -46.6325   51.2032   64.4179 H   0  0  0  0  0  0  0  0  0  0  0  0
  -46.2005   52.5697   63.3711 H   0  0  0  0  0  0  0  0  0  0  0  0
  -48.0106   53.8149   64.2080 H   0  0  0  0  0  0  0  0  0  0  0  0
  -48.4377   52.4581   65.2718 H   0  0  0  0  0  0  0  0  0  0  0  0
  -48.4678   52.4420   62.3258 H   0  0  0  0  0  0  0  0  0  0  0  0
  -49.8560   52.5367   63.3827 H   0  0  0  0  0  0  0  0  0  0  0  0
  -48.8558   51.1039   63.3803 H   0  0  0  0  0  0  0  0  0  0  0  0
  1  9  1  0  0  0  0
  1 11  1  0  0  0  0
  1 13  1  0  0  0  0
  1 15  1  0  0  0  0
  2  3  1  0  0  0  0
  2  5  1  0  0  0  0
  2 17  1  0  0  0  0
  2 36  1  1  0  0  0
  3 37  1  0  0  0  0
  4  6  1  0  0  0  0
  4  8  2  1  0  0  0
  4 10  1  0  0  0  0
  4 12  1  0  0  0  0
  5  6  1  0  0  0  0
  5 38  1  0  0  0  0
  5 39  1  0  0  0  0
  7  9  1  0  0  0  0
  7 10  1  0  0  0  0
  7 40  1  0  0  0  0
  7 41  1  0  0  0  0
  9 42  1  0  0  0  0
  9 43  1  0  0  0  0
 11 44  1  0  0  0  0
 11 45  1  0  0  0  0
 11 46  1  0  0  0  0
 12 47  1  0  0  0  0
 13 48  1  0  0  0  0
 13 49  1  0  0  0  0
 13 50  1  0  0  0  0
 14 17  1  0  0  0  0
 14 18  1  0  0  0  0
 15 51  1  0  0  0  0
 15 52  1  0  0  0  0
 15 53  1  0  0  0  0
 16 18  2  0  0  0  0
 17 54  1  0  0  0  0
 17 55  1  0  0  0  0
 18 19  1  0  0  0  0
 19 20  1  0  0  0  0
 19 56  1  0  0  0  0
 19 57  1  0  0  0  0
 20 21  1  0  0  0  0
 20 58  1  0  0  0  0
 20 59  1  0  0  0  0
 21 22  1  0  0  0  0
 21 60  1  0  0  0  0
 21 61  1  0  0  0  0
 22 23  1  0  0  0  0
 22 62  1  0  0  0  0
 22 63  1  0  0  0  0
 23 24  1  0  0  0  0
 23 64  1  0  0  0  0
 23 65  1  0  0  0  0
 24 25  1  0  0  0  0
 24 66  1  0  0  0  0
 24 67  1  0  0  0  0
 25 26  1  0  0  0  0
 25 68  1  0  0  0  0
 25 69  1  0  0  0  0
 26 27  2  0  0  0  0
 26 70  1  0  0  0  0
 27 28  1  0  0  0  0
 27 71  1  0  0  0  0
 28 29  1  0  0  0  0
 28 72  1  0  0  0  0
 28 73  1  0  0  0  0
 29 30  1  0  0  0  0
 29 74  1  0  0  0  0
 29 75  1  0  0  0  0
 30 31  1  0  0  0  0
 30 76  1  0  0  0  0
 30 77  1  0  0  0  0
 31 32  1  0  0  0  0
 31 78  1  0  0  0  0
 31 79  1  0  0  0  0
 32 33  1  0  0  0  0
 32 80  1  0  0  0  0
 32 81  1  0  0  0  0
 33 34  1  0  0  0  0
 33 82  1  0  0  0  0
 33 83  1  0  0  0  0
 34 35  1  0  0  0  0
 34 84  1  0  0  0  0
 34 85  1  0  0  0  0
 35 86  1  0  0  0  0
 35 87  1  0  0  0  0
 35 88  1  0  0  0  0
M  CHG  1   8  -1
M  END
$$$$