/media/chris/experiments/cd1a-new-docking/inputs/ligands/4x6c_ligand.pdb
 OpenBabel07012320263D

 88 87  0  0  1  0  0  0  0  0999 V2000
  -33.7339   63.2704   64.5410 N   0  0  0  0  0  4  0  0  0  0  0  0
  -38.1304   61.3670   67.4184 C   0  0  1  0  0  0  0  0  0  0  0  0
  -38.8241   60.1405   67.6480 O   0  0  0  0  0  0  0  0  0  0  0  0
  -37.0717   60.4593   63.7706 P   0  0  2  0  0  0  0  0  0  0  0  0
  -37.1412   61.1515   66.2989 C   0  0  0  0  0  0  0  0  0  0  0  0
  -37.8665   60.7692   65.1128 O   0  0  0  0  0  0  0  0  0  0  0  0
  -36.1043   62.8941   63.6211 C   0  0  0  0  0  0  0  0  0  0  0  0
  -35.7453   59.9416   64.1627 O   0  5  0  0  0  0  0  0  0  0  0  0
  -34.7210   62.3368   63.8689 C   0  0  0  0  0  0  0  0  0  0  0  0
  -36.8553   61.8268   62.9960 O   0  0  0  0  0  0  0  0  0  0  0  0
  -34.2184   63.6842   65.8934 C   0  0  0  0  0  0  0  0  0  0  0  0
  -37.9535   59.6198   62.9359 O   0  0  0  0  0  0  0  0  0  0  0  0
  -33.5534   64.4952   63.7028 C   0  0  0  0  0  0  0  0  0  0  0  0
  -39.9204   62.0973   66.0341 O   0  0  0  0  0  0  0  0  0  0  0  0
  -32.4157   62.5792   64.6958 C   0  0  0  0  0  0  0  0  0  0  0  0
  -41.8412   61.4362   66.9521 O   0  0  0  0  0  0  0  0  0  0  0  0
  -39.1307   62.4754   67.1836 C   0  0  0  0  0  0  0  0  0  0  0  0
  -40.9154   61.2318   66.2282 C   0  0  0  0  0  0  0  0  0  0  0  0
  -40.7200   59.9800   65.4370 C   0  0  0  0  0  0  0  0  0  0  0  0
  -42.0280   59.3300   65.0270 C   0  0  0  0  0  0  0  0  0  0  0  0
  -42.8960   58.9560   66.2090 C   0  0  0  0  0  0  0  0  0  0  0  0
  -44.2012   58.2902   65.8416 C   0  0  0  0  0  0  0  0  0  0  0  0
  -45.0623   57.9388   67.0279 C   0  0  0  0  0  0  0  0  0  0  0  0
  -45.4546   59.1497   67.8311 C   0  0  0  0  0  0  0  0  0  0  0  0
  -46.2524   60.1824   67.0913 C   0  0  0  0  0  0  0  0  0  0  0  0
  -47.5346   59.6741   66.5827 C   0  0  0  0  0  0  0  0  0  0  0  0
  -48.7447   60.1011   66.8688 C   0  0  0  0  0  0  0  0  0  0  0  0
  -49.1303   61.2224   67.7624 C   0  0  0  0  0  0  0  0  0  0  0  0
  -50.6195   61.4624   67.9037 C   0  0  0  0  0  0  0  0  0  0  0  0
  -51.3477   60.2772   68.4756 C   0  0  0  0  0  0  0  0  0  0  0  0
  -52.8365   60.4626   68.6198 C   0  0  0  0  0  0  0  0  0  0  0  0
  -53.5209   60.7240   67.2962 C   0  0  0  0  0  0  0  0  0  0  0  0
  -55.0070   60.9336   67.3821 C   0  0  0  0  0  0  0  0  0  0  0  0
  -55.3835   62.0934   68.2141 C   0  0  0  0  0  0  0  0  0  0  0  0
  -54.8545   63.3613   67.7154 C   0  0  0  0  0  0  0  0  0  0  0  0
  -37.5611   61.6773   68.2696 H   0  0  0  0  0  0  0  0  0  0  0  0
  -39.3248   59.8986   66.8533 H   0  0  0  0  0  0  0  0  0  0  0  0
  -36.4553   60.3756   66.5679 H   0  0  0  0  0  0  0  0  0  0  0  0
  -36.5917   62.0516   66.1177 H   0  0  0  0  0  0  0  0  0  0  0  0
  -36.0528   63.7429   62.9716 H   0  0  0  0  0  0  0  0  0  0  0  0
  -36.5657   63.2192   64.5301 H   0  0  0  0  0  0  0  0  0  0  0  0
  -34.8243   61.4702   64.4880 H   0  0  0  0  0  0  0  0  0  0  0  0
  -34.3138   62.1395   62.8993 H   0  0  0  0  0  0  0  0  0  0  0  0
  -35.1616   64.1805   65.7979 H   0  0  0  0  0  0  0  0  0  0  0  0
  -33.5086   64.3499   66.3383 H   0  0  0  0  0  0  0  0  0  0  0  0
  -34.3319   62.8185   66.5119 H   0  0  0  0  0  0  0  0  0  0  0  0
  -38.1082   58.7716   63.3805 H   0  0  0  0  0  0  0  0  0  0  0  0
  -34.4943   64.9921   63.5901 H   0  0  0  0  0  0  0  0  0  0  0  0
  -33.1796   64.2164   62.7398 H   0  0  0  0  0  0  0  0  0  0  0  0
  -32.8571   65.1537   64.1787 H   0  0  0  0  0  0  0  0  0  0  0  0
  -32.5412   61.7019   65.2954 H   0  0  0  0  0  0  0  0  0  0  0  0
  -31.7204   63.2394   65.1708 H   0  0  0  0  0  0  0  0  0  0  0  0
  -32.0429   62.3021   63.7319 H   0  0  0  0  0  0  0  0  0  0  0  0
  -38.6203   63.3961   66.9917 H   0  0  0  0  0  0  0  0  0  0  0  0
  -39.7520   62.6167   68.0432 H   0  0  0  0  0  0  0  0  0  0  0  0
  -40.1644   59.2843   66.0305 H   0  0  0  0  0  0  0  0  0  0  0  0
  -40.1985   60.2448   64.5410 H   0  0  0  0  0  0  0  0  0  0  0  0
  -41.8086   58.4429   64.4703 H   0  0  0  0  0  0  0  0  0  0  0  0
  -42.5713   60.0428   64.4426 H   0  0  0  0  0  0  0  0  0  0  0  0
  -43.1183   59.8483   66.7560 H   0  0  0  0  0  0  0  0  0  0  0  0
  -42.3406   58.2423   66.7808 H   0  0  0  0  0  0  0  0  0  0  0  0
  -43.9814   57.3901   65.3063 H   0  0  0  0  0  0  0  0  0  0  0  0
  -44.7539   58.9929   65.2537 H   0  0  0  0  0  0  0  0  0  0  0  0
  -44.5188   57.2683   67.6603 H   0  0  0  0  0  0  0  0  0  0  0  0
  -45.9594   57.4883   66.6576 H   0  0  0  0  0  0  0  0  0  0  0  0
  -44.5587   59.6157   68.1846 H   0  0  0  0  0  0  0  0  0  0  0  0
  -46.0905   58.7909   68.6133 H   0  0  0  0  0  0  0  0  0  0  0  0
  -45.6721   60.5297   66.2622 H   0  0  0  0  0  0  0  0  0  0  0  0
  -46.4756   60.9662   67.7847 H   0  0  0  0  0  0  0  0  0  0  0  0
  -47.4779   58.8852   65.9196 H   0  0  0  0  0  0  0  0  0  0  0  0
  -49.5220   59.5947   66.4168 H   0  0  0  0  0  0  0  0  0  0  0  0
  -48.6874   62.1173   67.3780 H   0  0  0  0  0  0  0  0  0  0  0  0
  -48.7827   60.9530   68.7378 H   0  0  0  0  0  0  0  0  0  0  0  0
  -51.0244   61.6790   66.9373 H   0  0  0  0  0  0  0  0  0  0  0  0
  -50.7518   62.2802   68.5810 H   0  0  0  0  0  0  0  0  0  0  0  0
  -50.9419   60.0723   69.4443 H   0  0  0  0  0  0  0  0  0  0  0  0
  -51.2087   59.4738   67.7827 H   0  0  0  0  0  0  0  0  0  0  0  0
  -53.0171   61.2937   69.2690 H   0  0  0  0  0  0  0  0  0  0  0  0
  -53.2390   59.5552   69.0191 H   0  0  0  0  0  0  0  0  0  0  0  0
  -53.3400   59.8851   66.6571 H   0  0  0  0  0  0  0  0  0  0  0  0
  -53.1103   61.6384   66.9217 H   0  0  0  0  0  0  0  0  0  0  0  0
  -55.4506   60.0552   67.8024 H   0  0  0  0  0  0  0  0  0  0  0  0
  -55.3589   61.1261   66.3901 H   0  0  0  0  0  0  0  0  0  0  0  0
  -55.0101   61.9360   69.2043 H   0  0  0  0  0  0  0  0  0  0  0  0
  -56.4509   62.1655   68.1911 H   0  0  0  0  0  0  0  0  0  0  0  0
  -53.7850   63.3291   67.7227 H   0  0  0  0  0  0  0  0  0  0  0  0
  -55.1915   64.1598   68.3428 H   0  0  0  0  0  0  0  0  0  0  0  0
  -55.1996   63.5233   66.7156 H   0  0  0  0  0  0  0  0  0  0  0  0
  1  9  1  0  0  0  0
  1 11  1  0  0  0  0
  1 13  1  0  0  0  0
  1 15  1  0  0  0  0
  2  3  1  0  0  0  0
  2  5  1  0  0  0  0
  2 17  1  0  0  0  0
  2 36  1  1  0  0  0
  3 37  1  0  0  0  0
  4  6  1  0  0  0  0
  4  8  2  1  0  0  0
  4 10  1  0  0  0  0
  4 12  1  0  0  0  0
  5  6  1  0  0  0  0
  5 38  1  0  0  0  0
  5 39  1  0  0  0  0
  7  9  1  0  0  0  0
  7 10  1  0  0  0  0
  7 40  1  0  0  0  0
  7 41  1  0  0  0  0
  9 42  1  0  0  0  0
  9 43  1  0  0  0  0
 11 44  1  0  0  0  0
 11 45  1  0  0  0  0
 11 46  1  0  0  0  0
 12 47  1  0  0  0  0
 13 48  1  0  0  0  0
 13 49  1  0  0  0  0
 13 50  1  0  0  0  0
 14 17  1  0  0  0  0
 14 18  1  0  0  0  0
 15 51  1  0  0  0  0
 15 52  1  0  0  0  0
 15 53  1  0  0  0  0
 16 18  2  0  0  0  0
 17 54  1  0  0  0  0
 17 55  1  0  0  0  0
 18 19  1  0  0  0  0
 19 20  1  0  0  0  0
 19 56  1  0  0  0  0
 19 57  1  0  0  0  0
 20 21  1  0  0  0  0
 20 58  1  0  0  0  0
 20 59  1  0  0  0  0
 21 22  1  0  0  0  0
 21 60  1  0  0  0  0
 21 61  1  0  0  0  0
 22 23  1  0  0  0  0
 22 62  1  0  0  0  0
 22 63  1  0  0  0  0
 23 24  1  0  0  0  0
 23 64  1  0  0  0  0
 23 65  1  0  0  0  0
 24 25  1  0  0  0  0
 24 66  1  0  0  0  0
 24 67  1  0  0  0  0
 25 26  1  0  0  0  0
 25 68  1  0  0  0  0
 25 69  1  0  0  0  0
 26 27  2  0  0  0  0
 26 70  1  0  0  0  0
 27 28  1  0  0  0  0
 27 71  1  0  0  0  0
 28 29  1  0  0  0  0
 28 72  1  0  0  0  0
 28 73  1  0  0  0  0
 29 30  1  0  0  0  0
 29 74  1  0  0  0  0
 29 75  1  0  0  0  0
 30 31  1  0  0  0  0
 30 76  1  0  0  0  0
 30 77  1  0  0  0  0
 31 32  1  0  0  0  0
 31 78  1  0  0  0  0
 31 79  1  0  0  0  0
 32 33  1  0  0  0  0
 32 80  1  0  0  0  0
 32 81  1  0  0  0  0
 33 34  1  0  0  0  0
 33 82  1  0  0  0  0
 33 83  1  0  0  0  0
 34 35  1  0  0  0  0
 34 84  1  0  0  0  0
 34 85  1  0  0  0  0
 35 86  1  0  0  0  0
 35 87  1  0  0  0  0
 35 88  1  0  0  0  0
M  CHG  1   8  -1
M  END
$$$$