/media/chris/experiments/cd1a-new-docking/inputs/ligands/4x6c_ligand.pdb
 OpenBabel07012320263D

 88 87  0  0  1  0  0  0  0  0999 V2000
  -37.9737   67.4243   57.1335 N   0  0  0  0  0  4  0  0  0  0  0  0
  -39.0847   60.8760   61.3870 C   0  0  1  0  0  0  0  0  0  0  0  0
  -39.7594   59.8303   60.6875 O   0  0  0  0  0  0  0  0  0  0  0  0
  -38.8400   63.2332   58.2830 P   0  0  2  0  0  0  0  0  0  0  0  0
  -38.3579   61.7315   60.3779 C   0  0  0  0  0  0  0  0  0  0  0  0
  -39.3270   62.2945   59.4708 O   0  0  0  0  0  0  0  0  0  0  0  0
  -39.6049   65.7417   58.1895 C   0  0  0  0  0  0  0  0  0  0  0  0
  -37.6087   63.9077   58.7413 O   0  5  0  0  0  0  0  0  0  0  0  0
  -38.5222   66.0116   57.1694 C   0  0  0  0  0  0  0  0  0  0  0  0
  -39.9475   64.3436   58.0432 O   0  0  0  0  0  0  0  0  0  0  0  0
  -39.0548   68.4150   56.8424 C   0  0  0  0  0  0  0  0  0  0  0  0
  -38.7918   62.3955   57.0685 O   0  0  0  0  0  0  0  0  0  0  0  0
  -36.9304   67.5288   56.0677 C   0  0  0  0  0  0  0  0  0  0  0  0
  -40.6084   60.6579   63.1994 O   0  0  0  0  0  0  0  0  0  0  0  0
  -37.3622   67.7585   58.4577 C   0  0  0  0  0  0  0  0  0  0  0  0
  -38.6783   60.3998   64.2845 O   0  0  0  0  0  0  0  0  0  0  0  0
  -40.0713   61.6162   62.2607 C   0  0  0  0  0  0  0  0  0  0  0  0
  -39.8706   60.3644   64.2700 C   0  0  0  0  0  0  0  0  0  0  0  0
  -40.7200   59.9800   65.4370 C   0  0  0  0  0  0  0  0  0  0  0  0
  -42.0280   59.3300   65.0270 C   0  0  0  0  0  0  0  0  0  0  0  0
  -42.8960   58.9560   66.2090 C   0  0  0  0  0  0  0  0  0  0  0  0
  -44.2012   58.2902   65.8416 C   0  0  0  0  0  0  0  0  0  0  0  0
  -45.0623   57.9388   67.0279 C   0  0  0  0  0  0  0  0  0  0  0  0
  -44.3705   57.0027   67.9821 C   0  0  0  0  0  0  0  0  0  0  0  0
  -43.1025   57.5245   68.5905 C   0  0  0  0  0  0  0  0  0  0  0  0
  -43.2966   58.7466   69.3840 C   0  0  0  0  0  0  0  0  0  0  0  0
  -43.0427   58.9306   70.6609 C   0  0  0  0  0  0  0  0  0  0  0  0
  -42.4727   57.9593   71.6283 C   0  0  0  0  0  0  0  0  0  0  0  0
  -41.0864   57.4452   71.2977 C   0  0  0  0  0  0  0  0  0  0  0  0
  -40.0588   58.5417   71.2379 C   0  0  0  0  0  0  0  0  0  0  0  0
  -39.8781   59.3059   72.5244 C   0  0  0  0  0  0  0  0  0  0  0  0
  -38.8473   60.4070   72.4070 C   0  0  0  0  0  0  0  0  0  0  0  0
  -38.6136   61.1927   73.6671 C   0  0  0  0  0  0  0  0  0  0  0  0
  -39.8306   61.8590   74.1710 C   0  0  0  0  0  0  0  0  0  0  0  0
  -39.6046   62.6376   75.3871 C   0  0  0  0  0  0  0  0  0  0  0  0
  -38.3403   60.5015   62.0582 H   0  0  0  0  0  0  0  0  0  0  0  0
  -40.4226   60.2145   60.0930 H   0  0  0  0  0  0  0  0  0  0  0  0
  -37.6596   61.1315   59.8327 H   0  0  0  0  0  0  0  0  0  0  0  0
  -37.8259   62.5143   60.8771 H   0  0  0  0  0  0  0  0  0  0  0  0
  -40.4593   66.3565   57.9971 H   0  0  0  0  0  0  0  0  0  0  0  0
  -39.2733   65.9633   59.1825 H   0  0  0  0  0  0  0  0  0  0  0  0
  -37.7070   65.3501   57.3758 H   0  0  0  0  0  0  0  0  0  0  0  0
  -38.9829   65.8590   56.2158 H   0  0  0  0  0  0  0  0  0  0  0  0
  -39.5016   68.1879   55.8970 H   0  0  0  0  0  0  0  0  0  0  0  0
  -38.6374   69.3998   56.8123 H   0  0  0  0  0  0  0  0  0  0  0  0
  -39.7991   68.3664   57.6095 H   0  0  0  0  0  0  0  0  0  0  0  0
  -38.1222   61.7026   57.1800 H   0  0  0  0  0  0  0  0  0  0  0  0
  -37.3644   67.2904   55.1191 H   0  0  0  0  0  0  0  0  0  0  0  0
  -36.1355   66.8442   56.2784 H   0  0  0  0  0  0  0  0  0  0  0  0
  -36.5447   68.5265   56.0428 H   0  0  0  0  0  0  0  0  0  0  0  0
  -38.1063   67.6847   59.2230 H   0  0  0  0  0  0  0  0  0  0  0  0
  -36.9761   68.7560   58.4307 H   0  0  0  0  0  0  0  0  0  0  0  0
  -36.5669   67.0737   58.6663 H   0  0  0  0  0  0  0  0  0  0  0  0
  -40.8583   62.0242   61.6615 H   0  0  0  0  0  0  0  0  0  0  0  0
  -39.5944   62.4256   62.7729 H   0  0  0  0  0  0  0  0  0  0  0  0
  -40.9394   60.8604   66.0042 H   0  0  0  0  0  0  0  0  0  0  0  0
  -40.1713   59.2627   66.0109 H   0  0  0  0  0  0  0  0  0  0  0  0
  -41.8086   58.4429   64.4703 H   0  0  0  0  0  0  0  0  0  0  0  0
  -42.5713   60.0428   64.4426 H   0  0  0  0  0  0  0  0  0  0  0  0
  -43.1183   59.8483   66.7560 H   0  0  0  0  0  0  0  0  0  0  0  0
  -42.3406   58.2423   66.7808 H   0  0  0  0  0  0  0  0  0  0  0  0
  -43.9814   57.3901   65.3063 H   0  0  0  0  0  0  0  0  0  0  0  0
  -44.7539   58.9929   65.2537 H   0  0  0  0  0  0  0  0  0  0  0  0
  -45.9577   57.4707   66.6758 H   0  0  0  0  0  0  0  0  0  0  0  0
  -45.2749   58.8446   67.5562 H   0  0  0  0  0  0  0  0  0  0  0  0
  -44.1362   56.1039   67.4510 H   0  0  0  0  0  0  0  0  0  0  0  0
  -45.0496   56.8570   68.7961 H   0  0  0  0  0  0  0  0  0  0  0  0
  -42.4108   57.7378   67.8025 H   0  0  0  0  0  0  0  0  0  0  0  0
  -42.7370   56.7702   69.2555 H   0  0  0  0  0  0  0  0  0  0  0  0
  -43.6792   59.5598   68.8767 H   0  0  0  0  0  0  0  0  0  0  0  0
  -43.2673   59.8651   71.0369 H   0  0  0  0  0  0  0  0  0  0  0  0
  -43.1326   57.1185   71.6785 H   0  0  0  0  0  0  0  0  0  0  0  0
  -42.3764   58.4885   72.5532 H   0  0  0  0  0  0  0  0  0  0  0  0
  -41.1207   56.9561   70.3466 H   0  0  0  0  0  0  0  0  0  0  0  0
  -40.7966   56.7733   72.0784 H   0  0  0  0  0  0  0  0  0  0  0  0
  -40.3540   59.2342   70.4775 H   0  0  0  0  0  0  0  0  0  0  0  0
  -39.1217   58.0671   71.0339 H   0  0  0  0  0  0  0  0  0  0  0  0
  -39.5655   58.6238   73.2872 H   0  0  0  0  0  0  0  0  0  0  0  0
  -40.8152   59.7634   72.7640 H   0  0  0  0  0  0  0  0  0  0  0  0
  -39.1722   61.0866   71.6470 H   0  0  0  0  0  0  0  0  0  0  0  0
  -37.9196   59.9261   72.1770 H   0  0  0  0  0  0  0  0  0  0  0  0
  -37.8737   61.9401   73.4695 H   0  0  0  0  0  0  0  0  0  0  0  0
  -38.2953   60.5010   74.4188 H   0  0  0  0  0  0  0  0  0  0  0  0
  -40.5658   61.1100   74.3795 H   0  0  0  0  0  0  0  0  0  0  0  0
  -40.1533   62.5425   73.4136 H   0  0  0  0  0  0  0  0  0  0  0  0
  -39.2793   61.9870   76.1718 H   0  0  0  0  0  0  0  0  0  0  0  0
  -40.5154   63.1185   75.6771 H   0  0  0  0  0  0  0  0  0  0  0  0
  -38.8538   63.3773   75.2027 H   0  0  0  0  0  0  0  0  0  0  0  0
  1  9  1  0  0  0  0
  1 11  1  0  0  0  0
  1 13  1  0  0  0  0
  1 15  1  0  0  0  0
  2  3  1  0  0  0  0
  2  5  1  0  0  0  0
  2 17  1  0  0  0  0
  2 36  1  1  0  0  0
  3 37  1  0  0  0  0
  4  6  1  0  0  0  0
  4  8  2  1  0  0  0
  4 10  1  0  0  0  0
  4 12  1  0  0  0  0
  5  6  1  0  0  0  0
  5 38  1  0  0  0  0
  5 39  1  0  0  0  0
  7  9  1  0  0  0  0
  7 10  1  0  0  0  0
  7 40  1  0  0  0  0
  7 41  1  0  0  0  0
  9 42  1  0  0  0  0
  9 43  1  0  0  0  0
 11 44  1  0  0  0  0
 11 45  1  0  0  0  0
 11 46  1  0  0  0  0
 12 47  1  0  0  0  0
 13 48  1  0  0  0  0
 13 49  1  0  0  0  0
 13 50  1  0  0  0  0
 14 17  1  0  0  0  0
 14 18  1  0  0  0  0
 15 51  1  0  0  0  0
 15 52  1  0  0  0  0
 15 53  1  0  0  0  0
 16 18  2  0  0  0  0
 17 54  1  0  0  0  0
 17 55  1  0  0  0  0
 18 19  1  0  0  0  0
 19 20  1  0  0  0  0
 19 56  1  0  0  0  0
 19 57  1  0  0  0  0
 20 21  1  0  0  0  0
 20 58  1  0  0  0  0
 20 59  1  0  0  0  0
 21 22  1  0  0  0  0
 21 60  1  0  0  0  0
 21 61  1  0  0  0  0
 22 23  1  0  0  0  0
 22 62  1  0  0  0  0
 22 63  1  0  0  0  0
 23 24  1  0  0  0  0
 23 64  1  0  0  0  0
 23 65  1  0  0  0  0
 24 25  1  0  0  0  0
 24 66  1  0  0  0  0
 24 67  1  0  0  0  0
 25 26  1  0  0  0  0
 25 68  1  0  0  0  0
 25 69  1  0  0  0  0
 26 27  2  0  0  0  0
 26 70  1  0  0  0  0
 27 28  1  0  0  0  0
 27 71  1  0  0  0  0
 28 29  1  0  0  0  0
 28 72  1  0  0  0  0
 28 73  1  0  0  0  0
 29 30  1  0  0  0  0
 29 74  1  0  0  0  0
 29 75  1  0  0  0  0
 30 31  1  0  0  0  0
 30 76  1  0  0  0  0
 30 77  1  0  0  0  0
 31 32  1  0  0  0  0
 31 78  1  0  0  0  0
 31 79  1  0  0  0  0
 32 33  1  0  0  0  0
 32 80  1  0  0  0  0
 32 81  1  0  0  0  0
 33 34  1  0  0  0  0
 33 82  1  0  0  0  0
 33 83  1  0  0  0  0
 34 35  1  0  0  0  0
 34 84  1  0  0  0  0
 34 85  1  0  0  0  0
 35 86  1  0  0  0  0
 35 87  1  0  0  0  0
 35 88  1  0  0  0  0
M  CHG  1   8  -1
M  END
$$$$