/media/chris/experiments/cd1a-new-docking/inputs/ligands/4x6c_ligand.pdb
 OpenBabel07012320263D

 88 87  0  0  1  0  0  0  0  0999 V2000
  -38.7761   54.0806   74.5372 N   0  0  0  0  0  4  0  0  0  0  0  0
  -37.2027   57.9501   67.1659 C   0  0  1  0  0  0  0  0  0  0  0  0
  -35.9741   57.3234   66.7970 O   0  0  0  0  0  0  0  0  0  0  0  0
  -36.7722   57.2640   70.9862 P   0  0  2  0  0  0  0  0  0  0  0  0
  -37.1186   58.3420   68.6211 C   0  0  0  0  0  0  0  0  0  0  0  0
  -36.8882   57.1534   69.4039 O   0  0  0  0  0  0  0  0  0  0  0  0
  -37.5913   55.6843   72.9151 C   0  0  0  0  0  0  0  0  0  0  0  0
  -35.4330   56.7644   71.3581 O   0  5  0  0  0  0  0  0  0  0  0  0
  -38.7990   54.8268   73.2179 C   0  0  0  0  0  0  0  0  0  0  0  0
  -37.8527   56.2975   71.6308 O   0  0  0  0  0  0  0  0  0  0  0  0
  -38.6909   55.0276   75.6907 C   0  0  0  0  0  0  0  0  0  0  0  0
  -37.1508   58.6443   71.3471 O   0  0  0  0  0  0  0  0  0  0  0  0
  -37.5900   53.1712   74.5769 C   0  0  0  0  0  0  0  0  0  0  0  0
  -38.7345   59.6918   66.6427 O   0  0  0  0  0  0  0  0  0  0  0  0
  -40.0257   53.2689   74.6757 C   0  0  0  0  0  0  0  0  0  0  0  0
  -40.1597   57.9783   66.5999 O   0  0  0  0  0  0  0  0  0  0  0  0
  -37.4946   59.0865   66.2132 C   0  0  0  0  0  0  0  0  0  0  0  0
  -39.8694   59.0915   66.2844 C   0  0  0  0  0  0  0  0  0  0  0  0
  -40.7200   59.9800   65.4370 C   0  0  0  0  0  0  0  0  0  0  0  0
  -42.0280   59.3300   65.0270 C   0  0  0  0  0  0  0  0  0  0  0  0
  -42.8960   58.9560   66.2090 C   0  0  0  0  0  0  0  0  0  0  0  0
  -42.2531   57.9915   67.1776 C   0  0  0  0  0  0  0  0  0  0  0  0
  -43.1355   57.6153   68.3405 C   0  0  0  0  0  0  0  0  0  0  0  0
  -42.4571   56.6674   69.2927 C   0  0  0  0  0  0  0  0  0  0  0  0
  -43.2824   56.2352   70.4683 C   0  0  0  0  0  0  0  0  0  0  0  0
  -42.5710   55.3240   71.3765 C   0  0  0  0  0  0  0  0  0  0  0  0
  -42.5322   54.0104   71.3373 C   0  0  0  0  0  0  0  0  0  0  0  0
  -43.1781   53.1063   70.3524 C   0  0  0  0  0  0  0  0  0  0  0  0
  -42.4527   51.8026   70.0887 C   0  0  0  0  0  0  0  0  0  0  0  0
  -43.1516   50.9441   69.0707 C   0  0  0  0  0  0  0  0  0  0  0  0
  -44.5602   50.5529   69.4377 C   0  0  0  0  0  0  0  0  0  0  0  0
  -45.2122   49.6771   68.3905 C   0  0  0  0  0  0  0  0  0  0  0  0
  -44.5165   48.3689   68.1366 C   0  0  0  0  0  0  0  0  0  0  0  0
  -44.4477   47.5054   69.3319 C   0  0  0  0  0  0  0  0  0  0  0  0
  -45.7607   47.1360   69.8572 C   0  0  0  0  0  0  0  0  0  0  0  0
  -38.0387   57.2880   67.0787 H   0  0  0  0  0  0  0  0  0  0  0  0
  -35.2465   57.9579   66.8910 H   0  0  0  0  0  0  0  0  0  0  0  0
  -38.0360   58.8015   68.9245 H   0  0  0  0  0  0  0  0  0  0  0  0
  -36.3185   59.0373   68.7673 H   0  0  0  0  0  0  0  0  0  0  0  0
  -36.7090   55.0809   72.8668 H   0  0  0  0  0  0  0  0  0  0  0  0
  -37.4303   56.4192   73.6760 H   0  0  0  0  0  0  0  0  0  0  0  0
  -39.6594   55.4629   73.2176 H   0  0  0  0  0  0  0  0  0  0  0  0
  -38.8101   54.0704   72.4612 H   0  0  0  0  0  0  0  0  0  0  0  0
  -37.8009   55.6154   75.6046 H   0  0  0  0  0  0  0  0  0  0  0  0
  -38.6653   54.4737   76.6058 H   0  0  0  0  0  0  0  0  0  0  0  0
  -39.5453   55.6717   75.6874 H   0  0  0  0  0  0  0  0  0  0  0  0
  -36.5092   59.2652   70.9680 H   0  0  0  0  0  0  0  0  0  0  0  0
  -36.6946   53.7485   74.4781 H   0  0  0  0  0  0  0  0  0  0  0  0
  -37.6521   52.4687   73.7723 H   0  0  0  0  0  0  0  0  0  0  0  0
  -37.5746   52.6457   75.5089 H   0  0  0  0  0  0  0  0  0  0  0  0
  -40.8768   53.9167   74.6476 H   0  0  0  0  0  0  0  0  0  0  0  0
  -40.0081   52.7433   75.6076 H   0  0  0  0  0  0  0  0  0  0  0  0
  -40.0856   52.5662   73.8710 H   0  0  0  0  0  0  0  0  0  0  0  0
  -37.5946   58.7129   65.2156 H   0  0  0  0  0  0  0  0  0  0  0  0
  -36.6992   59.8022   66.2183 H   0  0  0  0  0  0  0  0  0  0  0  0
  -40.1733   60.2341   64.5530 H   0  0  0  0  0  0  0  0  0  0  0  0
  -40.9602   60.8449   66.0193 H   0  0  0  0  0  0  0  0  0  0  0  0
  -41.8086   58.4429   64.4703 H   0  0  0  0  0  0  0  0  0  0  0  0
  -42.5713   60.0428   64.4426 H   0  0  0  0  0  0  0  0  0  0  0  0
  -43.7930   58.5073   65.8363 H   0  0  0  0  0  0  0  0  0  0  0  0
  -43.0753   59.8597   66.7531 H   0  0  0  0  0  0  0  0  0  0  0  0
  -41.3629   58.4436   67.5625 H   0  0  0  0  0  0  0  0  0  0  0  0
  -42.0545   57.0914   66.6342 H   0  0  0  0  0  0  0  0  0  0  0  0
  -44.0208   57.1478   67.9628 H   0  0  0  0  0  0  0  0  0  0  0  0
  -43.3642   58.5109   68.8794 H   0  0  0  0  0  0  0  0  0  0  0  0
  -41.5772   57.1484   69.6662 H   0  0  0  0  0  0  0  0  0  0  0  0
  -42.2564   55.7791   68.7311 H   0  0  0  0  0  0  0  0  0  0  0  0
  -44.1568   55.7372   70.1044 H   0  0  0  0  0  0  0  0  0  0  0  0
  -43.5222   57.1155   71.0273 H   0  0  0  0  0  0  0  0  0  0  0  0
  -42.0364   55.7702   72.1381 H   0  0  0  0  0  0  0  0  0  0  0  0
  -41.9856   53.5513   72.0826 H   0  0  0  0  0  0  0  0  0  0  0  0
  -43.2573   53.6328   69.4243 H   0  0  0  0  0  0  0  0  0  0  0  0
  -44.1221   52.8359   70.7775 H   0  0  0  0  0  0  0  0  0  0  0  0
  -42.3841   51.2575   71.0069 H   0  0  0  0  0  0  0  0  0  0  0  0
  -41.4862   52.0443   69.6983 H   0  0  0  0  0  0  0  0  0  0  0  0
  -42.5801   50.0489   68.9407 H   0  0  0  0  0  0  0  0  0  0  0  0
  -43.2234   51.5307   68.1786 H   0  0  0  0  0  0  0  0  0  0  0  0
  -45.1440   51.4422   69.5525 H   0  0  0  0  0  0  0  0  0  0  0  0
  -44.5140   49.9910   70.3471 H   0  0  0  0  0  0  0  0  0  0  0  0
  -45.2392   50.2231   67.4707 H   0  0  0  0  0  0  0  0  0  0  0  0
  -46.1834   49.4323   68.7667 H   0  0  0  0  0  0  0  0  0  0  0  0
  -43.5194   48.5724   67.8062 H   0  0  0  0  0  0  0  0  0  0  0  0
  -45.0855   47.8443   67.3976 H   0  0  0  0  0  0  0  0  0  0  0  0
  -43.9109   48.0268   70.0966 H   0  0  0  0  0  0  0  0  0  0  0  0
  -43.9581   46.5999   69.0398 H   0  0  0  0  0  0  0  0  0  0  0  0
  -46.2841   48.0181   70.1615 H   0  0  0  0  0  0  0  0  0  0  0  0
  -45.6383   46.4858   70.6981 H   0  0  0  0  0  0  0  0  0  0  0  0
  -46.3207   46.6335   69.0964 H   0  0  0  0  0  0  0  0  0  0  0  0
  1  9  1  0  0  0  0
  1 11  1  0  0  0  0
  1 13  1  0  0  0  0
  1 15  1  0  0  0  0
  2  3  1  0  0  0  0
  2  5  1  0  0  0  0
  2 17  1  0  0  0  0
  2 36  1  6  0  0  0
  3 37  1  0  0  0  0
  4  6  1  0  0  0  0
  4  8  2  1  0  0  0
  4 10  1  0  0  0  0
  4 12  1  0  0  0  0
  5  6  1  0  0  0  0
  5 38  1  0  0  0  0
  5 39  1  0  0  0  0
  7  9  1  0  0  0  0
  7 10  1  0  0  0  0
  7 40  1  0  0  0  0
  7 41  1  0  0  0  0
  9 42  1  0  0  0  0
  9 43  1  0  0  0  0
 11 44  1  0  0  0  0
 11 45  1  0  0  0  0
 11 46  1  0  0  0  0
 12 47  1  0  0  0  0
 13 48  1  0  0  0  0
 13 49  1  0  0  0  0
 13 50  1  0  0  0  0
 14 17  1  0  0  0  0
 14 18  1  0  0  0  0
 15 51  1  0  0  0  0
 15 52  1  0  0  0  0
 15 53  1  0  0  0  0
 16 18  2  0  0  0  0
 17 54  1  0  0  0  0
 17 55  1  0  0  0  0
 18 19  1  0  0  0  0
 19 20  1  0  0  0  0
 19 56  1  0  0  0  0
 19 57  1  0  0  0  0
 20 21  1  0  0  0  0
 20 58  1  0  0  0  0
 20 59  1  0  0  0  0
 21 22  1  0  0  0  0
 21 60  1  0  0  0  0
 21 61  1  0  0  0  0
 22 23  1  0  0  0  0
 22 62  1  0  0  0  0
 22 63  1  0  0  0  0
 23 24  1  0  0  0  0
 23 64  1  0  0  0  0
 23 65  1  0  0  0  0
 24 25  1  0  0  0  0
 24 66  1  0  0  0  0
 24 67  1  0  0  0  0
 25 26  1  0  0  0  0
 25 68  1  0  0  0  0
 25 69  1  0  0  0  0
 26 27  2  0  0  0  0
 26 70  1  0  0  0  0
 27 28  1  0  0  0  0
 27 71  1  0  0  0  0
 28 29  1  0  0  0  0
 28 72  1  0  0  0  0
 28 73  1  0  0  0  0
 29 30  1  0  0  0  0
 29 74  1  0  0  0  0
 29 75  1  0  0  0  0
 30 31  1  0  0  0  0
 30 76  1  0  0  0  0
 30 77  1  0  0  0  0
 31 32  1  0  0  0  0
 31 78  1  0  0  0  0
 31 79  1  0  0  0  0
 32 33  1  0  0  0  0
 32 80  1  0  0  0  0
 32 81  1  0  0  0  0
 33 34  1  0  0  0  0
 33 82  1  0  0  0  0
 33 83  1  0  0  0  0
 34 35  1  0  0  0  0
 34 84  1  0  0  0  0
 34 85  1  0  0  0  0
 35 86  1  0  0  0  0
 35 87  1  0  0  0  0
 35 88  1  0  0  0  0
M  CHG  1   8  -1
M  END
$$$$