/media/chris/experiments/cd1a-new-docking/inputs/ligands/4x6c_ligand.pdb
 OpenBabel07012320263D

 88 87  0  0  1  0  0  0  0  0999 V2000
  -34.3990   61.6036   71.1825 N   0  0  0  0  0  4  0  0  0  0  0  0
  -36.6839   58.0497   66.7661 C   0  0  1  0  0  0  0  0  0  0  0  0
  -35.9434   58.5582   65.6564 O   0  0  0  0  0  0  0  0  0  0  0  0
  -33.7903   58.5517   69.3403 P   0  0  2  0  0  0  0  0  0  0  0  0
  -35.7061   57.5993   67.8241 C   0  0  0  0  0  0  0  0  0  0  0  0
  -34.9217   58.7361   68.2379 O   0  0  0  0  0  0  0  0  0  0  0  0
  -33.6879   59.2320   71.8728 C   0  0  0  0  0  0  0  0  0  0  0  0
  -33.2879   57.1683   69.2178 O   0  5  0  0  0  0  0  0  0  0  0  0
  -33.2741   60.6261   71.4595 C   0  0  0  0  0  0  0  0  0  0  0  0
  -34.4618   58.7050   70.7695 O   0  0  0  0  0  0  0  0  0  0  0  0
  -35.2866   61.1075   70.0867 C   0  0  0  0  0  0  0  0  0  0  0  0
  -32.8480   59.6763   69.1780 O   0  0  0  0  0  0  0  0  0  0  0  0
  -33.8261   62.9225   70.7731 C   0  0  0  0  0  0  0  0  0  0  0  0
  -38.5713   59.3368   66.1067 O   0  0  0  0  0  0  0  0  0  0  0  0
  -35.2215   61.7850   72.4195 C   0  0  0  0  0  0  0  0  0  0  0  0
  -40.2919   58.2579   67.0258 O   0  0  0  0  0  0  0  0  0  0  0  0
  -37.6858   59.0860   67.2206 C   0  0  0  0  0  0  0  0  0  0  0  0
  -39.8694   59.0915   66.2844 C   0  0  0  0  0  0  0  0  0  0  0  0
  -40.7200   59.9800   65.4370 C   0  0  0  0  0  0  0  0  0  0  0  0
  -42.0280   59.3300   65.0270 C   0  0  0  0  0  0  0  0  0  0  0  0
  -42.8960   58.9560   66.2090 C   0  0  0  0  0  0  0  0  0  0  0  0
  -44.2012   58.2902   65.8416 C   0  0  0  0  0  0  0  0  0  0  0  0
  -44.0348   56.9933   65.0915 C   0  0  0  0  0  0  0  0  0  0  0  0
  -43.2816   55.9620   65.8880 C   0  0  0  0  0  0  0  0  0  0  0  0
  -43.9193   55.5574   67.1841 C   0  0  0  0  0  0  0  0  0  0  0  0
  -45.2519   54.9598   67.0163 C   0  0  0  0  0  0  0  0  0  0  0  0
  -46.2670   54.9998   67.8509 C   0  0  0  0  0  0  0  0  0  0  0  0
  -46.3394   55.6780   69.1697 C   0  0  0  0  0  0  0  0  0  0  0  0
  -46.6199   54.7755   70.3538 C   0  0  0  0  0  0  0  0  0  0  0  0
  -46.6965   55.5286   71.6534 C   0  0  0  0  0  0  0  0  0  0  0  0
  -45.4463   56.2889   72.0150 C   0  0  0  0  0  0  0  0  0  0  0  0
  -45.5686   57.0143   73.3369 C   0  0  0  0  0  0  0  0  0  0  0  0
  -45.8221   56.1282   74.5245 C   0  0  0  0  0  0  0  0  0  0  0  0
  -44.7467   55.1437   74.7555 C   0  0  0  0  0  0  0  0  0  0  0  0
  -43.4455   55.7563   75.0160 C   0  0  0  0  0  0  0  0  0  0  0  0
  -37.2660   57.1903   66.5065 H   0  0  0  0  0  0  0  0  0  0  0  0
  -35.4325   59.3336   65.9366 H   0  0  0  0  0  0  0  0  0  0  0  0
  -35.0629   56.8441   67.4228 H   0  0  0  0  0  0  0  0  0  0  0  0
  -36.2342   57.1945   68.6620 H   0  0  0  0  0  0  0  0  0  0  0  0
  -34.2831   59.2683   72.7612 H   0  0  0  0  0  0  0  0  0  0  0  0
  -32.8387   58.6170   72.0863 H   0  0  0  0  0  0  0  0  0  0  0  0
  -32.6728   61.0344   72.2447 H   0  0  0  0  0  0  0  0  0  0  0  0
  -32.7613   60.5082   70.5278 H   0  0  0  0  0  0  0  0  0  0  0  0
  -34.7110   60.9731   69.1948 H   0  0  0  0  0  0  0  0  0  0  0  0
  -36.0631   61.8212   69.9060 H   0  0  0  0  0  0  0  0  0  0  0  0
  -35.7211   60.1731   70.3750 H   0  0  0  0  0  0  0  0  0  0  0  0
  -32.4171   59.6145   68.3112 H   0  0  0  0  0  0  0  0  0  0  0  0
  -33.2372   62.7965   69.8887 H   0  0  0  0  0  0  0  0  0  0  0  0
  -33.2100   63.3037   71.5605 H   0  0  0  0  0  0  0  0  0  0  0  0
  -34.6211   63.6114   70.5771 H   0  0  0  0  0  0  0  0  0  0  0  0
  -35.6332   60.8428   72.7154 H   0  0  0  0  0  0  0  0  0  0  0  0
  -36.0152   62.4748   72.2220 H   0  0  0  0  0  0  0  0  0  0  0  0
  -34.6041   62.1672   73.2054 H   0  0  0  0  0  0  0  0  0  0  0  0
  -37.1810   59.9876   67.4987 H   0  0  0  0  0  0  0  0  0  0  0  0
  -38.2331   58.7393   68.0722 H   0  0  0  0  0  0  0  0  0  0  0  0
  -40.1733   60.2341   64.5530 H   0  0  0  0  0  0  0  0  0  0  0  0
  -40.9602   60.8449   66.0193 H   0  0  0  0  0  0  0  0  0  0  0  0
  -41.8086   58.4429   64.4703 H   0  0  0  0  0  0  0  0  0  0  0  0
  -42.5713   60.0428   64.4426 H   0  0  0  0  0  0  0  0  0  0  0  0
  -43.1183   59.8483   66.7560 H   0  0  0  0  0  0  0  0  0  0  0  0
  -42.3406   58.2423   66.7808 H   0  0  0  0  0  0  0  0  0  0  0  0
  -44.7626   58.9643   65.2288 H   0  0  0  0  0  0  0  0  0  0  0  0
  -44.7001   58.0569   66.7589 H   0  0  0  0  0  0  0  0  0  0  0  0
  -43.4990   57.1866   64.1857 H   0  0  0  0  0  0  0  0  0  0  0  0
  -45.0114   56.6033   64.8938 H   0  0  0  0  0  0  0  0  0  0  0  0
  -42.3118   56.3577   66.1068 H   0  0  0  0  0  0  0  0  0  0  0  0
  -43.2599   55.0802   65.2824 H   0  0  0  0  0  0  0  0  0  0  0  0
  -44.0122   56.4258   67.8023 H   0  0  0  0  0  0  0  0  0  0  0  0
  -43.2917   54.8121   67.6263 H   0  0  0  0  0  0  0  0  0  0  0  0
  -45.4099   54.4458   66.1355 H   0  0  0  0  0  0  0  0  0  0  0  0
  -47.1182   54.4981   67.5526 H   0  0  0  0  0  0  0  0  0  0  0  0
  -47.1185   56.4099   69.1214 H   0  0  0  0  0  0  0  0  0  0  0  0
  -45.3677   56.0923   69.3402 H   0  0  0  0  0  0  0  0  0  0  0  0
  -45.8364   54.0502   70.4243 H   0  0  0  0  0  0  0  0  0  0  0  0
  -47.5720   54.3154   70.1907 H   0  0  0  0  0  0  0  0  0  0  0  0
  -46.8969   54.8256   72.4348 H   0  0  0  0  0  0  0  0  0  0  0  0
  -47.4703   56.2581   71.5350 H   0  0  0  0  0  0  0  0  0  0  0  0
  -45.2477   57.0071   71.2471 H   0  0  0  0  0  0  0  0  0  0  0  0
  -44.6506   55.5794   72.1070 H   0  0  0  0  0  0  0  0  0  0  0  0
  -46.3793   57.7086   73.2613 H   0  0  0  0  0  0  0  0  0  0  0  0
  -44.6230   57.4842   73.5098 H   0  0  0  0  0  0  0  0  0  0  0  0
  -46.7386   55.5996   74.3649 H   0  0  0  0  0  0  0  0  0  0  0  0
  -45.8670   56.7587   75.3879 H   0  0  0  0  0  0  0  0  0  0  0  0
  -44.6621   54.5238   73.8876 H   0  0  0  0  0  0  0  0  0  0  0  0
  -45.0127   54.5840   75.6278 H   0  0  0  0  0  0  0  0  0  0  0  0
  -43.1430   56.3274   74.1632 H   0  0  0  0  0  0  0  0  0  0  0  0
  -42.7227   54.9907   75.2071 H   0  0  0  0  0  0  0  0  0  0  0  0
  -43.5180   56.3991   75.8683 H   0  0  0  0  0  0  0  0  0  0  0  0
  1  9  1  0  0  0  0
  1 11  1  0  0  0  0
  1 13  1  0  0  0  0
  1 15  1  0  0  0  0
  2  3  1  0  0  0  0
  2  5  1  0  0  0  0
  2 17  1  0  0  0  0
  2 36  1  6  0  0  0
  3 37  1  0  0  0  0
  4  6  1  0  0  0  0
  4  8  2  6  0  0  0
  4 10  1  0  0  0  0
  4 12  1  0  0  0  0
  5  6  1  0  0  0  0
  5 38  1  0  0  0  0
  5 39  1  0  0  0  0
  7  9  1  0  0  0  0
  7 10  1  0  0  0  0
  7 40  1  0  0  0  0
  7 41  1  0  0  0  0
  9 42  1  0  0  0  0
  9 43  1  0  0  0  0
 11 44  1  0  0  0  0
 11 45  1  0  0  0  0
 11 46  1  0  0  0  0
 12 47  1  0  0  0  0
 13 48  1  0  0  0  0
 13 49  1  0  0  0  0
 13 50  1  0  0  0  0
 14 17  1  0  0  0  0
 14 18  1  0  0  0  0
 15 51  1  0  0  0  0
 15 52  1  0  0  0  0
 15 53  1  0  0  0  0
 16 18  2  0  0  0  0
 17 54  1  0  0  0  0
 17 55  1  0  0  0  0
 18 19  1  0  0  0  0
 19 20  1  0  0  0  0
 19 56  1  0  0  0  0
 19 57  1  0  0  0  0
 20 21  1  0  0  0  0
 20 58  1  0  0  0  0
 20 59  1  0  0  0  0
 21 22  1  0  0  0  0
 21 60  1  0  0  0  0
 21 61  1  0  0  0  0
 22 23  1  0  0  0  0
 22 62  1  0  0  0  0
 22 63  1  0  0  0  0
 23 24  1  0  0  0  0
 23 64  1  0  0  0  0
 23 65  1  0  0  0  0
 24 25  1  0  0  0  0
 24 66  1  0  0  0  0
 24 67  1  0  0  0  0
 25 26  1  0  0  0  0
 25 68  1  0  0  0  0
 25 69  1  0  0  0  0
 26 27  2  0  0  0  0
 26 70  1  0  0  0  0
 27 28  1  0  0  0  0
 27 71  1  0  0  0  0
 28 29  1  0  0  0  0
 28 72  1  0  0  0  0
 28 73  1  0  0  0  0
 29 30  1  0  0  0  0
 29 74  1  0  0  0  0
 29 75  1  0  0  0  0
 30 31  1  0  0  0  0
 30 76  1  0  0  0  0
 30 77  1  0  0  0  0
 31 32  1  0  0  0  0
 31 78  1  0  0  0  0
 31 79  1  0  0  0  0
 32 33  1  0  0  0  0
 32 80  1  0  0  0  0
 32 81  1  0  0  0  0
 33 34  1  0  0  0  0
 33 82  1  0  0  0  0
 33 83  1  0  0  0  0
 34 35  1  0  0  0  0
 34 84  1  0  0  0  0
 34 85  1  0  0  0  0
 35 86  1  0  0  0  0
 35 87  1  0  0  0  0
 35 88  1  0  0  0  0
M  CHG  1   8  -1
M  END
$$$$