/media/chris/experiments/cd1a-new-docking/inputs/ligands/4x6c_ligand.pdb
 OpenBabel07012320263D

 88 87  0  0  1  0  0  0  0  0999 V2000
  -34.5806   59.4671   67.7064 N   0  0  0  0  0  4  0  0  0  0  0  0
  -39.0847   60.8760   61.3870 C   0  0  1  0  0  0  0  0  0  0  0  0
  -38.5081   61.7824   60.4467 O   0  0  0  0  0  0  0  0  0  0  0  0
  -35.9277   60.7422   63.6819 P   0  0  2  0  0  0  0  0  0  0  0  0
  -37.9664   60.1857   62.1296 C   0  0  0  0  0  0  0  0  0  0  0  0
  -37.1913   61.1841   62.8232 O   0  0  0  0  0  0  0  0  0  0  0  0
  -35.8886   61.1531   66.2735 C   0  0  0  0  0  0  0  0  0  0  0  0
  -36.1960   59.3764   64.1755 O   0  5  0  0  0  0  0  0  0  0  0  0
  -34.7224   60.1977   66.3859 C   0  0  0  0  0  0  0  0  0  0  0  0
  -35.8209   61.7057   64.9379 O   0  0  0  0  0  0  0  0  0  0  0  0
  -35.7830   58.6246   67.9880 C   0  0  0  0  0  0  0  0  0  0  0  0
  -34.7363   60.9834   62.8445 O   0  0  0  0  0  0  0  0  0  0  0  0
  -34.4232   60.4600   68.8131 C   0  0  0  0  0  0  0  0  0  0  0  0
  -40.6084   60.6579   63.1994 O   0  0  0  0  0  0  0  0  0  0  0  0
  -33.3753   58.5813   67.6624 C   0  0  0  0  0  0  0  0  0  0  0  0
  -38.6783   60.3998   64.2845 O   0  0  0  0  0  0  0  0  0  0  0  0
  -40.0713   61.6162   62.2607 C   0  0  0  0  0  0  0  0  0  0  0  0
  -39.8706   60.3644   64.2700 C   0  0  0  0  0  0  0  0  0  0  0  0
  -40.7200   59.9800   65.4370 C   0  0  0  0  0  0  0  0  0  0  0  0
  -42.0280   59.3300   65.0270 C   0  0  0  0  0  0  0  0  0  0  0  0
  -42.8960   58.9560   66.2090 C   0  0  0  0  0  0  0  0  0  0  0  0
  -44.2012   58.2902   65.8416 C   0  0  0  0  0  0  0  0  0  0  0  0
  -45.0623   57.9388   67.0279 C   0  0  0  0  0  0  0  0  0  0  0  0
  -44.3705   57.0027   67.9821 C   0  0  0  0  0  0  0  0  0  0  0  0
  -43.9464   55.6870   67.3997 C   0  0  0  0  0  0  0  0  0  0  0  0
  -42.9896   55.8214   66.2918 C   0  0  0  0  0  0  0  0  0  0  0  0
  -41.7681   55.3409   66.2153 C   0  0  0  0  0  0  0  0  0  0  0  0
  -41.0455   54.5184   67.2181 C   0  0  0  0  0  0  0  0  0  0  0  0
  -40.2369   55.2936   68.2382 C   0  0  0  0  0  0  0  0  0  0  0  0
  -41.0831   56.2176   69.0702 C   0  0  0  0  0  0  0  0  0  0  0  0
  -42.1522   55.5321   69.8820 C   0  0  0  0  0  0  0  0  0  0  0  0
  -42.9853   56.5054   70.6866 C   0  0  0  0  0  0  0  0  0  0  0  0
  -44.0581   55.8745   71.5297 C   0  0  0  0  0  0  0  0  0  0  0  0
  -45.0334   55.0950   70.7420 C   0  0  0  0  0  0  0  0  0  0  0  0
  -46.0878   54.4932   71.5558 C   0  0  0  0  0  0  0  0  0  0  0  0
  -39.6535   60.1046   60.9114 H   0  0  0  0  0  0  0  0  0  0  0  0
  -38.0036   62.4621   60.9204 H   0  0  0  0  0  0  0  0  0  0  0  0
  -37.3422   59.6622   61.4359 H   0  0  0  0  0  0  0  0  0  0  0  0
  -38.3701   59.4843   62.8295 H   0  0  0  0  0  0  0  0  0  0  0  0
  -35.8040   61.9313   67.0030 H   0  0  0  0  0  0  0  0  0  0  0  0
  -36.8209   60.6574   66.4469 H   0  0  0  0  0  0  0  0  0  0  0  0
  -34.8273   59.4625   65.6156 H   0  0  0  0  0  0  0  0  0  0  0  0
  -33.8455   60.8048   66.2990 H   0  0  0  0  0  0  0  0  0  0  0  0
  -36.6536   59.2457   68.0224 H   0  0  0  0  0  0  0  0  0  0  0  0
  -35.6600   58.1306   68.9291 H   0  0  0  0  0  0  0  0  0  0  0  0
  -35.8961   57.8944   67.2141 H   0  0  0  0  0  0  0  0  0  0  0  0
  -34.7682   60.4086   62.0637 H   0  0  0  0  0  0  0  0  0  0  0  0
  -35.2836   61.0952   68.8474 H   0  0  0  0  0  0  0  0  0  0  0  0
  -33.5493   61.0523   68.6392 H   0  0  0  0  0  0  0  0  0  0  0  0
  -34.3241   59.9430   69.7447 H   0  0  0  0  0  0  0  0  0  0  0  0
  -33.4846   57.8693   66.8713 H   0  0  0  0  0  0  0  0  0  0  0  0
  -33.2771   58.0660   68.5950 H   0  0  0  0  0  0  0  0  0  0  0  0
  -32.5023   59.1753   67.4895 H   0  0  0  0  0  0  0  0  0  0  0  0
  -40.8583   62.0242   61.6615 H   0  0  0  0  0  0  0  0  0  0  0  0
  -39.5944   62.4256   62.7729 H   0  0  0  0  0  0  0  0  0  0  0  0
  -40.9394   60.8604   66.0042 H   0  0  0  0  0  0  0  0  0  0  0  0
  -40.1713   59.2627   66.0109 H   0  0  0  0  0  0  0  0  0  0  0  0
  -41.8086   58.4429   64.4703 H   0  0  0  0  0  0  0  0  0  0  0  0
  -42.5713   60.0428   64.4426 H   0  0  0  0  0  0  0  0  0  0  0  0
  -43.1183   59.8483   66.7560 H   0  0  0  0  0  0  0  0  0  0  0  0
  -42.3406   58.2423   66.7808 H   0  0  0  0  0  0  0  0  0  0  0  0
  -43.9814   57.3901   65.3063 H   0  0  0  0  0  0  0  0  0  0  0  0
  -44.7539   58.9929   65.2537 H   0  0  0  0  0  0  0  0  0  0  0  0
  -45.9577   57.4707   66.6758 H   0  0  0  0  0  0  0  0  0  0  0  0
  -45.2749   58.8446   67.5562 H   0  0  0  0  0  0  0  0  0  0  0  0
  -45.0397   56.8042   68.7931 H   0  0  0  0  0  0  0  0  0  0  0  0
  -43.4695   57.4976   68.2790 H   0  0  0  0  0  0  0  0  0  0  0  0
  -44.8163   55.1801   67.0372 H   0  0  0  0  0  0  0  0  0  0  0  0
  -43.4552   55.1404   68.1774 H   0  0  0  0  0  0  0  0  0  0  0  0
  -43.3167   56.3588   65.4737 H   0  0  0  0  0  0  0  0  0  0  0  0
  -41.2478   55.5627   65.3521 H   0  0  0  0  0  0  0  0  0  0  0  0
  -40.3769   53.8695   66.6919 H   0  0  0  0  0  0  0  0  0  0  0  0
  -41.8006   54.0023   67.7733 H   0  0  0  0  0  0  0  0  0  0  0  0
  -39.5017   55.8749   67.7219 H   0  0  0  0  0  0  0  0  0  0  0  0
  -39.7870   54.5838   68.9005 H   0  0  0  0  0  0  0  0  0  0  0  0
  -41.5592   56.9155   68.4135 H   0  0  0  0  0  0  0  0  0  0  0  0
  -40.4227   56.6831   69.7716 H   0  0  0  0  0  0  0  0  0  0  0  0
  -41.6837   54.8444   70.5546 H   0  0  0  0  0  0  0  0  0  0  0  0
  -42.8071   55.0322   69.1992 H   0  0  0  0  0  0  0  0  0  0  0  0
  -43.4542   57.1840   70.0050 H   0  0  0  0  0  0  0  0  0  0  0  0
  -42.3127   56.9850   71.3666 H   0  0  0  0  0  0  0  0  0  0  0  0
  -44.5822   56.6495   72.0490 H   0  0  0  0  0  0  0  0  0  0  0  0
  -43.5763   55.1952   72.2015 H   0  0  0  0  0  0  0  0  0  0  0  0
  -44.5102   54.3130   70.2324 H   0  0  0  0  0  0  0  0  0  0  0  0
  -45.5064   55.7739   70.0636 H   0  0  0  0  0  0  0  0  0  0  0  0
  -45.6534   53.8048   72.2502 H   0  0  0  0  0  0  0  0  0  0  0  0
  -46.7753   53.9738   70.9214 H   0  0  0  0  0  0  0  0  0  0  0  0
  -46.6067   55.2605   72.0914 H   0  0  0  0  0  0  0  0  0  0  0  0
  1  9  1  0  0  0  0
  1 11  1  0  0  0  0
  1 13  1  0  0  0  0
  1 15  1  0  0  0  0
  2  3  1  0  0  0  0
  2  5  1  0  0  0  0
  2 17  1  0  0  0  0
  2 36  1  6  0  0  0
  3 37  1  0  0  0  0
  4  6  1  0  0  0  0
  4  8  2  1  0  0  0
  4 10  1  0  0  0  0
  4 12  1  0  0  0  0
  5  6  1  0  0  0  0
  5 38  1  0  0  0  0
  5 39  1  0  0  0  0
  7  9  1  0  0  0  0
  7 10  1  0  0  0  0
  7 40  1  0  0  0  0
  7 41  1  0  0  0  0
  9 42  1  0  0  0  0
  9 43  1  0  0  0  0
 11 44  1  0  0  0  0
 11 45  1  0  0  0  0
 11 46  1  0  0  0  0
 12 47  1  0  0  0  0
 13 48  1  0  0  0  0
 13 49  1  0  0  0  0
 13 50  1  0  0  0  0
 14 17  1  0  0  0  0
 14 18  1  0  0  0  0
 15 51  1  0  0  0  0
 15 52  1  0  0  0  0
 15 53  1  0  0  0  0
 16 18  2  0  0  0  0
 17 54  1  0  0  0  0
 17 55  1  0  0  0  0
 18 19  1  0  0  0  0
 19 20  1  0  0  0  0
 19 56  1  0  0  0  0
 19 57  1  0  0  0  0
 20 21  1  0  0  0  0
 20 58  1  0  0  0  0
 20 59  1  0  0  0  0
 21 22  1  0  0  0  0
 21 60  1  0  0  0  0
 21 61  1  0  0  0  0
 22 23  1  0  0  0  0
 22 62  1  0  0  0  0
 22 63  1  0  0  0  0
 23 24  1  0  0  0  0
 23 64  1  0  0  0  0
 23 65  1  0  0  0  0
 24 25  1  0  0  0  0
 24 66  1  0  0  0  0
 24 67  1  0  0  0  0
 25 26  1  0  0  0  0
 25 68  1  0  0  0  0
 25 69  1  0  0  0  0
 26 27  2  0  0  0  0
 26 70  1  0  0  0  0
 27 28  1  0  0  0  0
 27 71  1  0  0  0  0
 28 29  1  0  0  0  0
 28 72  1  0  0  0  0
 28 73  1  0  0  0  0
 29 30  1  0  0  0  0
 29 74  1  0  0  0  0
 29 75  1  0  0  0  0
 30 31  1  0  0  0  0
 30 76  1  0  0  0  0
 30 77  1  0  0  0  0
 31 32  1  0  0  0  0
 31 78  1  0  0  0  0
 31 79  1  0  0  0  0
 32 33  1  0  0  0  0
 32 80  1  0  0  0  0
 32 81  1  0  0  0  0
 33 34  1  0  0  0  0
 33 82  1  0  0  0  0
 33 83  1  0  0  0  0
 34 35  1  0  0  0  0
 34 84  1  0  0  0  0
 34 85  1  0  0  0  0
 35 86  1  0  0  0  0
 35 87  1  0  0  0  0
 35 88  1  0  0  0  0
M  CHG  1   8  -1
M  END
$$$$