/media/chris/experiments/cd1a-new-docking/inputs/ligands/4x6c_ligand.pdb
 OpenBabel07012320263D

 88 87  0  0  1  0  0  0  0  0999 V2000
  -42.9864   68.8433   73.1765 N   0  0  0  0  0  4  0  0  0  0  0  0
  -40.2447   63.6065   67.9894 C   0  0  1  0  0  0  0  0  0  0  0  0
  -41.2507   63.8651   67.0100 O   0  0  0  0  0  0  0  0  0  0  0  0
  -42.3121   65.0626   70.9655 P   0  0  2  0  0  0  0  0  0  0  0  0
  -40.4821   64.5197   69.1676 C   0  0  0  0  0  0  0  0  0  0  0  0
  -41.7846   64.2330   69.7154 O   0  0  0  0  0  0  0  0  0  0  0  0
  -43.7757   67.2047   71.3602 C   0  0  0  0  0  0  0  0  0  0  0  0
  -43.2012   64.1684   71.7344 O   0  5  0  0  0  0  0  0  0  0  0  0
  -42.6214   67.8291   72.1108 C   0  0  0  0  0  0  0  0  0  0  0  0
  -43.1827   66.2736   70.4247 O   0  0  0  0  0  0  0  0  0  0  0  0
  -43.8343   68.2249   74.2412 C   0  0  0  0  0  0  0  0  0  0  0  0
  -41.1253   65.6395   71.6271 O   0  0  0  0  0  0  0  0  0  0  0  0
  -43.7468   69.9705   72.5548 C   0  0  0  0  0  0  0  0  0  0  0  0
  -39.9198   61.4286   67.0924 O   0  0  0  0  0  0  0  0  0  0  0  0
  -41.7394   69.3778   73.8080 C   0  0  0  0  0  0  0  0  0  0  0  0
  -41.8482   61.9662   66.1119 O   0  0  0  0  0  0  0  0  0  0  0  0
  -40.2277   62.1311   68.3170 C   0  0  0  0  0  0  0  0  0  0  0  0
  -40.9154   61.2318   66.2282 C   0  0  0  0  0  0  0  0  0  0  0  0
  -40.7200   59.9800   65.4370 C   0  0  0  0  0  0  0  0  0  0  0  0
  -42.0280   59.3300   65.0270 C   0  0  0  0  0  0  0  0  0  0  0  0
  -42.8960   58.9560   66.2090 C   0  0  0  0  0  0  0  0  0  0  0  0
  -43.3110   60.1221   67.0749 C   0  0  0  0  0  0  0  0  0  0  0  0
  -44.1610   59.7323   68.2572 C   0  0  0  0  0  0  0  0  0  0  0  0
  -43.4497   58.7882   69.1890 C   0  0  0  0  0  0  0  0  0  0  0  0
  -42.1877   59.3181   69.8028 C   0  0  0  0  0  0  0  0  0  0  0  0
  -41.5222   58.3541   70.6911 C   0  0  0  0  0  0  0  0  0  0  0  0
  -41.9034   57.1314   70.9882 C   0  0  0  0  0  0  0  0  0  0  0  0
  -43.0928   56.3979   70.4865 C   0  0  0  0  0  0  0  0  0  0  0  0
  -44.0797   55.9515   71.5458 C   0  0  0  0  0  0  0  0  0  0  0  0
  -45.2497   55.2013   70.9710 C   0  0  0  0  0  0  0  0  0  0  0  0
  -46.2687   54.7506   71.9861 C   0  0  0  0  0  0  0  0  0  0  0  0
  -47.4150   53.9872   71.3602 C   0  0  0  0  0  0  0  0  0  0  0  0
  -48.1934   54.7500   70.3248 C   0  0  0  0  0  0  0  0  0  0  0  0
  -48.7995   55.9896   70.8495 C   0  0  0  0  0  0  0  0  0  0  0  0
  -47.8177   56.9448   71.3593 C   0  0  0  0  0  0  0  0  0  0  0  0
  -39.2613   63.8263   67.6296 H   0  0  0  0  0  0  0  0  0  0  0  0
  -42.1226   63.6527   67.3781 H   0  0  0  0  0  0  0  0  0  0  0  0
  -40.4422   65.5398   68.8471 H   0  0  0  0  0  0  0  0  0  0  0  0
  -39.7293   64.3610   69.9113 H   0  0  0  0  0  0  0  0  0  0  0  0
  -44.3295   67.9561   70.8371 H   0  0  0  0  0  0  0  0  0  0  0  0
  -44.4569   66.7146   72.0240 H   0  0  0  0  0  0  0  0  0  0  0  0
  -42.0750   67.0402   72.5843 H   0  0  0  0  0  0  0  0  0  0  0  0
  -42.0634   68.3727   71.3773 H   0  0  0  0  0  0  0  0  0  0  0  0
  -44.7307   67.8380   73.8034 H   0  0  0  0  0  0  0  0  0  0  0  0
  -44.0850   68.9650   74.9722 H   0  0  0  0  0  0  0  0  0  0  0  0
  -43.2940   67.4292   74.7101 H   0  0  0  0  0  0  0  0  0  0  0  0
  -40.5675   64.9245   71.9715 H   0  0  0  0  0  0  0  0  0  0  0  0
  -44.6393   69.5918   72.1022 H   0  0  0  0  0  0  0  0  0  0  0  0
  -43.1407   70.4411   71.8091 H   0  0  0  0  0  0  0  0  0  0  0  0
  -44.0045   70.6852   73.3082 H   0  0  0  0  0  0  0  0  0  0  0  0
  -41.1926   68.5735   74.2541 H   0  0  0  0  0  0  0  0  0  0  0  0
  -41.9989   70.0930   74.5603 H   0  0  0  0  0  0  0  0  0  0  0  0
  -41.1351   69.8489   73.0612 H   0  0  0  0  0  0  0  0  0  0  0  0
  -41.1849   61.8256   68.6848 H   0  0  0  0  0  0  0  0  0  0  0  0
  -39.5011   61.9167   69.0726 H   0  0  0  0  0  0  0  0  0  0  0  0
  -40.1644   59.2843   66.0305 H   0  0  0  0  0  0  0  0  0  0  0  0
  -40.1985   60.2448   64.5410 H   0  0  0  0  0  0  0  0  0  0  0  0
  -41.8086   58.4429   64.4703 H   0  0  0  0  0  0  0  0  0  0  0  0
  -42.5713   60.0428   64.4426 H   0  0  0  0  0  0  0  0  0  0  0  0
  -42.3518   58.2646   66.8179 H   0  0  0  0  0  0  0  0  0  0  0  0
  -43.7960   58.5403   65.8064 H   0  0  0  0  0  0  0  0  0  0  0  0
  -43.8675   60.8086   66.4716 H   0  0  0  0  0  0  0  0  0  0  0  0
  -42.4135   60.5536   67.4661 H   0  0  0  0  0  0  0  0  0  0  0  0
  -45.0502   59.2568   67.8993 H   0  0  0  0  0  0  0  0  0  0  0  0
  -44.3860   60.6234   68.8051 H   0  0  0  0  0  0  0  0  0  0  0  0
  -43.2032   57.9044   68.6385 H   0  0  0  0  0  0  0  0  0  0  0  0
  -44.1226   58.6146   70.0027 H   0  0  0  0  0  0  0  0  0  0  0  0
  -42.4276   60.1929   70.3703 H   0  0  0  0  0  0  0  0  0  0  0  0
  -41.5108   59.5295   69.0015 H   0  0  0  0  0  0  0  0  0  0  0  0
  -40.6487   58.6767   71.1359 H   0  0  0  0  0  0  0  0  0  0  0  0
  -41.3020   56.6185   71.6517 H   0  0  0  0  0  0  0  0  0  0  0  0
  -42.7487   55.5270   69.9689 H   0  0  0  0  0  0  0  0  0  0  0  0
  -43.6227   57.0888   69.8645 H   0  0  0  0  0  0  0  0  0  0  0  0
  -44.4462   56.8164   72.0582 H   0  0  0  0  0  0  0  0  0  0  0  0
  -43.5643   55.2876   72.2079 H   0  0  0  0  0  0  0  0  0  0  0  0
  -44.8752   54.3348   70.4672 H   0  0  0  0  0  0  0  0  0  0  0  0
  -45.7543   55.8824   70.3180 H   0  0  0  0  0  0  0  0  0  0  0  0
  -46.6619   55.6128   72.4831 H   0  0  0  0  0  0  0  0  0  0  0  0
  -45.7755   54.0917   72.6699 H   0  0  0  0  0  0  0  0  0  0  0  0
  -48.0898   53.7024   72.1402 H   0  0  0  0  0  0  0  0  0  0  0  0
  -46.9779   53.1530   70.8523 H   0  0  0  0  0  0  0  0  0  0  0  0
  -48.9748   54.1199   69.9542 H   0  0  0  0  0  0  0  0  0  0  0  0
  -47.5063   55.0331   69.5550 H   0  0  0  0  0  0  0  0  0  0  0  0
  -49.4659   55.7307   71.6456 H   0  0  0  0  0  0  0  0  0  0  0  0
  -49.3070   56.4626   70.0349 H   0  0  0  0  0  0  0  0  0  0  0  0
  -47.2866   56.5074   72.1788 H   0  0  0  0  0  0  0  0  0  0  0  0
  -48.3197   57.8295   71.6911 H   0  0  0  0  0  0  0  0  0  0  0  0
  -47.1278   57.1968   70.5811 H   0  0  0  0  0  0  0  0  0  0  0  0
  1  9  1  0  0  0  0
  1 11  1  0  0  0  0
  1 13  1  0  0  0  0
  1 15  1  0  0  0  0
  2  3  1  0  0  0  0
  2  5  1  0  0  0  0
  2 17  1  0  0  0  0
  2 36  1  6  0  0  0
  3 37  1  0  0  0  0
  4  6  1  0  0  0  0
  4  8  2  1  0  0  0
  4 10  1  0  0  0  0
  4 12  1  0  0  0  0
  5  6  1  0  0  0  0
  5 38  1  0  0  0  0
  5 39  1  0  0  0  0
  7  9  1  0  0  0  0
  7 10  1  0  0  0  0
  7 40  1  0  0  0  0
  7 41  1  0  0  0  0
  9 42  1  0  0  0  0
  9 43  1  0  0  0  0
 11 44  1  0  0  0  0
 11 45  1  0  0  0  0
 11 46  1  0  0  0  0
 12 47  1  0  0  0  0
 13 48  1  0  0  0  0
 13 49  1  0  0  0  0
 13 50  1  0  0  0  0
 14 17  1  0  0  0  0
 14 18  1  0  0  0  0
 15 51  1  0  0  0  0
 15 52  1  0  0  0  0
 15 53  1  0  0  0  0
 16 18  2  0  0  0  0
 17 54  1  0  0  0  0
 17 55  1  0  0  0  0
 18 19  1  0  0  0  0
 19 20  1  0  0  0  0
 19 56  1  0  0  0  0
 19 57  1  0  0  0  0
 20 21  1  0  0  0  0
 20 58  1  0  0  0  0
 20 59  1  0  0  0  0
 21 22  1  0  0  0  0
 21 60  1  0  0  0  0
 21 61  1  0  0  0  0
 22 23  1  0  0  0  0
 22 62  1  0  0  0  0
 22 63  1  0  0  0  0
 23 24  1  0  0  0  0
 23 64  1  0  0  0  0
 23 65  1  0  0  0  0
 24 25  1  0  0  0  0
 24 66  1  0  0  0  0
 24 67  1  0  0  0  0
 25 26  1  0  0  0  0
 25 68  1  0  0  0  0
 25 69  1  0  0  0  0
 26 27  2  0  0  0  0
 26 70  1  0  0  0  0
 27 28  1  0  0  0  0
 27 71  1  0  0  0  0
 28 29  1  0  0  0  0
 28 72  1  0  0  0  0
 28 73  1  0  0  0  0
 29 30  1  0  0  0  0
 29 74  1  0  0  0  0
 29 75  1  0  0  0  0
 30 31  1  0  0  0  0
 30 76  1  0  0  0  0
 30 77  1  0  0  0  0
 31 32  1  0  0  0  0
 31 78  1  0  0  0  0
 31 79  1  0  0  0  0
 32 33  1  0  0  0  0
 32 80  1  0  0  0  0
 32 81  1  0  0  0  0
 33 34  1  0  0  0  0
 33 82  1  0  0  0  0
 33 83  1  0  0  0  0
 34 35  1  0  0  0  0
 34 84  1  0  0  0  0
 34 85  1  0  0  0  0
 35 86  1  0  0  0  0
 35 87  1  0  0  0  0
 35 88  1  0  0  0  0
M  CHG  1   8  -1
M  END
$$$$