/media/chris/experiments/cd1a-new-docking/inputs/ligands/4x6c_ligand.pdb
 OpenBabel07012320263D

 88 87  0  0  1  0  0  0  0  0999 V2000
  -41.1515   55.2785   73.8615 N   0  0  0  0  0  4  0  0  0  0  0  0
  -40.6663   57.8912   68.7210 C   0  0  1  0  0  0  0  0  0  0  0  0
  -40.5195   56.9907   69.8190 O   0  0  0  0  0  0  0  0  0  0  0  0
  -43.0837   56.6374   70.1151 P   0  0  2  0  0  0  0  0  0  0  0  0
  -41.9449   58.6702   68.9123 C   0  0  0  0  0  0  0  0  0  0  0  0
  -43.0449   57.7399   68.9695 O   0  0  0  0  0  0  0  0  0  0  0  0
  -42.1962   57.2052   72.5186 C   0  0  0  0  0  0  0  0  0  0  0  0
  -44.3052   55.8350   69.9025 O   0  5  0  0  0  0  0  0  0  0  0  0
  -42.1495   55.7226   72.8106 C   0  0  0  0  0  0  0  0  0  0  0  0
  -43.2204   57.3786   71.5112 O   0  0  0  0  0  0  0  0  0  0  0  0
  -41.4439   55.9113   75.1840 C   0  0  0  0  0  0  0  0  0  0  0  0
  -41.7700   55.9643   70.1052 O   0  0  0  0  0  0  0  0  0  0  0  0
  -39.7721   55.6708   73.4387 C   0  0  0  0  0  0  0  0  0  0  0  0
  -39.6287   59.6329   67.4785 O   0  0  0  0  0  0  0  0  0  0  0  0
  -41.2161   53.7916   74.0177 C   0  0  0  0  0  0  0  0  0  0  0  0
  -39.4477   58.0302   65.9397 O   0  0  0  0  0  0  0  0  0  0  0  0
  -39.4180   58.7331   68.5893 C   0  0  0  0  0  0  0  0  0  0  0  0
  -39.8694   59.0915   66.2844 C   0  0  0  0  0  0  0  0  0  0  0  0
  -40.7200   59.9800   65.4370 C   0  0  0  0  0  0  0  0  0  0  0  0
  -42.0280   59.3300   65.0270 C   0  0  0  0  0  0  0  0  0  0  0  0
  -42.8960   58.9560   66.2090 C   0  0  0  0  0  0  0  0  0  0  0  0
  -43.3110   60.1221   67.0749 C   0  0  0  0  0  0  0  0  0  0  0  0
  -44.1216   61.1643   66.3475 C   0  0  0  0  0  0  0  0  0  0  0  0
  -44.5026   62.3181   67.2358 C   0  0  0  0  0  0  0  0  0  0  0  0
  -45.3158   61.9593   68.4442 C   0  0  0  0  0  0  0  0  0  0  0  0
  -44.6280   61.0333   69.3555 C   0  0  0  0  0  0  0  0  0  0  0  0
  -44.3091   61.2269   70.6162 C   0  0  0  0  0  0  0  0  0  0  0  0
  -44.5807   62.4221   71.4541 C   0  0  0  0  0  0  0  0  0  0  0  0
  -45.4268   62.1771   72.6868 C   0  0  0  0  0  0  0  0  0  0  0  0
  -45.6767   63.4310   73.4789 C   0  0  0  0  0  0  0  0  0  0  0  0
  -44.4317   64.1197   73.9766 C   0  0  0  0  0  0  0  0  0  0  0  0
  -43.5960   63.2335   74.8738 C   0  0  0  0  0  0  0  0  0  0  0  0
  -42.3485   63.8755   75.4137 C   0  0  0  0  0  0  0  0  0  0  0  0
  -41.5540   62.9729   76.2700 C   0  0  0  0  0  0  0  0  0  0  0  0
  -42.2886   62.4819   77.4343 C   0  0  0  0  0  0  0  0  0  0  0  0
  -40.7606   57.3798   67.7859 H   0  0  0  0  0  0  0  0  0  0  0  0
  -40.4377   57.4961   70.6429 H   0  0  0  0  0  0  0  0  0  0  0  0
  -42.0837   59.3428   68.0917 H   0  0  0  0  0  0  0  0  0  0  0  0
  -41.8966   59.2361   69.8191 H   0  0  0  0  0  0  0  0  0  0  0  0
  -41.2501   57.5418   72.1493 H   0  0  0  0  0  0  0  0  0  0  0  0
  -42.4116   57.7727   73.3998 H   0  0  0  0  0  0  0  0  0  0  0  0
  -43.1233   55.4235   73.1382 H   0  0  0  0  0  0  0  0  0  0  0  0
  -41.8303   55.2612   71.8995 H   0  0  0  0  0  0  0  0  0  0  0  0
  -41.4011   56.9761   75.0871 H   0  0  0  0  0  0  0  0  0  0  0  0
  -40.7187   55.5890   75.9017 H   0  0  0  0  0  0  0  0  0  0  0  0
  -42.4211   55.6218   75.5097 H   0  0  0  0  0  0  0  0  0  0  0  0
  -41.6517   55.4987   69.2625 H   0  0  0  0  0  0  0  0  0  0  0  0
  -39.7223   56.7337   73.3261 H   0  0  0  0  0  0  0  0  0  0  0  0
  -39.5381   55.2019   72.5059 H   0  0  0  0  0  0  0  0  0  0  0  0
  -39.0687   55.3575   74.1817 H   0  0  0  0  0  0  0  0  0  0  0  0
  -42.2022   53.5073   74.3204 H   0  0  0  0  0  0  0  0  0  0  0  0
  -40.5114   53.4801   74.7602 H   0  0  0  0  0  0  0  0  0  0  0  0
  -40.9808   53.3244   73.0844 H   0  0  0  0  0  0  0  0  0  0  0  0
  -38.5712   58.1072   68.3993 H   0  0  0  0  0  0  0  0  0  0  0  0
  -39.2288   59.2779   69.4906 H   0  0  0  0  0  0  0  0  0  0  0  0
  -40.1733   60.2341   64.5530 H   0  0  0  0  0  0  0  0  0  0  0  0
  -40.9602   60.8449   66.0193 H   0  0  0  0  0  0  0  0  0  0  0  0
  -41.8086   58.4429   64.4703 H   0  0  0  0  0  0  0  0  0  0  0  0
  -42.5713   60.0428   64.4426 H   0  0  0  0  0  0  0  0  0  0  0  0
  -42.3518   58.2646   66.8179 H   0  0  0  0  0  0  0  0  0  0  0  0
  -43.7960   58.5403   65.8064 H   0  0  0  0  0  0  0  0  0  0  0  0
  -42.4276   60.5889   67.4576 H   0  0  0  0  0  0  0  0  0  0  0  0
  -43.9352   59.7276   67.8492 H   0  0  0  0  0  0  0  0  0  0  0  0
  -45.0148   60.7072   65.9759 H   0  0  0  0  0  0  0  0  0  0  0  0
  -43.5184   61.5502   65.5524 H   0  0  0  0  0  0  0  0  0  0  0  0
  -45.0695   63.0118   66.6507 H   0  0  0  0  0  0  0  0  0  0  0  0
  -43.5832   62.7195   67.6079 H   0  0  0  0  0  0  0  0  0  0  0  0
  -46.2255   61.5006   68.1172 H   0  0  0  0  0  0  0  0  0  0  0  0
  -45.4922   62.8645   68.9869 H   0  0  0  0  0  0  0  0  0  0  0  0
  -44.3630   60.1191   68.9568 H   0  0  0  0  0  0  0  0  0  0  0  0
  -43.8085   60.4530   71.0805 H   0  0  0  0  0  0  0  0  0  0  0  0
  -45.0858   63.1431   70.8458 H   0  0  0  0  0  0  0  0  0  0  0  0
  -43.6280   62.7515   71.8130 H   0  0  0  0  0  0  0  0  0  0  0  0
  -44.9224   61.4714   73.3132 H   0  0  0  0  0  0  0  0  0  0  0  0
  -46.3760   61.8081   72.3586 H   0  0  0  0  0  0  0  0  0  0  0  0
  -46.2778   63.1756   74.3265 H   0  0  0  0  0  0  0  0  0  0  0  0
  -46.1570   64.1180   72.8140 H   0  0  0  0  0  0  0  0  0  0  0  0
  -44.7189   64.9912   74.5271 H   0  0  0  0  0  0  0  0  0  0  0  0
  -43.8368   64.3703   73.1233 H   0  0  0  0  0  0  0  0  0  0  0  0
  -43.3087   62.3690   74.3125 H   0  0  0  0  0  0  0  0  0  0  0  0
  -44.2066   63.0044   75.7220 H   0  0  0  0  0  0  0  0  0  0  0  0
  -42.6290   64.7320   75.9904 H   0  0  0  0  0  0  0  0  0  0  0  0
  -41.7376   64.1380   74.5754 H   0  0  0  0  0  0  0  0  0  0  0  0
  -40.6904   63.5035   76.6128 H   0  0  0  0  0  0  0  0  0  0  0  0
  -41.2958   62.1206   75.6768 H   0  0  0  0  0  0  0  0  0  0  0  0
  -42.5659   63.3079   78.0554 H   0  0  0  0  0  0  0  0  0  0  0  0
  -41.6683   61.8102   77.9901 H   0  0  0  0  0  0  0  0  0  0  0  0
  -43.1693   61.9682   77.1097 H   0  0  0  0  0  0  0  0  0  0  0  0
  1  9  1  0  0  0  0
  1 11  1  0  0  0  0
  1 13  1  0  0  0  0
  1 15  1  0  0  0  0
  2  3  1  0  0  0  0
  2  5  1  0  0  0  0
  2 17  1  0  0  0  0
  2 36  1  6  0  0  0
  3 37  1  0  0  0  0
  4  6  1  0  0  0  0
  4  8  2  6  0  0  0
  4 10  1  0  0  0  0
  4 12  1  0  0  0  0
  5  6  1  0  0  0  0
  5 38  1  0  0  0  0
  5 39  1  0  0  0  0
  7  9  1  0  0  0  0
  7 10  1  0  0  0  0
  7 40  1  0  0  0  0
  7 41  1  0  0  0  0
  9 42  1  0  0  0  0
  9 43  1  0  0  0  0
 11 44  1  0  0  0  0
 11 45  1  0  0  0  0
 11 46  1  0  0  0  0
 12 47  1  0  0  0  0
 13 48  1  0  0  0  0
 13 49  1  0  0  0  0
 13 50  1  0  0  0  0
 14 17  1  0  0  0  0
 14 18  1  0  0  0  0
 15 51  1  0  0  0  0
 15 52  1  0  0  0  0
 15 53  1  0  0  0  0
 16 18  2  0  0  0  0
 17 54  1  0  0  0  0
 17 55  1  0  0  0  0
 18 19  1  0  0  0  0
 19 20  1  0  0  0  0
 19 56  1  0  0  0  0
 19 57  1  0  0  0  0
 20 21  1  0  0  0  0
 20 58  1  0  0  0  0
 20 59  1  0  0  0  0
 21 22  1  0  0  0  0
 21 60  1  0  0  0  0
 21 61  1  0  0  0  0
 22 23  1  0  0  0  0
 22 62  1  0  0  0  0
 22 63  1  0  0  0  0
 23 24  1  0  0  0  0
 23 64  1  0  0  0  0
 23 65  1  0  0  0  0
 24 25  1  0  0  0  0
 24 66  1  0  0  0  0
 24 67  1  0  0  0  0
 25 26  1  0  0  0  0
 25 68  1  0  0  0  0
 25 69  1  0  0  0  0
 26 27  2  0  0  0  0
 26 70  1  0  0  0  0
 27 28  1  0  0  0  0
 27 71  1  0  0  0  0
 28 29  1  0  0  0  0
 28 72  1  0  0  0  0
 28 73  1  0  0  0  0
 29 30  1  0  0  0  0
 29 74  1  0  0  0  0
 29 75  1  0  0  0  0
 30 31  1  0  0  0  0
 30 76  1  0  0  0  0
 30 77  1  0  0  0  0
 31 32  1  0  0  0  0
 31 78  1  0  0  0  0
 31 79  1  0  0  0  0
 32 33  1  0  0  0  0
 32 80  1  0  0  0  0
 32 81  1  0  0  0  0
 33 34  1  0  0  0  0
 33 82  1  0  0  0  0
 33 83  1  0  0  0  0
 34 35  1  0  0  0  0
 34 84  1  0  0  0  0
 34 85  1  0  0  0  0
 35 86  1  0  0  0  0
 35 87  1  0  0  0  0
 35 88  1  0  0  0  0
M  CHG  1   8  -1
M  END
$$$$