/media/chris/experiments/cd1a-new-docking/inputs/ligands/4x6c_ligand.pdb
 OpenBabel07012320263D

 88 87  0  0  1  0  0  0  0  0999 V2000
  -46.6402   58.9595   71.3702 N   0  0  0  0  0  4  0  0  0  0  0  0
  -40.6663   57.8912   68.7210 C   0  0  1  0  0  0  0  0  0  0  0  0
  -40.5195   56.9907   69.8190 O   0  0  0  0  0  0  0  0  0  0  0  0
  -43.0837   56.6374   70.1151 P   0  0  2  0  0  0  0  0  0  0  0  0
  -41.9449   58.6702   68.9123 C   0  0  0  0  0  0  0  0  0  0  0  0
  -43.0449   57.7399   68.9695 O   0  0  0  0  0  0  0  0  0  0  0  0
  -44.5341   57.6531   72.0520 C   0  0  0  0  0  0  0  0  0  0  0  0
  -44.3052   55.8350   69.9025 O   0  5  0  0  0  0  0  0  0  0  0  0
  -45.2321   58.5164   71.0258 C   0  0  0  0  0  0  0  0  0  0  0  0
  -43.2204   57.3786   71.5112 O   0  0  0  0  0  0  0  0  0  0  0  0
  -46.6569   59.7778   72.6212 C   0  0  0  0  0  0  0  0  0  0  0  0
  -41.7700   55.9643   70.1052 O   0  0  0  0  0  0  0  0  0  0  0  0
  -47.5069   57.7583   71.5734 C   0  0  0  0  0  0  0  0  0  0  0  0
  -39.6287   59.6329   67.4785 O   0  0  0  0  0  0  0  0  0  0  0  0
  -47.1940   59.7845   70.2513 C   0  0  0  0  0  0  0  0  0  0  0  0
  -39.4477   58.0302   65.9397 O   0  0  0  0  0  0  0  0  0  0  0  0
  -39.4180   58.7331   68.5893 C   0  0  0  0  0  0  0  0  0  0  0  0
  -39.8694   59.0915   66.2844 C   0  0  0  0  0  0  0  0  0  0  0  0
  -40.7200   59.9800   65.4370 C   0  0  0  0  0  0  0  0  0  0  0  0
  -42.0280   59.3300   65.0270 C   0  0  0  0  0  0  0  0  0  0  0  0
  -42.8960   58.9560   66.2090 C   0  0  0  0  0  0  0  0  0  0  0  0
  -43.3110   60.1221   67.0749 C   0  0  0  0  0  0  0  0  0  0  0  0
  -44.1216   61.1643   66.3475 C   0  0  0  0  0  0  0  0  0  0  0  0
  -44.5026   62.3181   67.2358 C   0  0  0  0  0  0  0  0  0  0  0  0
  -45.3262   63.3886   66.5831 C   0  0  0  0  0  0  0  0  0  0  0  0
  -46.6169   62.9023   66.0746 C   0  0  0  0  0  0  0  0  0  0  0  0
  -47.8226   63.2994   66.4169 C   0  0  0  0  0  0  0  0  0  0  0  0
  -48.1940   64.3581   67.3894 C   0  0  0  0  0  0  0  0  0  0  0  0
  -49.0008   65.5096   66.8249 C   0  0  0  0  0  0  0  0  0  0  0  0
  -48.2850   66.2330   65.7175 C   0  0  0  0  0  0  0  0  0  0  0  0
  -46.9565   66.8275   66.1096 C   0  0  0  0  0  0  0  0  0  0  0  0
  -47.0776   67.8297   67.2363 C   0  0  0  0  0  0  0  0  0  0  0  0
  -45.7835   68.4679   67.6580 C   0  0  0  0  0  0  0  0  0  0  0  0
  -45.9429   69.4261   68.7696 C   0  0  0  0  0  0  0  0  0  0  0  0
  -46.8514   70.5283   68.4598 C   0  0  0  0  0  0  0  0  0  0  0  0
  -40.7606   57.3798   67.7859 H   0  0  0  0  0  0  0  0  0  0  0  0
  -40.4377   57.4961   70.6429 H   0  0  0  0  0  0  0  0  0  0  0  0
  -42.0837   59.3428   68.0917 H   0  0  0  0  0  0  0  0  0  0  0  0
  -41.8966   59.2361   69.8191 H   0  0  0  0  0  0  0  0  0  0  0  0
  -45.0737   56.7410   72.2001 H   0  0  0  0  0  0  0  0  0  0  0  0
  -44.4739   58.1424   73.0016 H   0  0  0  0  0  0  0  0  0  0  0  0
  -44.6394   59.3955   70.8813 H   0  0  0  0  0  0  0  0  0  0  0  0
  -45.3300   57.9030   70.1545 H   0  0  0  0  0  0  0  0  0  0  0  0
  -46.2630   59.1996   73.4309 H   0  0  0  0  0  0  0  0  0  0  0  0
  -47.6625   60.0664   72.8452 H   0  0  0  0  0  0  0  0  0  0  0  0
  -46.0570   60.6529   72.4830 H   0  0  0  0  0  0  0  0  0  0  0  0
  -41.6517   55.4987   69.2625 H   0  0  0  0  0  0  0  0  0  0  0  0
  -47.1137   57.1659   72.3731 H   0  0  0  0  0  0  0  0  0  0  0  0
  -47.5270   57.1770   70.6754 H   0  0  0  0  0  0  0  0  0  0  0  0
  -48.5003   58.0724   71.8173 H   0  0  0  0  0  0  0  0  0  0  0  0
  -46.5759   60.6453   70.1031 H   0  0  0  0  0  0  0  0  0  0  0  0
  -48.1876   60.0968   70.4963 H   0  0  0  0  0  0  0  0  0  0  0  0
  -47.2143   59.2014   69.3544 H   0  0  0  0  0  0  0  0  0  0  0  0
  -38.5712   58.1072   68.3993 H   0  0  0  0  0  0  0  0  0  0  0  0
  -39.2288   59.2779   69.4906 H   0  0  0  0  0  0  0  0  0  0  0  0
  -40.1733   60.2341   64.5530 H   0  0  0  0  0  0  0  0  0  0  0  0
  -40.9602   60.8449   66.0193 H   0  0  0  0  0  0  0  0  0  0  0  0
  -41.8086   58.4429   64.4703 H   0  0  0  0  0  0  0  0  0  0  0  0
  -42.5713   60.0428   64.4426 H   0  0  0  0  0  0  0  0  0  0  0  0
  -42.3518   58.2646   66.8179 H   0  0  0  0  0  0  0  0  0  0  0  0
  -43.7960   58.5403   65.8064 H   0  0  0  0  0  0  0  0  0  0  0  0
  -42.4276   60.5889   67.4576 H   0  0  0  0  0  0  0  0  0  0  0  0
  -43.9352   59.7276   67.8492 H   0  0  0  0  0  0  0  0  0  0  0  0
  -45.0148   60.7072   65.9759 H   0  0  0  0  0  0  0  0  0  0  0  0
  -43.5184   61.5502   65.5524 H   0  0  0  0  0  0  0  0  0  0  0  0
  -43.6015   62.7687   67.5962 H   0  0  0  0  0  0  0  0  0  0  0  0
  -45.1161   61.9047   68.0088 H   0  0  0  0  0  0  0  0  0  0  0  0
  -44.7693   63.7932   65.7639 H   0  0  0  0  0  0  0  0  0  0  0  0
  -45.5377   64.1247   67.3304 H   0  0  0  0  0  0  0  0  0  0  0  0
  -46.5710   62.1578   65.3614 H   0  0  0  0  0  0  0  0  0  0  0  0
  -48.6073   62.8159   65.9526 H   0  0  0  0  0  0  0  0  0  0  0  0
  -47.2913   64.7588   67.8009 H   0  0  0  0  0  0  0  0  0  0  0  0
  -48.8250   63.8843   68.1121 H   0  0  0  0  0  0  0  0  0  0  0  0
  -49.2028   66.2045   67.6131 H   0  0  0  0  0  0  0  0  0  0  0  0
  -49.9015   65.1024   66.4152 H   0  0  0  0  0  0  0  0  0  0  0  0
  -48.9166   67.0256   65.3744 H   0  0  0  0  0  0  0  0  0  0  0  0
  -48.0787   65.5028   64.9632 H   0  0  0  0  0  0  0  0  0  0  0  0
  -46.5361   67.3191   65.2572 H   0  0  0  0  0  0  0  0  0  0  0  0
  -46.3324   66.0286   66.4520 H   0  0  0  0  0  0  0  0  0  0  0  0
  -47.4924   67.3272   68.0849 H   0  0  0  0  0  0  0  0  0  0  0  0
  -47.6964   68.6213   66.8683 H   0  0  0  0  0  0  0  0  0  0  0  0
  -45.3707   68.9868   66.8183 H   0  0  0  0  0  0  0  0  0  0  0  0
  -45.1404   67.6852   68.0026 H   0  0  0  0  0  0  0  0  0  0  0  0
  -44.9825   69.8343   69.0059 H   0  0  0  0  0  0  0  0  0  0  0  0
  -46.3671   68.8885   69.5918 H   0  0  0  0  0  0  0  0  0  0  0  0
  -46.4606   71.0926   67.6389 H   0  0  0  0  0  0  0  0  0  0  0  0
  -46.9468   71.1632   69.3158 H   0  0  0  0  0  0  0  0  0  0  0  0
  -47.8118   70.1360   68.1978 H   0  0  0  0  0  0  0  0  0  0  0  0
  1  9  1  0  0  0  0
  1 11  1  0  0  0  0
  1 13  1  0  0  0  0
  1 15  1  0  0  0  0
  2  3  1  0  0  0  0
  2  5  1  0  0  0  0
  2 17  1  0  0  0  0
  2 36  1  6  0  0  0
  3 37  1  0  0  0  0
  4  6  1  0  0  0  0
  4  8  2  6  0  0  0
  4 10  1  0  0  0  0
  4 12  1  0  0  0  0
  5  6  1  0  0  0  0
  5 38  1  0  0  0  0
  5 39  1  0  0  0  0
  7  9  1  0  0  0  0
  7 10  1  0  0  0  0
  7 40  1  0  0  0  0
  7 41  1  0  0  0  0
  9 42  1  0  0  0  0
  9 43  1  0  0  0  0
 11 44  1  0  0  0  0
 11 45  1  0  0  0  0
 11 46  1  0  0  0  0
 12 47  1  0  0  0  0
 13 48  1  0  0  0  0
 13 49  1  0  0  0  0
 13 50  1  0  0  0  0
 14 17  1  0  0  0  0
 14 18  1  0  0  0  0
 15 51  1  0  0  0  0
 15 52  1  0  0  0  0
 15 53  1  0  0  0  0
 16 18  2  0  0  0  0
 17 54  1  0  0  0  0
 17 55  1  0  0  0  0
 18 19  1  0  0  0  0
 19 20  1  0  0  0  0
 19 56  1  0  0  0  0
 19 57  1  0  0  0  0
 20 21  1  0  0  0  0
 20 58  1  0  0  0  0
 20 59  1  0  0  0  0
 21 22  1  0  0  0  0
 21 60  1  0  0  0  0
 21 61  1  0  0  0  0
 22 23  1  0  0  0  0
 22 62  1  0  0  0  0
 22 63  1  0  0  0  0
 23 24  1  0  0  0  0
 23 64  1  0  0  0  0
 23 65  1  0  0  0  0
 24 25  1  0  0  0  0
 24 66  1  0  0  0  0
 24 67  1  0  0  0  0
 25 26  1  0  0  0  0
 25 68  1  0  0  0  0
 25 69  1  0  0  0  0
 26 27  2  0  0  0  0
 26 70  1  0  0  0  0
 27 28  1  0  0  0  0
 27 71  1  0  0  0  0
 28 29  1  0  0  0  0
 28 72  1  0  0  0  0
 28 73  1  0  0  0  0
 29 30  1  0  0  0  0
 29 74  1  0  0  0  0
 29 75  1  0  0  0  0
 30 31  1  0  0  0  0
 30 76  1  0  0  0  0
 30 77  1  0  0  0  0
 31 32  1  0  0  0  0
 31 78  1  0  0  0  0
 31 79  1  0  0  0  0
 32 33  1  0  0  0  0
 32 80  1  0  0  0  0
 32 81  1  0  0  0  0
 33 34  1  0  0  0  0
 33 82  1  0  0  0  0
 33 83  1  0  0  0  0
 34 35  1  0  0  0  0
 34 84  1  0  0  0  0
 34 85  1  0  0  0  0
 35 86  1  0  0  0  0
 35 87  1  0  0  0  0
 35 88  1  0  0  0  0
M  CHG  1   8  -1
M  END
$$$$