/media/chris/experiments/cd1a-new-docking/inputs/ligands/4x6c_ligand.pdb
 OpenBabel07012320263D

 88 87  0  0  1  0  0  0  0  0999 V2000
  -41.2911   61.6163   61.6514 N   0  0  0  0  0  4  0  0  0  0  0  0
  -37.8481   57.0993   66.4590 C   0  0  1  0  0  0  0  0  0  0  0  0
  -39.1946   56.7218   66.7462 O   0  0  0  0  0  0  0  0  0  0  0  0
  -38.4188   57.4222   62.6092 P   0  0  2  0  0  0  0  0  0  0  0  0
  -37.5672   56.7925   65.0080 C   0  0  0  0  0  0  0  0  0  0  0  0
  -38.4757   57.5597   64.1926 O   0  0  0  0  0  0  0  0  0  0  0  0
  -40.0422   59.4549   62.2642 C   0  0  0  0  0  0  0  0  0  0  0  0
  -37.0237   57.0935   62.2531 O   0  5  0  0  0  0  0  0  0  0  0  0
  -40.0501   60.7592   61.4996 C   0  0  0  0  0  0  0  0  0  0  0  0
  -38.7669   58.8348   61.9765 O   0  0  0  0  0  0  0  0  0  0  0  0
  -42.5125   60.8807   61.2020 C   0  0  0  0  0  0  0  0  0  0  0  0
  -39.4981   56.4926   62.2218 O   0  0  0  0  0  0  0  0  0  0  0  0
  -41.1480   62.8543   60.8253 C   0  0  0  0  0  0  0  0  0  0  0  0
  -38.5713   59.3368   66.1067 O   0  0  0  0  0  0  0  0  0  0  0  0
  -41.4640   61.9984   63.0879 C   0  0  0  0  0  0  0  0  0  0  0  0
  -40.2919   58.2579   67.0258 O   0  0  0  0  0  0  0  0  0  0  0  0
  -37.6317   58.5399   66.8617 C   0  0  0  0  0  0  0  0  0  0  0  0
  -39.8694   59.0915   66.2844 C   0  0  0  0  0  0  0  0  0  0  0  0
  -40.7200   59.9800   65.4370 C   0  0  0  0  0  0  0  0  0  0  0  0
  -42.0280   59.3300   65.0270 C   0  0  0  0  0  0  0  0  0  0  0  0
  -42.8960   58.9560   66.2090 C   0  0  0  0  0  0  0  0  0  0  0  0
  -43.3110   60.1221   67.0749 C   0  0  0  0  0  0  0  0  0  0  0  0
  -44.1610   59.7323   68.2572 C   0  0  0  0  0  0  0  0  0  0  0  0
  -44.5694   60.9198   69.0870 C   0  0  0  0  0  0  0  0  0  0  0  0
  -45.4051   60.6061   70.2926 C   0  0  0  0  0  0  0  0  0  0  0  0
  -45.7917   61.7989   71.0600 C   0  0  0  0  0  0  0  0  0  0  0  0
  -47.0044   62.2331   71.3234 C   0  0  0  0  0  0  0  0  0  0  0  0
  -48.2992   61.6196   70.9338 C   0  0  0  0  0  0  0  0  0  0  0  0
  -48.8661   62.0787   69.6059 C   0  0  0  0  0  0  0  0  0  0  0  0
  -47.9569   61.7708   68.4481 C   0  0  0  0  0  0  0  0  0  0  0  0
  -47.6691   60.3051   68.2461 C   0  0  0  0  0  0  0  0  0  0  0  0
  -48.9195   59.4997   67.9694 C   0  0  0  0  0  0  0  0  0  0  0  0
  -48.6937   58.0261   67.7760 C   0  0  0  0  0  0  0  0  0  0  0  0
  -47.7841   57.7195   66.6544 C   0  0  0  0  0  0  0  0  0  0  0  0
  -46.4466   58.2849   66.8208 C   0  0  0  0  0  0  0  0  0  0  0  0
  -37.1382   56.5379   67.0298 H   0  0  0  0  0  0  0  0  0  0  0  0
  -39.8014   57.2543   66.2083 H   0  0  0  0  0  0  0  0  0  0  0  0
  -37.7127   55.7483   64.8254 H   0  0  0  0  0  0  0  0  0  0  0  0
  -36.5560   57.0480   64.7690 H   0  0  0  0  0  0  0  0  0  0  0  0
  -40.8439   58.8266   61.9367 H   0  0  0  0  0  0  0  0  0  0  0  0
  -40.1739   59.6140   63.3141 H   0  0  0  0  0  0  0  0  0  0  0  0
  -39.2121   61.3365   61.8303 H   0  0  0  0  0  0  0  0  0  0  0  0
  -40.0159   60.4853   60.4659 H   0  0  0  0  0  0  0  0  0  0  0  0
  -42.4027   60.6009   60.1750 H   0  0  0  0  0  0  0  0  0  0  0  0
  -43.3693   61.5125   61.3098 H   0  0  0  0  0  0  0  0  0  0  0  0
  -42.6397   60.0022   61.7993 H   0  0  0  0  0  0  0  0  0  0  0  0
  -39.3176   55.6148   62.5930 H   0  0  0  0  0  0  0  0  0  0  0  0
  -41.0242   62.5847   59.7972 H   0  0  0  0  0  0  0  0  0  0  0  0
  -40.2925   63.4061   61.1549 H   0  0  0  0  0  0  0  0  0  0  0  0
  -42.0249   63.4580   60.9326 H   0  0  0  0  0  0  0  0  0  0  0  0
  -41.5667   61.1145   63.6821 H   0  0  0  0  0  0  0  0  0  0  0  0
  -42.3406   62.6028   63.1932 H   0  0  0  0  0  0  0  0  0  0  0  0
  -40.6082   62.5509   63.4154 H   0  0  0  0  0  0  0  0  0  0  0  0
  -36.6300   58.8386   66.6332 H   0  0  0  0  0  0  0  0  0  0  0  0
  -37.7815   58.6684   67.9134 H   0  0  0  0  0  0  0  0  0  0  0  0
  -40.1733   60.2341   64.5530 H   0  0  0  0  0  0  0  0  0  0  0  0
  -40.9602   60.8449   66.0193 H   0  0  0  0  0  0  0  0  0  0  0  0
  -41.8086   58.4429   64.4703 H   0  0  0  0  0  0  0  0  0  0  0  0
  -42.5713   60.0428   64.4426 H   0  0  0  0  0  0  0  0  0  0  0  0
  -42.3518   58.2646   66.8179 H   0  0  0  0  0  0  0  0  0  0  0  0
  -43.7960   58.5403   65.8064 H   0  0  0  0  0  0  0  0  0  0  0  0
  -43.8675   60.8086   66.4716 H   0  0  0  0  0  0  0  0  0  0  0  0
  -42.4135   60.5536   67.4661 H   0  0  0  0  0  0  0  0  0  0  0  0
  -43.6038   59.0579   68.8734 H   0  0  0  0  0  0  0  0  0  0  0  0
  -45.0523   59.2748   67.8815 H   0  0  0  0  0  0  0  0  0  0  0  0
  -45.1291   61.5829   68.4610 H   0  0  0  0  0  0  0  0  0  0  0  0
  -43.6612   61.3446   69.4605 H   0  0  0  0  0  0  0  0  0  0  0  0
  -44.8459   59.9568   70.9334 H   0  0  0  0  0  0  0  0  0  0  0  0
  -46.3070   60.1493   69.9423 H   0  0  0  0  0  0  0  0  0  0  0  0
  -45.0161   62.3648   71.4385 H   0  0  0  0  0  0  0  0  0  0  0  0
  -47.0637   63.1078   71.8679 H   0  0  0  0  0  0  0  0  0  0  0  0
  -49.0151   61.8498   71.6950 H   0  0  0  0  0  0  0  0  0  0  0  0
  -48.1066   60.5728   70.8244 H   0  0  0  0  0  0  0  0  0  0  0  0
  -49.0210   63.1366   69.6474 H   0  0  0  0  0  0  0  0  0  0  0  0
  -49.7826   61.5500   69.4462 H   0  0  0  0  0  0  0  0  0  0  0  0
  -47.0267   62.2737   68.6118 H   0  0  0  0  0  0  0  0  0  0  0  0
  -48.4657   62.1032   67.5674 H   0  0  0  0  0  0  0  0  0  0  0  0
  -47.2034   59.9223   69.1301 H   0  0  0  0  0  0  0  0  0  0  0  0
  -47.0300   60.2149   67.3927 H   0  0  0  0  0  0  0  0  0  0  0  0
  -49.3736   59.8857   67.0808 H   0  0  0  0  0  0  0  0  0  0  0  0
  -49.5372   59.5970   68.8377 H   0  0  0  0  0  0  0  0  0  0  0  0
  -49.6376   57.5595   67.5856 H   0  0  0  0  0  0  0  0  0  0  0  0
  -48.2346   57.6549   68.6683 H   0  0  0  0  0  0  0  0  0  0  0  0
  -48.2095   58.1137   65.7552 H   0  0  0  0  0  0  0  0  0  0  0  0
  -47.6751   56.6557   66.6177 H   0  0  0  0  0  0  0  0  0  0  0  0
  -46.5132   59.3521   66.8622 H   0  0  0  0  0  0  0  0  0  0  0  0
  -45.8324   57.9977   65.9931 H   0  0  0  0  0  0  0  0  0  0  0  0
  -46.0152   57.9190   67.7291 H   0  0  0  0  0  0  0  0  0  0  0  0
  1  9  1  0  0  0  0
  1 11  1  0  0  0  0
  1 13  1  0  0  0  0
  1 15  1  0  0  0  0
  2  3  1  0  0  0  0
  2  5  1  0  0  0  0
  2 17  1  0  0  0  0
  2 36  1  1  0  0  0
  3 37  1  0  0  0  0
  4  6  1  0  0  0  0
  4  8  2  6  0  0  0
  4 10  1  0  0  0  0
  4 12  1  0  0  0  0
  5  6  1  0  0  0  0
  5 38  1  0  0  0  0
  5 39  1  0  0  0  0
  7  9  1  0  0  0  0
  7 10  1  0  0  0  0
  7 40  1  0  0  0  0
  7 41  1  0  0  0  0
  9 42  1  0  0  0  0
  9 43  1  0  0  0  0
 11 44  1  0  0  0  0
 11 45  1  0  0  0  0
 11 46  1  0  0  0  0
 12 47  1  0  0  0  0
 13 48  1  0  0  0  0
 13 49  1  0  0  0  0
 13 50  1  0  0  0  0
 14 17  1  0  0  0  0
 14 18  1  0  0  0  0
 15 51  1  0  0  0  0
 15 52  1  0  0  0  0
 15 53  1  0  0  0  0
 16 18  2  0  0  0  0
 17 54  1  0  0  0  0
 17 55  1  0  0  0  0
 18 19  1  0  0  0  0
 19 20  1  0  0  0  0
 19 56  1  0  0  0  0
 19 57  1  0  0  0  0
 20 21  1  0  0  0  0
 20 58  1  0  0  0  0
 20 59  1  0  0  0  0
 21 22  1  0  0  0  0
 21 60  1  0  0  0  0
 21 61  1  0  0  0  0
 22 23  1  0  0  0  0
 22 62  1  0  0  0  0
 22 63  1  0  0  0  0
 23 24  1  0  0  0  0
 23 64  1  0  0  0  0
 23 65  1  0  0  0  0
 24 25  1  0  0  0  0
 24 66  1  0  0  0  0
 24 67  1  0  0  0  0
 25 26  1  0  0  0  0
 25 68  1  0  0  0  0
 25 69  1  0  0  0  0
 26 27  2  0  0  0  0
 26 70  1  0  0  0  0
 27 28  1  0  0  0  0
 27 71  1  0  0  0  0
 28 29  1  0  0  0  0
 28 72  1  0  0  0  0
 28 73  1  0  0  0  0
 29 30  1  0  0  0  0
 29 74  1  0  0  0  0
 29 75  1  0  0  0  0
 30 31  1  0  0  0  0
 30 76  1  0  0  0  0
 30 77  1  0  0  0  0
 31 32  1  0  0  0  0
 31 78  1  0  0  0  0
 31 79  1  0  0  0  0
 32 33  1  0  0  0  0
 32 80  1  0  0  0  0
 32 81  1  0  0  0  0
 33 34  1  0  0  0  0
 33 82  1  0  0  0  0
 33 83  1  0  0  0  0
 34 35  1  0  0  0  0
 34 84  1  0  0  0  0
 34 85  1  0  0  0  0
 35 86  1  0  0  0  0
 35 87  1  0  0  0  0
 35 88  1  0  0  0  0
M  CHG  1   8  -1
M  END
$$$$