/media/chris/experiments/cd1a-new-docking/inputs/ligands/4x6c_ligand.pdb
 OpenBabel07012320263D

 88 87  0  0  1  0  0  0  0  0999 V2000
  -43.0635   54.5807   60.5047 N   0  0  0  0  0  4  0  0  0  0  0  0
  -39.0847   60.8760   61.3870 C   0  0  1  0  0  0  0  0  0  0  0  0
  -38.0544   60.3161   62.2013 O   0  0  0  0  0  0  0  0  0  0  0  0
  -40.9205   57.4779   60.8095 P   0  0  2  0  0  0  0  0  0  0  0  0
  -39.6789   59.7724   60.5459 C   0  0  0  0  0  0  0  0  0  0  0  0
  -40.2367   58.7751   61.4251 O   0  0  0  0  0  0  0  0  0  0  0  0
  -43.4722   57.0174   61.2137 C   0  0  0  0  0  0  0  0  0  0  0  0
  -41.4753   57.8630   59.4961 O   0  5  0  0  0  0  0  0  0  0  0  0
  -43.4414   55.9926   60.1027 C   0  0  0  0  0  0  0  0  0  0  0  0
  -42.1288   57.0614   61.7495 O   0  0  0  0  0  0  0  0  0  0  0  0
  -44.0323   54.0258   61.4989 C   0  0  0  0  0  0  0  0  0  0  0  0
  -39.9205   56.3942   60.8781 O   0  0  0  0  0  0  0  0  0  0  0  0
  -41.6995   54.5832   61.1169 C   0  0  0  0  0  0  0  0  0  0  0  0
  -40.6084   60.6579   63.1994 O   0  0  0  0  0  0  0  0  0  0  0  0
  -43.0606   53.6989   59.2957 C   0  0  0  0  0  0  0  0  0  0  0  0
  -38.6783   60.3998   64.2845 O   0  0  0  0  0  0  0  0  0  0  0  0
  -40.0713   61.6162   62.2607 C   0  0  0  0  0  0  0  0  0  0  0  0
  -39.8706   60.3644   64.2700 C   0  0  0  0  0  0  0  0  0  0  0  0
  -40.7200   59.9800   65.4370 C   0  0  0  0  0  0  0  0  0  0  0  0
  -42.0280   59.3300   65.0270 C   0  0  0  0  0  0  0  0  0  0  0  0
  -42.8960   58.9560   66.2090 C   0  0  0  0  0  0  0  0  0  0  0  0
  -44.2012   58.2902   65.8416 C   0  0  0  0  0  0  0  0  0  0  0  0
  -45.0623   57.9388   67.0279 C   0  0  0  0  0  0  0  0  0  0  0  0
  -44.3705   57.0027   67.9821 C   0  0  0  0  0  0  0  0  0  0  0  0
  -43.9464   55.6870   67.3997 C   0  0  0  0  0  0  0  0  0  0  0  0
  -42.9896   55.8214   66.2918 C   0  0  0  0  0  0  0  0  0  0  0  0
  -41.7681   55.3409   66.2153 C   0  0  0  0  0  0  0  0  0  0  0  0
  -41.0455   54.5184   67.2181 C   0  0  0  0  0  0  0  0  0  0  0  0
  -40.2369   55.2936   68.2382 C   0  0  0  0  0  0  0  0  0  0  0  0
  -41.0831   56.2176   69.0702 C   0  0  0  0  0  0  0  0  0  0  0  0
  -40.3196   57.0238   70.0894 C   0  0  0  0  0  0  0  0  0  0  0  0
  -41.2171   57.9233   70.9104 C   0  0  0  0  0  0  0  0  0  0  0  0
  -42.0050   58.9273   70.1161 C   0  0  0  0  0  0  0  0  0  0  0  0
  -41.1547   59.8456   69.3331 C   0  0  0  0  0  0  0  0  0  0  0  0
  -41.9160   60.8342   68.5719 C   0  0  0  0  0  0  0  0  0  0  0  0
  -38.7093   61.6087   60.7035 H   0  0  0  0  0  0  0  0  0  0  0  0
  -38.4389   59.6596   62.8032 H   0  0  0  0  0  0  0  0  0  0  0  0
  -38.9164   59.3317   59.9383 H   0  0  0  0  0  0  0  0  0  0  0  0
  -40.4428   60.1680   59.9097 H   0  0  0  0  0  0  0  0  0  0  0  0
  -44.1662   56.7226   61.9729 H   0  0  0  0  0  0  0  0  0  0  0  0
  -43.7840   57.9762   60.8555 H   0  0  0  0  0  0  0  0  0  0  0  0
  -44.4168   55.9571   59.6642 H   0  0  0  0  0  0  0  0  0  0  0  0
  -42.6700   56.3165   59.4356 H   0  0  0  0  0  0  0  0  0  0  0  0
  -44.0448   54.6472   62.3699 H   0  0  0  0  0  0  0  0  0  0  0  0
  -43.7349   53.0349   61.7719 H   0  0  0  0  0  0  0  0  0  0  0  0
  -45.0106   53.9982   61.0664 H   0  0  0  0  0  0  0  0  0  0  0  0
  -39.1641   56.6159   60.3128 H   0  0  0  0  0  0  0  0  0  0  0  0
  -41.6979   55.2129   61.9820 H   0  0  0  0  0  0  0  0  0  0  0  0
  -40.9901   54.9521   60.4059 H   0  0  0  0  0  0  0  0  0  0  0  0
  -41.4342   53.5862   61.4010 H   0  0  0  0  0  0  0  0  0  0  0  0
  -44.0356   53.6949   58.8549 H   0  0  0  0  0  0  0  0  0  0  0  0
  -42.7942   52.7028   59.5813 H   0  0  0  0  0  0  0  0  0  0  0  0
  -42.3500   54.0686   58.5862 H   0  0  0  0  0  0  0  0  0  0  0  0
  -40.8583   62.0242   61.6615 H   0  0  0  0  0  0  0  0  0  0  0  0
  -39.5944   62.4256   62.7729 H   0  0  0  0  0  0  0  0  0  0  0  0
  -40.9394   60.8604   66.0042 H   0  0  0  0  0  0  0  0  0  0  0  0
  -40.1713   59.2627   66.0109 H   0  0  0  0  0  0  0  0  0  0  0  0
  -41.8086   58.4429   64.4703 H   0  0  0  0  0  0  0  0  0  0  0  0
  -42.5713   60.0428   64.4426 H   0  0  0  0  0  0  0  0  0  0  0  0
  -43.1183   59.8483   66.7560 H   0  0  0  0  0  0  0  0  0  0  0  0
  -42.3406   58.2423   66.7808 H   0  0  0  0  0  0  0  0  0  0  0  0
  -43.9814   57.3901   65.3063 H   0  0  0  0  0  0  0  0  0  0  0  0
  -44.7539   58.9929   65.2537 H   0  0  0  0  0  0  0  0  0  0  0  0
  -45.9577   57.4707   66.6758 H   0  0  0  0  0  0  0  0  0  0  0  0
  -45.2749   58.8446   67.5562 H   0  0  0  0  0  0  0  0  0  0  0  0
  -45.0397   56.8042   68.7931 H   0  0  0  0  0  0  0  0  0  0  0  0
  -43.4695   57.4976   68.2790 H   0  0  0  0  0  0  0  0  0  0  0  0
  -44.8163   55.1801   67.0372 H   0  0  0  0  0  0  0  0  0  0  0  0
  -43.4552   55.1404   68.1774 H   0  0  0  0  0  0  0  0  0  0  0  0
  -43.3167   56.3588   65.4737 H   0  0  0  0  0  0  0  0  0  0  0  0
  -41.2478   55.5627   65.3521 H   0  0  0  0  0  0  0  0  0  0  0  0
  -40.3769   53.8695   66.6919 H   0  0  0  0  0  0  0  0  0  0  0  0
  -41.8006   54.0023   67.7733 H   0  0  0  0  0  0  0  0  0  0  0  0
  -39.5017   55.8749   67.7219 H   0  0  0  0  0  0  0  0  0  0  0  0
  -39.7870   54.5838   68.9005 H   0  0  0  0  0  0  0  0  0  0  0  0
  -41.8101   55.6278   69.5884 H   0  0  0  0  0  0  0  0  0  0  0  0
  -41.5183   56.9217   68.3921 H   0  0  0  0  0  0  0  0  0  0  0  0
  -39.6014   57.6305   69.5784 H   0  0  0  0  0  0  0  0  0  0  0  0
  -39.8489   56.3359   70.7603 H   0  0  0  0  0  0  0  0  0  0  0  0
  -40.6050   58.4571   71.6070 H   0  0  0  0  0  0  0  0  0  0  0  0
  -41.9343   57.2831   71.3803 H   0  0  0  0  0  0  0  0  0  0  0  0
  -42.5979   59.5065   70.7928 H   0  0  0  0  0  0  0  0  0  0  0  0
  -42.6072   58.3808   69.4208 H   0  0  0  0  0  0  0  0  0  0  0  0
  -40.5709   59.2665   68.6485 H   0  0  0  0  0  0  0  0  0  0  0  0
  -40.5458   60.3835   70.0294 H   0  0  0  0  0  0  0  0  0  0  0  0
  -42.5402   60.3337   67.8615 H   0  0  0  0  0  0  0  0  0  0  0  0
  -41.2406   61.4852   68.0572 H   0  0  0  0  0  0  0  0  0  0  0  0
  -42.5244   61.4073   69.2399 H   0  0  0  0  0  0  0  0  0  0  0  0
  1  9  1  0  0  0  0
  1 11  1  0  0  0  0
  1 13  1  0  0  0  0
  1 15  1  0  0  0  0
  2  3  1  0  0  0  0
  2  5  1  0  0  0  0
  2 17  1  0  0  0  0
  2 36  1  6  0  0  0
  3 37  1  0  0  0  0
  4  6  1  0  0  0  0
  4  8  2  6  0  0  0
  4 10  1  0  0  0  0
  4 12  1  0  0  0  0
  5  6  1  0  0  0  0
  5 38  1  0  0  0  0
  5 39  1  0  0  0  0
  7  9  1  0  0  0  0
  7 10  1  0  0  0  0
  7 40  1  0  0  0  0
  7 41  1  0  0  0  0
  9 42  1  0  0  0  0
  9 43  1  0  0  0  0
 11 44  1  0  0  0  0
 11 45  1  0  0  0  0
 11 46  1  0  0  0  0
 12 47  1  0  0  0  0
 13 48  1  0  0  0  0
 13 49  1  0  0  0  0
 13 50  1  0  0  0  0
 14 17  1  0  0  0  0
 14 18  1  0  0  0  0
 15 51  1  0  0  0  0
 15 52  1  0  0  0  0
 15 53  1  0  0  0  0
 16 18  2  0  0  0  0
 17 54  1  0  0  0  0
 17 55  1  0  0  0  0
 18 19  1  0  0  0  0
 19 20  1  0  0  0  0
 19 56  1  0  0  0  0
 19 57  1  0  0  0  0
 20 21  1  0  0  0  0
 20 58  1  0  0  0  0
 20 59  1  0  0  0  0
 21 22  1  0  0  0  0
 21 60  1  0  0  0  0
 21 61  1  0  0  0  0
 22 23  1  0  0  0  0
 22 62  1  0  0  0  0
 22 63  1  0  0  0  0
 23 24  1  0  0  0  0
 23 64  1  0  0  0  0
 23 65  1  0  0  0  0
 24 25  1  0  0  0  0
 24 66  1  0  0  0  0
 24 67  1  0  0  0  0
 25 26  1  0  0  0  0
 25 68  1  0  0  0  0
 25 69  1  0  0  0  0
 26 27  2  0  0  0  0
 26 70  1  0  0  0  0
 27 28  1  0  0  0  0
 27 71  1  0  0  0  0
 28 29  1  0  0  0  0
 28 72  1  0  0  0  0
 28 73  1  0  0  0  0
 29 30  1  0  0  0  0
 29 74  1  0  0  0  0
 29 75  1  0  0  0  0
 30 31  1  0  0  0  0
 30 76  1  0  0  0  0
 30 77  1  0  0  0  0
 31 32  1  0  0  0  0
 31 78  1  0  0  0  0
 31 79  1  0  0  0  0
 32 33  1  0  0  0  0
 32 80  1  0  0  0  0
 32 81  1  0  0  0  0
 33 34  1  0  0  0  0
 33 82  1  0  0  0  0
 33 83  1  0  0  0  0
 34 35  1  0  0  0  0
 34 84  1  0  0  0  0
 34 85  1  0  0  0  0
 35 86  1  0  0  0  0
 35 87  1  0  0  0  0
 35 88  1  0  0  0  0
M  CHG  1   8  -1
M  END
$$$$