/media/chris/experiments/cd1a-new-docking/inputs/ligands/4x6c_ligand.pdb
 OpenBabel07012320263D

 88 87  0  0  1  0  0  0  0  0999 V2000
  -42.4397   55.0103   62.1410 N   0  0  0  0  0  4  0  0  0  0  0  0
  -38.5671   57.9412   68.7688 C   0  0  1  0  0  0  0  0  0  0  0  0
  -39.6376   58.0048   69.7111 O   0  0  0  0  0  0  0  0  0  0  0  0
  -40.6393   56.0446   66.0559 P   0  0  2  0  0  0  0  0  0  0  0  0
  -38.8454   56.8105   67.8084 C   0  0  0  0  0  0  0  0  0  0  0  0
  -40.0848   57.0839   67.1244 O   0  0  0  0  0  0  0  0  0  0  0  0
  -40.3298   55.5900   63.4899 C   0  0  0  0  0  0  0  0  0  0  0  0
  -40.1715   54.7065   66.4704 O   0  5  0  0  0  0  0  0  0  0  0  0
  -41.8198   55.7636   63.3012 C   0  0  0  0  0  0  0  0  0  0  0  0
  -39.9828   56.3804   64.6512 O   0  0  0  0  0  0  0  0  0  0  0  0
  -43.9081   55.2752   62.0494 C   0  0  0  0  0  0  0  0  0  0  0  0
  -42.0890   56.2928   65.9306 O   0  0  0  0  0  0  0  0  0  0  0  0
  -42.2300   53.5419   62.3289 C   0  0  0  0  0  0  0  0  0  0  0  0
  -39.6287   59.6329   67.4785 O   0  0  0  0  0  0  0  0  0  0  0  0
  -41.7947   55.4415   60.8614 C   0  0  0  0  0  0  0  0  0  0  0  0
  -39.4477   58.0302   65.9397 O   0  0  0  0  0  0  0  0  0  0  0  0
  -38.3811   59.2960   68.1251 C   0  0  0  0  0  0  0  0  0  0  0  0
  -39.8694   59.0915   66.2844 C   0  0  0  0  0  0  0  0  0  0  0  0
  -40.7200   59.9800   65.4370 C   0  0  0  0  0  0  0  0  0  0  0  0
  -42.0280   59.3300   65.0270 C   0  0  0  0  0  0  0  0  0  0  0  0
  -42.8960   58.9560   66.2090 C   0  0  0  0  0  0  0  0  0  0  0  0
  -44.2012   58.2902   65.8416 C   0  0  0  0  0  0  0  0  0  0  0  0
  -45.0623   57.9388   67.0279 C   0  0  0  0  0  0  0  0  0  0  0  0
  -46.3454   57.2626   66.6256 C   0  0  0  0  0  0  0  0  0  0  0  0
  -47.2626   56.8977   67.7552 C   0  0  0  0  0  0  0  0  0  0  0  0
  -46.6505   55.9843   68.7310 C   0  0  0  0  0  0  0  0  0  0  0  0
  -46.1635   54.7817   68.5183 C   0  0  0  0  0  0  0  0  0  0  0  0
  -46.0843   54.0423   67.2333 C   0  0  0  0  0  0  0  0  0  0  0  0
  -44.9211   53.0802   67.1040 C   0  0  0  0  0  0  0  0  0  0  0  0
  -44.8920   52.3788   65.7738 C   0  0  0  0  0  0  0  0  0  0  0  0
  -46.1225   51.5653   65.4640 C   0  0  0  0  0  0  0  0  0  0  0  0
  -47.3796   52.4058   65.4207 C   0  0  0  0  0  0  0  0  0  0  0  0
  -47.3799   53.4918   64.3814 C   0  0  0  0  0  0  0  0  0  0  0  0
  -47.2459   52.9783   63.0039 C   0  0  0  0  0  0  0  0  0  0  0  0
  -48.3318   52.0827   62.6103 C   0  0  0  0  0  0  0  0  0  0  0  0
  -37.6292   57.7194   69.2336 H   0  0  0  0  0  0  0  0  0  0  0  0
  -40.4651   58.2074   69.2473 H   0  0  0  0  0  0  0  0  0  0  0  0
  -38.9268   55.8903   68.3484 H   0  0  0  0  0  0  0  0  0  0  0  0
  -38.0474   56.7267   67.1004 H   0  0  0  0  0  0  0  0  0  0  0  0
  -39.8020   55.9424   62.6285 H   0  0  0  0  0  0  0  0  0  0  0  0
  -40.0677   54.5611   63.6222 H   0  0  0  0  0  0  0  0  0  0  0  0
  -42.3027   55.4364   64.1982 H   0  0  0  0  0  0  0  0  0  0  0  0
  -41.9612   56.8004   63.0777 H   0  0  0  0  0  0  0  0  0  0  0  0
  -44.3828   54.9712   62.9588 H   0  0  0  0  0  0  0  0  0  0  0  0
  -44.3197   54.7232   61.2304 H   0  0  0  0  0  0  0  0  0  0  0  0
  -44.0728   56.3209   61.8933 H   0  0  0  0  0  0  0  0  0  0  0  0
  -42.5248   56.0969   66.7748 H   0  0  0  0  0  0  0  0  0  0  0  0
  -42.6900   53.2300   63.2432 H   0  0  0  0  0  0  0  0  0  0  0  0
  -41.1812   53.3335   62.3681 H   0  0  0  0  0  0  0  0  0  0  0  0
  -42.6687   53.0113   61.5098 H   0  0  0  0  0  0  0  0  0  0  0  0
  -41.9429   56.4922   60.7238 H   0  0  0  0  0  0  0  0  0  0  0  0
  -42.2338   54.9092   60.0436 H   0  0  0  0  0  0  0  0  0  0  0  0
  -40.7463   55.2315   60.9019 H   0  0  0  0  0  0  0  0  0  0  0  0
  -37.5928   59.2543   67.4029 H   0  0  0  0  0  0  0  0  0  0  0  0
  -38.1194   60.0325   68.8558 H   0  0  0  0  0  0  0  0  0  0  0  0
  -40.1733   60.2341   64.5530 H   0  0  0  0  0  0  0  0  0  0  0  0
  -40.9602   60.8449   66.0193 H   0  0  0  0  0  0  0  0  0  0  0  0
  -41.8086   58.4429   64.4703 H   0  0  0  0  0  0  0  0  0  0  0  0
  -42.5713   60.0428   64.4426 H   0  0  0  0  0  0  0  0  0  0  0  0
  -43.1183   59.8483   66.7560 H   0  0  0  0  0  0  0  0  0  0  0  0
  -42.3406   58.2423   66.7808 H   0  0  0  0  0  0  0  0  0  0  0  0
  -43.9814   57.3901   65.3063 H   0  0  0  0  0  0  0  0  0  0  0  0
  -44.7539   58.9929   65.2537 H   0  0  0  0  0  0  0  0  0  0  0  0
  -45.2991   58.8372   67.5587 H   0  0  0  0  0  0  0  0  0  0  0  0
  -44.5114   57.2554   67.6397 H   0  0  0  0  0  0  0  0  0  0  0  0
  -46.0947   56.3645   66.1008 H   0  0  0  0  0  0  0  0  0  0  0  0
  -46.8793   57.9739   66.0307 H   0  0  0  0  0  0  0  0  0  0  0  0
  -48.1320   56.4257   67.3474 H   0  0  0  0  0  0  0  0  0  0  0  0
  -47.5003   57.8024   68.2746 H   0  0  0  0  0  0  0  0  0  0  0  0
  -46.5965   56.3294   69.7021 H   0  0  0  0  0  0  0  0  0  0  0  0
  -45.7905   54.2915   69.3463 H   0  0  0  0  0  0  0  0  0  0  0  0
  -46.0070   54.7606   66.4440 H   0  0  0  0  0  0  0  0  0  0  0  0
  -46.9685   53.4416   67.1854 H   0  0  0  0  0  0  0  0  0  0  0  0
  -44.9980   52.3445   67.8771 H   0  0  0  0  0  0  0  0  0  0  0  0
  -44.0196   53.6504   67.1880 H   0  0  0  0  0  0  0  0  0  0  0  0
  -44.0468   51.7227   65.7613 H   0  0  0  0  0  0  0  0  0  0  0  0
  -44.8408   53.1452   65.0289 H   0  0  0  0  0  0  0  0  0  0  0  0
  -46.2370   50.8160   66.2192 H   0  0  0  0  0  0  0  0  0  0  0  0
  -45.9889   51.1317   64.4950 H   0  0  0  0  0  0  0  0  0  0  0  0
  -47.5066   52.8634   66.3796 H   0  0  0  0  0  0  0  0  0  0  0  0
  -48.1761   51.7407   65.1598 H   0  0  0  0  0  0  0  0  0  0  0  0
  -46.5615   54.1521   64.5792 H   0  0  0  0  0  0  0  0  0  0  0  0
  -48.3238   53.9917   64.4440 H   0  0  0  0  0  0  0  0  0  0  0  0
  -46.3218   52.4442   62.9293 H   0  0  0  0  0  0  0  0  0  0  0  0
  -47.2790   53.8226   62.3473 H   0  0  0  0  0  0  0  0  0  0  0  0
  -48.3325   51.2221   63.2461 H   0  0  0  0  0  0  0  0  0  0  0  0
  -48.1909   51.7759   61.5950 H   0  0  0  0  0  0  0  0  0  0  0  0
  -49.2671   52.5944   62.7018 H   0  0  0  0  0  0  0  0  0  0  0  0
  1  9  1  0  0  0  0
  1 11  1  0  0  0  0
  1 13  1  0  0  0  0
  1 15  1  0  0  0  0
  2  3  1  0  0  0  0
  2  5  1  0  0  0  0
  2 17  1  0  0  0  0
  2 36  1  1  0  0  0
  3 37  1  0  0  0  0
  4  6  1  0  0  0  0
  4  8  2  1  0  0  0
  4 10  1  0  0  0  0
  4 12  1  0  0  0  0
  5  6  1  0  0  0  0
  5 38  1  0  0  0  0
  5 39  1  0  0  0  0
  7  9  1  0  0  0  0
  7 10  1  0  0  0  0
  7 40  1  0  0  0  0
  7 41  1  0  0  0  0
  9 42  1  0  0  0  0
  9 43  1  0  0  0  0
 11 44  1  0  0  0  0
 11 45  1  0  0  0  0
 11 46  1  0  0  0  0
 12 47  1  0  0  0  0
 13 48  1  0  0  0  0
 13 49  1  0  0  0  0
 13 50  1  0  0  0  0
 14 17  1  0  0  0  0
 14 18  1  0  0  0  0
 15 51  1  0  0  0  0
 15 52  1  0  0  0  0
 15 53  1  0  0  0  0
 16 18  2  0  0  0  0
 17 54  1  0  0  0  0
 17 55  1  0  0  0  0
 18 19  1  0  0  0  0
 19 20  1  0  0  0  0
 19 56  1  0  0  0  0
 19 57  1  0  0  0  0
 20 21  1  0  0  0  0
 20 58  1  0  0  0  0
 20 59  1  0  0  0  0
 21 22  1  0  0  0  0
 21 60  1  0  0  0  0
 21 61  1  0  0  0  0
 22 23  1  0  0  0  0
 22 62  1  0  0  0  0
 22 63  1  0  0  0  0
 23 24  1  0  0  0  0
 23 64  1  0  0  0  0
 23 65  1  0  0  0  0
 24 25  1  0  0  0  0
 24 66  1  0  0  0  0
 24 67  1  0  0  0  0
 25 26  1  0  0  0  0
 25 68  1  0  0  0  0
 25 69  1  0  0  0  0
 26 27  2  0  0  0  0
 26 70  1  0  0  0  0
 27 28  1  0  0  0  0
 27 71  1  0  0  0  0
 28 29  1  0  0  0  0
 28 72  1  0  0  0  0
 28 73  1  0  0  0  0
 29 30  1  0  0  0  0
 29 74  1  0  0  0  0
 29 75  1  0  0  0  0
 30 31  1  0  0  0  0
 30 76  1  0  0  0  0
 30 77  1  0  0  0  0
 31 32  1  0  0  0  0
 31 78  1  0  0  0  0
 31 79  1  0  0  0  0
 32 33  1  0  0  0  0
 32 80  1  0  0  0  0
 32 81  1  0  0  0  0
 33 34  1  0  0  0  0
 33 82  1  0  0  0  0
 33 83  1  0  0  0  0
 34 35  1  0  0  0  0
 34 84  1  0  0  0  0
 34 85  1  0  0  0  0
 35 86  1  0  0  0  0
 35 87  1  0  0  0  0
 35 88  1  0  0  0  0
M  CHG  1   8  -1
M  END
$$$$