/media/chris/experiments/cd1a-new-docking/inputs/ligands/4x6c_ligand.pdb
 OpenBabel07012320263D

 88 87  0  0  1  0  0  0  0  0999 V2000
  -42.1627   64.1637   70.3371 N   0  0  0  0  0  4  0  0  0  0  0  0
  -40.5864   64.1180   67.0958 C   0  0  1  0  0  0  0  0  0  0  0  0
  -40.5096   64.7900   65.8386 O   0  0  0  0  0  0  0  0  0  0  0  0
  -44.4085   64.7664   67.5673 P   0  0  2  0  0  0  0  0  0  0  0  0
  -42.0205   63.7094   67.3300 C   0  0  0  0  0  0  0  0  0  0  0  0
  -42.8418   64.8944   67.3253 O   0  0  0  0  0  0  0  0  0  0  0  0
  -44.6942   63.8581   70.0126 C   0  0  0  0  0  0  0  0  0  0  0  0
  -45.0530   65.8657   66.8208 O   0  5  0  0  0  0  0  0  0  0  0  0
  -43.3086   63.2591   69.9292 C   0  0  0  0  0  0  0  0  0  0  0  0
  -44.6910   64.9908   69.1122 O   0  0  0  0  0  0  0  0  0  0  0  0
  -42.2982   64.5962   71.7617 C   0  0  0  0  0  0  0  0  0  0  0  0
  -44.7767   63.3716   67.2543 O   0  0  0  0  0  0  0  0  0  0  0  0
  -42.1516   65.3799   69.4676 C   0  0  0  0  0  0  0  0  0  0  0  0
  -39.9204   62.0973   66.0341 O   0  0  0  0  0  0  0  0  0  0  0  0
  -40.8665   63.4325   70.1802 C   0  0  0  0  0  0  0  0  0  0  0  0
  -41.8412   61.4362   66.9521 O   0  0  0  0  0  0  0  0  0  0  0  0
  -39.5859   62.9854   67.1238 C   0  0  0  0  0  0  0  0  0  0  0  0
  -40.9154   61.2318   66.2282 C   0  0  0  0  0  0  0  0  0  0  0  0
  -40.7200   59.9800   65.4370 C   0  0  0  0  0  0  0  0  0  0  0  0
  -42.0280   59.3300   65.0270 C   0  0  0  0  0  0  0  0  0  0  0  0
  -42.8960   58.9560   66.2090 C   0  0  0  0  0  0  0  0  0  0  0  0
  -44.2012   58.2902   65.8416 C   0  0  0  0  0  0  0  0  0  0  0  0
  -44.0348   56.9933   65.0915 C   0  0  0  0  0  0  0  0  0  0  0  0
  -43.2816   55.9620   65.8880 C   0  0  0  0  0  0  0  0  0  0  0  0
  -43.9193   55.5574   67.1841 C   0  0  0  0  0  0  0  0  0  0  0  0
  -45.2519   54.9598   67.0163 C   0  0  0  0  0  0  0  0  0  0  0  0
  -45.5541   53.6911   66.8495 C   0  0  0  0  0  0  0  0  0  0  0  0
  -44.6303   52.5295   66.8097 C   0  0  0  0  0  0  0  0  0  0  0  0
  -44.3579   51.8657   68.1440 C   0  0  0  0  0  0  0  0  0  0  0  0
  -43.4028   50.7091   68.0336 C   0  0  0  0  0  0  0  0  0  0  0  0
  -43.1134   50.0052   69.3347 C   0  0  0  0  0  0  0  0  0  0  0  0
  -44.3548   49.4117   69.9634 C   0  0  0  0  0  0  0  0  0  0  0  0
  -44.1278   48.7107   71.2737 C   0  0  0  0  0  0  0  0  0  0  0  0
  -45.3600   48.1321   71.8448 C   0  0  0  0  0  0  0  0  0  0  0  0
  -45.9817   47.1271   70.9848 C   0  0  0  0  0  0  0  0  0  0  0  0
  -40.3154   64.7531   67.9132 H   0  0  0  0  0  0  0  0  0  0  0  0
  -40.7627   64.1787   65.1293 H   0  0  0  0  0  0  0  0  0  0  0  0
  -42.1050   63.2158   68.2756 H   0  0  0  0  0  0  0  0  0  0  0  0
  -42.3405   63.0392   66.5599 H   0  0  0  0  0  0  0  0  0  0  0  0
  -44.9019   64.1779   71.0124 H   0  0  0  0  0  0  0  0  0  0  0  0
  -45.4469   63.1460   69.7458 H   0  0  0  0  0  0  0  0  0  0  0  0
  -43.2865   62.3979   70.5639 H   0  0  0  0  0  0  0  0  0  0  0  0
  -43.1505   63.0464   68.8925 H   0  0  0  0  0  0  0  0  0  0  0  0
  -43.2220   65.1211   71.8887 H   0  0  0  0  0  0  0  0  0  0  0  0
  -41.4835   65.2409   72.0177 H   0  0  0  0  0  0  0  0  0  0  0  0
  -42.2862   63.7362   72.3982 H   0  0  0  0  0  0  0  0  0  0  0  0
  -44.6163   63.1981   66.3136 H   0  0  0  0  0  0  0  0  0  0  0  0
  -43.0773   65.9052   69.5773 H   0  0  0  0  0  0  0  0  0  0  0  0
  -42.0268   65.0869   68.4461 H   0  0  0  0  0  0  0  0  0  0  0  0
  -41.3429   66.0179   69.7570 H   0  0  0  0  0  0  0  0  0  0  0  0
  -40.8710   62.5613   70.8013 H   0  0  0  0  0  0  0  0  0  0  0  0
  -40.0589   64.0723   70.4690 H   0  0  0  0  0  0  0  0  0  0  0  0
  -40.7428   63.1412   69.1580 H   0  0  0  0  0  0  0  0  0  0  0  0
  -39.6485   62.4631   68.0556 H   0  0  0  0  0  0  0  0  0  0  0  0
  -38.5875   63.3560   67.0209 H   0  0  0  0  0  0  0  0  0  0  0  0
  -40.1644   59.2843   66.0305 H   0  0  0  0  0  0  0  0  0  0  0  0
  -40.1985   60.2448   64.5410 H   0  0  0  0  0  0  0  0  0  0  0  0
  -41.8086   58.4429   64.4703 H   0  0  0  0  0  0  0  0  0  0  0  0
  -42.5713   60.0428   64.4426 H   0  0  0  0  0  0  0  0  0  0  0  0
  -43.1183   59.8483   66.7560 H   0  0  0  0  0  0  0  0  0  0  0  0
  -42.3406   58.2423   66.7808 H   0  0  0  0  0  0  0  0  0  0  0  0
  -44.7626   58.9643   65.2288 H   0  0  0  0  0  0  0  0  0  0  0  0
  -44.7001   58.0569   66.7589 H   0  0  0  0  0  0  0  0  0  0  0  0
  -43.4990   57.1866   64.1857 H   0  0  0  0  0  0  0  0  0  0  0  0
  -45.0114   56.6033   64.8938 H   0  0  0  0  0  0  0  0  0  0  0  0
  -42.3118   56.3577   66.1068 H   0  0  0  0  0  0  0  0  0  0  0  0
  -43.2599   55.0802   65.2824 H   0  0  0  0  0  0  0  0  0  0  0  0
  -44.0122   56.4258   67.8023 H   0  0  0  0  0  0  0  0  0  0  0  0
  -43.2917   54.8121   67.6263 H   0  0  0  0  0  0  0  0  0  0  0  0
  -46.0478   55.6166   67.0314 H   0  0  0  0  0  0  0  0  0  0  0  0
  -46.5566   53.4764   66.7316 H   0  0  0  0  0  0  0  0  0  0  0  0
  -43.6955   52.8654   66.4119 H   0  0  0  0  0  0  0  0  0  0  0  0
  -45.1150   51.7897   66.2076 H   0  0  0  0  0  0  0  0  0  0  0  0
  -45.2837   51.5079   68.5436 H   0  0  0  0  0  0  0  0  0  0  0  0
  -43.9072   52.5967   68.7823 H   0  0  0  0  0  0  0  0  0  0  0  0
  -42.4779   51.0768   67.6407 H   0  0  0  0  0  0  0  0  0  0  0  0
  -43.8731   49.9882   67.3980 H   0  0  0  0  0  0  0  0  0  0  0  0
  -42.6865   50.7095   70.0178 H   0  0  0  0  0  0  0  0  0  0  0  0
  -42.4398   49.2007   69.1252 H   0  0  0  0  0  0  0  0  0  0  0  0
  -44.7699   48.7047   69.2759 H   0  0  0  0  0  0  0  0  0  0  0  0
  -45.0076   50.2334   70.1721 H   0  0  0  0  0  0  0  0  0  0  0  0
  -43.7279   49.4160   71.9720 H   0  0  0  0  0  0  0  0  0  0  0  0
  -43.4526   47.9015   71.0887 H   0  0  0  0  0  0  0  0  0  0  0  0
  -46.0630   48.9226   72.0056 H   0  0  0  0  0  0  0  0  0  0  0  0
  -45.0864   47.6427   72.7561 H   0  0  0  0  0  0  0  0  0  0  0  0
  -46.2708   47.5792   70.0591 H   0  0  0  0  0  0  0  0  0  0  0  0
  -46.8464   46.7268   71.4716 H   0  0  0  0  0  0  0  0  0  0  0  0
  -45.2831   46.3394   70.7942 H   0  0  0  0  0  0  0  0  0  0  0  0
  1  9  1  0  0  0  0
  1 11  1  0  0  0  0
  1 13  1  0  0  0  0
  1 15  1  0  0  0  0
  2  3  1  0  0  0  0
  2  5  1  0  0  0  0
  2 17  1  0  0  0  0
  2 36  1  1  0  0  0
  3 37  1  0  0  0  0
  4  6  1  0  0  0  0
  4  8  2  6  0  0  0
  4 10  1  0  0  0  0
  4 12  1  0  0  0  0
  5  6  1  0  0  0  0
  5 38  1  0  0  0  0
  5 39  1  0  0  0  0
  7  9  1  0  0  0  0
  7 10  1  0  0  0  0
  7 40  1  0  0  0  0
  7 41  1  0  0  0  0
  9 42  1  0  0  0  0
  9 43  1  0  0  0  0
 11 44  1  0  0  0  0
 11 45  1  0  0  0  0
 11 46  1  0  0  0  0
 12 47  1  0  0  0  0
 13 48  1  0  0  0  0
 13 49  1  0  0  0  0
 13 50  1  0  0  0  0
 14 17  1  0  0  0  0
 14 18  1  0  0  0  0
 15 51  1  0  0  0  0
 15 52  1  0  0  0  0
 15 53  1  0  0  0  0
 16 18  2  0  0  0  0
 17 54  1  0  0  0  0
 17 55  1  0  0  0  0
 18 19  1  0  0  0  0
 19 20  1  0  0  0  0
 19 56  1  0  0  0  0
 19 57  1  0  0  0  0
 20 21  1  0  0  0  0
 20 58  1  0  0  0  0
 20 59  1  0  0  0  0
 21 22  1  0  0  0  0
 21 60  1  0  0  0  0
 21 61  1  0  0  0  0
 22 23  1  0  0  0  0
 22 62  1  0  0  0  0
 22 63  1  0  0  0  0
 23 24  1  0  0  0  0
 23 64  1  0  0  0  0
 23 65  1  0  0  0  0
 24 25  1  0  0  0  0
 24 66  1  0  0  0  0
 24 67  1  0  0  0  0
 25 26  1  0  0  0  0
 25 68  1  0  0  0  0
 25 69  1  0  0  0  0
 26 27  2  0  0  0  0
 26 70  1  0  0  0  0
 27 28  1  0  0  0  0
 27 71  1  0  0  0  0
 28 29  1  0  0  0  0
 28 72  1  0  0  0  0
 28 73  1  0  0  0  0
 29 30  1  0  0  0  0
 29 74  1  0  0  0  0
 29 75  1  0  0  0  0
 30 31  1  0  0  0  0
 30 76  1  0  0  0  0
 30 77  1  0  0  0  0
 31 32  1  0  0  0  0
 31 78  1  0  0  0  0
 31 79  1  0  0  0  0
 32 33  1  0  0  0  0
 32 80  1  0  0  0  0
 32 81  1  0  0  0  0
 33 34  1  0  0  0  0
 33 82  1  0  0  0  0
 33 83  1  0  0  0  0
 34 35  1  0  0  0  0
 34 84  1  0  0  0  0
 34 85  1  0  0  0  0
 35 86  1  0  0  0  0
 35 87  1  0  0  0  0
 35 88  1  0  0  0  0
M  CHG  1   8  -1
M  END
$$$$