/media/chris/experiments/cd1a-new-docking/inputs/ligands/4x6c_ligand.pdb
 OpenBabel07012320263D

 88 87  0  0  1  0  0  0  0  0999 V2000
  -39.2559   55.1975   76.1782 N   0  0  0  0  0  4  0  0  0  0  0  0
  -39.9580   59.3072   69.3071 C   0  0  1  0  0  0  0  0  0  0  0  0
  -41.0863   58.6497   68.7303 O   0  0  0  0  0  0  0  0  0  0  0  0
  -39.2714   56.5115   71.9461 P   0  0  2  0  0  0  0  0  0  0  0  0
  -39.7559   58.7688   70.7028 C   0  0  0  0  0  0  0  0  0  0  0  0
  -39.5058   57.3515   70.6161 O   0  0  0  0  0  0  0  0  0  0  0  0
  -39.9658   56.9514   74.4383 C   0  0  0  0  0  0  0  0  0  0  0  0
  -40.3271   55.4800   71.9983 O   0  5  0  0  0  0  0  0  0  0  0  0
  -38.9530   55.9195   74.8802 C   0  0  0  0  0  0  0  0  0  0  0  0
  -39.4711   57.4811   73.1859 O   0  0  0  0  0  0  0  0  0  0  0  0
  -39.3704   56.1600   77.3163 C   0  0  0  0  0  0  0  0  0  0  0  0
  -37.8559   56.0927   71.9432 O   0  0  0  0  0  0  0  0  0  0  0  0
  -38.1575   54.2292   76.4800 C   0  0  0  0  0  0  0  0  0  0  0  0
  -39.1202   59.7925   67.1354 O   0  0  0  0  0  0  0  0  0  0  0  0
  -40.5481   54.4539   76.0485 C   0  0  0  0  0  0  0  0  0  0  0  0
  -39.8518   57.9010   66.2098 O   0  0  0  0  0  0  0  0  0  0  0  0
  -38.7669   59.1642   68.3878 C   0  0  0  0  0  0  0  0  0  0  0  0
  -39.8694   59.0915   66.2844 C   0  0  0  0  0  0  0  0  0  0  0  0
  -40.7200   59.9800   65.4370 C   0  0  0  0  0  0  0  0  0  0  0  0
  -42.0280   59.3300   65.0270 C   0  0  0  0  0  0  0  0  0  0  0  0
  -42.8960   58.9560   66.2090 C   0  0  0  0  0  0  0  0  0  0  0  0
  -43.3110   60.1221   67.0749 C   0  0  0  0  0  0  0  0  0  0  0  0
  -44.1610   59.7323   68.2572 C   0  0  0  0  0  0  0  0  0  0  0  0
  -43.4497   58.7882   69.1890 C   0  0  0  0  0  0  0  0  0  0  0  0
  -44.2418   58.3428   70.3826 C   0  0  0  0  0  0  0  0  0  0  0  0
  -45.4716   57.6193   70.0289 C   0  0  0  0  0  0  0  0  0  0  0  0
  -45.6267   56.3255   69.8536 C   0  0  0  0  0  0  0  0  0  0  0  0
  -44.6056   55.2563   69.9893 C   0  0  0  0  0  0  0  0  0  0  0  0
  -44.3463   54.4384   68.7406 C   0  0  0  0  0  0  0  0  0  0  0  0
  -45.5785   53.7373   68.2386 C   0  0  0  0  0  0  0  0  0  0  0  0
  -46.7130   54.6537   67.8575 C   0  0  0  0  0  0  0  0  0  0  0  0
  -46.3409   55.6079   66.7441 C   0  0  0  0  0  0  0  0  0  0  0  0
  -47.4309   56.5583   66.3338 C   0  0  0  0  0  0  0  0  0  0  0  0
  -47.8737   57.4431   67.4294 C   0  0  0  0  0  0  0  0  0  0  0  0
  -46.8088   58.2971   67.9517 C   0  0  0  0  0  0  0  0  0  0  0  0
  -40.1101   60.3614   69.4086 H   0  0  0  0  0  0  0  0  0  0  0  0
  -40.9045   57.6996   68.6575 H   0  0  0  0  0  0  0  0  0  0  0  0
  -40.6342   58.9450   71.2880 H   0  0  0  0  0  0  0  0  0  0  0  0
  -38.9263   59.2592   71.1677 H   0  0  0  0  0  0  0  0  0  0  0  0
  -40.0450   57.7310   75.1668 H   0  0  0  0  0  0  0  0  0  0  0  0
  -40.9399   56.5232   74.3264 H   0  0  0  0  0  0  0  0  0  0  0  0
  -38.8782   55.1836   74.1071 H   0  0  0  0  0  0  0  0  0  0  0  0
  -38.0493   56.4637   75.0594 H   0  0  0  0  0  0  0  0  0  0  0  0
  -38.4522   56.6995   77.4209 H   0  0  0  0  0  0  0  0  0  0  0  0
  -39.5730   55.6225   78.2190 H   0  0  0  0  0  0  0  0  0  0  0  0
  -40.1677   56.8470   77.1236 H   0  0  0  0  0  0  0  0  0  0  0  0
  -37.6968   55.4962   71.1950 H   0  0  0  0  0  0  0  0  0  0  0  0
  -37.2318   54.7576   76.5734 H   0  0  0  0  0  0  0  0  0  0  0  0
  -38.0825   53.5160   75.6858 H   0  0  0  0  0  0  0  0  0  0  0  0
  -38.3721   53.7208   77.3967 H   0  0  0  0  0  0  0  0  0  0  0  0
  -41.3366   55.1441   75.8324 H   0  0  0  0  0  0  0  0  0  0  0  0
  -40.7605   53.9454   76.9656 H   0  0  0  0  0  0  0  0  0  0  0  0
  -40.4710   53.7406   75.2547 H   0  0  0  0  0  0  0  0  0  0  0  0
  -38.5470   58.1290   68.2300 H   0  0  0  0  0  0  0  0  0  0  0  0
  -37.8994   59.6236   68.8134 H   0  0  0  0  0  0  0  0  0  0  0  0
  -40.1733   60.2341   64.5530 H   0  0  0  0  0  0  0  0  0  0  0  0
  -40.9602   60.8449   66.0193 H   0  0  0  0  0  0  0  0  0  0  0  0
  -41.8086   58.4429   64.4703 H   0  0  0  0  0  0  0  0  0  0  0  0
  -42.5713   60.0428   64.4426 H   0  0  0  0  0  0  0  0  0  0  0  0
  -42.3518   58.2646   66.8179 H   0  0  0  0  0  0  0  0  0  0  0  0
  -43.7960   58.5403   65.8064 H   0  0  0  0  0  0  0  0  0  0  0  0
  -43.8675   60.8086   66.4716 H   0  0  0  0  0  0  0  0  0  0  0  0
  -42.4135   60.5536   67.4661 H   0  0  0  0  0  0  0  0  0  0  0  0
  -45.0502   59.2568   67.8993 H   0  0  0  0  0  0  0  0  0  0  0  0
  -44.3860   60.6234   68.8051 H   0  0  0  0  0  0  0  0  0  0  0  0
  -42.5662   59.2771   69.5430 H   0  0  0  0  0  0  0  0  0  0  0  0
  -43.2534   57.9041   68.6192 H   0  0  0  0  0  0  0  0  0  0  0  0
  -44.5089   59.2070   70.9543 H   0  0  0  0  0  0  0  0  0  0  0  0
  -43.6252   57.6666   70.9370 H   0  0  0  0  0  0  0  0  0  0  0  0
  -46.3169   58.1978   69.9028 H   0  0  0  0  0  0  0  0  0  0  0  0
  -46.5747   56.0150   69.5891 H   0  0  0  0  0  0  0  0  0  0  0  0
  -44.9289   54.5878   70.7597 H   0  0  0  0  0  0  0  0  0  0  0  0
  -43.6852   55.7558   70.2092 H   0  0  0  0  0  0  0  0  0  0  0  0
  -43.6006   53.7036   68.9616 H   0  0  0  0  0  0  0  0  0  0  0  0
  -44.0236   55.1123   67.9746 H   0  0  0  0  0  0  0  0  0  0  0  0
  -45.9252   53.0801   69.0086 H   0  0  0  0  0  0  0  0  0  0  0  0
  -45.2914   53.2239   67.3448 H   0  0  0  0  0  0  0  0  0  0  0  0
  -46.9964   55.2241   68.7173 H   0  0  0  0  0  0  0  0  0  0  0  0
  -47.5184   54.0435   67.5058 H   0  0  0  0  0  0  0  0  0  0  0  0
  -46.0657   55.0283   65.8878 H   0  0  0  0  0  0  0  0  0  0  0  0
  -45.5424   56.2121   67.1212 H   0  0  0  0  0  0  0  0  0  0  0  0
  -48.2710   55.9874   65.9971 H   0  0  0  0  0  0  0  0  0  0  0  0
  -47.0340   57.1831   65.5611 H   0  0  0  0  0  0  0  0  0  0  0  0
  -48.2434   56.8349   68.2283 H   0  0  0  0  0  0  0  0  0  0  0  0
  -48.6283   58.0878   67.0295 H   0  0  0  0  0  0  0  0  0  0  0  0
  -46.0315   57.6872   68.3624 H   0  0  0  0  0  0  0  0  0  0  0  0
  -47.2043   58.9332   68.7159 H   0  0  0  0  0  0  0  0  0  0  0  0
  -46.4111   58.8963   67.1594 H   0  0  0  0  0  0  0  0  0  0  0  0
  1  9  1  0  0  0  0
  1 11  1  0  0  0  0
  1 13  1  0  0  0  0
  1 15  1  0  0  0  0
  2  3  1  0  0  0  0
  2  5  1  0  0  0  0
  2 17  1  0  0  0  0
  2 36  1  1  0  0  0
  3 37  1  0  0  0  0
  4  6  1  0  0  0  0
  4  8  2  1  0  0  0
  4 10  1  0  0  0  0
  4 12  1  0  0  0  0
  5  6  1  0  0  0  0
  5 38  1  0  0  0  0
  5 39  1  0  0  0  0
  7  9  1  0  0  0  0
  7 10  1  0  0  0  0
  7 40  1  0  0  0  0
  7 41  1  0  0  0  0
  9 42  1  0  0  0  0
  9 43  1  0  0  0  0
 11 44  1  0  0  0  0
 11 45  1  0  0  0  0
 11 46  1  0  0  0  0
 12 47  1  0  0  0  0
 13 48  1  0  0  0  0
 13 49  1  0  0  0  0
 13 50  1  0  0  0  0
 14 17  1  0  0  0  0
 14 18  1  0  0  0  0
 15 51  1  0  0  0  0
 15 52  1  0  0  0  0
 15 53  1  0  0  0  0
 16 18  2  0  0  0  0
 17 54  1  0  0  0  0
 17 55  1  0  0  0  0
 18 19  1  0  0  0  0
 19 20  1  0  0  0  0
 19 56  1  0  0  0  0
 19 57  1  0  0  0  0
 20 21  1  0  0  0  0
 20 58  1  0  0  0  0
 20 59  1  0  0  0  0
 21 22  1  0  0  0  0
 21 60  1  0  0  0  0
 21 61  1  0  0  0  0
 22 23  1  0  0  0  0
 22 62  1  0  0  0  0
 22 63  1  0  0  0  0
 23 24  1  0  0  0  0
 23 64  1  0  0  0  0
 23 65  1  0  0  0  0
 24 25  1  0  0  0  0
 24 66  1  0  0  0  0
 24 67  1  0  0  0  0
 25 26  1  0  0  0  0
 25 68  1  0  0  0  0
 25 69  1  0  0  0  0
 26 27  2  0  0  0  0
 26 70  1  0  0  0  0
 27 28  1  0  0  0  0
 27 71  1  0  0  0  0
 28 29  1  0  0  0  0
 28 72  1  0  0  0  0
 28 73  1  0  0  0  0
 29 30  1  0  0  0  0
 29 74  1  0  0  0  0
 29 75  1  0  0  0  0
 30 31  1  0  0  0  0
 30 76  1  0  0  0  0
 30 77  1  0  0  0  0
 31 32  1  0  0  0  0
 31 78  1  0  0  0  0
 31 79  1  0  0  0  0
 32 33  1  0  0  0  0
 32 80  1  0  0  0  0
 32 81  1  0  0  0  0
 33 34  1  0  0  0  0
 33 82  1  0  0  0  0
 33 83  1  0  0  0  0
 34 35  1  0  0  0  0
 34 84  1  0  0  0  0
 34 85  1  0  0  0  0
 35 86  1  0  0  0  0
 35 87  1  0  0  0  0
 35 88  1  0  0  0  0
M  CHG  1   8  -1
M  END
$$$$