/media/chris/experiments/cd1a-new-docking/inputs/ligands/4x6c_ligand.pdb
 OpenBabel07012320263D

 88 87  0  0  1  0  0  0  0  0999 V2000
  -36.8871   60.6814   62.7148 N   0  0  0  0  0  4  0  0  0  0  0  0
  -41.4868   64.1512   66.8127 C   0  0  1  0  0  0  0  0  0  0  0  0
  -42.2319   65.0935   67.5841 O   0  0  0  0  0  0  0  0  0  0  0  0
  -38.2933   62.0147   67.5110 P   0  0  2  0  0  0  0  0  0  0  0  0
  -40.3336   63.6558   67.6512 C   0  0  0  0  0  0  0  0  0  0  0  0
  -39.5686   62.7161   66.8699 O   0  0  0  0  0  0  0  0  0  0  0  0
  -37.6942   61.5324   65.0020 C   0  0  0  0  0  0  0  0  0  0  0  0
  -37.3566   63.0892   67.8972 O   0  5  0  0  0  0  0  0  0  0  0  0
  -36.9448   60.4806   64.2162 C   0  0  0  0  0  0  0  0  0  0  0  0
  -37.5957   61.1352   66.3899 O   0  0  0  0  0  0  0  0  0  0  0  0
  -36.2035   61.9650   62.3686 C   0  0  0  0  0  0  0  0  0  0  0  0
  -38.7907   61.0875   68.5464 O   0  0  0  0  0  0  0  0  0  0  0  0
  -38.2755   60.7150   62.1610 C   0  0  0  0  0  0  0  0  0  0  0  0
  -41.6074   62.1433   65.5447 O   0  0  0  0  0  0  0  0  0  0  0  0
  -36.1320   59.5524   62.0867 C   0  0  0  0  0  0  0  0  0  0  0  0
  -40.5002   61.4048   67.3330 O   0  0  0  0  0  0  0  0  0  0  0  0
  -42.4146   63.0735   66.3005 C   0  0  0  0  0  0  0  0  0  0  0  0
  -40.9154   61.2318   66.2282 C   0  0  0  0  0  0  0  0  0  0  0  0
  -40.7200   59.9800   65.4370 C   0  0  0  0  0  0  0  0  0  0  0  0
  -42.0280   59.3300   65.0270 C   0  0  0  0  0  0  0  0  0  0  0  0
  -42.8960   58.9560   66.2090 C   0  0  0  0  0  0  0  0  0  0  0  0
  -44.2012   58.2902   65.8416 C   0  0  0  0  0  0  0  0  0  0  0  0
  -45.0623   57.9388   67.0279 C   0  0  0  0  0  0  0  0  0  0  0  0
  -44.3705   57.0027   67.9821 C   0  0  0  0  0  0  0  0  0  0  0  0
  -43.1025   57.5245   68.5905 C   0  0  0  0  0  0  0  0  0  0  0  0
  -43.2966   58.7466   69.3840 C   0  0  0  0  0  0  0  0  0  0  0  0
  -43.0427   58.9306   70.6609 C   0  0  0  0  0  0  0  0  0  0  0  0
  -42.4727   57.9593   71.6283 C   0  0  0  0  0  0  0  0  0  0  0  0
  -43.3505   57.6314   72.8188 C   0  0  0  0  0  0  0  0  0  0  0  0
  -44.6642   57.0168   72.4206 C   0  0  0  0  0  0  0  0  0  0  0  0
  -44.5484   55.7146   71.6704 C   0  0  0  0  0  0  0  0  0  0  0  0
  -43.8567   54.6381   72.4774 C   0  0  0  0  0  0  0  0  0  0  0  0
  -43.6984   53.3205   71.7712 C   0  0  0  0  0  0  0  0  0  0  0  0
  -44.9840   52.7239   71.3585 C   0  0  0  0  0  0  0  0  0  0  0  0
  -44.8360   51.4347   70.6860 C   0  0  0  0  0  0  0  0  0  0  0  0
  -41.0571   64.5919   65.9374 H   0  0  0  0  0  0  0  0  0  0  0  0
  -42.6017   64.6520   68.3646 H   0  0  0  0  0  0  0  0  0  0  0  0
  -40.7077   63.1739   68.5302 H   0  0  0  0  0  0  0  0  0  0  0  0
  -39.7145   64.4778   67.9442 H   0  0  0  0  0  0  0  0  0  0  0  0
  -38.7191   61.5657   64.6962 H   0  0  0  0  0  0  0  0  0  0  0  0
  -37.2849   62.5081   64.8425 H   0  0  0  0  0  0  0  0  0  0  0  0
  -35.9392   60.4553   64.5810 H   0  0  0  0  0  0  0  0  0  0  0  0
  -37.4895   59.5714   64.3628 H   0  0  0  0  0  0  0  0  0  0  0  0
  -36.7334   62.7821   62.8118 H   0  0  0  0  0  0  0  0  0  0  0  0
  -36.1874   62.0850   61.3055 H   0  0  0  0  0  0  0  0  0  0  0  0
  -35.2004   61.9465   62.7407 H   0  0  0  0  0  0  0  0  0  0  0  0
  -39.2252   61.5928   69.2512 H   0  0  0  0  0  0  0  0  0  0  0  0
  -38.8184   61.5214   62.6081 H   0  0  0  0  0  0  0  0  0  0  0  0
  -38.7682   59.7901   62.3771 H   0  0  0  0  0  0  0  0  0  0  0  0
  -38.2334   60.8576   61.1014 H   0  0  0  0  0  0  0  0  0  0  0  0
  -35.1376   59.5254   62.4809 H   0  0  0  0  0  0  0  0  0  0  0  0
  -36.0919   59.6960   61.0271 H   0  0  0  0  0  0  0  0  0  0  0  0
  -36.6266   58.6285   62.3029 H   0  0  0  0  0  0  0  0  0  0  0  0
  -43.1653   63.5039   65.6711 H   0  0  0  0  0  0  0  0  0  0  0  0
  -42.9084   62.5790   67.1107 H   0  0  0  0  0  0  0  0  0  0  0  0
  -40.1644   59.2843   66.0305 H   0  0  0  0  0  0  0  0  0  0  0  0
  -40.1985   60.2448   64.5410 H   0  0  0  0  0  0  0  0  0  0  0  0
  -41.8086   58.4429   64.4703 H   0  0  0  0  0  0  0  0  0  0  0  0
  -42.5713   60.0428   64.4426 H   0  0  0  0  0  0  0  0  0  0  0  0
  -43.1183   59.8483   66.7560 H   0  0  0  0  0  0  0  0  0  0  0  0
  -42.3406   58.2423   66.7808 H   0  0  0  0  0  0  0  0  0  0  0  0
  -43.9814   57.3901   65.3063 H   0  0  0  0  0  0  0  0  0  0  0  0
  -44.7539   58.9929   65.2537 H   0  0  0  0  0  0  0  0  0  0  0  0
  -45.9577   57.4707   66.6758 H   0  0  0  0  0  0  0  0  0  0  0  0
  -45.2749   58.8446   67.5562 H   0  0  0  0  0  0  0  0  0  0  0  0
  -44.1362   56.1039   67.4510 H   0  0  0  0  0  0  0  0  0  0  0  0
  -45.0496   56.8570   68.7961 H   0  0  0  0  0  0  0  0  0  0  0  0
  -42.4108   57.7378   67.8025 H   0  0  0  0  0  0  0  0  0  0  0  0
  -42.7370   56.7702   69.2555 H   0  0  0  0  0  0  0  0  0  0  0  0
  -43.6792   59.5598   68.8767 H   0  0  0  0  0  0  0  0  0  0  0  0
  -43.2673   59.8651   71.0369 H   0  0  0  0  0  0  0  0  0  0  0  0
  -41.5535   58.3633   71.9981 H   0  0  0  0  0  0  0  0  0  0  0  0
  -42.3554   57.0426   71.0890 H   0  0  0  0  0  0  0  0  0  0  0  0
  -43.5449   58.5340   73.3594 H   0  0  0  0  0  0  0  0  0  0  0  0
  -42.8277   56.9155   73.4179 H   0  0  0  0  0  0  0  0  0  0  0  0
  -45.1838   57.7150   71.7981 H   0  0  0  0  0  0  0  0  0  0  0  0
  -45.1831   56.7967   73.3301 H   0  0  0  0  0  0  0  0  0  0  0  0
  -43.9889   55.8840   70.7742 H   0  0  0  0  0  0  0  0  0  0  0  0
  -45.5401   55.3737   71.4579 H   0  0  0  0  0  0  0  0  0  0  0  0
  -44.4270   54.4718   73.3673 H   0  0  0  0  0  0  0  0  0  0  0  0
  -42.8669   54.9964   72.6692 H   0  0  0  0  0  0  0  0  0  0  0  0
  -43.2031   52.6387   72.4306 H   0  0  0  0  0  0  0  0  0  0  0  0
  -43.1321   53.5024   70.8818 H   0  0  0  0  0  0  0  0  0  0  0  0
  -45.4731   53.4011   70.6899 H   0  0  0  0  0  0  0  0  0  0  0  0
  -45.5530   52.5526   72.2484 H   0  0  0  0  0  0  0  0  0  0  0  0
  -44.2700   51.5641   69.7872 H   0  0  0  0  0  0  0  0  0  0  0  0
  -45.8030   51.0448   70.4455 H   0  0  0  0  0  0  0  0  0  0  0  0
  -44.3267   50.7513   71.3329 H   0  0  0  0  0  0  0  0  0  0  0  0
  1  9  1  0  0  0  0
  1 11  1  0  0  0  0
  1 13  1  0  0  0  0
  1 15  1  0  0  0  0
  2  3  1  0  0  0  0
  2  5  1  0  0  0  0
  2 17  1  0  0  0  0
  2 36  1  6  0  0  0
  3 37  1  0  0  0  0
  4  6  1  0  0  0  0
  4  8  2  1  0  0  0
  4 10  1  0  0  0  0
  4 12  1  0  0  0  0
  5  6  1  0  0  0  0
  5 38  1  0  0  0  0
  5 39  1  0  0  0  0
  7  9  1  0  0  0  0
  7 10  1  0  0  0  0
  7 40  1  0  0  0  0
  7 41  1  0  0  0  0
  9 42  1  0  0  0  0
  9 43  1  0  0  0  0
 11 44  1  0  0  0  0
 11 45  1  0  0  0  0
 11 46  1  0  0  0  0
 12 47  1  0  0  0  0
 13 48  1  0  0  0  0
 13 49  1  0  0  0  0
 13 50  1  0  0  0  0
 14 17  1  0  0  0  0
 14 18  1  0  0  0  0
 15 51  1  0  0  0  0
 15 52  1  0  0  0  0
 15 53  1  0  0  0  0
 16 18  2  0  0  0  0
 17 54  1  0  0  0  0
 17 55  1  0  0  0  0
 18 19  1  0  0  0  0
 19 20  1  0  0  0  0
 19 56  1  0  0  0  0
 19 57  1  0  0  0  0
 20 21  1  0  0  0  0
 20 58  1  0  0  0  0
 20 59  1  0  0  0  0
 21 22  1  0  0  0  0
 21 60  1  0  0  0  0
 21 61  1  0  0  0  0
 22 23  1  0  0  0  0
 22 62  1  0  0  0  0
 22 63  1  0  0  0  0
 23 24  1  0  0  0  0
 23 64  1  0  0  0  0
 23 65  1  0  0  0  0
 24 25  1  0  0  0  0
 24 66  1  0  0  0  0
 24 67  1  0  0  0  0
 25 26  1  0  0  0  0
 25 68  1  0  0  0  0
 25 69  1  0  0  0  0
 26 27  2  0  0  0  0
 26 70  1  0  0  0  0
 27 28  1  0  0  0  0
 27 71  1  0  0  0  0
 28 29  1  0  0  0  0
 28 72  1  0  0  0  0
 28 73  1  0  0  0  0
 29 30  1  0  0  0  0
 29 74  1  0  0  0  0
 29 75  1  0  0  0  0
 30 31  1  0  0  0  0
 30 76  1  0  0  0  0
 30 77  1  0  0  0  0
 31 32  1  0  0  0  0
 31 78  1  0  0  0  0
 31 79  1  0  0  0  0
 32 33  1  0  0  0  0
 32 80  1  0  0  0  0
 32 81  1  0  0  0  0
 33 34  1  0  0  0  0
 33 82  1  0  0  0  0
 33 83  1  0  0  0  0
 34 35  1  0  0  0  0
 34 84  1  0  0  0  0
 34 85  1  0  0  0  0
 35 86  1  0  0  0  0
 35 87  1  0  0  0  0
 35 88  1  0  0  0  0
M  CHG  1   8  -1
M  END
$$$$