/media/chris/experiments/cd1a-new-docking/inputs/ligands/4x6c_ligand.pdb
 OpenBabel07012320263D

 88 87  0  0  1  0  0  0  0  0999 V2000
  -37.5504   59.8012   67.6941 N   0  0  0  0  0  4  0  0  0  0  0  0
  -39.0847   60.8760   61.3870 C   0  0  1  0  0  0  0  0  0  0  0  0
  -38.5081   61.7824   60.4467 O   0  0  0  0  0  0  0  0  0  0  0  0
  -35.9277   60.7422   63.6819 P   0  0  2  0  0  0  0  0  0  0  0  0
  -37.9664   60.1857   62.1296 C   0  0  0  0  0  0  0  0  0  0  0  0
  -37.1913   61.1841   62.8232 O   0  0  0  0  0  0  0  0  0  0  0  0
  -35.8886   61.1531   66.2735 C   0  0  0  0  0  0  0  0  0  0  0  0
  -36.1960   59.3764   64.1755 O   0  5  0  0  0  0  0  0  0  0  0  0
  -37.2274   60.4569   66.3661 C   0  0  0  0  0  0  0  0  0  0  0  0
  -35.8209   61.7057   64.9379 O   0  0  0  0  0  0  0  0  0  0  0  0
  -37.5743   60.8069   68.7999 C   0  0  0  0  0  0  0  0  0  0  0  0
  -34.7363   60.9834   62.8445 O   0  0  0  0  0  0  0  0  0  0  0  0
  -36.5140   58.7704   68.0081 C   0  0  0  0  0  0  0  0  0  0  0  0
  -40.6084   60.6579   63.1994 O   0  0  0  0  0  0  0  0  0  0  0  0
  -38.8926   59.1442   67.6155 C   0  0  0  0  0  0  0  0  0  0  0  0
  -38.6783   60.3998   64.2845 O   0  0  0  0  0  0  0  0  0  0  0  0
  -40.0713   61.6162   62.2607 C   0  0  0  0  0  0  0  0  0  0  0  0
  -39.8706   60.3644   64.2700 C   0  0  0  0  0  0  0  0  0  0  0  0
  -40.7200   59.9800   65.4370 C   0  0  0  0  0  0  0  0  0  0  0  0
  -42.0280   59.3300   65.0270 C   0  0  0  0  0  0  0  0  0  0  0  0
  -42.8960   58.9560   66.2090 C   0  0  0  0  0  0  0  0  0  0  0  0
  -44.2012   58.2902   65.8416 C   0  0  0  0  0  0  0  0  0  0  0  0
  -45.0885   59.1315   64.9600 C   0  0  0  0  0  0  0  0  0  0  0  0
  -45.4551   60.4437   65.5996 C   0  0  0  0  0  0  0  0  0  0  0  0
  -46.1823   60.3416   66.9077 C   0  0  0  0  0  0  0  0  0  0  0  0
  -45.4105   59.6514   67.9512 C   0  0  0  0  0  0  0  0  0  0  0  0
  -45.0240   60.1225   69.1163 C   0  0  0  0  0  0  0  0  0  0  0  0
  -45.2857   61.4663   69.6907 C   0  0  0  0  0  0  0  0  0  0  0  0
  -44.2462   62.5236   69.3793 C   0  0  0  0  0  0  0  0  0  0  0  0
  -44.1036   62.7820   67.9046 C   0  0  0  0  0  0  0  0  0  0  0  0
  -45.3562   63.2775   67.2283 C   0  0  0  0  0  0  0  0  0  0  0  0
  -45.1650   63.5056   65.7450 C   0  0  0  0  0  0  0  0  0  0  0  0
  -46.3793   64.0167   65.0212 C   0  0  0  0  0  0  0  0  0  0  0  0
  -47.5410   63.1117   65.1233 C   0  0  0  0  0  0  0  0  0  0  0  0
  -48.7192   63.5967   64.4073 C   0  0  0  0  0  0  0  0  0  0  0  0
  -39.6535   60.1046   60.9114 H   0  0  0  0  0  0  0  0  0  0  0  0
  -38.0036   62.4621   60.9204 H   0  0  0  0  0  0  0  0  0  0  0  0
  -37.3422   59.6622   61.4359 H   0  0  0  0  0  0  0  0  0  0  0  0
  -38.3701   59.4843   62.8295 H   0  0  0  0  0  0  0  0  0  0  0  0
  -35.0938   60.4536   66.4277 H   0  0  0  0  0  0  0  0  0  0  0  0
  -35.7890   61.9141   67.0191 H   0  0  0  0  0  0  0  0  0  0  0  0
  -37.9875   61.1832   66.1672 H   0  0  0  0  0  0  0  0  0  0  0  0
  -37.1845   59.6582   65.6553 H   0  0  0  0  0  0  0  0  0  0  0  0
  -36.6196   61.2852   68.8678 H   0  0  0  0  0  0  0  0  0  0  0  0
  -37.7934   60.3150   69.7246 H   0  0  0  0  0  0  0  0  0  0  0  0
  -38.3272   61.5402   68.5990 H   0  0  0  0  0  0  0  0  0  0  0  0
  -34.7682   60.4086   62.0637 H   0  0  0  0  0  0  0  0  0  0  0  0
  -35.5527   59.2369   68.0650 H   0  0  0  0  0  0  0  0  0  0  0  0
  -36.5049   58.0276   67.2380 H   0  0  0  0  0  0  0  0  0  0  0  0
  -36.7427   58.3089   68.9460 H   0  0  0  0  0  0  0  0  0  0  0  0
  -39.6369   59.8793   67.3908 H   0  0  0  0  0  0  0  0  0  0  0  0
  -39.1191   58.6824   68.5537 H   0  0  0  0  0  0  0  0  0  0  0  0
  -38.8814   58.4011   66.8457 H   0  0  0  0  0  0  0  0  0  0  0  0
  -40.8583   62.0242   61.6615 H   0  0  0  0  0  0  0  0  0  0  0  0
  -39.5944   62.4256   62.7729 H   0  0  0  0  0  0  0  0  0  0  0  0
  -40.9394   60.8604   66.0042 H   0  0  0  0  0  0  0  0  0  0  0  0
  -40.1713   59.2627   66.0109 H   0  0  0  0  0  0  0  0  0  0  0  0
  -41.8086   58.4429   64.4703 H   0  0  0  0  0  0  0  0  0  0  0  0
  -42.5713   60.0428   64.4426 H   0  0  0  0  0  0  0  0  0  0  0  0
  -43.1183   59.8483   66.7560 H   0  0  0  0  0  0  0  0  0  0  0  0
  -42.3406   58.2423   66.7808 H   0  0  0  0  0  0  0  0  0  0  0  0
  -44.7331   58.0706   66.7436 H   0  0  0  0  0  0  0  0  0  0  0  0
  -43.9552   57.4099   65.2853 H   0  0  0  0  0  0  0  0  0  0  0  0
  -45.9862   58.5862   64.7557 H   0  0  0  0  0  0  0  0  0  0  0  0
  -44.5472   59.3462   64.0623 H   0  0  0  0  0  0  0  0  0  0  0  0
  -46.0790   60.9810   64.9163 H   0  0  0  0  0  0  0  0  0  0  0  0
  -44.5294   60.9353   65.8148 H   0  0  0  0  0  0  0  0  0  0  0  0
  -47.0937   59.8041   66.7482 H   0  0  0  0  0  0  0  0  0  0  0  0
  -46.3568   61.3397   67.2513 H   0  0  0  0  0  0  0  0  0  0  0  0
  -45.1387   58.6776   67.7439 H   0  0  0  0  0  0  0  0  0  0  0  0
  -44.4706   59.4792   69.7036 H   0  0  0  0  0  0  0  0  0  0  0  0
  -45.3437   61.3644   70.7542 H   0  0  0  0  0  0  0  0  0  0  0  0
  -46.1943   61.8064   69.2393 H   0  0  0  0  0  0  0  0  0  0  0  0
  -43.3017   62.1981   69.7626 H   0  0  0  0  0  0  0  0  0  0  0  0
  -44.5664   63.4360   69.8375 H   0  0  0  0  0  0  0  0  0  0  0  0
  -43.8094   61.8678   67.4328 H   0  0  0  0  0  0  0  0  0  0  0  0
  -43.3769   63.5608   67.8030 H   0  0  0  0  0  0  0  0  0  0  0  0
  -45.6482   64.2014   67.6823 H   0  0  0  0  0  0  0  0  0  0  0  0
  -46.1076   62.5250   67.3463 H   0  0  0  0  0  0  0  0  0  0  0  0
  -44.8798   62.5753   65.2998 H   0  0  0  0  0  0  0  0  0  0  0  0
  -44.4182   64.2663   65.6523 H   0  0  0  0  0  0  0  0  0  0  0  0
  -46.1328   64.1382   63.9871 H   0  0  0  0  0  0  0  0  0  0  0  0
  -46.6565   64.9429   65.4797 H   0  0  0  0  0  0  0  0  0  0  0  0
  -47.7943   63.0002   66.1569 H   0  0  0  0  0  0  0  0  0  0  0  0
  -47.2583   62.1827   64.6738 H   0  0  0  0  0  0  0  0  0  0  0  0
  -49.0343   64.5283   64.8289 H   0  0  0  0  0  0  0  0  0  0  0  0
  -49.5094   62.8805   64.4942 H   0  0  0  0  0  0  0  0  0  0  0  0
  -48.4765   63.7366   63.3746 H   0  0  0  0  0  0  0  0  0  0  0  0
  1  9  1  0  0  0  0
  1 11  1  0  0  0  0
  1 13  1  0  0  0  0
  1 15  1  0  0  0  0
  2  3  1  0  0  0  0
  2  5  1  0  0  0  0
  2 17  1  0  0  0  0
  2 36  1  6  0  0  0
  3 37  1  0  0  0  0
  4  6  1  0  0  0  0
  4  8  2  1  0  0  0
  4 10  1  0  0  0  0
  4 12  1  0  0  0  0
  5  6  1  0  0  0  0
  5 38  1  0  0  0  0
  5 39  1  0  0  0  0
  7  9  1  0  0  0  0
  7 10  1  0  0  0  0
  7 40  1  0  0  0  0
  7 41  1  0  0  0  0
  9 42  1  0  0  0  0
  9 43  1  0  0  0  0
 11 44  1  0  0  0  0
 11 45  1  0  0  0  0
 11 46  1  0  0  0  0
 12 47  1  0  0  0  0
 13 48  1  0  0  0  0
 13 49  1  0  0  0  0
 13 50  1  0  0  0  0
 14 17  1  0  0  0  0
 14 18  1  0  0  0  0
 15 51  1  0  0  0  0
 15 52  1  0  0  0  0
 15 53  1  0  0  0  0
 16 18  2  0  0  0  0
 17 54  1  0  0  0  0
 17 55  1  0  0  0  0
 18 19  1  0  0  0  0
 19 20  1  0  0  0  0
 19 56  1  0  0  0  0
 19 57  1  0  0  0  0
 20 21  1  0  0  0  0
 20 58  1  0  0  0  0
 20 59  1  0  0  0  0
 21 22  1  0  0  0  0
 21 60  1  0  0  0  0
 21 61  1  0  0  0  0
 22 23  1  0  0  0  0
 22 62  1  0  0  0  0
 22 63  1  0  0  0  0
 23 24  1  0  0  0  0
 23 64  1  0  0  0  0
 23 65  1  0  0  0  0
 24 25  1  0  0  0  0
 24 66  1  0  0  0  0
 24 67  1  0  0  0  0
 25 26  1  0  0  0  0
 25 68  1  0  0  0  0
 25 69  1  0  0  0  0
 26 27  2  0  0  0  0
 26 70  1  0  0  0  0
 27 28  1  0  0  0  0
 27 71  1  0  0  0  0
 28 29  1  0  0  0  0
 28 72  1  0  0  0  0
 28 73  1  0  0  0  0
 29 30  1  0  0  0  0
 29 74  1  0  0  0  0
 29 75  1  0  0  0  0
 30 31  1  0  0  0  0
 30 76  1  0  0  0  0
 30 77  1  0  0  0  0
 31 32  1  0  0  0  0
 31 78  1  0  0  0  0
 31 79  1  0  0  0  0
 32 33  1  0  0  0  0
 32 80  1  0  0  0  0
 32 81  1  0  0  0  0
 33 34  1  0  0  0  0
 33 82  1  0  0  0  0
 33 83  1  0  0  0  0
 34 35  1  0  0  0  0
 34 84  1  0  0  0  0
 34 85  1  0  0  0  0
 35 86  1  0  0  0  0
 35 87  1  0  0  0  0
 35 88  1  0  0  0  0
M  CHG  1   8  -1
M  END
$$$$