/media/chris/experiments/cd1a-new-docking/inputs/ligands/4x6c_ligand.pdb
 OpenBabel07012320263D

 88 87  0  0  1  0  0  0  0  0999 V2000
  -42.0154   66.5752   60.7895 N   0  0  0  0  0  4  0  0  0  0  0  0
  -39.1157   61.0372   61.4119 C   0  0  1  0  0  0  0  0  0  0  0  0
  -38.2696   60.7782   60.2916 O   0  0  0  0  0  0  0  0  0  0  0  0
  -42.3204   63.2083   61.9295 P   0  0  2  0  0  0  0  0  0  0  0  0
  -40.2133   61.9755   60.9722 C   0  0  0  0  0  0  0  0  0  0  0  0
  -41.0609   62.2532   62.1050 O   0  0  0  0  0  0  0  0  0  0  0  0
  -43.1069   65.5292   62.8683 C   0  0  0  0  0  0  0  0  0  0  0  0
  -42.3444   63.6378   60.5167 O   0  5  0  0  0  0  0  0  0  0  0  0
  -43.2610   66.0108   61.4436 C   0  0  0  0  0  0  0  0  0  0  0  0
  -42.0955   64.4951   62.8298 O   0  0  0  0  0  0  0  0  0  0  0  0
  -41.4889   67.7470   61.5541 C   0  0  0  0  0  0  0  0  0  0  0  0
  -43.4839   62.4871   62.4819 O   0  0  0  0  0  0  0  0  0  0  0  0
  -42.3379   67.0183   59.3985 C   0  0  0  0  0  0  0  0  0  0  0  0
  -40.4522   60.0498   63.1127 O   0  0  0  0  0  0  0  0  0  0  0  0
  -40.9544   65.5211   60.7386 C   0  0  0  0  0  0  0  0  0  0  0  0
  -38.7996   60.8828   64.3553 O   0  0  0  0  0  0  0  0  0  0  0  0
  -39.5906   59.7276   61.9983 C   0  0  0  0  0  0  0  0  0  0  0  0
  -39.8706   60.3644   64.2700 C   0  0  0  0  0  0  0  0  0  0  0  0
  -40.7200   59.9800   65.4370 C   0  0  0  0  0  0  0  0  0  0  0  0
  -42.0280   59.3300   65.0270 C   0  0  0  0  0  0  0  0  0  0  0  0
  -42.8960   58.9560   66.2090 C   0  0  0  0  0  0  0  0  0  0  0  0
  -44.2012   58.2902   65.8416 C   0  0  0  0  0  0  0  0  0  0  0  0
  -45.0885   59.1315   64.9600 C   0  0  0  0  0  0  0  0  0  0  0  0
  -46.3858   58.4442   64.6284 C   0  0  0  0  0  0  0  0  0  0  0  0
  -47.2530   58.1036   65.8040 C   0  0  0  0  0  0  0  0  0  0  0  0
  -48.4995   57.4198   65.4301 C   0  0  0  0  0  0  0  0  0  0  0  0
  -49.6638   57.9597   65.1443 C   0  0  0  0  0  0  0  0  0  0  0  0
  -50.0168   59.4012   65.1027 C   0  0  0  0  0  0  0  0  0  0  0  0
  -49.2291   60.2939   66.0397 C   0  0  0  0  0  0  0  0  0  0  0  0
  -49.6486   61.7359   65.9585 C   0  0  0  0  0  0  0  0  0  0  0  0
  -49.5024   62.3581   64.5934 C   0  0  0  0  0  0  0  0  0  0  0  0
  -49.9209   63.8117   64.5689 C   0  0  0  0  0  0  0  0  0  0  0  0
  -49.1309   64.7136   65.4757 C   0  0  0  0  0  0  0  0  0  0  0  0
  -47.6918   64.7507   65.1489 C   0  0  0  0  0  0  0  0  0  0  0  0
  -47.4156   65.2405   63.7998 C   0  0  0  0  0  0  0  0  0  0  0  0
  -38.5971   61.5301   62.2075 H   0  0  0  0  0  0  0  0  0  0  0  0
  -38.7797   60.3322   59.5975 H   0  0  0  0  0  0  0  0  0  0  0  0
  -40.7888   61.5182   60.1946 H   0  0  0  0  0  0  0  0  0  0  0  0
  -39.7900   62.8851   60.6001 H   0  0  0  0  0  0  0  0  0  0  0  0
  -44.0324   65.1314   63.2289 H   0  0  0  0  0  0  0  0  0  0  0  0
  -42.8285   66.3269   63.5249 H   0  0  0  0  0  0  0  0  0  0  0  0
  -43.5931   65.1826   60.8531 H   0  0  0  0  0  0  0  0  0  0  0  0
  -43.9539   66.8248   61.4899 H   0  0  0  0  0  0  0  0  0  0  0  0
  -42.2381   68.5096   61.5986 H   0  0  0  0  0  0  0  0  0  0  0  0
  -40.6183   68.1304   61.0643 H   0  0  0  0  0  0  0  0  0  0  0  0
  -41.2335   67.4396   62.5467 H   0  0  0  0  0  0  0  0  0  0  0  0
  -43.6515   61.6910   61.9538 H   0  0  0  0  0  0  0  0  0  0  0  0
  -43.0965   67.7723   59.4312 H   0  0  0  0  0  0  0  0  0  0  0  0
  -42.6899   66.1826   58.8305 H   0  0  0  0  0  0  0  0  0  0  0  0
  -41.4582   67.4172   58.9382 H   0  0  0  0  0  0  0  0  0  0  0  0
  -40.7211   65.2016   61.7327 H   0  0  0  0  0  0  0  0  0  0  0  0
  -40.0759   65.9213   60.2771 H   0  0  0  0  0  0  0  0  0  0  0  0
  -41.3077   64.6867   60.1694 H   0  0  0  0  0  0  0  0  0  0  0  0
  -38.7543   59.1515   62.3353 H   0  0  0  0  0  0  0  0  0  0  0  0
  -40.1146   59.1497   61.2659 H   0  0  0  0  0  0  0  0  0  0  0  0
  -40.9394   60.8604   66.0042 H   0  0  0  0  0  0  0  0  0  0  0  0
  -40.1713   59.2627   66.0109 H   0  0  0  0  0  0  0  0  0  0  0  0
  -41.8086   58.4429   64.4703 H   0  0  0  0  0  0  0  0  0  0  0  0
  -42.5713   60.0428   64.4426 H   0  0  0  0  0  0  0  0  0  0  0  0
  -43.1183   59.8483   66.7560 H   0  0  0  0  0  0  0  0  0  0  0  0
  -42.3406   58.2423   66.7808 H   0  0  0  0  0  0  0  0  0  0  0  0
  -44.7331   58.0706   66.7436 H   0  0  0  0  0  0  0  0  0  0  0  0
  -43.9552   57.4099   65.2853 H   0  0  0  0  0  0  0  0  0  0  0  0
  -44.5681   59.3412   64.0489 H   0  0  0  0  0  0  0  0  0  0  0  0
  -45.3221   60.0289   65.4938 H   0  0  0  0  0  0  0  0  0  0  0  0
  -46.1554   57.5348   64.1138 H   0  0  0  0  0  0  0  0  0  0  0  0
  -46.9465   59.1408   64.0408 H   0  0  0  0  0  0  0  0  0  0  0  0
  -47.5032   59.0097   66.3150 H   0  0  0  0  0  0  0  0  0  0  0  0
  -46.6968   57.4311   66.4231 H   0  0  0  0  0  0  0  0  0  0  0  0
  -48.4553   56.3896   65.3866 H   0  0  0  0  0  0  0  0  0  0  0  0
  -50.4259   57.3005   64.9216 H   0  0  0  0  0  0  0  0  0  0  0  0
  -51.0530   59.4940   65.3526 H   0  0  0  0  0  0  0  0  0  0  0  0
  -49.7798   59.7328   64.1133 H   0  0  0  0  0  0  0  0  0  0  0  0
  -48.1917   60.2246   65.7869 H   0  0  0  0  0  0  0  0  0  0  0  0
  -49.4167   59.9589   67.0385 H   0  0  0  0  0  0  0  0  0  0  0  0
  -49.0504   62.2964   66.6461 H   0  0  0  0  0  0  0  0  0  0  0  0
  -50.6926   61.7607   66.1918 H   0  0  0  0  0  0  0  0  0  0  0  0
  -50.1116   61.8143   63.9019 H   0  0  0  0  0  0  0  0  0  0  0  0
  -48.4672   62.3143   64.3264 H   0  0  0  0  0  0  0  0  0  0  0  0
  -50.9493   63.8663   64.8595 H   0  0  0  0  0  0  0  0  0  0  0  0
  -49.7432   64.1581   63.5722 H   0  0  0  0  0  0  0  0  0  0  0  0
  -49.2424   64.3666   66.4817 H   0  0  0  0  0  0  0  0  0  0  0  0
  -49.5117   65.7054   65.3481 H   0  0  0  0  0  0  0  0  0  0  0  0
  -47.2983   63.7596   65.2372 H   0  0  0  0  0  0  0  0  0  0  0  0
  -47.2300   65.4316   65.8330 H   0  0  0  0  0  0  0  0  0  0  0  0
  -47.8630   64.5836   63.0833 H   0  0  0  0  0  0  0  0  0  0  0  0
  -46.3579   65.2733   63.6419 H   0  0  0  0  0  0  0  0  0  0  0  0
  -47.8239   66.2230   63.6865 H   0  0  0  0  0  0  0  0  0  0  0  0
  1  9  1  0  0  0  0
  1 11  1  0  0  0  0
  1 13  1  0  0  0  0
  1 15  1  0  0  0  0
  2  3  1  0  0  0  0
  2  5  1  0  0  0  0
  2 17  1  0  0  0  0
  2 36  1  1  0  0  0
  3 37  1  0  0  0  0
  4  6  1  0  0  0  0
  4  8  2  6  0  0  0
  4 10  1  0  0  0  0
  4 12  1  0  0  0  0
  5  6  1  0  0  0  0
  5 38  1  0  0  0  0
  5 39  1  0  0  0  0
  7  9  1  0  0  0  0
  7 10  1  0  0  0  0
  7 40  1  0  0  0  0
  7 41  1  0  0  0  0
  9 42  1  0  0  0  0
  9 43  1  0  0  0  0
 11 44  1  0  0  0  0
 11 45  1  0  0  0  0
 11 46  1  0  0  0  0
 12 47  1  0  0  0  0
 13 48  1  0  0  0  0
 13 49  1  0  0  0  0
 13 50  1  0  0  0  0
 14 17  1  0  0  0  0
 14 18  1  0  0  0  0
 15 51  1  0  0  0  0
 15 52  1  0  0  0  0
 15 53  1  0  0  0  0
 16 18  2  0  0  0  0
 17 54  1  0  0  0  0
 17 55  1  0  0  0  0
 18 19  1  0  0  0  0
 19 20  1  0  0  0  0
 19 56  1  0  0  0  0
 19 57  1  0  0  0  0
 20 21  1  0  0  0  0
 20 58  1  0  0  0  0
 20 59  1  0  0  0  0
 21 22  1  0  0  0  0
 21 60  1  0  0  0  0
 21 61  1  0  0  0  0
 22 23  1  0  0  0  0
 22 62  1  0  0  0  0
 22 63  1  0  0  0  0
 23 24  1  0  0  0  0
 23 64  1  0  0  0  0
 23 65  1  0  0  0  0
 24 25  1  0  0  0  0
 24 66  1  0  0  0  0
 24 67  1  0  0  0  0
 25 26  1  0  0  0  0
 25 68  1  0  0  0  0
 25 69  1  0  0  0  0
 26 27  2  0  0  0  0
 26 70  1  0  0  0  0
 27 28  1  0  0  0  0
 27 71  1  0  0  0  0
 28 29  1  0  0  0  0
 28 72  1  0  0  0  0
 28 73  1  0  0  0  0
 29 30  1  0  0  0  0
 29 74  1  0  0  0  0
 29 75  1  0  0  0  0
 30 31  1  0  0  0  0
 30 76  1  0  0  0  0
 30 77  1  0  0  0  0
 31 32  1  0  0  0  0
 31 78  1  0  0  0  0
 31 79  1  0  0  0  0
 32 33  1  0  0  0  0
 32 80  1  0  0  0  0
 32 81  1  0  0  0  0
 33 34  1  0  0  0  0
 33 82  1  0  0  0  0
 33 83  1  0  0  0  0
 34 35  1  0  0  0  0
 34 84  1  0  0  0  0
 34 85  1  0  0  0  0
 35 86  1  0  0  0  0
 35 87  1  0  0  0  0
 35 88  1  0  0  0  0
M  CHG  1   8  -1
M  END
$$$$