/media/chris/experiments/cd1a-new-docking/inputs/ligands/4x6c_ligand.pdb
 OpenBabel07012320263D

 88 87  0  0  1  0  0  0  0  0999 V2000
  -43.3334   60.0720   76.3757 N   0  0  0  0  0  4  0  0  0  0  0  0
  -41.3995   61.0996   69.2180 C   0  0  1  0  0  0  0  0  0  0  0  0
  -40.0457   60.8658   68.8297 O   0  0  0  0  0  0  0  0  0  0  0  0
  -41.3555   59.2824   71.6616 P   0  0  2  0  0  0  0  0  0  0  0  0
  -41.4009   61.6840   70.6098 C   0  0  0  0  0  0  0  0  0  0  0  0
  -40.7607   60.7486   71.5009 O   0  0  0  0  0  0  0  0  0  0  0  0
  -42.1418   59.7521   74.1209 C   0  0  0  0  0  0  0  0  0  0  0  0
  -42.0001   58.9338   70.3795 O   0  5  0  0  0  0  0  0  0  0  0  0
  -43.4209   59.6556   74.9209 C   0  0  0  0  0  0  0  0  0  0  0  0
  -42.4794   59.3237   72.7806 O   0  0  0  0  0  0  0  0  0  0  0  0
  -42.3346   59.2410   77.1151 C   0  0  0  0  0  0  0  0  0  0  0  0
  -40.2626   58.4314   72.1721 O   0  0  0  0  0  0  0  0  0  0  0  0
  -44.6694   59.9037   77.0254 C   0  0  0  0  0  0  0  0  0  0  0  0
  -42.0468   61.1978   66.9322 O   0  0  0  0  0  0  0  0  0  0  0  0
  -42.9195   61.5075   76.4623 C   0  0  0  0  0  0  0  0  0  0  0  0
  -40.1603   62.1553   66.2294 O   0  0  0  0  0  0  0  0  0  0  0  0
  -42.0861   61.9438   68.1691 C   0  0  0  0  0  0  0  0  0  0  0  0
  -40.9154   61.2318   66.2282 C   0  0  0  0  0  0  0  0  0  0  0  0
  -40.7200   59.9800   65.4370 C   0  0  0  0  0  0  0  0  0  0  0  0
  -42.0280   59.3300   65.0270 C   0  0  0  0  0  0  0  0  0  0  0  0
  -42.8960   58.9560   66.2090 C   0  0  0  0  0  0  0  0  0  0  0  0
  -44.2012   58.2902   65.8416 C   0  0  0  0  0  0  0  0  0  0  0  0
  -44.0348   56.9933   65.0915 C   0  0  0  0  0  0  0  0  0  0  0  0
  -43.2816   55.9620   65.8880 C   0  0  0  0  0  0  0  0  0  0  0  0
  -43.9193   55.5574   67.1841 C   0  0  0  0  0  0  0  0  0  0  0  0
  -43.1383   54.5616   67.9320 C   0  0  0  0  0  0  0  0  0  0  0  0
  -42.6294   54.6734   69.1392 C   0  0  0  0  0  0  0  0  0  0  0  0
  -42.7303   55.8257   70.0700 C   0  0  0  0  0  0  0  0  0  0  0  0
  -44.1356   56.2043   70.4908 C   0  0  0  0  0  0  0  0  0  0  0  0
  -44.8455   55.0924   71.2132 C   0  0  0  0  0  0  0  0  0  0  0  0
  -44.1799   54.6451   72.4894 C   0  0  0  0  0  0  0  0  0  0  0  0
  -44.0773   55.7553   73.5120 C   0  0  0  0  0  0  0  0  0  0  0  0
  -43.4057   55.3695   74.8004 C   0  0  0  0  0  0  0  0  0  0  0  0
  -43.3409   56.4754   75.7761 C   0  0  0  0  0  0  0  0  0  0  0  0
  -44.6552   56.9761   76.1738 C   0  0  0  0  0  0  0  0  0  0  0  0
  -41.9695   60.1954   69.2689 H   0  0  0  0  0  0  0  0  0  0  0  0
  -39.5685   61.7097   68.7968 H   0  0  0  0  0  0  0  0  0  0  0  0
  -42.4081   61.8542   70.9284 H   0  0  0  0  0  0  0  0  0  0  0  0
  -40.8739   62.6151   70.6163 H   0  0  0  0  0  0  0  0  0  0  0  0
  -41.3925   59.1125   74.5384 H   0  0  0  0  0  0  0  0  0  0  0  0
  -41.7478   60.7469   74.1280 H   0  0  0  0  0  0  0  0  0  0  0  0
  -44.1504   60.2783   74.4464 H   0  0  0  0  0  0  0  0  0  0  0  0
  -43.6719   58.6156   74.9353 H   0  0  0  0  0  0  0  0  0  0  0  0
  -42.6183   58.2107   77.0615 H   0  0  0  0  0  0  0  0  0  0  0  0
  -42.3024   59.5493   78.1392 H   0  0  0  0  0  0  0  0  0  0  0  0
  -41.3682   59.3683   76.6737 H   0  0  0  0  0  0  0  0  0  0  0  0
  -39.5546   58.3833   71.5108 H   0  0  0  0  0  0  0  0  0  0  0  0
  -44.9685   58.8781   76.9653 H   0  0  0  0  0  0  0  0  0  0  0  0
  -45.3897   60.5153   76.5235 H   0  0  0  0  0  0  0  0  0  0  0  0
  -44.6061   60.1972   78.0525 H   0  0  0  0  0  0  0  0  0  0  0  0
  -41.9635   61.6317   75.9981 H   0  0  0  0  0  0  0  0  0  0  0  0
  -42.8577   61.7996   77.4898 H   0  0  0  0  0  0  0  0  0  0  0  0
  -43.6414   62.1177   75.9609 H   0  0  0  0  0  0  0  0  0  0  0  0
  -41.5719   62.8749   68.0529 H   0  0  0  0  0  0  0  0  0  0  0  0
  -43.0952   62.1584   68.4530 H   0  0  0  0  0  0  0  0  0  0  0  0
  -40.1644   59.2843   66.0305 H   0  0  0  0  0  0  0  0  0  0  0  0
  -40.1985   60.2448   64.5410 H   0  0  0  0  0  0  0  0  0  0  0  0
  -41.8086   58.4429   64.4703 H   0  0  0  0  0  0  0  0  0  0  0  0
  -42.5713   60.0428   64.4426 H   0  0  0  0  0  0  0  0  0  0  0  0
  -43.1183   59.8483   66.7560 H   0  0  0  0  0  0  0  0  0  0  0  0
  -42.3406   58.2423   66.7808 H   0  0  0  0  0  0  0  0  0  0  0  0
  -44.7626   58.9643   65.2288 H   0  0  0  0  0  0  0  0  0  0  0  0
  -44.7001   58.0569   66.7589 H   0  0  0  0  0  0  0  0  0  0  0  0
  -43.4990   57.1866   64.1857 H   0  0  0  0  0  0  0  0  0  0  0  0
  -45.0114   56.6033   64.8938 H   0  0  0  0  0  0  0  0  0  0  0  0
  -42.3118   56.3577   66.1068 H   0  0  0  0  0  0  0  0  0  0  0  0
  -43.2599   55.0802   65.2824 H   0  0  0  0  0  0  0  0  0  0  0  0
  -44.8834   55.1440   66.9734 H   0  0  0  0  0  0  0  0  0  0  0  0
  -43.9804   56.4345   67.7940 H   0  0  0  0  0  0  0  0  0  0  0  0
  -42.9686   53.6647   67.4505 H   0  0  0  0  0  0  0  0  0  0  0  0
  -42.0941   53.8604   69.4818 H   0  0  0  0  0  0  0  0  0  0  0  0
  -42.2895   56.6753   69.5916 H   0  0  0  0  0  0  0  0  0  0  0  0
  -42.2271   55.5247   70.9650 H   0  0  0  0  0  0  0  0  0  0  0  0
  -44.6979   56.4582   69.6166 H   0  0  0  0  0  0  0  0  0  0  0  0
  -44.0588   57.0307   71.1662 H   0  0  0  0  0  0  0  0  0  0  0  0
  -44.9037   54.2510   70.5549 H   0  0  0  0  0  0  0  0  0  0  0  0
  -45.8048   55.4764   71.4911 H   0  0  0  0  0  0  0  0  0  0  0  0
  -43.1938   54.2995   72.2587 H   0  0  0  0  0  0  0  0  0  0  0  0
  -44.7811   53.8683   72.9135 H   0  0  0  0  0  0  0  0  0  0  0  0
  -45.0679   56.0891   73.7405 H   0  0  0  0  0  0  0  0  0  0  0  0
  -43.4657   56.5141   73.0704 H   0  0  0  0  0  0  0  0  0  0  0  0
  -42.4082   55.0501   74.5816 H   0  0  0  0  0  0  0  0  0  0  0  0
  -43.9897   54.5894   75.2422 H   0  0  0  0  0  0  0  0  0  0  0  0
  -42.7889   57.2812   75.3393 H   0  0  0  0  0  0  0  0  0  0  0  0
  -42.8689   56.0925   76.6567 H   0  0  0  0  0  0  0  0  0  0  0  0
  -45.1613   57.3693   75.3169 H   0  0  0  0  0  0  0  0  0  0  0  0
  -44.5364   57.7493   76.9038 H   0  0  0  0  0  0  0  0  0  0  0  0
  -45.2301   56.1762   76.5917 H   0  0  0  0  0  0  0  0  0  0  0  0
  1  9  1  0  0  0  0
  1 11  1  0  0  0  0
  1 13  1  0  0  0  0
  1 15  1  0  0  0  0
  2  3  1  0  0  0  0
  2  5  1  0  0  0  0
  2 17  1  0  0  0  0
  2 36  1  1  0  0  0
  3 37  1  0  0  0  0
  4  6  1  0  0  0  0
  4  8  2  6  0  0  0
  4 10  1  0  0  0  0
  4 12  1  0  0  0  0
  5  6  1  0  0  0  0
  5 38  1  0  0  0  0
  5 39  1  0  0  0  0
  7  9  1  0  0  0  0
  7 10  1  0  0  0  0
  7 40  1  0  0  0  0
  7 41  1  0  0  0  0
  9 42  1  0  0  0  0
  9 43  1  0  0  0  0
 11 44  1  0  0  0  0
 11 45  1  0  0  0  0
 11 46  1  0  0  0  0
 12 47  1  0  0  0  0
 13 48  1  0  0  0  0
 13 49  1  0  0  0  0
 13 50  1  0  0  0  0
 14 17  1  0  0  0  0
 14 18  1  0  0  0  0
 15 51  1  0  0  0  0
 15 52  1  0  0  0  0
 15 53  1  0  0  0  0
 16 18  2  0  0  0  0
 17 54  1  0  0  0  0
 17 55  1  0  0  0  0
 18 19  1  0  0  0  0
 19 20  1  0  0  0  0
 19 56  1  0  0  0  0
 19 57  1  0  0  0  0
 20 21  1  0  0  0  0
 20 58  1  0  0  0  0
 20 59  1  0  0  0  0
 21 22  1  0  0  0  0
 21 60  1  0  0  0  0
 21 61  1  0  0  0  0
 22 23  1  0  0  0  0
 22 62  1  0  0  0  0
 22 63  1  0  0  0  0
 23 24  1  0  0  0  0
 23 64  1  0  0  0  0
 23 65  1  0  0  0  0
 24 25  1  0  0  0  0
 24 66  1  0  0  0  0
 24 67  1  0  0  0  0
 25 26  1  0  0  0  0
 25 68  1  0  0  0  0
 25 69  1  0  0  0  0
 26 27  2  0  0  0  0
 26 70  1  0  0  0  0
 27 28  1  0  0  0  0
 27 71  1  0  0  0  0
 28 29  1  0  0  0  0
 28 72  1  0  0  0  0
 28 73  1  0  0  0  0
 29 30  1  0  0  0  0
 29 74  1  0  0  0  0
 29 75  1  0  0  0  0
 30 31  1  0  0  0  0
 30 76  1  0  0  0  0
 30 77  1  0  0  0  0
 31 32  1  0  0  0  0
 31 78  1  0  0  0  0
 31 79  1  0  0  0  0
 32 33  1  0  0  0  0
 32 80  1  0  0  0  0
 32 81  1  0  0  0  0
 33 34  1  0  0  0  0
 33 82  1  0  0  0  0
 33 83  1  0  0  0  0
 34 35  1  0  0  0  0
 34 84  1  0  0  0  0
 34 85  1  0  0  0  0
 35 86  1  0  0  0  0
 35 87  1  0  0  0  0
 35 88  1  0  0  0  0
M  CHG  1   8  -1
M  END
$$$$