/media/chris/experiments/cd1a-new-docking/inputs/ligands/4x6c_ligand.pdb
 OpenBabel07012320263D

 88 87  0  0  1  0  0  0  0  0999 V2000
  -39.1705   59.9999   72.7753 N   0  0  0  0  0  4  0  0  0  0  0  0
  -38.5429   58.5687   68.7297 C   0  0  1  0  0  0  0  0  0  0  0  0
  -39.6777   57.7650   68.4069 O   0  0  0  0  0  0  0  0  0  0  0  0
  -35.5104   58.1107   71.1475 P   0  0  2  0  0  0  0  0  0  0  0  0
  -37.7138   57.8317   69.7534 C   0  0  0  0  0  0  0  0  0  0  0  0
  -36.5749   58.6474   70.0948 O   0  0  0  0  0  0  0  0  0  0  0  0
  -36.7543   59.2193   73.1748 C   0  0  0  0  0  0  0  0  0  0  0  0
  -35.9661   56.7744   71.5809 O   0  5  0  0  0  0  0  0  0  0  0  0
  -37.7900   59.7417   72.2052 C   0  0  0  0  0  0  0  0  0  0  0  0
  -35.5349   59.0708   72.4102 O   0  0  0  0  0  0  0  0  0  0  0  0
  -39.7566   58.7525   73.3543 C   0  0  0  0  0  0  0  0  0  0  0  0
  -34.1815   58.2489   70.5198 O   0  0  0  0  0  0  0  0  0  0  0  0
  -40.0746   60.4944   71.6920 C   0  0  0  0  0  0  0  0  0  0  0  0
  -38.7345   59.6918   66.6427 O   0  0  0  0  0  0  0  0  0  0  0  0
  -39.0820   61.0328   73.8546 C   0  0  0  0  0  0  0  0  0  0  0  0
  -40.1597   57.9783   66.5999 O   0  0  0  0  0  0  0  0  0  0  0  0
  -37.8107   58.9398   67.4606 C   0  0  0  0  0  0  0  0  0  0  0  0
  -39.8694   59.0915   66.2844 C   0  0  0  0  0  0  0  0  0  0  0  0
  -40.7200   59.9800   65.4370 C   0  0  0  0  0  0  0  0  0  0  0  0
  -42.0280   59.3300   65.0270 C   0  0  0  0  0  0  0  0  0  0  0  0
  -42.8960   58.9560   66.2090 C   0  0  0  0  0  0  0  0  0  0  0  0
  -44.2012   58.2902   65.8416 C   0  0  0  0  0  0  0  0  0  0  0  0
  -44.0348   56.9933   65.0915 C   0  0  0  0  0  0  0  0  0  0  0  0
  -43.2785   57.1689   63.8021 C   0  0  0  0  0  0  0  0  0  0  0  0
  -43.0884   55.9208   62.9919 C   0  0  0  0  0  0  0  0  0  0  0  0
  -42.3307   56.1409   61.7515 C   0  0  0  0  0  0  0  0  0  0  0  0
  -41.0305   56.0623   61.5733 C   0  0  0  0  0  0  0  0  0  0  0  0
  -39.9911   55.7086   62.5728 C   0  0  0  0  0  0  0  0  0  0  0  0
  -40.4374   54.7697   63.6749 C   0  0  0  0  0  0  0  0  0  0  0  0
  -39.3418   54.4673   64.6600 C   0  0  0  0  0  0  0  0  0  0  0  0
  -38.1150   53.8289   64.0607 C   0  0  0  0  0  0  0  0  0  0  0  0
  -38.4187   52.5143   63.3766 C   0  0  0  0  0  0  0  0  0  0  0  0
  -39.0223   51.4626   64.2650 C   0  0  0  0  0  0  0  0  0  0  0  0
  -39.2878   50.1912   63.5634 C   0  0  0  0  0  0  0  0  0  0  0  0
  -39.8899   49.1709   64.4194 C   0  0  0  0  0  0  0  0  0  0  0  0
  -38.8190   59.5003   69.1779 H   0  0  0  0  0  0  0  0  0  0  0  0
  -39.3812   56.9336   68.0045 H   0  0  0  0  0  0  0  0  0  0  0  0
  -37.3809   56.9004   69.3451 H   0  0  0  0  0  0  0  0  0  0  0  0
  -38.2996   57.6368   70.6273 H   0  0  0  0  0  0  0  0  0  0  0  0
  -37.0608   58.2750   73.5738 H   0  0  0  0  0  0  0  0  0  0  0  0
  -36.6206   59.8838   74.0027 H   0  0  0  0  0  0  0  0  0  0  0  0
  -37.4251   60.6637   71.8032 H   0  0  0  0  0  0  0  0  0  0  0  0
  -37.9202   58.9658   71.4799 H   0  0  0  0  0  0  0  0  0  0  0  0
  -39.8259   58.0041   72.5927 H   0  0  0  0  0  0  0  0  0  0  0  0
  -40.7331   58.9620   73.7383 H   0  0  0  0  0  0  0  0  0  0  0  0
  -39.1303   58.3984   74.1463 H   0  0  0  0  0  0  0  0  0  0  0  0
  -34.1304   57.6733   69.7408 H   0  0  0  0  0  0  0  0  0  0  0  0
  -40.1402   59.7581   70.9184 H   0  0  0  0  0  0  0  0  0  0  0  0
  -39.6817   61.4035   71.2868 H   0  0  0  0  0  0  0  0  0  0  0  0
  -41.0489   60.6755   72.0956 H   0  0  0  0  0  0  0  0  0  0  0  0
  -38.4356   60.6821   74.6317 H   0  0  0  0  0  0  0  0  0  0  0  0
  -40.0572   61.2134   74.2562 H   0  0  0  0  0  0  0  0  0  0  0  0
  -38.6900   61.9414   73.4474 H   0  0  0  0  0  0  0  0  0  0  0  0
  -37.4991   58.0557   66.9446 H   0  0  0  0  0  0  0  0  0  0  0  0
  -36.9374   59.5180   67.6795 H   0  0  0  0  0  0  0  0  0  0  0  0
  -40.1733   60.2341   64.5530 H   0  0  0  0  0  0  0  0  0  0  0  0
  -40.9602   60.8449   66.0193 H   0  0  0  0  0  0  0  0  0  0  0  0
  -41.8086   58.4429   64.4703 H   0  0  0  0  0  0  0  0  0  0  0  0
  -42.5713   60.0428   64.4426 H   0  0  0  0  0  0  0  0  0  0  0  0
  -43.1183   59.8483   66.7560 H   0  0  0  0  0  0  0  0  0  0  0  0
  -42.3406   58.2423   66.7808 H   0  0  0  0  0  0  0  0  0  0  0  0
  -44.7626   58.9643   65.2288 H   0  0  0  0  0  0  0  0  0  0  0  0
  -44.7001   58.0569   66.7589 H   0  0  0  0  0  0  0  0  0  0  0  0
  -45.0040   56.5976   64.8702 H   0  0  0  0  0  0  0  0  0  0  0  0
  -43.4718   56.3277   65.7118 H   0  0  0  0  0  0  0  0  0  0  0  0
  -42.3108   57.5600   64.0377 H   0  0  0  0  0  0  0  0  0  0  0  0
  -43.8722   57.8238   63.1992 H   0  0  0  0  0  0  0  0  0  0  0  0
  -44.0520   55.5319   62.7365 H   0  0  0  0  0  0  0  0  0  0  0  0
  -42.5230   55.2379   63.5910 H   0  0  0  0  0  0  0  0  0  0  0  0
  -42.8878   56.3874   60.9184 H   0  0  0  0  0  0  0  0  0  0  0  0
  -40.6906   56.2722   60.6218 H   0  0  0  0  0  0  0  0  0  0  0  0
  -39.6512   56.6146   63.0294 H   0  0  0  0  0  0  0  0  0  0  0  0
  -39.2301   55.1856   62.0321 H   0  0  0  0  0  0  0  0  0  0  0  0
  -40.7619   53.8515   63.2316 H   0  0  0  0  0  0  0  0  0  0  0  0
  -41.2283   55.2526   64.2098 H   0  0  0  0  0  0  0  0  0  0  0  0
  -39.7344   53.8036   65.4018 H   0  0  0  0  0  0  0  0  0  0  0  0
  -39.0278   55.4083   65.0611 H   0  0  0  0  0  0  0  0  0  0  0  0
  -37.4043   53.6531   64.8411 H   0  0  0  0  0  0  0  0  0  0  0  0
  -37.7301   54.4985   63.3201 H   0  0  0  0  0  0  0  0  0  0  0  0
  -37.5038   52.1278   62.9784 H   0  0  0  0  0  0  0  0  0  0  0  0
  -39.1504   52.7289   62.6259 H   0  0  0  0  0  0  0  0  0  0  0  0
  -39.9466   51.8357   64.6541 H   0  0  0  0  0  0  0  0  0  0  0  0
  -38.3141   51.2563   65.0401 H   0  0  0  0  0  0  0  0  0  0  0  0
  -38.3612   49.8128   63.1849 H   0  0  0  0  0  0  0  0  0  0  0  0
  -39.9879   50.4016   62.7822 H   0  0  0  0  0  0  0  0  0  0  0  0
  -39.2175   48.9319   65.2166 H   0  0  0  0  0  0  0  0  0  0  0  0
  -40.0858   48.2914   63.8423 H   0  0  0  0  0  0  0  0  0  0  0  0
  -40.8073   49.5424   64.8258 H   0  0  0  0  0  0  0  0  0  0  0  0
  1  9  1  0  0  0  0
  1 11  1  0  0  0  0
  1 13  1  0  0  0  0
  1 15  1  0  0  0  0
  2  3  1  0  0  0  0
  2  5  1  0  0  0  0
  2 17  1  0  0  0  0
  2 36  1  1  0  0  0
  3 37  1  0  0  0  0
  4  6  1  0  0  0  0
  4  8  2  1  0  0  0
  4 10  1  0  0  0  0
  4 12  1  0  0  0  0
  5  6  1  0  0  0  0
  5 38  1  0  0  0  0
  5 39  1  0  0  0  0
  7  9  1  0  0  0  0
  7 10  1  0  0  0  0
  7 40  1  0  0  0  0
  7 41  1  0  0  0  0
  9 42  1  0  0  0  0
  9 43  1  0  0  0  0
 11 44  1  0  0  0  0
 11 45  1  0  0  0  0
 11 46  1  0  0  0  0
 12 47  1  0  0  0  0
 13 48  1  0  0  0  0
 13 49  1  0  0  0  0
 13 50  1  0  0  0  0
 14 17  1  0  0  0  0
 14 18  1  0  0  0  0
 15 51  1  0  0  0  0
 15 52  1  0  0  0  0
 15 53  1  0  0  0  0
 16 18  2  0  0  0  0
 17 54  1  0  0  0  0
 17 55  1  0  0  0  0
 18 19  1  0  0  0  0
 19 20  1  0  0  0  0
 19 56  1  0  0  0  0
 19 57  1  0  0  0  0
 20 21  1  0  0  0  0
 20 58  1  0  0  0  0
 20 59  1  0  0  0  0
 21 22  1  0  0  0  0
 21 60  1  0  0  0  0
 21 61  1  0  0  0  0
 22 23  1  0  0  0  0
 22 62  1  0  0  0  0
 22 63  1  0  0  0  0
 23 24  1  0  0  0  0
 23 64  1  0  0  0  0
 23 65  1  0  0  0  0
 24 25  1  0  0  0  0
 24 66  1  0  0  0  0
 24 67  1  0  0  0  0
 25 26  1  0  0  0  0
 25 68  1  0  0  0  0
 25 69  1  0  0  0  0
 26 27  2  0  0  0  0
 26 70  1  0  0  0  0
 27 28  1  0  0  0  0
 27 71  1  0  0  0  0
 28 29  1  0  0  0  0
 28 72  1  0  0  0  0
 28 73  1  0  0  0  0
 29 30  1  0  0  0  0
 29 74  1  0  0  0  0
 29 75  1  0  0  0  0
 30 31  1  0  0  0  0
 30 76  1  0  0  0  0
 30 77  1  0  0  0  0
 31 32  1  0  0  0  0
 31 78  1  0  0  0  0
 31 79  1  0  0  0  0
 32 33  1  0  0  0  0
 32 80  1  0  0  0  0
 32 81  1  0  0  0  0
 33 34  1  0  0  0  0
 33 82  1  0  0  0  0
 33 83  1  0  0  0  0
 34 35  1  0  0  0  0
 34 84  1  0  0  0  0
 34 85  1  0  0  0  0
 35 86  1  0  0  0  0
 35 87  1  0  0  0  0
 35 88  1  0  0  0  0
M  CHG  1   8  -1
M  END
$$$$