/media/chris/experiments/cd1a-new-docking/inputs/ligands/4x6c_ligand.pdb
 OpenBabel07012320263D

 88 87  0  0  1  0  0  0  0  0999 V2000
  -35.8127   63.8378   64.1497 N   0  0  0  0  0  4  0  0  0  0  0  0
  -42.2953   63.3133   67.9470 C   0  0  1  0  0  0  0  0  0  0  0  0
  -43.0463   62.4947   68.8437 O   0  0  0  0  0  0  0  0  0  0  0  0
  -38.5051   64.2008   67.6340 P   0  0  2  0  0  0  0  0  0  0  0  0
  -40.8417   63.2495   68.3489 C   0  0  0  0  0  0  0  0  0  0  0  0
  -40.0815   64.0882   67.4560 O   0  0  0  0  0  0  0  0  0  0  0  0
  -38.1041   64.5575   65.0653 C   0  0  0  0  0  0  0  0  0  0  0  0
  -38.1992   65.6223   67.8931 O   0  5  0  0  0  0  0  0  0  0  0  0
  -37.3150   63.8981   63.9571 C   0  0  0  0  0  0  0  0  0  0  0  0
  -37.8213   63.7941   66.2615 O   0  0  0  0  0  0  0  0  0  0  0  0
  -35.2325   65.2079   64.2945 C   0  0  0  0  0  0  0  0  0  0  0  0
  -38.1143   63.1872   68.6335 O   0  0  0  0  0  0  0  0  0  0  0  0
  -35.1830   63.1749   62.9668 C   0  0  0  0  0  0  0  0  0  0  0  0
  -42.2078   61.5072   66.4029 O   0  0  0  0  0  0  0  0  0  0  0  0
  -35.4965   63.0514   65.3830 C   0  0  0  0  0  0  0  0  0  0  0  0
  -40.0293   61.9106   66.6489 O   0  0  0  0  0  0  0  0  0  0  0  0
  -42.5840   62.8972   66.5230 C   0  0  0  0  0  0  0  0  0  0  0  0
  -40.9154   61.2318   66.2282 C   0  0  0  0  0  0  0  0  0  0  0  0
  -40.7200   59.9800   65.4370 C   0  0  0  0  0  0  0  0  0  0  0  0
  -42.0280   59.3300   65.0270 C   0  0  0  0  0  0  0  0  0  0  0  0
  -42.8960   58.9560   66.2090 C   0  0  0  0  0  0  0  0  0  0  0  0
  -44.2012   58.2902   65.8416 C   0  0  0  0  0  0  0  0  0  0  0  0
  -45.0623   57.9388   67.0279 C   0  0  0  0  0  0  0  0  0  0  0  0
  -46.3454   57.2626   66.6256 C   0  0  0  0  0  0  0  0  0  0  0  0
  -47.2342   58.0573   65.7153 C   0  0  0  0  0  0  0  0  0  0  0  0
  -46.6024   58.3930   64.4311 C   0  0  0  0  0  0  0  0  0  0  0  0
  -46.3685   59.5869   63.9325 C   0  0  0  0  0  0  0  0  0  0  0  0
  -46.6608   60.9067   64.5464 C   0  0  0  0  0  0  0  0  0  0  0  0
  -45.7173   62.0286   64.1635 C   0  0  0  0  0  0  0  0  0  0  0  0
  -46.0607   63.3309   64.8330 C   0  0  0  0  0  0  0  0  0  0  0  0
  -47.4437   63.8484   64.5311 C   0  0  0  0  0  0  0  0  0  0  0  0
  -47.7331   65.1671   65.2138 C   0  0  0  0  0  0  0  0  0  0  0  0
  -46.8199   66.2958   64.8241 C   0  0  0  0  0  0  0  0  0  0  0  0
  -47.1253   67.5590   65.5242 C   0  0  0  0  0  0  0  0  0  0  0  0
  -46.2503   68.6636   65.1364 C   0  0  0  0  0  0  0  0  0  0  0  0
  -42.5795   64.3433   68.0024 H   0  0  0  0  0  0  0  0  0  0  0  0
  -42.7563   61.5729   68.7599 H   0  0  0  0  0  0  0  0  0  0  0  0
  -40.4926   62.2403   68.2807 H   0  0  0  0  0  0  0  0  0  0  0  0
  -40.7255   63.5884   69.3572 H   0  0  0  0  0  0  0  0  0  0  0  0
  -39.1507   64.5294   64.8446 H   0  0  0  0  0  0  0  0  0  0  0  0
  -37.8333   65.5860   65.1823 H   0  0  0  0  0  0  0  0  0  0  0  0
  -37.6716   62.8944   63.8551 H   0  0  0  0  0  0  0  0  0  0  0  0
  -37.4686   64.5101   63.0929 H   0  0  0  0  0  0  0  0  0  0  0  0
  -35.4511   65.7823   63.4186 H   0  0  0  0  0  0  0  0  0  0  0  0
  -34.1721   65.1350   64.4176 H   0  0  0  0  0  0  0  0  0  0  0  0
  -35.6589   65.6872   65.1509 H   0  0  0  0  0  0  0  0  0  0  0  0
  -38.5163   63.4049   69.4890 H   0  0  0  0  0  0  0  0  0  0  0  0
  -35.4071   63.7347   62.0829 H   0  0  0  0  0  0  0  0  0  0  0  0
  -35.5686   62.1817   62.8673 H   0  0  0  0  0  0  0  0  0  0  0  0
  -34.1225   63.1337   63.1036 H   0  0  0  0  0  0  0  0  0  0  0  0
  -35.9458   63.5232   66.2318 H   0  0  0  0  0  0  0  0  0  0  0  0
  -34.4358   63.0103   65.5176 H   0  0  0  0  0  0  0  0  0  0  0  0
  -35.8819   62.0584   65.2813 H   0  0  0  0  0  0  0  0  0  0  0  0
  -42.0112   63.4927   65.8431 H   0  0  0  0  0  0  0  0  0  0  0  0
  -43.6190   63.0337   66.2883 H   0  0  0  0  0  0  0  0  0  0  0  0
  -40.1644   59.2843   66.0305 H   0  0  0  0  0  0  0  0  0  0  0  0
  -40.1985   60.2448   64.5410 H   0  0  0  0  0  0  0  0  0  0  0  0
  -41.8086   58.4429   64.4703 H   0  0  0  0  0  0  0  0  0  0  0  0
  -42.5713   60.0428   64.4426 H   0  0  0  0  0  0  0  0  0  0  0  0
  -43.1183   59.8483   66.7560 H   0  0  0  0  0  0  0  0  0  0  0  0
  -42.3406   58.2423   66.7808 H   0  0  0  0  0  0  0  0  0  0  0  0
  -43.9814   57.3901   65.3063 H   0  0  0  0  0  0  0  0  0  0  0  0
  -44.7539   58.9929   65.2537 H   0  0  0  0  0  0  0  0  0  0  0  0
  -45.2991   58.8372   67.5587 H   0  0  0  0  0  0  0  0  0  0  0  0
  -44.5114   57.2554   67.6397 H   0  0  0  0  0  0  0  0  0  0  0  0
  -46.8964   57.0438   67.5164 H   0  0  0  0  0  0  0  0  0  0  0  0
  -46.0590   56.3928   66.0721 H   0  0  0  0  0  0  0  0  0  0  0  0
  -47.5005   58.9676   66.2107 H   0  0  0  0  0  0  0  0  0  0  0  0
  -48.0885   57.4506   65.4985 H   0  0  0  0  0  0  0  0  0  0  0  0
  -46.3061   57.5935   63.8496 H   0  0  0  0  0  0  0  0  0  0  0  0
  -45.9275   59.6093   62.9997 H   0  0  0  0  0  0  0  0  0  0  0  0
  -46.6214   60.7915   65.6095 H   0  0  0  0  0  0  0  0  0  0  0  0
  -47.6235   61.1946   64.1786 H   0  0  0  0  0  0  0  0  0  0  0  0
  -45.7623   62.1666   63.1034 H   0  0  0  0  0  0  0  0  0  0  0  0
  -44.7359   61.7490   64.4853 H   0  0  0  0  0  0  0  0  0  0  0  0
  -45.3524   64.0666   64.5139 H   0  0  0  0  0  0  0  0  0  0  0  0
  -46.0301   63.1465   65.8866 H   0  0  0  0  0  0  0  0  0  0  0  0
  -48.1600   63.1262   64.8631 H   0  0  0  0  0  0  0  0  0  0  0  0
  -47.5062   64.0095   63.4752 H   0  0  0  0  0  0  0  0  0  0  0  0
  -47.6477   65.0202   66.2702 H   0  0  0  0  0  0  0  0  0  0  0  0
  -48.7158   65.4558   64.9041 H   0  0  0  0  0  0  0  0  0  0  0  0
  -46.9122   66.4599   63.7708 H   0  0  0  0  0  0  0  0  0  0  0  0
  -45.8263   66.0110   65.1008 H   0  0  0  0  0  0  0  0  0  0  0  0
  -47.0211   67.3972   66.5768 H   0  0  0  0  0  0  0  0  0  0  0  0
  -48.1229   67.8365   65.2546 H   0  0  0  0  0  0  0  0  0  0  0  0
  -45.2390   68.4237   65.3906 H   0  0  0  0  0  0  0  0  0  0  0  0
  -46.5468   69.5521   65.6536 H   0  0  0  0  0  0  0  0  0  0  0  0
  -46.3244   68.8237   64.0810 H   0  0  0  0  0  0  0  0  0  0  0  0
  1  9  1  0  0  0  0
  1 11  1  0  0  0  0
  1 13  1  0  0  0  0
  1 15  1  0  0  0  0
  2  3  1  0  0  0  0
  2  5  1  0  0  0  0
  2 17  1  0  0  0  0
  2 36  1  1  0  0  0
  3 37  1  0  0  0  0
  4  6  1  0  0  0  0
  4  8  2  1  0  0  0
  4 10  1  0  0  0  0
  4 12  1  0  0  0  0
  5  6  1  0  0  0  0
  5 38  1  0  0  0  0
  5 39  1  0  0  0  0
  7  9  1  0  0  0  0
  7 10  1  0  0  0  0
  7 40  1  0  0  0  0
  7 41  1  0  0  0  0
  9 42  1  0  0  0  0
  9 43  1  0  0  0  0
 11 44  1  0  0  0  0
 11 45  1  0  0  0  0
 11 46  1  0  0  0  0
 12 47  1  0  0  0  0
 13 48  1  0  0  0  0
 13 49  1  0  0  0  0
 13 50  1  0  0  0  0
 14 17  1  0  0  0  0
 14 18  1  0  0  0  0
 15 51  1  0  0  0  0
 15 52  1  0  0  0  0
 15 53  1  0  0  0  0
 16 18  2  0  0  0  0
 17 54  1  0  0  0  0
 17 55  1  0  0  0  0
 18 19  1  0  0  0  0
 19 20  1  0  0  0  0
 19 56  1  0  0  0  0
 19 57  1  0  0  0  0
 20 21  1  0  0  0  0
 20 58  1  0  0  0  0
 20 59  1  0  0  0  0
 21 22  1  0  0  0  0
 21 60  1  0  0  0  0
 21 61  1  0  0  0  0
 22 23  1  0  0  0  0
 22 62  1  0  0  0  0
 22 63  1  0  0  0  0
 23 24  1  0  0  0  0
 23 64  1  0  0  0  0
 23 65  1  0  0  0  0
 24 25  1  0  0  0  0
 24 66  1  0  0  0  0
 24 67  1  0  0  0  0
 25 26  1  0  0  0  0
 25 68  1  0  0  0  0
 25 69  1  0  0  0  0
 26 27  2  0  0  0  0
 26 70  1  0  0  0  0
 27 28  1  0  0  0  0
 27 71  1  0  0  0  0
 28 29  1  0  0  0  0
 28 72  1  0  0  0  0
 28 73  1  0  0  0  0
 29 30  1  0  0  0  0
 29 74  1  0  0  0  0
 29 75  1  0  0  0  0
 30 31  1  0  0  0  0
 30 76  1  0  0  0  0
 30 77  1  0  0  0  0
 31 32  1  0  0  0  0
 31 78  1  0  0  0  0
 31 79  1  0  0  0  0
 32 33  1  0  0  0  0
 32 80  1  0  0  0  0
 32 81  1  0  0  0  0
 33 34  1  0  0  0  0
 33 82  1  0  0  0  0
 33 83  1  0  0  0  0
 34 35  1  0  0  0  0
 34 84  1  0  0  0  0
 34 85  1  0  0  0  0
 35 86  1  0  0  0  0
 35 87  1  0  0  0  0
 35 88  1  0  0  0  0
M  CHG  1   8  -1
M  END
$$$$