/media/chris/experiments/cd1a-new-docking/inputs/ligands/4x6c_ligand.pdb
 OpenBabel07012320263D

 88 87  0  0  1  0  0  0  0  0999 V2000
  -38.2195   59.0547   59.2310 N   0  0  0  0  0  4  0  0  0  0  0  0
  -39.0893   62.2070   61.9928 C   0  0  1  0  0  0  0  0  0  0  0  0
  -39.0134   60.8166   61.6780 O   0  0  0  0  0  0  0  0  0  0  0  0
  -38.3235   63.3970   58.3529 P   0  0  2  0  0  0  0  0  0  0  0  0
  -39.3680   62.9685   60.7197 C   0  0  0  0  0  0  0  0  0  0  0  0
  -38.3014   62.7066   59.7855 O   0  0  0  0  0  0  0  0  0  0  0  0
  -37.9027   60.9449   57.5182 C   0  0  0  0  0  0  0  0  0  0  0  0
  -39.5424   64.2286   58.2920 O   0  5  0  0  0  0  0  0  0  0  0  0
  -38.6315   60.4275   58.7375 C   0  0  0  0  0  0  0  0  0  0  0  0
  -38.4514   62.2579   57.2561 O   0  0  0  0  0  0  0  0  0  0  0  0
  -38.4223   58.0183   58.1729 C   0  0  0  0  0  0  0  0  0  0  0  0
  -37.0063   64.0365   58.1663 O   0  0  0  0  0  0  0  0  0  0  0  0
  -39.0401   58.6854   60.4250 C   0  0  0  0  0  0  0  0  0  0  0  0
  -39.6306   61.6754   64.2463 O   0  0  0  0  0  0  0  0  0  0  0  0
  -36.7726   59.0725   59.6125 C   0  0  0  0  0  0  0  0  0  0  0  0
  -39.4598   59.5996   63.4520 O   0  0  0  0  0  0  0  0  0  0  0  0
  -40.0975   62.4190   63.0987 C   0  0  0  0  0  0  0  0  0  0  0  0
  -39.8706   60.3644   64.2700 C   0  0  0  0  0  0  0  0  0  0  0  0
  -40.7200   59.9800   65.4370 C   0  0  0  0  0  0  0  0  0  0  0  0
  -42.0280   59.3300   65.0270 C   0  0  0  0  0  0  0  0  0  0  0  0
  -42.8960   58.9560   66.2090 C   0  0  0  0  0  0  0  0  0  0  0  0
  -42.2531   57.9915   67.1776 C   0  0  0  0  0  0  0  0  0  0  0  0
  -40.9882   58.5136   67.8098 C   0  0  0  0  0  0  0  0  0  0  0  0
  -40.3667   57.5208   68.7550 C   0  0  0  0  0  0  0  0  0  0  0  0
  -39.1108   57.9787   69.4356 C   0  0  0  0  0  0  0  0  0  0  0  0
  -38.0329   58.3250   68.4980 C   0  0  0  0  0  0  0  0  0  0  0  0
  -36.8186   58.7427   68.7803 C   0  0  0  0  0  0  0  0  0  0  0  0
  -36.2125   58.9515   70.1195 C   0  0  0  0  0  0  0  0  0  0  0  0
  -35.7479   60.3633   70.4132 C   0  0  0  0  0  0  0  0  0  0  0  0
  -36.8676   61.3662   70.3624 C   0  0  0  0  0  0  0  0  0  0  0  0
  -37.9762   61.1226   71.3541 C   0  0  0  0  0  0  0  0  0  0  0  0
  -37.4944   61.1663   72.7875 C   0  0  0  0  0  0  0  0  0  0  0  0
  -36.8944   62.4768   73.2143 C   0  0  0  0  0  0  0  0  0  0  0  0
  -36.4224   62.4721   74.6130 C   0  0  0  0  0  0  0  0  0  0  0  0
  -37.4781   62.1803   75.5807 C   0  0  0  0  0  0  0  0  0  0  0  0
  -38.1660   62.5876   62.3771 H   0  0  0  0  0  0  0  0  0  0  0  0
  -39.8691   60.5157   61.3345 H   0  0  0  0  0  0  0  0  0  0  0  0
  -39.4146   64.0167   60.9292 H   0  0  0  0  0  0  0  0  0  0  0  0
  -40.3034   62.6568   60.3040 H   0  0  0  0  0  0  0  0  0  0  0  0
  -38.0696   60.2980   56.6824 H   0  0  0  0  0  0  0  0  0  0  0  0
  -36.8458   60.9858   57.6800 H   0  0  0  0  0  0  0  0  0  0  0  0
  -38.4695   61.1230   59.5343 H   0  0  0  0  0  0  0  0  0  0  0  0
  -39.6545   60.3295   58.4395 H   0  0  0  0  0  0  0  0  0  0  0  0
  -39.4540   57.9945   57.8901 H   0  0  0  0  0  0  0  0  0  0  0  0
  -38.1342   57.0602   58.5523 H   0  0  0  0  0  0  0  0  0  0  0  0
  -37.8239   58.2585   57.3191 H   0  0  0  0  0  0  0  0  0  0  0  0
  -36.8931   64.7413   58.8230 H   0  0  0  0  0  0  0  0  0  0  0  0
  -40.0756   58.6717   60.1558 H   0  0  0  0  0  0  0  0  0  0  0  0
  -38.8830   59.4042   61.2019 H   0  0  0  0  0  0  0  0  0  0  0  0
  -38.7489   57.7160   60.7719 H   0  0  0  0  0  0  0  0  0  0  0  0
  -36.1822   59.3365   58.7600 H   0  0  0  0  0  0  0  0  0  0  0  0
  -36.4834   58.1027   59.9601 H   0  0  0  0  0  0  0  0  0  0  0  0
  -36.6176   59.7910   60.3901 H   0  0  0  0  0  0  0  0  0  0  0  0
  -41.0579   62.0590   62.7939 H   0  0  0  0  0  0  0  0  0  0  0  0
  -40.1947   63.4587   63.3318 H   0  0  0  0  0  0  0  0  0  0  0  0
  -40.9394   60.8604   66.0042 H   0  0  0  0  0  0  0  0  0  0  0  0
  -40.1713   59.2627   66.0109 H   0  0  0  0  0  0  0  0  0  0  0  0
  -41.8086   58.4429   64.4703 H   0  0  0  0  0  0  0  0  0  0  0  0
  -42.5713   60.0428   64.4426 H   0  0  0  0  0  0  0  0  0  0  0  0
  -43.7930   58.5073   65.8363 H   0  0  0  0  0  0  0  0  0  0  0  0
  -43.0753   59.8597   66.7531 H   0  0  0  0  0  0  0  0  0  0  0  0
  -42.0192   57.0902   66.6505 H   0  0  0  0  0  0  0  0  0  0  0  0
  -42.9543   57.8333   67.9702 H   0  0  0  0  0  0  0  0  0  0  0  0
  -41.2185   59.4067   68.3522 H   0  0  0  0  0  0  0  0  0  0  0  0
  -40.2851   58.7014   67.0255 H   0  0  0  0  0  0  0  0  0  0  0  0
  -40.1372   56.6355   68.1997 H   0  0  0  0  0  0  0  0  0  0  0  0
  -41.0842   57.3664   69.5337 H   0  0  0  0  0  0  0  0  0  0  0  0
  -38.7653   57.1930   70.0747 H   0  0  0  0  0  0  0  0  0  0  0  0
  -39.3526   58.8665   69.9816 H   0  0  0  0  0  0  0  0  0  0  0  0
  -38.2567   58.2285   67.4952 H   0  0  0  0  0  0  0  0  0  0  0  0
  -36.2122   58.9510   67.9716 H   0  0  0  0  0  0  0  0  0  0  0  0
  -35.3663   58.3020   70.2031 H   0  0  0  0  0  0  0  0  0  0  0  0
  -36.9875   58.7444   70.8277 H   0  0  0  0  0  0  0  0  0  0  0  0
  -35.0094   60.6380   69.6893 H   0  0  0  0  0  0  0  0  0  0  0  0
  -35.3511   60.3724   71.4069 H   0  0  0  0  0  0  0  0  0  0  0  0
  -37.2892   61.3455   69.3792 H   0  0  0  0  0  0  0  0  0  0  0  0
  -36.4375   62.3126   70.6161 H   0  0  0  0  0  0  0  0  0  0  0  0
  -38.4002   60.1588   71.1642 H   0  0  0  0  0  0  0  0  0  0  0  0
  -38.6984   61.9026   71.2309 H   0  0  0  0  0  0  0  0  0  0  0  0
  -36.7529   60.4050   72.9121 H   0  0  0  0  0  0  0  0  0  0  0  0
  -38.3598   61.0192   73.3993 H   0  0  0  0  0  0  0  0  0  0  0  0
  -37.6358   63.2410   73.1082 H   0  0  0  0  0  0  0  0  0  0  0  0
  -36.0424   62.6543   72.5917 H   0  0  0  0  0  0  0  0  0  0  0  0
  -36.0142   63.4356   74.8365 H   0  0  0  0  0  0  0  0  0  0  0  0
  -35.6925   61.6943   74.6975 H   0  0  0  0  0  0  0  0  0  0  0  0
  -38.2308   62.9389   75.5269 H   0  0  0  0  0  0  0  0  0  0  0  0
  -37.0626   62.1593   76.5664 H   0  0  0  0  0  0  0  0  0  0  0  0
  -37.9139   61.2290   75.3570 H   0  0  0  0  0  0  0  0  0  0  0  0
  1  9  1  0  0  0  0
  1 11  1  0  0  0  0
  1 13  1  0  0  0  0
  1 15  1  0  0  0  0
  2  3  1  0  0  0  0
  2  5  1  0  0  0  0
  2 17  1  0  0  0  0
  2 36  1  1  0  0  0
  3 37  1  0  0  0  0
  4  6  1  0  0  0  0
  4  8  2  6  0  0  0
  4 10  1  0  0  0  0
  4 12  1  0  0  0  0
  5  6  1  0  0  0  0
  5 38  1  0  0  0  0
  5 39  1  0  0  0  0
  7  9  1  0  0  0  0
  7 10  1  0  0  0  0
  7 40  1  0  0  0  0
  7 41  1  0  0  0  0
  9 42  1  0  0  0  0
  9 43  1  0  0  0  0
 11 44  1  0  0  0  0
 11 45  1  0  0  0  0
 11 46  1  0  0  0  0
 12 47  1  0  0  0  0
 13 48  1  0  0  0  0
 13 49  1  0  0  0  0
 13 50  1  0  0  0  0
 14 17  1  0  0  0  0
 14 18  1  0  0  0  0
 15 51  1  0  0  0  0
 15 52  1  0  0  0  0
 15 53  1  0  0  0  0
 16 18  2  0  0  0  0
 17 54  1  0  0  0  0
 17 55  1  0  0  0  0
 18 19  1  0  0  0  0
 19 20  1  0  0  0  0
 19 56  1  0  0  0  0
 19 57  1  0  0  0  0
 20 21  1  0  0  0  0
 20 58  1  0  0  0  0
 20 59  1  0  0  0  0
 21 22  1  0  0  0  0
 21 60  1  0  0  0  0
 21 61  1  0  0  0  0
 22 23  1  0  0  0  0
 22 62  1  0  0  0  0
 22 63  1  0  0  0  0
 23 24  1  0  0  0  0
 23 64  1  0  0  0  0
 23 65  1  0  0  0  0
 24 25  1  0  0  0  0
 24 66  1  0  0  0  0
 24 67  1  0  0  0  0
 25 26  1  0  0  0  0
 25 68  1  0  0  0  0
 25 69  1  0  0  0  0
 26 27  2  0  0  0  0
 26 70  1  0  0  0  0
 27 28  1  0  0  0  0
 27 71  1  0  0  0  0
 28 29  1  0  0  0  0
 28 72  1  0  0  0  0
 28 73  1  0  0  0  0
 29 30  1  0  0  0  0
 29 74  1  0  0  0  0
 29 75  1  0  0  0  0
 30 31  1  0  0  0  0
 30 76  1  0  0  0  0
 30 77  1  0  0  0  0
 31 32  1  0  0  0  0
 31 78  1  0  0  0  0
 31 79  1  0  0  0  0
 32 33  1  0  0  0  0
 32 80  1  0  0  0  0
 32 81  1  0  0  0  0
 33 34  1  0  0  0  0
 33 82  1  0  0  0  0
 33 83  1  0  0  0  0
 34 35  1  0  0  0  0
 34 84  1  0  0  0  0
 34 85  1  0  0  0  0
 35 86  1  0  0  0  0
 35 87  1  0  0  0  0
 35 88  1  0  0  0  0
M  CHG  1   8  -1
M  END
$$$$