/media/chris/experiments/cd1a-new-docking/inputs/ligands/4x6c_ligand.pdb
 OpenBabel07012320263D

 88 87  0  0  1  0  0  0  0  0999 V2000
  -37.0417   63.5478   63.5462 N   0  0  0  0  0  4  0  0  0  0  0  0
  -41.4868   64.1512   66.8127 C   0  0  1  0  0  0  0  0  0  0  0  0
  -42.2319   65.0935   67.5841 O   0  0  0  0  0  0  0  0  0  0  0  0
  -38.2933   62.0147   67.5110 P   0  0  2  0  0  0  0  0  0  0  0  0
  -40.3336   63.6558   67.6512 C   0  0  0  0  0  0  0  0  0  0  0  0
  -39.5686   62.7161   66.8699 O   0  0  0  0  0  0  0  0  0  0  0  0
  -37.6942   61.5324   65.0020 C   0  0  0  0  0  0  0  0  0  0  0  0
  -37.3566   63.0892   67.8972 O   0  5  0  0  0  0  0  0  0  0  0  0
  -37.0507   62.8977   64.9155 C   0  0  0  0  0  0  0  0  0  0  0  0
  -37.5957   61.1352   66.3899 O   0  0  0  0  0  0  0  0  0  0  0  0
  -38.4326   63.7569   63.0397 C   0  0  0  0  0  0  0  0  0  0  0  0
  -38.7907   61.0875   68.5464 O   0  0  0  0  0  0  0  0  0  0  0  0
  -36.3087   62.6718   62.5814 C   0  0  0  0  0  0  0  0  0  0  0  0
  -41.6074   62.1433   65.5447 O   0  0  0  0  0  0  0  0  0  0  0  0
  -36.3567   64.8758   63.6262 C   0  0  0  0  0  0  0  0  0  0  0  0
  -40.5002   61.4048   67.3330 O   0  0  0  0  0  0  0  0  0  0  0  0
  -42.4146   63.0735   66.3005 C   0  0  0  0  0  0  0  0  0  0  0  0
  -40.9154   61.2318   66.2282 C   0  0  0  0  0  0  0  0  0  0  0  0
  -40.7200   59.9800   65.4370 C   0  0  0  0  0  0  0  0  0  0  0  0
  -42.0280   59.3300   65.0270 C   0  0  0  0  0  0  0  0  0  0  0  0
  -42.8960   58.9560   66.2090 C   0  0  0  0  0  0  0  0  0  0  0  0
  -44.2012   58.2902   65.8416 C   0  0  0  0  0  0  0  0  0  0  0  0
  -45.0623   57.9388   67.0279 C   0  0  0  0  0  0  0  0  0  0  0  0
  -45.4546   59.1497   67.8311 C   0  0  0  0  0  0  0  0  0  0  0  0
  -46.2524   60.1824   67.0913 C   0  0  0  0  0  0  0  0  0  0  0  0
  -47.5346   59.6741   66.5827 C   0  0  0  0  0  0  0  0  0  0  0  0
  -48.6545   60.3392   66.4035 C   0  0  0  0  0  0  0  0  0  0  0  0
  -48.9094   61.7815   66.6467 C   0  0  0  0  0  0  0  0  0  0  0  0
  -49.9918   62.0916   67.6604 C   0  0  0  0  0  0  0  0  0  0  0  0
  -49.6831   61.5434   69.0265 C   0  0  0  0  0  0  0  0  0  0  0  0
  -48.4205   62.0810   69.6500 C   0  0  0  0  0  0  0  0  0  0  0  0
  -48.1466   61.4865   71.0139 C   0  0  0  0  0  0  0  0  0  0  0  0
  -46.9066   61.9998   71.6911 C   0  0  0  0  0  0  0  0  0  0  0  0
  -45.6760   61.7568   70.9127 C   0  0  0  0  0  0  0  0  0  0  0  0
  -44.4658   62.2397   71.5748 C   0  0  0  0  0  0  0  0  0  0  0  0
  -41.0571   64.5919   65.9374 H   0  0  0  0  0  0  0  0  0  0  0  0
  -42.6017   64.6520   68.3646 H   0  0  0  0  0  0  0  0  0  0  0  0
  -40.7077   63.1739   68.5302 H   0  0  0  0  0  0  0  0  0  0  0  0
  -39.7145   64.4778   67.9442 H   0  0  0  0  0  0  0  0  0  0  0  0
  -37.1748   60.8358   64.3777 H   0  0  0  0  0  0  0  0  0  0  0  0
  -38.7115   61.5558   64.6712 H   0  0  0  0  0  0  0  0  0  0  0  0
  -37.5757   63.5490   65.5826 H   0  0  0  0  0  0  0  0  0  0  0  0
  -36.0218   62.7458   65.1671 H   0  0  0  0  0  0  0  0  0  0  0  0
  -38.9350   62.8143   62.9773 H   0  0  0  0  0  0  0  0  0  0  0  0
  -38.3951   64.2060   62.0692 H   0  0  0  0  0  0  0  0  0  0  0  0
  -38.9633   64.4002   63.7101 H   0  0  0  0  0  0  0  0  0  0  0  0
  -39.2252   61.5928   69.2512 H   0  0  0  0  0  0  0  0  0  0  0  0
  -36.7959   61.7211   62.5217 H   0  0  0  0  0  0  0  0  0  0  0  0
  -35.3017   62.5362   62.9169 H   0  0  0  0  0  0  0  0  0  0  0  0
  -36.3038   63.1314   61.6151 H   0  0  0  0  0  0  0  0  0  0  0  0
  -36.8789   65.5055   64.3160 H   0  0  0  0  0  0  0  0  0  0  0  0
  -36.3518   65.3335   62.6590 H   0  0  0  0  0  0  0  0  0  0  0  0
  -35.3498   64.7382   63.9608 H   0  0  0  0  0  0  0  0  0  0  0  0
  -43.1653   63.5039   65.6711 H   0  0  0  0  0  0  0  0  0  0  0  0
  -42.9084   62.5790   67.1107 H   0  0  0  0  0  0  0  0  0  0  0  0
  -40.1644   59.2843   66.0305 H   0  0  0  0  0  0  0  0  0  0  0  0
  -40.1985   60.2448   64.5410 H   0  0  0  0  0  0  0  0  0  0  0  0
  -41.8086   58.4429   64.4703 H   0  0  0  0  0  0  0  0  0  0  0  0
  -42.5713   60.0428   64.4426 H   0  0  0  0  0  0  0  0  0  0  0  0
  -43.1183   59.8483   66.7560 H   0  0  0  0  0  0  0  0  0  0  0  0
  -42.3406   58.2423   66.7808 H   0  0  0  0  0  0  0  0  0  0  0  0
  -43.9814   57.3901   65.3063 H   0  0  0  0  0  0  0  0  0  0  0  0
  -44.7539   58.9929   65.2537 H   0  0  0  0  0  0  0  0  0  0  0  0
  -44.5188   57.2683   67.6603 H   0  0  0  0  0  0  0  0  0  0  0  0
  -45.9594   57.4883   66.6576 H   0  0  0  0  0  0  0  0  0  0  0  0
  -44.5587   59.6157   68.1846 H   0  0  0  0  0  0  0  0  0  0  0  0
  -46.0905   58.7909   68.6133 H   0  0  0  0  0  0  0  0  0  0  0  0
  -45.6721   60.5297   66.2622 H   0  0  0  0  0  0  0  0  0  0  0  0
  -46.4756   60.9662   67.7847 H   0  0  0  0  0  0  0  0  0  0  0  0
  -47.5586   58.6723   66.3359 H   0  0  0  0  0  0  0  0  0  0  0  0
  -49.4547   59.7914   66.0504 H   0  0  0  0  0  0  0  0  0  0  0  0
  -49.1919   62.2276   65.7161 H   0  0  0  0  0  0  0  0  0  0  0  0
  -48.0024   62.1746   67.0564 H   0  0  0  0  0  0  0  0  0  0  0  0
  -50.9118   61.6643   67.3201 H   0  0  0  0  0  0  0  0  0  0  0  0
  -50.0575   63.1561   67.7470 H   0  0  0  0  0  0  0  0  0  0  0  0
  -49.5886   60.4806   68.9456 H   0  0  0  0  0  0  0  0  0  0  0  0
  -50.4877   61.8471   69.6630 H   0  0  0  0  0  0  0  0  0  0  0  0
  -48.5132   63.1422   69.7511 H   0  0  0  0  0  0  0  0  0  0  0  0
  -47.6047   61.8152   69.0108 H   0  0  0  0  0  0  0  0  0  0  0  0
  -48.0492   60.4269   70.9010 H   0  0  0  0  0  0  0  0  0  0  0  0
  -48.9686   61.7726   71.6363 H   0  0  0  0  0  0  0  0  0  0  0  0
  -46.8108   61.5134   72.6393 H   0  0  0  0  0  0  0  0  0  0  0  0
  -47.0149   63.0595   71.7921 H   0  0  0  0  0  0  0  0  0  0  0  0
  -45.7677   62.2534   69.9694 H   0  0  0  0  0  0  0  0  0  0  0  0
  -45.5752   60.6972   70.8037 H   0  0  0  0  0  0  0  0  0  0  0  0
  -44.5282   63.3002   71.7027 H   0  0  0  0  0  0  0  0  0  0  0  0
  -43.6122   62.0023   70.9749 H   0  0  0  0  0  0  0  0  0  0  0  0
  -44.3711   61.7700   72.5315 H   0  0  0  0  0  0  0  0  0  0  0  0
  1  9  1  0  0  0  0
  1 11  1  0  0  0  0
  1 13  1  0  0  0  0
  1 15  1  0  0  0  0
  2  3  1  0  0  0  0
  2  5  1  0  0  0  0
  2 17  1  0  0  0  0
  2 36  1  6  0  0  0
  3 37  1  0  0  0  0
  4  6  1  0  0  0  0
  4  8  2  1  0  0  0
  4 10  1  0  0  0  0
  4 12  1  0  0  0  0
  5  6  1  0  0  0  0
  5 38  1  0  0  0  0
  5 39  1  0  0  0  0
  7  9  1  0  0  0  0
  7 10  1  0  0  0  0
  7 40  1  0  0  0  0
  7 41  1  0  0  0  0
  9 42  1  0  0  0  0
  9 43  1  0  0  0  0
 11 44  1  0  0  0  0
 11 45  1  0  0  0  0
 11 46  1  0  0  0  0
 12 47  1  0  0  0  0
 13 48  1  0  0  0  0
 13 49  1  0  0  0  0
 13 50  1  0  0  0  0
 14 17  1  0  0  0  0
 14 18  1  0  0  0  0
 15 51  1  0  0  0  0
 15 52  1  0  0  0  0
 15 53  1  0  0  0  0
 16 18  2  0  0  0  0
 17 54  1  0  0  0  0
 17 55  1  0  0  0  0
 18 19  1  0  0  0  0
 19 20  1  0  0  0  0
 19 56  1  0  0  0  0
 19 57  1  0  0  0  0
 20 21  1  0  0  0  0
 20 58  1  0  0  0  0
 20 59  1  0  0  0  0
 21 22  1  0  0  0  0
 21 60  1  0  0  0  0
 21 61  1  0  0  0  0
 22 23  1  0  0  0  0
 22 62  1  0  0  0  0
 22 63  1  0  0  0  0
 23 24  1  0  0  0  0
 23 64  1  0  0  0  0
 23 65  1  0  0  0  0
 24 25  1  0  0  0  0
 24 66  1  0  0  0  0
 24 67  1  0  0  0  0
 25 26  1  0  0  0  0
 25 68  1  0  0  0  0
 25 69  1  0  0  0  0
 26 27  2  0  0  0  0
 26 70  1  0  0  0  0
 27 28  1  0  0  0  0
 27 71  1  0  0  0  0
 28 29  1  0  0  0  0
 28 72  1  0  0  0  0
 28 73  1  0  0  0  0
 29 30  1  0  0  0  0
 29 74  1  0  0  0  0
 29 75  1  0  0  0  0
 30 31  1  0  0  0  0
 30 76  1  0  0  0  0
 30 77  1  0  0  0  0
 31 32  1  0  0  0  0
 31 78  1  0  0  0  0
 31 79  1  0  0  0  0
 32 33  1  0  0  0  0
 32 80  1  0  0  0  0
 32 81  1  0  0  0  0
 33 34  1  0  0  0  0
 33 82  1  0  0  0  0
 33 83  1  0  0  0  0
 34 35  1  0  0  0  0
 34 84  1  0  0  0  0
 34 85  1  0  0  0  0
 35 86  1  0  0  0  0
 35 87  1  0  0  0  0
 35 88  1  0  0  0  0
M  CHG  1   8  -1
M  END
$$$$