/media/chris/experiments/cd1a-new-docking/inputs/ligands/4x6c_ligand.pdb
 OpenBabel07012320263D

 88 87  0  0  1  0  0  0  0  0999 V2000
  -33.3869   60.4835   55.6321 N   0  0  0  0  0  4  0  0  0  0  0  0
  -38.0113   62.0196   62.5395 C   0  0  1  0  0  0  0  0  0  0  0  0
  -37.8085   60.6098   62.4409 O   0  0  0  0  0  0  0  0  0  0  0  0
  -35.4839   62.9014   59.6959 P   0  0  2  0  0  0  0  0  0  0  0  0
  -37.5924   62.6528   61.2349 C   0  0  0  0  0  0  0  0  0  0  0  0
  -36.2036   62.3446   61.0003 O   0  0  0  0  0  0  0  0  0  0  0  0
  -34.3611   61.8894   57.5508 C   0  0  0  0  0  0  0  0  0  0  0  0
  -36.4893   63.6816   58.9465 O   0  5  0  0  0  0  0  0  0  0  0  0
  -34.1243   60.5198   56.9560 C   0  0  0  0  0  0  0  0  0  0  0  0
  -35.0555   61.6641   58.8001 O   0  0  0  0  0  0  0  0  0  0  0  0
  -34.1231   61.2541   54.5837 C   0  0  0  0  0  0  0  0  0  0  0  0
  -34.2442   63.5666   60.1428 O   0  0  0  0  0  0  0  0  0  0  0  0
  -33.2489   59.0666   55.1751 C   0  0  0  0  0  0  0  0  0  0  0  0
  -39.6306   61.6754   64.2463 O   0  0  0  0  0  0  0  0  0  0  0  0
  -32.0261   61.0831   55.7997 C   0  0  0  0  0  0  0  0  0  0  0  0
  -39.4598   59.5996   63.4520 O   0  0  0  0  0  0  0  0  0  0  0  0
  -39.4378   62.2956   62.9555 C   0  0  0  0  0  0  0  0  0  0  0  0
  -39.8706   60.3644   64.2700 C   0  0  0  0  0  0  0  0  0  0  0  0
  -40.7200   59.9800   65.4370 C   0  0  0  0  0  0  0  0  0  0  0  0
  -42.0280   59.3300   65.0270 C   0  0  0  0  0  0  0  0  0  0  0  0
  -42.8960   58.9560   66.2090 C   0  0  0  0  0  0  0  0  0  0  0  0
  -42.2531   57.9915   67.1776 C   0  0  0  0  0  0  0  0  0  0  0  0
  -40.9882   58.5136   67.8098 C   0  0  0  0  0  0  0  0  0  0  0  0
  -40.3667   57.5208   68.7550 C   0  0  0  0  0  0  0  0  0  0  0  0
  -39.1108   57.9787   69.4356 C   0  0  0  0  0  0  0  0  0  0  0  0
  -38.0329   58.3250   68.4980 C   0  0  0  0  0  0  0  0  0  0  0  0
  -36.8186   58.7427   68.7803 C   0  0  0  0  0  0  0  0  0  0  0  0
  -36.2125   58.9515   70.1195 C   0  0  0  0  0  0  0  0  0  0  0  0
  -36.1288   57.7199   70.9978 C   0  0  0  0  0  0  0  0  0  0  0  0
  -35.2933   56.6275   70.3889 C   0  0  0  0  0  0  0  0  0  0  0  0
  -35.1940   55.3737   71.2196 C   0  0  0  0  0  0  0  0  0  0  0  0
  -36.5408   54.7288   71.4625 C   0  0  0  0  0  0  0  0  0  0  0  0
  -37.2688   54.2959   70.2205 C   0  0  0  0  0  0  0  0  0  0  0  0
  -38.5843   53.6872   70.5001 C   0  0  0  0  0  0  0  0  0  0  0  0
  -38.5061   52.5026   71.3526 C   0  0  0  0  0  0  0  0  0  0  0  0
  -37.4050   62.4650   63.3004 H   0  0  0  0  0  0  0  0  0  0  0  0
  -38.3760   60.2497   61.7415 H   0  0  0  0  0  0  0  0  0  0  0  0
  -37.7220   63.7134   61.2908 H   0  0  0  0  0  0  0  0  0  0  0  0
  -38.1920   62.2726   60.4344 H   0  0  0  0  0  0  0  0  0  0  0  0
  -34.9615   62.4822   56.8928 H   0  0  0  0  0  0  0  0  0  0  0  0
  -33.4423   62.4167   57.7014 H   0  0  0  0  0  0  0  0  0  0  0  0
  -33.5559   59.9511   57.6620 H   0  0  0  0  0  0  0  0  0  0  0  0
  -35.0973   60.1238   56.7527 H   0  0  0  0  0  0  0  0  0  0  0  0
  -35.0992   60.8358   54.4532 H   0  0  0  0  0  0  0  0  0  0  0  0
  -33.5862   61.2018   53.6597 H   0  0  0  0  0  0  0  0  0  0  0  0
  -34.2108   62.2761   54.8880 H   0  0  0  0  0  0  0  0  0  0  0  0
  -34.4688   64.3314   60.6956 H   0  0  0  0  0  0  0  0  0  0  0  0
  -34.2204   58.6347   55.0542 H   0  0  0  0  0  0  0  0  0  0  0  0
  -32.6987   58.5088   55.9038 H   0  0  0  0  0  0  0  0  0  0  0  0
  -32.7290   59.0424   54.2402 H   0  0  0  0  0  0  0  0  0  0  0  0
  -32.1211   62.0974   56.1268 H   0  0  0  0  0  0  0  0  0  0  0  0
  -31.5072   61.0571   54.8642 H   0  0  0  0  0  0  0  0  0  0  0  0
  -31.4769   60.5234   56.5278 H   0  0  0  0  0  0  0  0  0  0  0  0
  -40.1161   61.8766   62.2418 H   0  0  0  0  0  0  0  0  0  0  0  0
  -39.6231   63.3482   63.0068 H   0  0  0  0  0  0  0  0  0  0  0  0
  -40.9394   60.8604   66.0042 H   0  0  0  0  0  0  0  0  0  0  0  0
  -40.1713   59.2627   66.0109 H   0  0  0  0  0  0  0  0  0  0  0  0
  -41.8086   58.4429   64.4703 H   0  0  0  0  0  0  0  0  0  0  0  0
  -42.5713   60.0428   64.4426 H   0  0  0  0  0  0  0  0  0  0  0  0
  -43.7930   58.5073   65.8363 H   0  0  0  0  0  0  0  0  0  0  0  0
  -43.0753   59.8597   66.7531 H   0  0  0  0  0  0  0  0  0  0  0  0
  -42.0192   57.0902   66.6505 H   0  0  0  0  0  0  0  0  0  0  0  0
  -42.9543   57.8333   67.9702 H   0  0  0  0  0  0  0  0  0  0  0  0
  -41.2185   59.4067   68.3522 H   0  0  0  0  0  0  0  0  0  0  0  0
  -40.2851   58.7014   67.0255 H   0  0  0  0  0  0  0  0  0  0  0  0
  -40.1372   56.6355   68.1997 H   0  0  0  0  0  0  0  0  0  0  0  0
  -41.0842   57.3664   69.5337 H   0  0  0  0  0  0  0  0  0  0  0  0
  -38.7653   57.1930   70.0747 H   0  0  0  0  0  0  0  0  0  0  0  0
  -39.3526   58.8665   69.9816 H   0  0  0  0  0  0  0  0  0  0  0  0
  -38.2567   58.2285   67.4952 H   0  0  0  0  0  0  0  0  0  0  0  0
  -36.2122   58.9510   67.9716 H   0  0  0  0  0  0  0  0  0  0  0  0
  -36.7971   59.6846   70.6350 H   0  0  0  0  0  0  0  0  0  0  0  0
  -35.2017   59.2532   69.9403 H   0  0  0  0  0  0  0  0  0  0  0  0
  -37.1183   57.3453   71.1571 H   0  0  0  0  0  0  0  0  0  0  0  0
  -35.6622   58.0094   71.9161 H   0  0  0  0  0  0  0  0  0  0  0  0
  -34.3043   57.0079   70.2400 H   0  0  0  0  0  0  0  0  0  0  0  0
  -35.7785   56.3483   69.4770 H   0  0  0  0  0  0  0  0  0  0  0  0
  -34.7577   55.6223   72.1645 H   0  0  0  0  0  0  0  0  0  0  0  0
  -34.5921   54.6735   70.6791 H   0  0  0  0  0  0  0  0  0  0  0  0
  -37.1577   55.4327   71.9809 H   0  0  0  0  0  0  0  0  0  0  0  0
  -36.3500   53.8382   72.0240 H   0  0  0  0  0  0  0  0  0  0  0  0
  -36.6649   53.5787   69.7048 H   0  0  0  0  0  0  0  0  0  0  0  0
  -37.4426   55.1724   69.6319 H   0  0  0  0  0  0  0  0  0  0  0  0
  -39.0328   53.4067   69.5700 H   0  0  0  0  0  0  0  0  0  0  0  0
  -39.1648   54.4166   71.0252 H   0  0  0  0  0  0  0  0  0  0  0  0
  -37.9308   51.7464   70.8606 H   0  0  0  0  0  0  0  0  0  0  0  0
  -39.4925   52.1337   71.5420 H   0  0  0  0  0  0  0  0  0  0  0  0
  -38.0377   52.7605   72.2795 H   0  0  0  0  0  0  0  0  0  0  0  0
  1  9  1  0  0  0  0
  1 11  1  0  0  0  0
  1 13  1  0  0  0  0
  1 15  1  0  0  0  0
  2  3  1  0  0  0  0
  2  5  1  0  0  0  0
  2 17  1  0  0  0  0
  2 36  1  1  0  0  0
  3 37  1  0  0  0  0
  4  6  1  0  0  0  0
  4  8  2  6  0  0  0
  4 10  1  0  0  0  0
  4 12  1  0  0  0  0
  5  6  1  0  0  0  0
  5 38  1  0  0  0  0
  5 39  1  0  0  0  0
  7  9  1  0  0  0  0
  7 10  1  0  0  0  0
  7 40  1  0  0  0  0
  7 41  1  0  0  0  0
  9 42  1  0  0  0  0
  9 43  1  0  0  0  0
 11 44  1  0  0  0  0
 11 45  1  0  0  0  0
 11 46  1  0  0  0  0
 12 47  1  0  0  0  0
 13 48  1  0  0  0  0
 13 49  1  0  0  0  0
 13 50  1  0  0  0  0
 14 17  1  0  0  0  0
 14 18  1  0  0  0  0
 15 51  1  0  0  0  0
 15 52  1  0  0  0  0
 15 53  1  0  0  0  0
 16 18  2  0  0  0  0
 17 54  1  0  0  0  0
 17 55  1  0  0  0  0
 18 19  1  0  0  0  0
 19 20  1  0  0  0  0
 19 56  1  0  0  0  0
 19 57  1  0  0  0  0
 20 21  1  0  0  0  0
 20 58  1  0  0  0  0
 20 59  1  0  0  0  0
 21 22  1  0  0  0  0
 21 60  1  0  0  0  0
 21 61  1  0  0  0  0
 22 23  1  0  0  0  0
 22 62  1  0  0  0  0
 22 63  1  0  0  0  0
 23 24  1  0  0  0  0
 23 64  1  0  0  0  0
 23 65  1  0  0  0  0
 24 25  1  0  0  0  0
 24 66  1  0  0  0  0
 24 67  1  0  0  0  0
 25 26  1  0  0  0  0
 25 68  1  0  0  0  0
 25 69  1  0  0  0  0
 26 27  2  0  0  0  0
 26 70  1  0  0  0  0
 27 28  1  0  0  0  0
 27 71  1  0  0  0  0
 28 29  1  0  0  0  0
 28 72  1  0  0  0  0
 28 73  1  0  0  0  0
 29 30  1  0  0  0  0
 29 74  1  0  0  0  0
 29 75  1  0  0  0  0
 30 31  1  0  0  0  0
 30 76  1  0  0  0  0
 30 77  1  0  0  0  0
 31 32  1  0  0  0  0
 31 78  1  0  0  0  0
 31 79  1  0  0  0  0
 32 33  1  0  0  0  0
 32 80  1  0  0  0  0
 32 81  1  0  0  0  0
 33 34  1  0  0  0  0
 33 82  1  0  0  0  0
 33 83  1  0  0  0  0
 34 35  1  0  0  0  0
 34 84  1  0  0  0  0
 34 85  1  0  0  0  0
 35 86  1  0  0  0  0
 35 87  1  0  0  0  0
 35 88  1  0  0  0  0
M  CHG  1   8  -1
M  END
$$$$