/media/chris/experiments/cd1a-new-docking/inputs/ligands/4x6c_ligand.pdb
 OpenBabel07012320263D

 88 87  0  0  1  0  0  0  0  0999 V2000
  -43.3975   65.7430   65.5309 N   0  0  0  0  0  4  0  0  0  0  0  0
  -40.5864   64.1180   67.0958 C   0  0  1  0  0  0  0  0  0  0  0  0
  -40.5096   64.7900   65.8386 O   0  0  0  0  0  0  0  0  0  0  0  0
  -43.9022   62.2353   66.2520 P   0  0  2  0  0  0  0  0  0  0  0  0
  -42.0205   63.7094   67.3300 C   0  0  0  0  0  0  0  0  0  0  0  0
  -42.4219   62.8164   66.2717 O   0  0  0  0  0  0  0  0  0  0  0  0
  -45.4884   64.2991   65.9185 C   0  0  0  0  0  0  0  0  0  0  0  0
  -43.8363   60.9041   65.6160 O   0  5  0  0  0  0  0  0  0  0  0  0
  -44.4177   65.1901   66.5062 C   0  0  0  0  0  0  0  0  0  0  0  0
  -44.7909   63.1747   65.3329 O   0  0  0  0  0  0  0  0  0  0  0  0
  -44.0535   66.5862   64.4851 C   0  0  0  0  0  0  0  0  0  0  0  0
  -44.4247   62.3502   67.6278 O   0  0  0  0  0  0  0  0  0  0  0  0
  -42.6863   64.6137   64.8571 C   0  0  0  0  0  0  0  0  0  0  0  0
  -39.9204   62.0973   66.0341 O   0  0  0  0  0  0  0  0  0  0  0  0
  -42.4028   66.5832   66.2685 C   0  0  0  0  0  0  0  0  0  0  0  0
  -41.8412   61.4362   66.9521 O   0  0  0  0  0  0  0  0  0  0  0  0
  -39.5859   62.9854   67.1238 C   0  0  0  0  0  0  0  0  0  0  0  0
  -40.9154   61.2318   66.2282 C   0  0  0  0  0  0  0  0  0  0  0  0
  -40.7200   59.9800   65.4370 C   0  0  0  0  0  0  0  0  0  0  0  0
  -42.0280   59.3300   65.0270 C   0  0  0  0  0  0  0  0  0  0  0  0
  -42.8960   58.9560   66.2090 C   0  0  0  0  0  0  0  0  0  0  0  0
  -44.2012   58.2902   65.8416 C   0  0  0  0  0  0  0  0  0  0  0  0
  -45.0623   57.9388   67.0279 C   0  0  0  0  0  0  0  0  0  0  0  0
  -45.4546   59.1497   67.8311 C   0  0  0  0  0  0  0  0  0  0  0  0
  -46.2524   60.1824   67.0913 C   0  0  0  0  0  0  0  0  0  0  0  0
  -47.5346   59.6741   66.5827 C   0  0  0  0  0  0  0  0  0  0  0  0
  -48.1880   60.0583   65.5084 C   0  0  0  0  0  0  0  0  0  0  0  0
  -47.7902   61.0897   64.5172 C   0  0  0  0  0  0  0  0  0  0  0  0
  -46.9764   60.5869   63.3423 C   0  0  0  0  0  0  0  0  0  0  0  0
  -46.5939   61.6846   62.3879 C   0  0  0  0  0  0  0  0  0  0  0  0
  -45.7964   61.2298   61.1925 C   0  0  0  0  0  0  0  0  0  0  0  0
  -46.5464   60.2311   60.3389 C   0  0  0  0  0  0  0  0  0  0  0  0
  -45.7911   59.7296   59.1397 C   0  0  0  0  0  0  0  0  0  0  0  0
  -45.3939   60.8060   58.2109 C   0  0  0  0  0  0  0  0  0  0  0  0
  -44.5134   61.8015   58.8189 C   0  0  0  0  0  0  0  0  0  0  0  0
  -40.3154   64.7531   67.9132 H   0  0  0  0  0  0  0  0  0  0  0  0
  -40.7627   64.1787   65.1293 H   0  0  0  0  0  0  0  0  0  0  0  0
  -42.6475   64.5765   67.3276 H   0  0  0  0  0  0  0  0  0  0  0  0
  -42.1115   63.2193   68.2768 H   0  0  0  0  0  0  0  0  0  0  0  0
  -46.0408   64.8260   65.1686 H   0  0  0  0  0  0  0  0  0  0  0  0
  -46.1887   63.9827   66.6630 H   0  0  0  0  0  0  0  0  0  0  0  0
  -44.9044   66.0197   66.9749 H   0  0  0  0  0  0  0  0  0  0  0  0
  -43.8639   64.5676   67.1775 H   0  0  0  0  0  0  0  0  0  0  0  0
  -44.7683   65.9976   63.9490 H   0  0  0  0  0  0  0  0  0  0  0  0
  -43.3123   66.9530   63.8061 H   0  0  0  0  0  0  0  0  0  0  0  0
  -44.5493   67.4116   64.9518 H   0  0  0  0  0  0  0  0  0  0  0  0
  -43.9028   61.7865   68.2200 H   0  0  0  0  0  0  0  0  0  0  0  0
  -43.3948   64.0107   64.3285 H   0  0  0  0  0  0  0  0  0  0  0  0
  -42.1880   64.0168   65.5921 H   0  0  0  0  0  0  0  0  0  0  0  0
  -41.9671   65.0053   64.1684 H   0  0  0  0  0  0  0  0  0  0  0  0
  -42.9086   67.3927   66.7521 H   0  0  0  0  0  0  0  0  0  0  0  0
  -41.6839   66.9731   65.5786 H   0  0  0  0  0  0  0  0  0  0  0  0
  -41.9048   65.9845   67.0023 H   0  0  0  0  0  0  0  0  0  0  0  0
  -39.6485   62.4631   68.0556 H   0  0  0  0  0  0  0  0  0  0  0  0
  -38.5875   63.3560   67.0209 H   0  0  0  0  0  0  0  0  0  0  0  0
  -40.1644   59.2843   66.0305 H   0  0  0  0  0  0  0  0  0  0  0  0
  -40.1985   60.2448   64.5410 H   0  0  0  0  0  0  0  0  0  0  0  0
  -41.8086   58.4429   64.4703 H   0  0  0  0  0  0  0  0  0  0  0  0
  -42.5713   60.0428   64.4426 H   0  0  0  0  0  0  0  0  0  0  0  0
  -43.1183   59.8483   66.7560 H   0  0  0  0  0  0  0  0  0  0  0  0
  -42.3406   58.2423   66.7808 H   0  0  0  0  0  0  0  0  0  0  0  0
  -43.9814   57.3901   65.3063 H   0  0  0  0  0  0  0  0  0  0  0  0
  -44.7539   58.9929   65.2537 H   0  0  0  0  0  0  0  0  0  0  0  0
  -44.5188   57.2683   67.6603 H   0  0  0  0  0  0  0  0  0  0  0  0
  -45.9594   57.4883   66.6576 H   0  0  0  0  0  0  0  0  0  0  0  0
  -44.5587   59.6157   68.1846 H   0  0  0  0  0  0  0  0  0  0  0  0
  -46.0905   58.7909   68.6133 H   0  0  0  0  0  0  0  0  0  0  0  0
  -45.6721   60.5297   66.2622 H   0  0  0  0  0  0  0  0  0  0  0  0
  -46.4756   60.9662   67.7847 H   0  0  0  0  0  0  0  0  0  0  0  0
  -47.9759   58.9235   67.1367 H   0  0  0  0  0  0  0  0  0  0  0  0
  -49.0880   59.5849   65.3326 H   0  0  0  0  0  0  0  0  0  0  0  0
  -47.2100   61.8302   65.0270 H   0  0  0  0  0  0  0  0  0  0  0  0
  -48.7023   61.4656   64.1028 H   0  0  0  0  0  0  0  0  0  0  0  0
  -47.5543   59.8588   62.8124 H   0  0  0  0  0  0  0  0  0  0  0  0
  -46.0721   60.1679   63.7317 H   0  0  0  0  0  0  0  0  0  0  0  0
  -46.0105   62.4039   62.9238 H   0  0  0  0  0  0  0  0  0  0  0  0
  -47.5093   62.0857   62.0059 H   0  0  0  0  0  0  0  0  0  0  0  0
  -44.8914   60.7748   61.5372 H   0  0  0  0  0  0  0  0  0  0  0  0
  -45.5999   62.0902   60.5876 H   0  0  0  0  0  0  0  0  0  0  0  0
  -47.4455   60.6975   59.9941 H   0  0  0  0  0  0  0  0  0  0  0  0
  -46.7229   59.3781   60.9603 H   0  0  0  0  0  0  0  0  0  0  0  0
  -46.4126   59.0369   58.6116 H   0  0  0  0  0  0  0  0  0  0  0  0
  -44.8931   59.2714   59.4982 H   0  0  0  0  0  0  0  0  0  0  0  0
  -46.2782   61.3004   57.8666 H   0  0  0  0  0  0  0  0  0  0  0  0
  -44.8492   60.3486   57.4115 H   0  0  0  0  0  0  0  0  0  0  0  0
  -45.0239   62.2835   59.6264 H   0  0  0  0  0  0  0  0  0  0  0  0
  -44.2385   62.5302   58.0852 H   0  0  0  0  0  0  0  0  0  0  0  0
  -43.6332   61.3197   59.1904 H   0  0  0  0  0  0  0  0  0  0  0  0
  1  9  1  0  0  0  0
  1 11  1  0  0  0  0
  1 13  1  0  0  0  0
  1 15  1  0  0  0  0
  2  3  1  0  0  0  0
  2  5  1  0  0  0  0
  2 17  1  0  0  0  0
  2 36  1  1  0  0  0
  3 37  1  0  0  0  0
  4  6  1  0  0  0  0
  4  8  2  6  0  0  0
  4 10  1  0  0  0  0
  4 12  1  0  0  0  0
  5  6  1  0  0  0  0
  5 38  1  0  0  0  0
  5 39  1  0  0  0  0
  7  9  1  0  0  0  0
  7 10  1  0  0  0  0
  7 40  1  0  0  0  0
  7 41  1  0  0  0  0
  9 42  1  0  0  0  0
  9 43  1  0  0  0  0
 11 44  1  0  0  0  0
 11 45  1  0  0  0  0
 11 46  1  0  0  0  0
 12 47  1  0  0  0  0
 13 48  1  0  0  0  0
 13 49  1  0  0  0  0
 13 50  1  0  0  0  0
 14 17  1  0  0  0  0
 14 18  1  0  0  0  0
 15 51  1  0  0  0  0
 15 52  1  0  0  0  0
 15 53  1  0  0  0  0
 16 18  2  0  0  0  0
 17 54  1  0  0  0  0
 17 55  1  0  0  0  0
 18 19  1  0  0  0  0
 19 20  1  0  0  0  0
 19 56  1  0  0  0  0
 19 57  1  0  0  0  0
 20 21  1  0  0  0  0
 20 58  1  0  0  0  0
 20 59  1  0  0  0  0
 21 22  1  0  0  0  0
 21 60  1  0  0  0  0
 21 61  1  0  0  0  0
 22 23  1  0  0  0  0
 22 62  1  0  0  0  0
 22 63  1  0  0  0  0
 23 24  1  0  0  0  0
 23 64  1  0  0  0  0
 23 65  1  0  0  0  0
 24 25  1  0  0  0  0
 24 66  1  0  0  0  0
 24 67  1  0  0  0  0
 25 26  1  0  0  0  0
 25 68  1  0  0  0  0
 25 69  1  0  0  0  0
 26 27  2  0  0  0  0
 26 70  1  0  0  0  0
 27 28  1  0  0  0  0
 27 71  1  0  0  0  0
 28 29  1  0  0  0  0
 28 72  1  0  0  0  0
 28 73  1  0  0  0  0
 29 30  1  0  0  0  0
 29 74  1  0  0  0  0
 29 75  1  0  0  0  0
 30 31  1  0  0  0  0
 30 76  1  0  0  0  0
 30 77  1  0  0  0  0
 31 32  1  0  0  0  0
 31 78  1  0  0  0  0
 31 79  1  0  0  0  0
 32 33  1  0  0  0  0
 32 80  1  0  0  0  0
 32 81  1  0  0  0  0
 33 34  1  0  0  0  0
 33 82  1  0  0  0  0
 33 83  1  0  0  0  0
 34 35  1  0  0  0  0
 34 84  1  0  0  0  0
 34 85  1  0  0  0  0
 35 86  1  0  0  0  0
 35 87  1  0  0  0  0
 35 88  1  0  0  0  0
M  CHG  1   8  -1
M  END
$$$$