/media/chris/experiments/cd1a-new-docking/inputs/ligands/4x6c_ligand.pdb
 OpenBabel07012320263D

 88 87  0  0  1  0  0  0  0  0999 V2000
  -43.8693   64.0349   58.0799 N   0  0  0  0  0  4  0  0  0  0  0  0
  -41.6328   59.6343   62.1613 C   0  0  1  0  0  0  0  0  0  0  0  0
  -42.8591   59.9657   62.8129 O   0  0  0  0  0  0  0  0  0  0  0  0
  -41.9926   61.3917   59.6831 P   0  0  2  0  0  0  0  0  0  0  0  0
  -41.9569   59.0279   60.8176 C   0  0  0  0  0  0  0  0  0  0  0  0
  -42.6792   60.0015   60.0370 O   0  0  0  0  0  0  0  0  0  0  0  0
  -42.4262   63.9269   60.2042 C   0  0  0  0  0  0  0  0  0  0  0  0
  -40.6452   61.3754   60.2876 O   0  5  0  0  0  0  0  0  0  0  0  0
  -42.5043   64.1969   58.7187 C   0  0  0  0  0  0  0  0  0  0  0  0
  -42.8281   62.5477   60.3779 O   0  0  0  0  0  0  0  0  0  0  0  0
  -44.8621   64.9754   58.6838 C   0  0  0  0  0  0  0  0  0  0  0  0
  -42.1244   61.5744   58.2242 O   0  0  0  0  0  0  0  0  0  0  0  0
  -44.3533   62.6348   58.2821 C   0  0  0  0  0  0  0  0  0  0  0  0
  -40.4864   61.2455   63.4818 O   0  0  0  0  0  0  0  0  0  0  0  0
  -43.7732   64.3173   56.6134 C   0  0  0  0  0  0  0  0  0  0  0  0
  -38.7779   59.9349   64.0588 O   0  0  0  0  0  0  0  0  0  0  0  0
  -40.7414   60.8540   62.1144 C   0  0  0  0  0  0  0  0  0  0  0  0
  -39.8706   60.3644   64.2700 C   0  0  0  0  0  0  0  0  0  0  0  0
  -40.7200   59.9800   65.4370 C   0  0  0  0  0  0  0  0  0  0  0  0
  -42.0280   59.3300   65.0270 C   0  0  0  0  0  0  0  0  0  0  0  0
  -42.8960   58.9560   66.2090 C   0  0  0  0  0  0  0  0  0  0  0  0
  -44.2012   58.2902   65.8416 C   0  0  0  0  0  0  0  0  0  0  0  0
  -45.0623   57.9388   67.0279 C   0  0  0  0  0  0  0  0  0  0  0  0
  -45.4546   59.1497   67.8311 C   0  0  0  0  0  0  0  0  0  0  0  0
  -46.3003   58.8748   69.0392 C   0  0  0  0  0  0  0  0  0  0  0  0
  -46.6704   60.0893   69.7802 C   0  0  0  0  0  0  0  0  0  0  0  0
  -46.0217   60.6620   70.7700 C   0  0  0  0  0  0  0  0  0  0  0  0
  -44.7351   60.2443   71.3820 C   0  0  0  0  0  0  0  0  0  0  0  0
  -44.4447   58.7579   71.3417 C   0  0  0  0  0  0  0  0  0  0  0  0
  -43.1360   58.4035   71.9926 C   0  0  0  0  0  0  0  0  0  0  0  0
  -41.9285   59.0653   71.3797 C   0  0  0  0  0  0  0  0  0  0  0  0
  -41.7584   58.7239   69.9157 C   0  0  0  0  0  0  0  0  0  0  0  0
  -40.5586   59.3443   69.2559 C   0  0  0  0  0  0  0  0  0  0  0  0
  -40.5647   60.8196   69.3073 C   0  0  0  0  0  0  0  0  0  0  0  0
  -41.7316   61.4178   68.6618 C   0  0  0  0  0  0  0  0  0  0  0  0
  -41.0733   58.8974   62.6988 H   0  0  0  0  0  0  0  0  0  0  0  0
  -43.3312   60.6345   62.2926 H   0  0  0  0  0  0  0  0  0  0  0  0
  -42.5599   58.1543   60.9521 H   0  0  0  0  0  0  0  0  0  0  0  0
  -41.0545   58.7512   60.3136 H   0  0  0  0  0  0  0  0  0  0  0  0
  -43.0886   64.5774   60.7361 H   0  0  0  0  0  0  0  0  0  0  0  0
  -41.4409   64.0999   60.5839 H   0  0  0  0  0  0  0  0  0  0  0  0
  -42.1836   65.2041   58.5527 H   0  0  0  0  0  0  0  0  0  0  0  0
  -41.8837   63.4557   58.2600 H   0  0  0  0  0  0  0  0  0  0  0  0
  -44.9412   64.7847   59.7337 H   0  0  0  0  0  0  0  0  0  0  0  0
  -45.8166   64.8313   58.2222 H   0  0  0  0  0  0  0  0  0  0  0  0
  -44.5390   65.9835   58.5278 H   0  0  0  0  0  0  0  0  0  0  0  0
  -41.6239   60.8819   57.7652 H   0  0  0  0  0  0  0  0  0  0  0  0
  -44.4232   62.4295   59.3299 H   0  0  0  0  0  0  0  0  0  0  0  0
  -43.6658   61.9510   57.8297 H   0  0  0  0  0  0  0  0  0  0  0  0
  -45.3172   62.5221   57.8315 H   0  0  0  0  0  0  0  0  0  0  0  0
  -43.4270   65.3188   56.4650 H   0  0  0  0  0  0  0  0  0  0  0  0
  -44.7376   64.2030   56.1643 H   0  0  0  0  0  0  0  0  0  0  0  0
  -43.0863   63.6319   56.1625 H   0  0  0  0  0  0  0  0  0  0  0  0
  -41.2322   61.6475   61.5907 H   0  0  0  0  0  0  0  0  0  0  0  0
  -39.8268   60.6383   61.6027 H   0  0  0  0  0  0  0  0  0  0  0  0
  -40.9394   60.8604   66.0042 H   0  0  0  0  0  0  0  0  0  0  0  0
  -40.1713   59.2627   66.0109 H   0  0  0  0  0  0  0  0  0  0  0  0
  -41.8086   58.4429   64.4703 H   0  0  0  0  0  0  0  0  0  0  0  0
  -42.5713   60.0428   64.4426 H   0  0  0  0  0  0  0  0  0  0  0  0
  -43.1183   59.8483   66.7560 H   0  0  0  0  0  0  0  0  0  0  0  0
  -42.3406   58.2423   66.7808 H   0  0  0  0  0  0  0  0  0  0  0  0
  -43.9814   57.3901   65.3063 H   0  0  0  0  0  0  0  0  0  0  0  0
  -44.7539   58.9929   65.2537 H   0  0  0  0  0  0  0  0  0  0  0  0
  -44.5188   57.2683   67.6603 H   0  0  0  0  0  0  0  0  0  0  0  0
  -45.9594   57.4883   66.6576 H   0  0  0  0  0  0  0  0  0  0  0  0
  -46.0008   59.8088   67.1891 H   0  0  0  0  0  0  0  0  0  0  0  0
  -44.5411   59.5673   68.1999 H   0  0  0  0  0  0  0  0  0  0  0  0
  -45.7546   58.2298   69.6958 H   0  0  0  0  0  0  0  0  0  0  0  0
  -47.2081   58.4256   68.6943 H   0  0  0  0  0  0  0  0  0  0  0  0
  -47.5470   60.5486   69.4875 H   0  0  0  0  0  0  0  0  0  0  0  0
  -46.4608   61.5056   71.1708 H   0  0  0  0  0  0  0  0  0  0  0  0
  -44.7430   60.5509   72.4071 H   0  0  0  0  0  0  0  0  0  0  0  0
  -43.9681   60.7090   70.7982 H   0  0  0  0  0  0  0  0  0  0  0  0
  -44.4150   58.4427   70.3197 H   0  0  0  0  0  0  0  0  0  0  0  0
  -45.2209   58.2625   71.8867 H   0  0  0  0  0  0  0  0  0  0  0  0
  -43.0059   57.3436   71.9241 H   0  0  0  0  0  0  0  0  0  0  0  0
  -43.1947   58.7559   73.0012 H   0  0  0  0  0  0  0  0  0  0  0  0
  -41.0560   58.7451   71.9099 H   0  0  0  0  0  0  0  0  0  0  0  0
  -42.0676   60.1238   71.4516 H   0  0  0  0  0  0  0  0  0  0  0  0
  -42.6323   59.0538   69.3939 H   0  0  0  0  0  0  0  0  0  0  0  0
  -41.6119   57.6650   69.8698 H   0  0  0  0  0  0  0  0  0  0  0  0
  -40.5390   59.0398   68.2304 H   0  0  0  0  0  0  0  0  0  0  0  0
  -39.6938   59.0110   69.7907 H   0  0  0  0  0  0  0  0  0  0  0  0
  -39.6842   61.1797   68.8175 H   0  0  0  0  0  0  0  0  0  0  0  0
  -40.5964   61.0997   70.3396 H   0  0  0  0  0  0  0  0  0  0  0  0
  -41.7361   61.1598   67.6234 H   0  0  0  0  0  0  0  0  0  0  0  0
  -41.6896   62.4820   68.7647 H   0  0  0  0  0  0  0  0  0  0  0  0
  -42.6232   61.0496   69.1247 H   0  0  0  0  0  0  0  0  0  0  0  0
  1  9  1  0  0  0  0
  1 11  1  0  0  0  0
  1 13  1  0  0  0  0
  1 15  1  0  0  0  0
  2  3  1  0  0  0  0
  2  5  1  0  0  0  0
  2 17  1  0  0  0  0
  2 36  1  1  0  0  0
  3 37  1  0  0  0  0
  4  6  1  0  0  0  0
  4  8  2  1  0  0  0
  4 10  1  0  0  0  0
  4 12  1  0  0  0  0
  5  6  1  0  0  0  0
  5 38  1  0  0  0  0
  5 39  1  0  0  0  0
  7  9  1  0  0  0  0
  7 10  1  0  0  0  0
  7 40  1  0  0  0  0
  7 41  1  0  0  0  0
  9 42  1  0  0  0  0
  9 43  1  0  0  0  0
 11 44  1  0  0  0  0
 11 45  1  0  0  0  0
 11 46  1  0  0  0  0
 12 47  1  0  0  0  0
 13 48  1  0  0  0  0
 13 49  1  0  0  0  0
 13 50  1  0  0  0  0
 14 17  1  0  0  0  0
 14 18  1  0  0  0  0
 15 51  1  0  0  0  0
 15 52  1  0  0  0  0
 15 53  1  0  0  0  0
 16 18  2  0  0  0  0
 17 54  1  0  0  0  0
 17 55  1  0  0  0  0
 18 19  1  0  0  0  0
 19 20  1  0  0  0  0
 19 56  1  0  0  0  0
 19 57  1  0  0  0  0
 20 21  1  0  0  0  0
 20 58  1  0  0  0  0
 20 59  1  0  0  0  0
 21 22  1  0  0  0  0
 21 60  1  0  0  0  0
 21 61  1  0  0  0  0
 22 23  1  0  0  0  0
 22 62  1  0  0  0  0
 22 63  1  0  0  0  0
 23 24  1  0  0  0  0
 23 64  1  0  0  0  0
 23 65  1  0  0  0  0
 24 25  1  0  0  0  0
 24 66  1  0  0  0  0
 24 67  1  0  0  0  0
 25 26  1  0  0  0  0
 25 68  1  0  0  0  0
 25 69  1  0  0  0  0
 26 27  2  0  0  0  0
 26 70  1  0  0  0  0
 27 28  1  0  0  0  0
 27 71  1  0  0  0  0
 28 29  1  0  0  0  0
 28 72  1  0  0  0  0
 28 73  1  0  0  0  0
 29 30  1  0  0  0  0
 29 74  1  0  0  0  0
 29 75  1  0  0  0  0
 30 31  1  0  0  0  0
 30 76  1  0  0  0  0
 30 77  1  0  0  0  0
 31 32  1  0  0  0  0
 31 78  1  0  0  0  0
 31 79  1  0  0  0  0
 32 33  1  0  0  0  0
 32 80  1  0  0  0  0
 32 81  1  0  0  0  0
 33 34  1  0  0  0  0
 33 82  1  0  0  0  0
 33 83  1  0  0  0  0
 34 35  1  0  0  0  0
 34 84  1  0  0  0  0
 34 85  1  0  0  0  0
 35 86  1  0  0  0  0
 35 87  1  0  0  0  0
 35 88  1  0  0  0  0
M  CHG  1   8  -1
M  END
$$$$