/media/chris/experiments/cd1a-new-docking/inputs/ligands/4x6c_ligand.pdb
 OpenBabel07012320263D

 88 87  0  0  1  0  0  0  0  0999 V2000
  -31.6667   63.1373   71.1665 N   0  0  0  0  0  4  0  0  0  0  0  0
  -37.8117   62.0408   65.7336 C   0  0  1  0  0  0  0  0  0  0  0  0
  -37.9242   60.6991   66.2085 O   0  0  0  0  0  0  0  0  0  0  0  0
  -34.7419   62.9155   67.9836 P   0  0  2  0  0  0  0  0  0  0  0  0
  -36.4049   62.5215   65.9948 C   0  0  0  0  0  0  0  0  0  0  0  0
  -36.1517   62.4510   67.4125 O   0  0  0  0  0  0  0  0  0  0  0  0
  -32.7272   61.8017   69.2434 C   0  0  0  0  0  0  0  0  0  0  0  0
  -33.9314   63.3559   66.8302 O   0  5  0  0  0  0  0  0  0  0  0  0
  -32.9091   62.7952   70.3684 C   0  0  0  0  0  0  0  0  0  0  0  0
  -34.0297   61.6541   68.6307 O   0  0  0  0  0  0  0  0  0  0  0  0
  -31.0802   61.9170   71.8003 C   0  0  0  0  0  0  0  0  0  0  0  0
  -35.0166   63.8696   69.0760 O   0  0  0  0  0  0  0  0  0  0  0  0
  -32.0171   64.1134   72.2435 C   0  0  0  0  0  0  0  0  0  0  0  0
  -39.6306   61.6754   64.2463 O   0  0  0  0  0  0  0  0  0  0  0  0
  -30.6419   63.7466   70.2622 C   0  0  0  0  0  0  0  0  0  0  0  0
  -39.4598   59.5996   63.4520 O   0  0  0  0  0  0  0  0  0  0  0  0
  -38.2508   62.1024   64.2887 C   0  0  0  0  0  0  0  0  0  0  0  0
  -39.8706   60.3644   64.2700 C   0  0  0  0  0  0  0  0  0  0  0  0
  -40.7200   59.9800   65.4370 C   0  0  0  0  0  0  0  0  0  0  0  0
  -42.0280   59.3300   65.0270 C   0  0  0  0  0  0  0  0  0  0  0  0
  -42.8960   58.9560   66.2090 C   0  0  0  0  0  0  0  0  0  0  0  0
  -42.2531   57.9915   67.1776 C   0  0  0  0  0  0  0  0  0  0  0  0
  -40.9882   58.5136   67.8098 C   0  0  0  0  0  0  0  0  0  0  0  0
  -40.3667   57.5208   68.7550 C   0  0  0  0  0  0  0  0  0  0  0  0
  -39.1108   57.9787   69.4356 C   0  0  0  0  0  0  0  0  0  0  0  0
  -38.0329   58.3250   68.4980 C   0  0  0  0  0  0  0  0  0  0  0  0
  -36.8186   58.7427   68.7803 C   0  0  0  0  0  0  0  0  0  0  0  0
  -36.2125   58.9515   70.1195 C   0  0  0  0  0  0  0  0  0  0  0  0
  -36.1288   57.7199   70.9978 C   0  0  0  0  0  0  0  0  0  0  0  0
  -35.2933   56.6275   70.3889 C   0  0  0  0  0  0  0  0  0  0  0  0
  -35.1940   55.3737   71.2196 C   0  0  0  0  0  0  0  0  0  0  0  0
  -36.5408   54.7288   71.4625 C   0  0  0  0  0  0  0  0  0  0  0  0
  -37.2688   54.2959   70.2205 C   0  0  0  0  0  0  0  0  0  0  0  0
  -38.5843   53.6872   70.5001 C   0  0  0  0  0  0  0  0  0  0  0  0
  -38.5061   52.5026   71.3526 C   0  0  0  0  0  0  0  0  0  0  0  0
  -38.4623   62.7120   66.2543 H   0  0  0  0  0  0  0  0  0  0  0  0
  -37.3190   60.1280   65.7101 H   0  0  0  0  0  0  0  0  0  0  0  0
  -36.3010   63.5323   65.6597 H   0  0  0  0  0  0  0  0  0  0  0  0
  -35.7046   61.9083   65.4670 H   0  0  0  0  0  0  0  0  0  0  0  0
  -32.3879   60.8624   69.6275 H   0  0  0  0  0  0  0  0  0  0  0  0
  -31.9965   62.1370   68.5374 H   0  0  0  0  0  0  0  0  0  0  0  0
  -33.2852   63.7029   69.9447 H   0  0  0  0  0  0  0  0  0  0  0  0
  -33.5741   62.3240   71.0617 H   0  0  0  0  0  0  0  0  0  0  0  0
  -31.8030   61.4704   72.4506 H   0  0  0  0  0  0  0  0  0  0  0  0
  -30.2131   62.1900   72.3647 H   0  0  0  0  0  0  0  0  0  0  0  0
  -30.8046   61.2173   71.0392 H   0  0  0  0  0  0  0  0  0  0  0  0
  -35.4539   64.6568   68.7154 H   0  0  0  0  0  0  0  0  0  0  0  0
  -32.7499   63.6809   72.8922 H   0  0  0  0  0  0  0  0  0  0  0  0
  -32.4127   65.0044   71.8024 H   0  0  0  0  0  0  0  0  0  0  0  0
  -31.1395   64.3535   72.8066 H   0  0  0  0  0  0  0  0  0  0  0  0
  -30.3887   63.0505   69.4900 H   0  0  0  0  0  0  0  0  0  0  0  0
  -29.7655   63.9870   70.8270 H   0  0  0  0  0  0  0  0  0  0  0  0
  -31.0386   64.6379   69.8228 H   0  0  0  0  0  0  0  0  0  0  0  0
  -37.6462   61.4507   63.6931 H   0  0  0  0  0  0  0  0  0  0  0  0
  -38.1465   63.0941   63.9005 H   0  0  0  0  0  0  0  0  0  0  0  0
  -40.9394   60.8604   66.0042 H   0  0  0  0  0  0  0  0  0  0  0  0
  -40.1713   59.2627   66.0109 H   0  0  0  0  0  0  0  0  0  0  0  0
  -41.8086   58.4429   64.4703 H   0  0  0  0  0  0  0  0  0  0  0  0
  -42.5713   60.0428   64.4426 H   0  0  0  0  0  0  0  0  0  0  0  0
  -43.7930   58.5073   65.8363 H   0  0  0  0  0  0  0  0  0  0  0  0
  -43.0753   59.8597   66.7531 H   0  0  0  0  0  0  0  0  0  0  0  0
  -42.0192   57.0902   66.6505 H   0  0  0  0  0  0  0  0  0  0  0  0
  -42.9543   57.8333   67.9702 H   0  0  0  0  0  0  0  0  0  0  0  0
  -41.2185   59.4067   68.3522 H   0  0  0  0  0  0  0  0  0  0  0  0
  -40.2851   58.7014   67.0255 H   0  0  0  0  0  0  0  0  0  0  0  0
  -40.1372   56.6355   68.1997 H   0  0  0  0  0  0  0  0  0  0  0  0
  -41.0842   57.3664   69.5337 H   0  0  0  0  0  0  0  0  0  0  0  0
  -38.7653   57.1930   70.0747 H   0  0  0  0  0  0  0  0  0  0  0  0
  -39.3526   58.8665   69.9816 H   0  0  0  0  0  0  0  0  0  0  0  0
  -38.2567   58.2285   67.4952 H   0  0  0  0  0  0  0  0  0  0  0  0
  -36.2122   58.9510   67.9716 H   0  0  0  0  0  0  0  0  0  0  0  0
  -36.7971   59.6846   70.6350 H   0  0  0  0  0  0  0  0  0  0  0  0
  -35.2017   59.2532   69.9403 H   0  0  0  0  0  0  0  0  0  0  0  0
  -37.1183   57.3453   71.1571 H   0  0  0  0  0  0  0  0  0  0  0  0
  -35.6622   58.0094   71.9161 H   0  0  0  0  0  0  0  0  0  0  0  0
  -34.3043   57.0079   70.2400 H   0  0  0  0  0  0  0  0  0  0  0  0
  -35.7785   56.3483   69.4770 H   0  0  0  0  0  0  0  0  0  0  0  0
  -34.7577   55.6223   72.1645 H   0  0  0  0  0  0  0  0  0  0  0  0
  -34.5921   54.6735   70.6791 H   0  0  0  0  0  0  0  0  0  0  0  0
  -37.1577   55.4327   71.9809 H   0  0  0  0  0  0  0  0  0  0  0  0
  -36.3500   53.8382   72.0240 H   0  0  0  0  0  0  0  0  0  0  0  0
  -36.6649   53.5787   69.7048 H   0  0  0  0  0  0  0  0  0  0  0  0
  -37.4426   55.1724   69.6319 H   0  0  0  0  0  0  0  0  0  0  0  0
  -39.0328   53.4067   69.5700 H   0  0  0  0  0  0  0  0  0  0  0  0
  -39.1648   54.4166   71.0252 H   0  0  0  0  0  0  0  0  0  0  0  0
  -37.9308   51.7464   70.8606 H   0  0  0  0  0  0  0  0  0  0  0  0
  -39.4925   52.1337   71.5420 H   0  0  0  0  0  0  0  0  0  0  0  0
  -38.0377   52.7605   72.2795 H   0  0  0  0  0  0  0  0  0  0  0  0
  1  9  1  0  0  0  0
  1 11  1  0  0  0  0
  1 13  1  0  0  0  0
  1 15  1  0  0  0  0
  2  3  1  0  0  0  0
  2  5  1  0  0  0  0
  2 17  1  0  0  0  0
  2 36  1  1  0  0  0
  3 37  1  0  0  0  0
  4  6  1  0  0  0  0
  4  8  2  6  0  0  0
  4 10  1  0  0  0  0
  4 12  1  0  0  0  0
  5  6  1  0  0  0  0
  5 38  1  0  0  0  0
  5 39  1  0  0  0  0
  7  9  1  0  0  0  0
  7 10  1  0  0  0  0
  7 40  1  0  0  0  0
  7 41  1  0  0  0  0
  9 42  1  0  0  0  0
  9 43  1  0  0  0  0
 11 44  1  0  0  0  0
 11 45  1  0  0  0  0
 11 46  1  0  0  0  0
 12 47  1  0  0  0  0
 13 48  1  0  0  0  0
 13 49  1  0  0  0  0
 13 50  1  0  0  0  0
 14 17  1  0  0  0  0
 14 18  1  0  0  0  0
 15 51  1  0  0  0  0
 15 52  1  0  0  0  0
 15 53  1  0  0  0  0
 16 18  2  0  0  0  0
 17 54  1  0  0  0  0
 17 55  1  0  0  0  0
 18 19  1  0  0  0  0
 19 20  1  0  0  0  0
 19 56  1  0  0  0  0
 19 57  1  0  0  0  0
 20 21  1  0  0  0  0
 20 58  1  0  0  0  0
 20 59  1  0  0  0  0
 21 22  1  0  0  0  0
 21 60  1  0  0  0  0
 21 61  1  0  0  0  0
 22 23  1  0  0  0  0
 22 62  1  0  0  0  0
 22 63  1  0  0  0  0
 23 24  1  0  0  0  0
 23 64  1  0  0  0  0
 23 65  1  0  0  0  0
 24 25  1  0  0  0  0
 24 66  1  0  0  0  0
 24 67  1  0  0  0  0
 25 26  1  0  0  0  0
 25 68  1  0  0  0  0
 25 69  1  0  0  0  0
 26 27  2  0  0  0  0
 26 70  1  0  0  0  0
 27 28  1  0  0  0  0
 27 71  1  0  0  0  0
 28 29  1  0  0  0  0
 28 72  1  0  0  0  0
 28 73  1  0  0  0  0
 29 30  1  0  0  0  0
 29 74  1  0  0  0  0
 29 75  1  0  0  0  0
 30 31  1  0  0  0  0
 30 76  1  0  0  0  0
 30 77  1  0  0  0  0
 31 32  1  0  0  0  0
 31 78  1  0  0  0  0
 31 79  1  0  0  0  0
 32 33  1  0  0  0  0
 32 80  1  0  0  0  0
 32 81  1  0  0  0  0
 33 34  1  0  0  0  0
 33 82  1  0  0  0  0
 33 83  1  0  0  0  0
 34 35  1  0  0  0  0
 34 84  1  0  0  0  0
 34 85  1  0  0  0  0
 35 86  1  0  0  0  0
 35 87  1  0  0  0  0
 35 88  1  0  0  0  0
M  CHG  1   8  -1
M  END
$$$$