/media/chris/experiments/cd1a-new-docking/inputs/ligands/4x6c_ligand.pdb
 OpenBabel07012320263D

 88 87  0  0  1  0  0  0  0  0999 V2000
  -44.4253   62.8080   63.2252 N   0  0  0  0  0  4  0  0  0  0  0  0
  -41.6460   63.0181   68.5663 C   0  0  1  0  0  0  0  0  0  0  0  0
  -41.2444   64.0795   69.4324 O   0  0  0  0  0  0  0  0  0  0  0  0
  -41.2560   65.1102   65.2918 P   0  0  2  0  0  0  0  0  0  0  0  0
  -42.1237   63.6194   67.2668 C   0  0  0  0  0  0  0  0  0  0  0  0
  -41.0335   64.3516   66.6718 O   0  0  0  0  0  0  0  0  0  0  0  0
  -42.0468   63.7810   63.1718 C   0  0  0  0  0  0  0  0  0  0  0  0
  -42.6778   65.5064   65.2401 O   0  5  0  0  0  0  0  0  0  0  0  0
  -43.1861   63.2222   63.9936 C   0  0  0  0  0  0  0  0  0  0  0  0
  -40.9899   64.0823   64.1130 O   0  0  0  0  0  0  0  0  0  0  0  0
  -44.1122   61.7300   62.2379 C   0  0  0  0  0  0  0  0  0  0  0  0
  -40.2150   66.1532   65.2047 O   0  0  0  0  0  0  0  0  0  0  0  0
  -44.9737   63.9871   62.4873 C   0  0  0  0  0  0  0  0  0  0  0  0
  -40.9716   60.9836   67.5366 O   0  0  0  0  0  0  0  0  0  0  0  0
  -45.4594   62.2977   64.1790 C   0  0  0  0  0  0  0  0  0  0  0  0
  -41.0168   62.3219   65.7544 O   0  0  0  0  0  0  0  0  0  0  0  0
  -40.5172   62.0217   68.4332 C   0  0  0  0  0  0  0  0  0  0  0  0
  -40.9154   61.2318   66.2282 C   0  0  0  0  0  0  0  0  0  0  0  0
  -40.7200   59.9800   65.4370 C   0  0  0  0  0  0  0  0  0  0  0  0
  -42.0280   59.3300   65.0270 C   0  0  0  0  0  0  0  0  0  0  0  0
  -42.8960   58.9560   66.2090 C   0  0  0  0  0  0  0  0  0  0  0  0
  -44.2012   58.2902   65.8416 C   0  0  0  0  0  0  0  0  0  0  0  0
  -45.0623   57.9388   67.0279 C   0  0  0  0  0  0  0  0  0  0  0  0
  -44.3705   57.0027   67.9821 C   0  0  0  0  0  0  0  0  0  0  0  0
  -43.1025   57.5245   68.5905 C   0  0  0  0  0  0  0  0  0  0  0  0
  -43.2966   58.7466   69.3840 C   0  0  0  0  0  0  0  0  0  0  0  0
  -43.0427   58.9306   70.6609 C   0  0  0  0  0  0  0  0  0  0  0  0
  -42.4727   57.9593   71.6283 C   0  0  0  0  0  0  0  0  0  0  0  0
  -42.9232   58.1274   73.0650 C   0  0  0  0  0  0  0  0  0  0  0  0
  -44.4100   57.9721   73.2299 C   0  0  0  0  0  0  0  0  0  0  0  0
  -44.9513   56.6256   72.8226 C   0  0  0  0  0  0  0  0  0  0  0  0
  -46.4514   56.5266   72.9914 C   0  0  0  0  0  0  0  0  0  0  0  0
  -47.0447   55.1975   72.6153 C   0  0  0  0  0  0  0  0  0  0  0  0
  -46.7916   54.8247   71.2095 C   0  0  0  0  0  0  0  0  0  0  0  0
  -47.3806   53.5406   70.8347 C   0  0  0  0  0  0  0  0  0  0  0  0
  -42.4687   62.4600   68.9619 H   0  0  0  0  0  0  0  0  0  0  0  0
  -40.4989   64.5564   69.0352 H   0  0  0  0  0  0  0  0  0  0  0  0
  -42.9426   64.2818   67.4554 H   0  0  0  0  0  0  0  0  0  0  0  0
  -42.4501   62.8457   66.6036 H   0  0  0  0  0  0  0  0  0  0  0  0
  -42.3562   64.6697   62.6624 H   0  0  0  0  0  0  0  0  0  0  0  0
  -41.7224   63.0859   62.4258 H   0  0  0  0  0  0  0  0  0  0  0  0
  -42.8216   62.3611   64.5138 H   0  0  0  0  0  0  0  0  0  0  0  0
  -43.4987   64.0225   64.6313 H   0  0  0  0  0  0  0  0  0  0  0  0
  -43.3730   62.0815   61.5486 H   0  0  0  0  0  0  0  0  0  0  0  0
  -45.0011   61.4663   61.7039 H   0  0  0  0  0  0  0  0  0  0  0  0
  -43.7382   60.8709   62.7545 H   0  0  0  0  0  0  0  0  0  0  0  0
  -40.3472   66.8019   65.9136 H   0  0  0  0  0  0  0  0  0  0  0  0
  -44.2367   64.3546   61.8042 H   0  0  0  0  0  0  0  0  0  0  0  0
  -45.2290   64.7572   63.1849 H   0  0  0  0  0  0  0  0  0  0  0  0
  -45.8478   63.6932   61.9447 H   0  0  0  0  0  0  0  0  0  0  0  0
  -45.0702   61.4536   64.7089 H   0  0  0  0  0  0  0  0  0  0  0  0
  -46.3331   62.0054   63.6349 H   0  0  0  0  0  0  0  0  0  0  0  0
  -45.7143   63.0693   64.8751 H   0  0  0  0  0  0  0  0  0  0  0  0
  -40.2818   61.6038   69.3896 H   0  0  0  0  0  0  0  0  0  0  0  0
  -39.6349   62.4936   68.0541 H   0  0  0  0  0  0  0  0  0  0  0  0
  -40.1644   59.2843   66.0305 H   0  0  0  0  0  0  0  0  0  0  0  0
  -40.1985   60.2448   64.5410 H   0  0  0  0  0  0  0  0  0  0  0  0
  -41.8086   58.4429   64.4703 H   0  0  0  0  0  0  0  0  0  0  0  0
  -42.5713   60.0428   64.4426 H   0  0  0  0  0  0  0  0  0  0  0  0
  -43.1183   59.8483   66.7560 H   0  0  0  0  0  0  0  0  0  0  0  0
  -42.3406   58.2423   66.7808 H   0  0  0  0  0  0  0  0  0  0  0  0
  -43.9814   57.3901   65.3063 H   0  0  0  0  0  0  0  0  0  0  0  0
  -44.7539   58.9929   65.2537 H   0  0  0  0  0  0  0  0  0  0  0  0
  -45.9577   57.4707   66.6758 H   0  0  0  0  0  0  0  0  0  0  0  0
  -45.2749   58.8446   67.5562 H   0  0  0  0  0  0  0  0  0  0  0  0
  -44.1362   56.1039   67.4510 H   0  0  0  0  0  0  0  0  0  0  0  0
  -45.0496   56.8570   68.7961 H   0  0  0  0  0  0  0  0  0  0  0  0
  -42.4108   57.7378   67.8025 H   0  0  0  0  0  0  0  0  0  0  0  0
  -42.7370   56.7702   69.2555 H   0  0  0  0  0  0  0  0  0  0  0  0
  -43.6792   59.5598   68.8767 H   0  0  0  0  0  0  0  0  0  0  0  0
  -43.2673   59.8651   71.0369 H   0  0  0  0  0  0  0  0  0  0  0  0
  -41.4074   58.0562   71.6035 H   0  0  0  0  0  0  0  0  0  0  0  0
  -42.8260   56.9972   71.3207 H   0  0  0  0  0  0  0  0  0  0  0  0
  -42.6419   59.1040   73.3997 H   0  0  0  0  0  0  0  0  0  0  0  0
  -42.4523   57.3597   73.6429 H   0  0  0  0  0  0  0  0  0  0  0  0
  -44.8914   58.7191   72.6339 H   0  0  0  0  0  0  0  0  0  0  0  0
  -44.6106   58.0747   74.2759 H   0  0  0  0  0  0  0  0  0  0  0  0
  -44.4881   55.8732   73.4260 H   0  0  0  0  0  0  0  0  0  0  0  0
  -44.7323   56.4888   71.7842 H   0  0  0  0  0  0  0  0  0  0  0  0
  -46.9050   57.2780   72.3795 H   0  0  0  0  0  0  0  0  0  0  0  0
  -46.6450   56.6567   74.0357 H   0  0  0  0  0  0  0  0  0  0  0  0
  -48.1025   55.2411   72.7704 H   0  0  0  0  0  0  0  0  0  0  0  0
  -46.5786   54.4559   73.2298 H   0  0  0  0  0  0  0  0  0  0  0  0
  -45.7338   54.7697   71.0584 H   0  0  0  0  0  0  0  0  0  0  0  0
  -47.2492   55.5731   70.5969 H   0  0  0  0  0  0  0  0  0  0  0  0
  -46.9470   52.7627   71.4279 H   0  0  0  0  0  0  0  0  0  0  0  0
  -47.1889   53.3488   69.7997 H   0  0  0  0  0  0  0  0  0  0  0  0
  -48.4369   53.5702   71.0023 H   0  0  0  0  0  0  0  0  0  0  0  0
  1  9  1  0  0  0  0
  1 11  1  0  0  0  0
  1 13  1  0  0  0  0
  1 15  1  0  0  0  0
  2  3  1  0  0  0  0
  2  5  1  0  0  0  0
  2 17  1  0  0  0  0
  2 36  1  1  0  0  0
  3 37  1  0  0  0  0
  4  6  1  0  0  0  0
  4  8  2  6  0  0  0
  4 10  1  0  0  0  0
  4 12  1  0  0  0  0
  5  6  1  0  0  0  0
  5 38  1  0  0  0  0
  5 39  1  0  0  0  0
  7  9  1  0  0  0  0
  7 10  1  0  0  0  0
  7 40  1  0  0  0  0
  7 41  1  0  0  0  0
  9 42  1  0  0  0  0
  9 43  1  0  0  0  0
 11 44  1  0  0  0  0
 11 45  1  0  0  0  0
 11 46  1  0  0  0  0
 12 47  1  0  0  0  0
 13 48  1  0  0  0  0
 13 49  1  0  0  0  0
 13 50  1  0  0  0  0
 14 17  1  0  0  0  0
 14 18  1  0  0  0  0
 15 51  1  0  0  0  0
 15 52  1  0  0  0  0
 15 53  1  0  0  0  0
 16 18  2  0  0  0  0
 17 54  1  0  0  0  0
 17 55  1  0  0  0  0
 18 19  1  0  0  0  0
 19 20  1  0  0  0  0
 19 56  1  0  0  0  0
 19 57  1  0  0  0  0
 20 21  1  0  0  0  0
 20 58  1  0  0  0  0
 20 59  1  0  0  0  0
 21 22  1  0  0  0  0
 21 60  1  0  0  0  0
 21 61  1  0  0  0  0
 22 23  1  0  0  0  0
 22 62  1  0  0  0  0
 22 63  1  0  0  0  0
 23 24  1  0  0  0  0
 23 64  1  0  0  0  0
 23 65  1  0  0  0  0
 24 25  1  0  0  0  0
 24 66  1  0  0  0  0
 24 67  1  0  0  0  0
 25 26  1  0  0  0  0
 25 68  1  0  0  0  0
 25 69  1  0  0  0  0
 26 27  2  0  0  0  0
 26 70  1  0  0  0  0
 27 28  1  0  0  0  0
 27 71  1  0  0  0  0
 28 29  1  0  0  0  0
 28 72  1  0  0  0  0
 28 73  1  0  0  0  0
 29 30  1  0  0  0  0
 29 74  1  0  0  0  0
 29 75  1  0  0  0  0
 30 31  1  0  0  0  0
 30 76  1  0  0  0  0
 30 77  1  0  0  0  0
 31 32  1  0  0  0  0
 31 78  1  0  0  0  0
 31 79  1  0  0  0  0
 32 33  1  0  0  0  0
 32 80  1  0  0  0  0
 32 81  1  0  0  0  0
 33 34  1  0  0  0  0
 33 82  1  0  0  0  0
 33 83  1  0  0  0  0
 34 35  1  0  0  0  0
 34 84  1  0  0  0  0
 34 85  1  0  0  0  0
 35 86  1  0  0  0  0
 35 87  1  0  0  0  0
 35 88  1  0  0  0  0
M  CHG  1   8  -1
M  END
$$$$