/media/chris/experiments/cd1a-new-docking/inputs/ligands/4x6c_ligand.pdb
 OpenBabel07012320263D

 88 87  0  0  1  0  0  0  0  0999 V2000
  -35.8836   60.6161   70.8529 N   0  0  0  0  0  4  0  0  0  0  0  0
  -42.3304   63.6022   67.4813 C   0  0  1  0  0  0  0  0  0  0  0  0
  -43.5674   63.0172   67.8884 O   0  0  0  0  0  0  0  0  0  0  0  0
  -38.6755   63.4098   68.8436 P   0  0  2  0  0  0  0  0  0  0  0  0
  -41.2499   63.1365   68.4269 C   0  0  0  0  0  0  0  0  0  0  0  0
  -40.0015   63.7383   68.0293 O   0  0  0  0  0  0  0  0  0  0  0  0
  -36.6970   61.6949   68.6663 C   0  0  0  0  0  0  0  0  0  0  0  0
  -37.8074   64.6014   68.7562 O   0  5  0  0  0  0  0  0  0  0  0  0
  -37.0333   61.1960   70.0533 C   0  0  0  0  0  0  0  0  0  0  0  0
  -37.9342   62.2086   68.1192 O   0  0  0  0  0  0  0  0  0  0  0  0
  -34.8112   61.6344   71.0713 C   0  0  0  0  0  0  0  0  0  0  0  0
  -39.0988   62.9240   70.1717 O   0  0  0  0  0  0  0  0  0  0  0  0
  -35.2970   59.4551   70.1157 C   0  0  0  0  0  0  0  0  0  0  0  0
  -42.0474   61.8525   65.8962 O   0  0  0  0  0  0  0  0  0  0  0  0
  -36.3829   60.1535   72.1856 C   0  0  0  0  0  0  0  0  0  0  0  0
  -40.1534   61.6365   67.0519 O   0  0  0  0  0  0  0  0  0  0  0  0
  -42.0818   63.2915   66.0232 C   0  0  0  0  0  0  0  0  0  0  0  0
  -40.9154   61.2318   66.2282 C   0  0  0  0  0  0  0  0  0  0  0  0
  -40.7200   59.9800   65.4370 C   0  0  0  0  0  0  0  0  0  0  0  0
  -42.0280   59.3300   65.0270 C   0  0  0  0  0  0  0  0  0  0  0  0
  -42.8960   58.9560   66.2090 C   0  0  0  0  0  0  0  0  0  0  0  0
  -43.3110   60.1221   67.0749 C   0  0  0  0  0  0  0  0  0  0  0  0
  -44.1610   59.7323   68.2572 C   0  0  0  0  0  0  0  0  0  0  0  0
  -43.4497   58.7882   69.1890 C   0  0  0  0  0  0  0  0  0  0  0  0
  -42.1877   59.3181   69.8028 C   0  0  0  0  0  0  0  0  0  0  0  0
  -41.5222   58.3541   70.6911 C   0  0  0  0  0  0  0  0  0  0  0  0
  -40.7861   58.6056   71.7510 C   0  0  0  0  0  0  0  0  0  0  0  0
  -40.4540   59.9275   72.3399 C   0  0  0  0  0  0  0  0  0  0  0  0
  -40.9057   60.1371   73.7708 C   0  0  0  0  0  0  0  0  0  0  0  0
  -40.5525   61.5007   74.2980 C   0  0  0  0  0  0  0  0  0  0  0  0
  -39.0785   61.8156   74.2919 C   0  0  0  0  0  0  0  0  0  0  0  0
  -38.2719   60.8397   75.1200 C   0  0  0  0  0  0  0  0  0  0  0  0
  -38.6590   60.7690   76.5708 C   0  0  0  0  0  0  0  0  0  0  0  0
  -38.5312   62.0626   77.2704 C   0  0  0  0  0  0  0  0  0  0  0  0
  -38.8909   61.9951   78.6854 C   0  0  0  0  0  0  0  0  0  0  0  0
  -42.3464   64.6703   67.5426 H   0  0  0  0  0  0  0  0  0  0  0  0
  -43.5075   62.0517   67.8169 H   0  0  0  0  0  0  0  0  0  0  0  0
  -41.1667   62.0706   68.3827 H   0  0  0  0  0  0  0  0  0  0  0  0
  -41.4918   63.4234   69.4289 H   0  0  0  0  0  0  0  0  0  0  0  0
  -36.3273   60.8931   68.0618 H   0  0  0  0  0  0  0  0  0  0  0  0
  -35.9367   62.4473   68.6929 H   0  0  0  0  0  0  0  0  0  0  0  0
  -37.4344   62.0186   70.6077 H   0  0  0  0  0  0  0  0  0  0  0  0
  -37.7182   60.3868   69.9083 H   0  0  0  0  0  0  0  0  0  0  0  0
  -34.4443   61.9745   70.1255 H   0  0  0  0  0  0  0  0  0  0  0  0
  -34.0098   61.1948   71.6275 H   0  0  0  0  0  0  0  0  0  0  0  0
  -35.2118   62.4629   71.6173 H   0  0  0  0  0  0  0  0  0  0  0  0
  -39.5577   63.6355   70.6451 H   0  0  0  0  0  0  0  0  0  0  0  0
  -34.9389   59.7824   69.1620 H   0  0  0  0  0  0  0  0  0  0  0  0
  -36.0472   58.7050   69.9767 H   0  0  0  0  0  0  0  0  0  0  0  0
  -34.4851   59.0472   70.6808 H   0  0  0  0  0  0  0  0  0  0  0  0
  -36.8035   60.9821   72.7161 H   0  0  0  0  0  0  0  0  0  0  0  0
  -35.5700   59.7450   72.7489 H   0  0  0  0  0  0  0  0  0  0  0  0
  -37.1322   59.4027   72.0448 H   0  0  0  0  0  0  0  0  0  0  0  0
  -41.1472   63.7099   65.7127 H   0  0  0  0  0  0  0  0  0  0  0  0
  -42.8504   63.7102   65.4077 H   0  0  0  0  0  0  0  0  0  0  0  0
  -40.1644   59.2843   66.0305 H   0  0  0  0  0  0  0  0  0  0  0  0
  -40.1985   60.2448   64.5410 H   0  0  0  0  0  0  0  0  0  0  0  0
  -41.8086   58.4429   64.4703 H   0  0  0  0  0  0  0  0  0  0  0  0
  -42.5713   60.0428   64.4426 H   0  0  0  0  0  0  0  0  0  0  0  0
  -42.3518   58.2646   66.8179 H   0  0  0  0  0  0  0  0  0  0  0  0
  -43.7960   58.5403   65.8064 H   0  0  0  0  0  0  0  0  0  0  0  0
  -43.8675   60.8086   66.4716 H   0  0  0  0  0  0  0  0  0  0  0  0
  -42.4135   60.5536   67.4661 H   0  0  0  0  0  0  0  0  0  0  0  0
  -45.0502   59.2568   67.8993 H   0  0  0  0  0  0  0  0  0  0  0  0
  -44.3860   60.6234   68.8051 H   0  0  0  0  0  0  0  0  0  0  0  0
  -43.2032   57.9044   68.6385 H   0  0  0  0  0  0  0  0  0  0  0  0
  -44.1226   58.6146   70.0027 H   0  0  0  0  0  0  0  0  0  0  0  0
  -42.4276   60.1929   70.3703 H   0  0  0  0  0  0  0  0  0  0  0  0
  -41.5108   59.5295   69.0015 H   0  0  0  0  0  0  0  0  0  0  0  0
  -41.6483   57.3578   70.4535 H   0  0  0  0  0  0  0  0  0  0  0  0
  -40.3905   57.7832   72.2328 H   0  0  0  0  0  0  0  0  0  0  0  0
  -40.9128   60.6820   71.7357 H   0  0  0  0  0  0  0  0  0  0  0  0
  -39.3855   59.9801   72.3590 H   0  0  0  0  0  0  0  0  0  0  0  0
  -40.4379   59.3996   74.3888 H   0  0  0  0  0  0  0  0  0  0  0  0
  -41.9721   60.0503   73.7887 H   0  0  0  0  0  0  0  0  0  0  0  0
  -40.9039   61.5696   75.3063 H   0  0  0  0  0  0  0  0  0  0  0  0
  -41.0155   62.2078   73.6418 H   0  0  0  0  0  0  0  0  0  0  0  0
  -38.9366   62.7996   74.6873 H   0  0  0  0  0  0  0  0  0  0  0  0
  -38.7358   61.7434   73.2809 H   0  0  0  0  0  0  0  0  0  0  0  0
  -37.2429   61.1277   75.0642 H   0  0  0  0  0  0  0  0  0  0  0  0
  -38.4632   59.8696   74.7109 H   0  0  0  0  0  0  0  0  0  0  0  0
  -38.0270   60.0555   77.0571 H   0  0  0  0  0  0  0  0  0  0  0  0
  -39.6901   60.4860   76.6114 H   0  0  0  0  0  0  0  0  0  0  0  0
  -39.1724   62.7724   76.7909 H   0  0  0  0  0  0  0  0  0  0  0  0
  -37.5015   62.3490   77.2194 H   0  0  0  0  0  0  0  0  0  0  0  0
  -39.9180   61.7104   78.7791 H   0  0  0  0  0  0  0  0  0  0  0  0
  -38.7439   62.9539   79.1369 H   0  0  0  0  0  0  0  0  0  0  0  0
  -38.2740   61.2714   79.1761 H   0  0  0  0  0  0  0  0  0  0  0  0
  1  9  1  0  0  0  0
  1 11  1  0  0  0  0
  1 13  1  0  0  0  0
  1 15  1  0  0  0  0
  2  3  1  0  0  0  0
  2  5  1  0  0  0  0
  2 17  1  0  0  0  0
  2 36  1  1  0  0  0
  3 37  1  0  0  0  0
  4  6  1  0  0  0  0
  4  8  2  1  0  0  0
  4 10  1  0  0  0  0
  4 12  1  0  0  0  0
  5  6  1  0  0  0  0
  5 38  1  0  0  0  0
  5 39  1  0  0  0  0
  7  9  1  0  0  0  0
  7 10  1  0  0  0  0
  7 40  1  0  0  0  0
  7 41  1  0  0  0  0
  9 42  1  0  0  0  0
  9 43  1  0  0  0  0
 11 44  1  0  0  0  0
 11 45  1  0  0  0  0
 11 46  1  0  0  0  0
 12 47  1  0  0  0  0
 13 48  1  0  0  0  0
 13 49  1  0  0  0  0
 13 50  1  0  0  0  0
 14 17  1  0  0  0  0
 14 18  1  0  0  0  0
 15 51  1  0  0  0  0
 15 52  1  0  0  0  0
 15 53  1  0  0  0  0
 16 18  2  0  0  0  0
 17 54  1  0  0  0  0
 17 55  1  0  0  0  0
 18 19  1  0  0  0  0
 19 20  1  0  0  0  0
 19 56  1  0  0  0  0
 19 57  1  0  0  0  0
 20 21  1  0  0  0  0
 20 58  1  0  0  0  0
 20 59  1  0  0  0  0
 21 22  1  0  0  0  0
 21 60  1  0  0  0  0
 21 61  1  0  0  0  0
 22 23  1  0  0  0  0
 22 62  1  0  0  0  0
 22 63  1  0  0  0  0
 23 24  1  0  0  0  0
 23 64  1  0  0  0  0
 23 65  1  0  0  0  0
 24 25  1  0  0  0  0
 24 66  1  0  0  0  0
 24 67  1  0  0  0  0
 25 26  1  0  0  0  0
 25 68  1  0  0  0  0
 25 69  1  0  0  0  0
 26 27  2  0  0  0  0
 26 70  1  0  0  0  0
 27 28  1  0  0  0  0
 27 71  1  0  0  0  0
 28 29  1  0  0  0  0
 28 72  1  0  0  0  0
 28 73  1  0  0  0  0
 29 30  1  0  0  0  0
 29 74  1  0  0  0  0
 29 75  1  0  0  0  0
 30 31  1  0  0  0  0
 30 76  1  0  0  0  0
 30 77  1  0  0  0  0
 31 32  1  0  0  0  0
 31 78  1  0  0  0  0
 31 79  1  0  0  0  0
 32 33  1  0  0  0  0
 32 80  1  0  0  0  0
 32 81  1  0  0  0  0
 33 34  1  0  0  0  0
 33 82  1  0  0  0  0
 33 83  1  0  0  0  0
 34 35  1  0  0  0  0
 34 84  1  0  0  0  0
 34 85  1  0  0  0  0
 35 86  1  0  0  0  0
 35 87  1  0  0  0  0
 35 88  1  0  0  0  0
M  CHG  1   8  -1
M  END
$$$$