/media/chris/experiments/cd1a-new-docking/inputs/ligands/4x6c_ligand.pdb
 OpenBabel07012320263D

 88 87  0  0  1  0  0  0  0  0999 V2000
  -44.8005   69.2040   69.0203 N   0  0  0  0  0  4  0  0  0  0  0  0
  -41.9236   62.5547   68.5186 C   0  0  1  0  0  0  0  0  0  0  0  0
  -40.5065   62.4366   68.3920 O   0  0  0  0  0  0  0  0  0  0  0  0
  -44.5524   64.0820   68.3408 P   0  0  2  0  0  0  0  0  0  0  0  0
  -42.2233   63.6816   69.4770 C   0  0  0  0  0  0  0  0  0  0  0  0
  -43.6536   63.7935   69.6207 O   0  0  0  0  0  0  0  0  0  0  0  0
  -44.4406   66.6818   68.6804 C   0  0  0  0  0  0  0  0  0  0  0  0
  -43.6396   64.1801   67.1840 O   0  5  0  0  0  0  0  0  0  0  0  0
  -45.4119   67.8262   68.8608 C   0  0  0  0  0  0  0  0  0  0  0  0
  -45.2521   65.4926   68.5346 O   0  0  0  0  0  0  0  0  0  0  0  0
  -43.8935   69.2571   70.2075 C   0  0  0  0  0  0  0  0  0  0  0  0
  -45.6204   63.0630   68.3300 O   0  0  0  0  0  0  0  0  0  0  0  0
  -45.8867   70.2151   69.2034 C   0  0  0  0  0  0  0  0  0  0  0  0
  -42.2078   61.5072   66.4029 O   0  0  0  0  0  0  0  0  0  0  0  0
  -44.0087   69.5458   67.7974 C   0  0  0  0  0  0  0  0  0  0  0  0
  -40.0293   61.9106   66.6489 O   0  0  0  0  0  0  0  0  0  0  0  0
  -42.5416   62.7001   67.1470 C   0  0  0  0  0  0  0  0  0  0  0  0
  -40.9154   61.2318   66.2282 C   0  0  0  0  0  0  0  0  0  0  0  0
  -40.7200   59.9800   65.4370 C   0  0  0  0  0  0  0  0  0  0  0  0
  -42.0280   59.3300   65.0270 C   0  0  0  0  0  0  0  0  0  0  0  0
  -42.8960   58.9560   66.2090 C   0  0  0  0  0  0  0  0  0  0  0  0
  -44.2012   58.2902   65.8416 C   0  0  0  0  0  0  0  0  0  0  0  0
  -44.0348   56.9933   65.0915 C   0  0  0  0  0  0  0  0  0  0  0  0
  -43.2785   57.1689   63.8021 C   0  0  0  0  0  0  0  0  0  0  0  0
  -43.0884   55.9208   62.9919 C   0  0  0  0  0  0  0  0  0  0  0  0
  -42.3307   56.1409   61.7515 C   0  0  0  0  0  0  0  0  0  0  0  0
  -41.0305   56.0623   61.5733 C   0  0  0  0  0  0  0  0  0  0  0  0
  -39.9911   55.7086   62.5728 C   0  0  0  0  0  0  0  0  0  0  0  0
  -40.4374   54.7697   63.6749 C   0  0  0  0  0  0  0  0  0  0  0  0
  -39.3418   54.4673   64.6600 C   0  0  0  0  0  0  0  0  0  0  0  0
  -39.7339   53.5228   65.7672 C   0  0  0  0  0  0  0  0  0  0  0  0
  -40.8895   54.0429   66.5935 C   0  0  0  0  0  0  0  0  0  0  0  0
  -40.6432   55.3650   67.2652 C   0  0  0  0  0  0  0  0  0  0  0  0
  -41.7879   55.8285   68.0739 C   0  0  0  0  0  0  0  0  0  0  0  0
  -41.5591   57.1215   68.7158 C   0  0  0  0  0  0  0  0  0  0  0  0
  -42.3688   61.6758   68.9361 H   0  0  0  0  0  0  0  0  0  0  0  0
  -40.1468   63.2529   68.0109 H   0  0  0  0  0  0  0  0  0  0  0  0
  -41.8267   64.5977   69.0919 H   0  0  0  0  0  0  0  0  0  0  0  0
  -41.7744   63.4827   70.4277 H   0  0  0  0  0  0  0  0  0  0  0  0
  -43.8040   66.5954   69.5361 H   0  0  0  0  0  0  0  0  0  0  0  0
  -43.8087   66.8330   67.8303 H   0  0  0  0  0  0  0  0  0  0  0  0
  -46.0513   67.8500   68.0032 H   0  0  0  0  0  0  0  0  0  0  0  0
  -45.9185   67.6292   69.7825 H   0  0  0  0  0  0  0  0  0  0  0  0
  -44.4471   69.0145   71.0904 H   0  0  0  0  0  0  0  0  0  0  0  0
  -43.4861   70.2420   70.3014 H   0  0  0  0  0  0  0  0  0  0  0  0
  -43.0982   68.5527   70.0805 H   0  0  0  0  0  0  0  0  0  0  0  0
  -45.2274   62.1840   68.2128 H   0  0  0  0  0  0  0  0  0  0  0  0
  -46.4551   69.9737   70.0772 H   0  0  0  0  0  0  0  0  0  0  0  0
  -46.5285   70.2080   68.3473 H   0  0  0  0  0  0  0  0  0  0  0  0
  -45.4538   71.1870   69.3167 H   0  0  0  0  0  0  0  0  0  0  0  0
  -43.2302   68.8240   67.6633 H   0  0  0  0  0  0  0  0  0  0  0  0
  -43.5775   70.5183   67.9120 H   0  0  0  0  0  0  0  0  0  0  0  0
  -44.6521   69.5394   66.9425 H   0  0  0  0  0  0  0  0  0  0  0  0
  -42.1443   63.5631   66.6548 H   0  0  0  0  0  0  0  0  0  0  0  0
  -43.6024   62.8210   67.2177 H   0  0  0  0  0  0  0  0  0  0  0  0
  -40.1644   59.2843   66.0305 H   0  0  0  0  0  0  0  0  0  0  0  0
  -40.1985   60.2448   64.5410 H   0  0  0  0  0  0  0  0  0  0  0  0
  -41.8086   58.4429   64.4703 H   0  0  0  0  0  0  0  0  0  0  0  0
  -42.5713   60.0428   64.4426 H   0  0  0  0  0  0  0  0  0  0  0  0
  -43.1183   59.8483   66.7560 H   0  0  0  0  0  0  0  0  0  0  0  0
  -42.3406   58.2423   66.7808 H   0  0  0  0  0  0  0  0  0  0  0  0
  -44.7626   58.9643   65.2288 H   0  0  0  0  0  0  0  0  0  0  0  0
  -44.7001   58.0569   66.7589 H   0  0  0  0  0  0  0  0  0  0  0  0
  -45.0040   56.5976   64.8702 H   0  0  0  0  0  0  0  0  0  0  0  0
  -43.4718   56.3277   65.7118 H   0  0  0  0  0  0  0  0  0  0  0  0
  -42.3108   57.5600   64.0377 H   0  0  0  0  0  0  0  0  0  0  0  0
  -43.8722   57.8238   63.1992 H   0  0  0  0  0  0  0  0  0  0  0  0
  -44.0520   55.5319   62.7365 H   0  0  0  0  0  0  0  0  0  0  0  0
  -42.5230   55.2379   63.5910 H   0  0  0  0  0  0  0  0  0  0  0  0
  -42.8878   56.3874   60.9184 H   0  0  0  0  0  0  0  0  0  0  0  0
  -40.6906   56.2722   60.6218 H   0  0  0  0  0  0  0  0  0  0  0  0
  -39.6512   56.6146   63.0294 H   0  0  0  0  0  0  0  0  0  0  0  0
  -39.2301   55.1856   62.0321 H   0  0  0  0  0  0  0  0  0  0  0  0
  -40.7619   53.8515   63.2316 H   0  0  0  0  0  0  0  0  0  0  0  0
  -41.2283   55.2526   64.2098 H   0  0  0  0  0  0  0  0  0  0  0  0
  -39.0287   55.3893   65.1036 H   0  0  0  0  0  0  0  0  0  0  0  0
  -38.5649   53.9806   64.1083 H   0  0  0  0  0  0  0  0  0  0  0  0
  -38.8905   53.3789   66.4098 H   0  0  0  0  0  0  0  0  0  0  0  0
  -40.0463   52.6048   65.3147 H   0  0  0  0  0  0  0  0  0  0  0  0
  -41.1075   53.3203   67.3519 H   0  0  0  0  0  0  0  0  0  0  0  0
  -41.6993   54.1991   65.9118 H   0  0  0  0  0  0  0  0  0  0  0  0
  -40.4408   56.0970   66.5114 H   0  0  0  0  0  0  0  0  0  0  0  0
  -39.8157   55.2342   67.9309 H   0  0  0  0  0  0  0  0  0  0  0  0
  -41.9821   55.1017   68.8348 H   0  0  0  0  0  0  0  0  0  0  0  0
  -42.6170   55.9485   67.4083 H   0  0  0  0  0  0  0  0  0  0  0  0
  -40.7339   57.0428   69.3923 H   0  0  0  0  0  0  0  0  0  0  0  0
  -42.4362   57.4120   69.2554 H   0  0  0  0  0  0  0  0  0  0  0  0
  -41.3398   57.8563   67.9696 H   0  0  0  0  0  0  0  0  0  0  0  0
  1  9  1  0  0  0  0
  1 11  1  0  0  0  0
  1 13  1  0  0  0  0
  1 15  1  0  0  0  0
  2  3  1  0  0  0  0
  2  5  1  0  0  0  0
  2 17  1  0  0  0  0
  2 36  1  1  0  0  0
  3 37  1  0  0  0  0
  4  6  1  0  0  0  0
  4  8  2  6  0  0  0
  4 10  1  0  0  0  0
  4 12  1  0  0  0  0
  5  6  1  0  0  0  0
  5 38  1  0  0  0  0
  5 39  1  0  0  0  0
  7  9  1  0  0  0  0
  7 10  1  0  0  0  0
  7 40  1  0  0  0  0
  7 41  1  0  0  0  0
  9 42  1  0  0  0  0
  9 43  1  0  0  0  0
 11 44  1  0  0  0  0
 11 45  1  0  0  0  0
 11 46  1  0  0  0  0
 12 47  1  0  0  0  0
 13 48  1  0  0  0  0
 13 49  1  0  0  0  0
 13 50  1  0  0  0  0
 14 17  1  0  0  0  0
 14 18  1  0  0  0  0
 15 51  1  0  0  0  0
 15 52  1  0  0  0  0
 15 53  1  0  0  0  0
 16 18  2  0  0  0  0
 17 54  1  0  0  0  0
 17 55  1  0  0  0  0
 18 19  1  0  0  0  0
 19 20  1  0  0  0  0
 19 56  1  0  0  0  0
 19 57  1  0  0  0  0
 20 21  1  0  0  0  0
 20 58  1  0  0  0  0
 20 59  1  0  0  0  0
 21 22  1  0  0  0  0
 21 60  1  0  0  0  0
 21 61  1  0  0  0  0
 22 23  1  0  0  0  0
 22 62  1  0  0  0  0
 22 63  1  0  0  0  0
 23 24  1  0  0  0  0
 23 64  1  0  0  0  0
 23 65  1  0  0  0  0
 24 25  1  0  0  0  0
 24 66  1  0  0  0  0
 24 67  1  0  0  0  0
 25 26  1  0  0  0  0
 25 68  1  0  0  0  0
 25 69  1  0  0  0  0
 26 27  2  0  0  0  0
 26 70  1  0  0  0  0
 27 28  1  0  0  0  0
 27 71  1  0  0  0  0
 28 29  1  0  0  0  0
 28 72  1  0  0  0  0
 28 73  1  0  0  0  0
 29 30  1  0  0  0  0
 29 74  1  0  0  0  0
 29 75  1  0  0  0  0
 30 31  1  0  0  0  0
 30 76  1  0  0  0  0
 30 77  1  0  0  0  0
 31 32  1  0  0  0  0
 31 78  1  0  0  0  0
 31 79  1  0  0  0  0
 32 33  1  0  0  0  0
 32 80  1  0  0  0  0
 32 81  1  0  0  0  0
 33 34  1  0  0  0  0
 33 82  1  0  0  0  0
 33 83  1  0  0  0  0
 34 35  1  0  0  0  0
 34 84  1  0  0  0  0
 34 85  1  0  0  0  0
 35 86  1  0  0  0  0
 35 87  1  0  0  0  0
 35 88  1  0  0  0  0
M  CHG  1   8  -1
M  END
$$$$